# generated using pymatgen
data_BaV2CdO7
_symmetry_space_group_name_H-M   'P 1'
_cell_length_a   5.79913200
_cell_length_b   7.64168100
_cell_length_c   15.66156900
_cell_angle_alpha   90.00000000
_cell_angle_beta   90.00000000
_cell_angle_gamma   90.00000000
_symmetry_Int_Tables_number   1
_chemical_formula_structural   BaV2CdO7
_chemical_formula_sum   'Ba4 V8 Cd4 O28'
_cell_volume   694.04425983
_cell_formula_units_Z   4
loop_
 _symmetry_equiv_pos_site_id
 _symmetry_equiv_pos_as_xyz
  1  'x, y, z'
loop_
 _atom_site_type_symbol
 _atom_site_label
 _atom_site_symmetry_multiplicity
 _atom_site_fract_x
 _atom_site_fract_y
 _atom_site_fract_z
 _atom_site_occupancy
  Ba  Ba0  1  0.25000000  0.35970800  0.78532100  1
  Ba  Ba1  1  0.75000000  0.64029200  0.21467900  1
  Ba  Ba2  1  0.75000000  0.85970800  0.71467900  1
  Ba  Ba3  1  0.25000000  0.14029200  0.28532100  1
  V  V4  1  0.25000000  0.79744200  0.06127400  1
  V  V5  1  0.75000000  0.20255800  0.93872600  1
  V  V6  1  0.75000000  0.29744200  0.43872600  1
  V  V7  1  0.25000000  0.70255800  0.56127400  1
  V  V8  1  0.25000000  0.83384000  0.85972100  1
  V  V9  1  0.75000000  0.16616000  0.14027900  1
  V  V10  1  0.75000000  0.33384000  0.64027900  1
  V  V11  1  0.25000000  0.66616000  0.35972100  1
  Cd  Cd12  1  0.25000000  0.11750100  0.55092100  1
  Cd  Cd13  1  0.75000000  0.88249900  0.44907900  1
  Cd  Cd14  1  0.75000000  0.61750100  0.94907900  1
  Cd  Cd15  1  0.25000000  0.38249900  0.05092100  1
  O  O16  1  0.25000000  0.91315900  0.15213100  1
  O  O17  1  0.75000000  0.08684100  0.84786900  1
  O  O18  1  0.75000000  0.41315900  0.34786900  1
  O  O19  1  0.25000000  0.58684100  0.65213100  1
  O  O20  1  0.99095200  0.34151300  0.94091500  1
  O  O21  1  0.49095200  0.65848700  0.05908500  1
  O  O22  1  0.00904800  0.84151300  0.55908500  1
  O  O23  1  0.50904800  0.15848700  0.44091500  1
  O  O24  1  0.00904800  0.65848700  0.05908500  1
  O  O25  1  0.50904800  0.34151300  0.94091500  1
  O  O26  1  0.99095200  0.15848700  0.44091500  1
  O  O27  1  0.49095200  0.84151300  0.55908500  1
  O  O28  1  0.25000000  0.93336100  0.96615800  1
  O  O29  1  0.75000000  0.06663900  0.03384200  1
  O  O30  1  0.75000000  0.43336100  0.53384200  1
  O  O31  1  0.25000000  0.56663900  0.46615800  1
  O  O32  1  0.49061600  0.79920700  0.34881100  1
  O  O33  1  0.99061600  0.20079300  0.65118900  1
  O  O34  1  0.50938400  0.29920700  0.15118900  1
  O  O35  1  0.00938400  0.70079300  0.84881100  1
  O  O36  1  0.50938400  0.20079300  0.65118900  1
  O  O37  1  0.00938400  0.79920700  0.34881100  1
  O  O38  1  0.49061600  0.70079300  0.84881100  1
  O  O39  1  0.99061600  0.29920700  0.15118900  1
  O  O40  1  0.25000000  0.51803000  0.27960000  1
  O  O41  1  0.75000000  0.48197000  0.72040000  1
  O  O42  1  0.75000000  0.01803000  0.22040000  1
  O  O43  1  0.25000000  0.98197000  0.77960000  1
