# generated using pymatgen
data_FeCl3
_symmetry_space_group_name_H-M   'P 1'
_cell_length_a   7.26846303
_cell_length_b   7.26846303
_cell_length_c   7.26846332
_cell_angle_alpha   48.16556751
_cell_angle_beta   48.16556751
_cell_angle_gamma   48.16556642
_symmetry_Int_Tables_number   1
_chemical_formula_structural   FeCl3
_chemical_formula_sum   'Fe2 Cl6'
_cell_volume   195.36393615
_cell_formula_units_Z   2
loop_
 _symmetry_equiv_pos_site_id
 _symmetry_equiv_pos_as_xyz
  1  'x, y, z'
loop_
 _atom_site_type_symbol
 _atom_site_label
 _atom_site_symmetry_multiplicity
 _atom_site_fract_x
 _atom_site_fract_y
 _atom_site_fract_z
 _atom_site_occupancy
  Fe  Fe0  1  0.33332100  0.33332100  0.33332100  1
  Fe  Fe1  1  0.66667900  0.66667900  0.66667900  1
  Cl  Cl2  1  0.69319200  0.44033400  0.06666600  1
  Cl  Cl3  1  0.44033400  0.06666600  0.69319200  1
  Cl  Cl4  1  0.93333400  0.30680800  0.55966600  1
  Cl  Cl5  1  0.55966600  0.93333400  0.30680800  1
  Cl  Cl6  1  0.30680800  0.55966600  0.93333400  1
  Cl  Cl7  1  0.06666600  0.69319200  0.44033400  1
