# generated using pymatgen
data_ThBr4
_symmetry_space_group_name_H-M   'P 1'
_cell_length_a   7.60244460
_cell_length_b   7.60244460
_cell_length_c   7.60244460
_cell_angle_alpha   107.14418842
_cell_angle_beta   107.14418842
_cell_angle_gamma   114.23280749
_symmetry_Int_Tables_number   1
_chemical_formula_structural   ThBr4
_chemical_formula_sum   'Th2 Br8'
_cell_volume   336.48297792
_cell_formula_units_Z   2
loop_
 _symmetry_equiv_pos_site_id
 _symmetry_equiv_pos_as_xyz
  1  'x, y, z'
loop_
 _atom_site_type_symbol
 _atom_site_label
 _atom_site_symmetry_multiplicity
 _atom_site_fract_x
 _atom_site_fract_y
 _atom_site_fract_z
 _atom_site_occupancy
  Th  Th0  1  0.25000000  0.75000000  0.50000000  1
  Th  Th1  1  0.00000000  0.00000000  0.00000000  1
  Br  Br2  1  0.93019800  0.24395800  0.31376000  1
  Br  Br3  1  0.86643700  0.68019800  0.18624000  1
  Br  Br4  1  0.38356300  0.06980200  0.31376000  1
  Br  Br5  1  0.31980200  0.50604200  0.18624000  1
  Br  Br6  1  0.31980200  0.13356300  0.81376000  1
  Br  Br7  1  0.75604200  0.06980200  0.68624000  1
  Br  Br8  1  0.93019800  0.61643700  0.68624000  1
  Br  Br9  1  0.49395800  0.68019800  0.81376000  1
