# generated using pymatgen
data_LiMnF5
_symmetry_space_group_name_H-M   'P 1'
_cell_length_a   8.25319756
_cell_length_b   6.39328300
_cell_length_c   7.37144674
_cell_angle_alpha   90.00000000
_cell_angle_beta   63.79869768
_cell_angle_gamma   90.00000000
_symmetry_Int_Tables_number   1
_chemical_formula_structural   LiMnF5
_chemical_formula_sum   'Li4 Mn4 F20'
_cell_volume   348.98885884
_cell_formula_units_Z   4
loop_
 _symmetry_equiv_pos_site_id
 _symmetry_equiv_pos_as_xyz
  1  'x, y, z'
loop_
 _atom_site_type_symbol
 _atom_site_label
 _atom_site_symmetry_multiplicity
 _atom_site_fract_x
 _atom_site_fract_y
 _atom_site_fract_z
 _atom_site_occupancy
  Li  Li0  1  0.00041600  0.52239400  0.24848000  1
  Li  Li1  1  0.49958400  0.02239400  0.75152000  1
  Li  Li2  1  0.50041600  0.97760600  0.24848000  1
  Li  Li3  1  0.99958400  0.47760600  0.75152000  1
  Mn  Mn4  1  0.00000000  0.00000000  0.50000000  1
  Mn  Mn5  1  0.00000000  0.00000000  0.00000000  1
  Mn  Mn6  1  0.50000000  0.50000000  0.50000000  1
  Mn  Mn7  1  0.50000000  0.50000000  0.00000000  1
  F  F8  1  0.02014600  0.27799100  0.94234300  1
  F  F9  1  0.24305700  0.97305400  0.88784900  1
  F  F10  1  0.01645400  0.72176800  0.44276800  1
  F  F11  1  0.99663600  0.08060800  0.25168600  1
  F  F12  1  0.25672100  0.52373900  0.61830100  1
  F  F13  1  0.52014600  0.22200900  0.94234300  1
  F  F14  1  0.24327900  0.02373900  0.38170000  1
  F  F15  1  0.50336400  0.58060800  0.74831400  1
  F  F16  1  0.48354600  0.22176800  0.55723200  1
  F  F17  1  0.74305700  0.52694600  0.88784900  1
  F  F18  1  0.25694300  0.47305400  0.11215100  1
  F  F19  1  0.51645400  0.77823200  0.44276800  1
  F  F20  1  0.49663600  0.41939200  0.25168600  1
  F  F21  1  0.75672100  0.97626100  0.61830100  1
  F  F22  1  0.47985400  0.77799100  0.05765700  1
  F  F23  1  0.74327900  0.47626100  0.38170000  1
  F  F24  1  0.00336400  0.91939200  0.74831400  1
  F  F25  1  0.98354600  0.27823200  0.55723200  1
  F  F26  1  0.75694300  0.02694600  0.11215100  1
  F  F27  1  0.97985400  0.72200900  0.05765700  1
