# generated using pymatgen
data_BaBiO3
_symmetry_space_group_name_H-M   'P 1'
_cell_length_a   6.21952628
_cell_length_b   6.21952628
_cell_length_c   6.21952601
_cell_angle_alpha   60.59562958
_cell_angle_beta   60.59562958
_cell_angle_gamma   60.59562934
_symmetry_Int_Tables_number   1
_chemical_formula_structural   BaBiO3
_chemical_formula_sum   'Ba2 Bi2 O6'
_cell_volume   172.40918598
_cell_formula_units_Z   2
loop_
 _symmetry_equiv_pos_site_id
 _symmetry_equiv_pos_as_xyz
  1  'x, y, z'
loop_
 _atom_site_type_symbol
 _atom_site_label
 _atom_site_symmetry_multiplicity
 _atom_site_fract_x
 _atom_site_fract_y
 _atom_site_fract_z
 _atom_site_occupancy
  Ba  Ba0  1  0.24969000  0.24969000  0.24969000  1
  Ba  Ba1  1  0.75031000  0.75031000  0.75031000  1
  Bi  Bi2  1  0.00000000  0.00000000  0.00000000  1
  Bi  Bi3  1  0.50000000  0.50000000  0.50000000  1
  O  O4  1  0.69538200  0.24045700  0.82038800  1
  O  O5  1  0.82038800  0.69538200  0.24045700  1
  O  O6  1  0.24045700  0.82038800  0.69538200  1
  O  O7  1  0.30461800  0.75954300  0.17961200  1
  O  O8  1  0.75954300  0.17961200  0.30461800  1
  O  O9  1  0.17961200  0.30461800  0.75954300  1
