# generated using pymatgen
data_Rb2CuCl4
_symmetry_space_group_name_H-M   'P 1'
_cell_length_a   8.71632425
_cell_length_b   8.71632425
_cell_length_c   7.19260400
_cell_angle_alpha   90.00000000
_cell_angle_beta   90.00000000
_cell_angle_gamma   131.30521999
_symmetry_Int_Tables_number   1
_chemical_formula_structural   Rb2CuCl4
_chemical_formula_sum   'Rb4 Cu2 Cl8'
_cell_volume   410.49776533
_cell_formula_units_Z   2
loop_
 _symmetry_equiv_pos_site_id
 _symmetry_equiv_pos_as_xyz
  1  'x, y, z'
loop_
 _atom_site_type_symbol
 _atom_site_label
 _atom_site_symmetry_multiplicity
 _atom_site_fract_x
 _atom_site_fract_y
 _atom_site_fract_z
 _atom_site_occupancy
  Rb  Rb0  1  0.13930800  0.86069200  0.50000000  1
  Rb  Rb1  1  0.63930800  0.36069200  0.00000000  1
  Rb  Rb2  1  0.36069200  0.63930800  0.00000000  1
  Rb  Rb3  1  0.86069200  0.13930800  0.50000000  1
  Cu  Cu4  1  0.00000000  0.00000000  0.00000000  1
  Cu  Cu5  1  0.50000000  0.50000000  0.50000000  1
  Cl  Cl6  1  0.84974900  0.15025100  0.00000000  1
  Cl  Cl7  1  0.65025100  0.34974900  0.50000000  1
  Cl  Cl8  1  0.15025100  0.84974900  0.00000000  1
  Cl  Cl9  1  0.22656200  0.22656200  0.77480600  1
  Cl  Cl10  1  0.34974900  0.65025100  0.50000000  1
  Cl  Cl11  1  0.27343800  0.27343800  0.27480600  1
  Cl  Cl12  1  0.72656200  0.72656200  0.72519400  1
  Cl  Cl13  1  0.77343800  0.77343800  0.22519400  1
