# generated using pymatgen
data_Ho2C3
_symmetry_space_group_name_H-M   'P 1'
_cell_length_a   7.09219726
_cell_length_b   7.09219726
_cell_length_c   7.09219726
_cell_angle_alpha   109.47122063
_cell_angle_beta   109.47122063
_cell_angle_gamma   109.47122063
_symmetry_Int_Tables_number   1
_chemical_formula_structural   Ho2C3
_chemical_formula_sum   'Ho8 C12'
_cell_volume   274.61264387
_cell_formula_units_Z   4
loop_
 _symmetry_equiv_pos_site_id
 _symmetry_equiv_pos_as_xyz
  1  'x, y, z'
loop_
 _atom_site_type_symbol
 _atom_site_label
 _atom_site_symmetry_multiplicity
 _atom_site_fract_x
 _atom_site_fract_y
 _atom_site_fract_z
 _atom_site_occupancy
  Ho  Ho0  1  0.10089800  0.10089800  0.10089800  1
  Ho  Ho1  1  0.50000000  0.00000000  0.89910200  1
  Ho  Ho2  1  0.89910200  0.50000000  0.00000000  1
  Ho  Ho3  1  0.00000000  0.89910200  0.50000000  1
  Ho  Ho4  1  0.39910200  0.50000000  0.00000000  1
  Ho  Ho5  1  0.00000000  0.39910200  0.50000000  1
  Ho  Ho6  1  0.50000000  0.00000000  0.39910200  1
  Ho  Ho7  1  0.60089800  0.60089800  0.60089800  1
  C  C8  1  0.54313600  0.29313600  0.25000000  1
  C  C9  1  0.25000000  0.70686400  0.45686400  1
  C  C10  1  0.75000000  0.79313600  0.04313600  1
  C  C11  1  0.04313600  0.75000000  0.79313600  1
  C  C12  1  0.45686400  0.25000000  0.70686400  1
  C  C13  1  0.70686400  0.45686400  0.25000000  1
  C  C14  1  0.20686400  0.75000000  0.95686400  1
  C  C15  1  0.75000000  0.95686400  0.20686400  1
  C  C16  1  0.29313600  0.25000000  0.54313600  1
  C  C17  1  0.25000000  0.54313600  0.29313600  1
  C  C18  1  0.95686400  0.20686400  0.75000000  1
  C  C19  1  0.79313600  0.04313600  0.75000000  1
