# generated using pymatgen
data_TbCl3
_symmetry_space_group_name_H-M   'P 1'
_cell_length_a   6.88718248
_cell_length_b   6.88718248
_cell_length_c   8.57883500
_cell_angle_alpha   90.00000000
_cell_angle_beta   90.00000000
_cell_angle_gamma   147.77418940
_symmetry_Int_Tables_number   1
_chemical_formula_structural   TbCl3
_chemical_formula_sum   'Tb2 Cl6'
_cell_volume   216.99433605
_cell_formula_units_Z   2
loop_
 _symmetry_equiv_pos_site_id
 _symmetry_equiv_pos_as_xyz
  1  'x, y, z'
loop_
 _atom_site_type_symbol
 _atom_site_label
 _atom_site_symmetry_multiplicity
 _atom_site_fract_x
 _atom_site_fract_y
 _atom_site_fract_z
 _atom_site_occupancy
  Tb  Tb0  1  0.24064300  0.75935700  0.25000000  1
  Tb  Tb1  1  0.75935700  0.24064300  0.75000000  1
  Cl  Cl2  1  0.84171900  0.15828100  0.06842200  1
  Cl  Cl3  1  0.15828100  0.84171900  0.93157800  1
  Cl  Cl4  1  0.40040500  0.59959500  0.75000000  1
  Cl  Cl5  1  0.59959500  0.40040500  0.25000000  1
  Cl  Cl6  1  0.84171900  0.15828100  0.43157800  1
  Cl  Cl7  1  0.15828100  0.84171900  0.56842200  1
