# generated using pymatgen
data_Ge(Bi3O5)4
_symmetry_space_group_name_H-M   'P 1'
_cell_length_a   8.91855131
_cell_length_b   8.91855131
_cell_length_c   8.91855131
_cell_angle_alpha   109.47122063
_cell_angle_beta   109.47122063
_cell_angle_gamma   109.47122063
_symmetry_Int_Tables_number   1
_chemical_formula_structural   Ge(Bi3O5)4
_chemical_formula_sum   'Ge1 Bi12 O20'
_cell_volume   546.08601555
_cell_formula_units_Z   1
loop_
 _symmetry_equiv_pos_site_id
 _symmetry_equiv_pos_as_xyz
  1  'x, y, z'
loop_
 _atom_site_type_symbol
 _atom_site_label
 _atom_site_symmetry_multiplicity
 _atom_site_fract_x
 _atom_site_fract_y
 _atom_site_fract_z
 _atom_site_occupancy
  Ge  Ge0  1  0.00000000  0.00000000  0.00000000  1
  Bi  Bi1  1  0.19245100  0.69698900  0.85855100  1
  Bi  Bi2  1  0.83843800  0.33390000  0.14144900  1
  Bi  Bi3  1  0.80754900  0.66610000  0.50453800  1
  Bi  Bi4  1  0.14144900  0.83843800  0.33390000  1
  Bi  Bi5  1  0.69698900  0.85855100  0.19245100  1
  Bi  Bi6  1  0.30301100  0.49546200  0.16156200  1
  Bi  Bi7  1  0.49546200  0.16156200  0.30301100  1
  Bi  Bi8  1  0.33390000  0.14144900  0.83843800  1
  Bi  Bi9  1  0.50453800  0.80754900  0.66610000  1
  Bi  Bi10  1  0.66610000  0.50453800  0.80754900  1
  Bi  Bi11  1  0.85855100  0.19245100  0.69698900  1
  Bi  Bi12  1  0.16156200  0.30301100  0.49546200  1
  O  O13  1  0.79847000  0.00000000  0.00000000  1
  O  O14  1  0.20153000  0.20153000  0.20153000  1
  O  O15  1  0.00000000  0.79847000  0.00000000  1
  O  O16  1  0.00000000  0.00000000  0.79847000  1
  O  O17  1  0.38909000  0.00000000  0.00000000  1
  O  O18  1  0.61091000  0.61091000  0.61091000  1
  O  O19  1  0.00000000  0.38909000  0.00000000  1
  O  O20  1  0.00000000  0.00000000  0.38909000  1
  O  O21  1  0.62005800  0.23719500  0.88052400  1
  O  O22  1  0.35667100  0.73953400  0.11947600  1
  O  O23  1  0.37994200  0.26046600  0.61713800  1
  O  O24  1  0.11947600  0.35667100  0.73953400  1
  O  O25  1  0.23719500  0.88052400  0.62005800  1
  O  O26  1  0.64332900  0.76280500  0.38286200  1
  O  O27  1  0.88052400  0.62005800  0.23719500  1
  O  O28  1  0.26046600  0.61713800  0.37994200  1
  O  O29  1  0.61713800  0.37994200  0.26046600  1
  O  O30  1  0.73953400  0.11947600  0.35667100  1
  O  O31  1  0.38286200  0.64332900  0.76280500  1
  O  O32  1  0.76280500  0.38286200  0.64332900  1
