# generated using pymatgen
data_Na5Fe2P2(CO7)2
_symmetry_space_group_name_H-M   'P 1'
_cell_length_a   8.42724900
_cell_length_b   8.50017892
_cell_length_c   9.00153918
_cell_angle_alpha   89.79188579
_cell_angle_beta   89.19908406
_cell_angle_gamma   76.60581797
_symmetry_Int_Tables_number   1
_chemical_formula_structural   Na5Fe2P2(CO7)2
_chemical_formula_sum   'Na10 Fe4 P4 C4 O28'
_cell_volume   627.20786882
_cell_formula_units_Z   2
loop_
 _symmetry_equiv_pos_site_id
 _symmetry_equiv_pos_as_xyz
  1  'x, y, z'
loop_
 _atom_site_type_symbol
 _atom_site_label
 _atom_site_symmetry_multiplicity
 _atom_site_fract_x
 _atom_site_fract_y
 _atom_site_fract_z
 _atom_site_occupancy
  Na  Na0  1  0.49913400  0.26965200  0.92414300  1
  Na  Na1  1  0.00380400  0.75865600  0.91266000  1
  Na  Na2  1  0.61524300  0.88011900  0.73802000  1
  Na  Na3  1  0.13923900  0.38023800  0.73390400  1
  Na  Na4  1  0.87789600  0.11824300  0.73205100  1
  Na  Na5  1  0.12210400  0.88175700  0.26794900  1
  Na  Na6  1  0.38475700  0.11988100  0.26198000  1
  Na  Na7  1  0.86076100  0.61976200  0.26609600  1
  Na  Na8  1  0.99619600  0.24134400  0.08734000  1
  Na  Na9  1  0.50086600  0.73034800  0.07585700  1
  Fe  Fe10  1  0.72423400  0.51789300  0.64528500  1
  Fe  Fe11  1  0.23997700  0.00397000  0.65686200  1
  Fe  Fe12  1  0.76002300  0.99603000  0.34313800  1
  Fe  Fe13  1  0.27576600  0.48210700  0.35471500  1
  P  P14  1  0.52054300  0.23009500  0.58498000  1
  P  P15  1  0.01813000  0.72480500  0.57657500  1
  P  P16  1  0.47945700  0.76990500  0.41502000  1
  P  P17  1  0.98187000  0.27519500  0.42342500  1
  C  C18  1  0.25839500  0.99362300  0.94804000  1
  C  C19  1  0.76916400  0.49352500  0.92675300  1
  C  C20  1  0.74160500  0.00637700  0.05196000  1
  C  C21  1  0.23083600  0.50647500  0.07324700  1
  O  O22  1  0.73449100  0.01540700  0.90874500  1
  O  O23  1  0.20994900  0.51251600  0.93372500  1
  O  O24  1  0.14065600  0.09767700  0.88302400  1
  O  O25  1  0.65488900  0.60455200  0.86453200  1
  O  O26  1  0.36645600  0.89856500  0.86502600  1
  O  O27  1  0.85856800  0.38832300  0.83481200  1
  O  O28  1  0.58958000  0.35551700  0.67465700  1
  O  O29  1  0.07563900  0.85002800  0.67416000  1
  O  O30  1  0.39271000  0.17876700  0.68836100  1
  O  O31  1  0.89190300  0.66103000  0.67532400  1
  O  O32  1  0.05626700  0.20177700  0.57015200  1
  O  O33  1  0.55757400  0.69698200  0.56289900  1
  O  O34  1  0.66246300  0.08146200  0.55060100  1
  O  O35  1  0.16357300  0.57745600  0.53845600  1
  O  O36  1  0.33753700  0.91853800  0.44939900  1
  O  O37  1  0.83642700  0.42254400  0.46154400  1
  O  O38  1  0.94373300  0.79822300  0.42984800  1
  O  O39  1  0.44242600  0.30301800  0.43710100  1
  O  O40  1  0.60729000  0.82123300  0.31163900  1
  O  O41  1  0.92436100  0.14997200  0.32584000  1
  O  O42  1  0.10809700  0.33897000  0.32467600  1
  O  O43  1  0.41042000  0.64448300  0.32534300  1
  O  O44  1  0.63354400  0.10143500  0.13497400  1
  O  O45  1  0.14143200  0.61167700  0.16518800  1
  O  O46  1  0.34511100  0.39544800  0.13546800  1
  O  O47  1  0.85934400  0.90232300  0.11697600  1
  O  O48  1  0.26550900  0.98459300  0.09125500  1
  O  O49  1  0.79005100  0.48748400  0.06627500  1
