# generated using pymatgen
data_Rb3Mn2Cl7
_symmetry_space_group_name_H-M   'P 1'
_cell_length_a   13.70841658
_cell_length_b   13.70841658
_cell_length_c   13.70841658
_cell_angle_alpha   158.55993273
_cell_angle_beta   158.55993273
_cell_angle_gamma   30.50319517
_symmetry_Int_Tables_number   1
_chemical_formula_structural   Rb3Mn2Cl7
_chemical_formula_sum   'Rb3 Mn2 Cl7'
_cell_volume   343.97238131
_cell_formula_units_Z   1
loop_
 _symmetry_equiv_pos_site_id
 _symmetry_equiv_pos_as_xyz
  1  'x, y, z'
loop_
 _atom_site_type_symbol
 _atom_site_label
 _atom_site_symmetry_multiplicity
 _atom_site_fract_x
 _atom_site_fract_y
 _atom_site_fract_z
 _atom_site_occupancy
  Rb  Rb0  1  0.18308500  0.18308500  0.00000000  1
  Rb  Rb1  1  0.81691500  0.81691500  0.00000000  1
  Rb  Rb2  1  0.00000000  0.00000000  0.00000000  1
  Mn  Mn3  1  0.40161600  0.40161600  0.00000000  1
  Mn  Mn4  1  0.59838400  0.59838400  0.00000000  1
  Cl  Cl5  1  0.40403700  0.90403700  0.50000000  1
  Cl  Cl6  1  0.90403700  0.40403700  0.50000000  1
  Cl  Cl7  1  0.59596300  0.09596300  0.50000000  1
  Cl  Cl8  1  0.09596300  0.59596300  0.50000000  1
  Cl  Cl9  1  0.69278700  0.69278700  0.00000000  1
  Cl  Cl10  1  0.50000000  0.50000000  0.00000000  1
  Cl  Cl11  1  0.30721300  0.30721300  0.00000000  1
