# generated using pymatgen
data_AlZnH4O2F5
_symmetry_space_group_name_H-M   'P 1'
_cell_length_a   7.20733739
_cell_length_b   7.20733739
_cell_length_c   7.20733739
_cell_angle_alpha   126.44364666
_cell_angle_beta   119.27228476
_cell_angle_gamma   85.23940895
_symmetry_Int_Tables_number   1
_chemical_formula_structural   AlZnH4O2F5
_chemical_formula_sum   'Al2 Zn2 H8 O4 F10'
_cell_volume   250.97210281
_cell_formula_units_Z   2
loop_
 _symmetry_equiv_pos_site_id
 _symmetry_equiv_pos_as_xyz
  1  'x, y, z'
loop_
 _atom_site_type_symbol
 _atom_site_label
 _atom_site_symmetry_multiplicity
 _atom_site_fract_x
 _atom_site_fract_y
 _atom_site_fract_z
 _atom_site_occupancy
  Al  Al0  1  0.50000000  0.00000000  0.00000000  1
  Al  Al1  1  0.00000000  0.00000000  0.50000000  1
  Zn  Zn2  1  0.50000000  0.00000000  0.50000000  1
  Zn  Zn3  1  0.00000000  0.50000000  0.50000000  1
  H  H4  1  0.19882200  0.21512600  0.23307400  1
  H  H5  1  0.30117800  0.53425300  0.01630400  1
  H  H6  1  0.01794800  0.78487400  0.98369600  1
  H  H7  1  0.48205200  0.46574700  0.76692600  1
  H  H8  1  0.98205200  0.21512600  0.01630400  1
  H  H9  1  0.69882200  0.46574700  0.98369600  1
  H  H10  1  0.80117800  0.78487400  0.76692600  1
  H  H11  1  0.51794800  0.53425300  0.23307400  1
  O  O12  1  0.06964600  0.27815800  0.20851200  1
  O  O13  1  0.56964600  0.36113300  0.79148800  1
  O  O14  1  0.43035400  0.63886700  0.20851200  1
  O  O15  1  0.93035400  0.72184200  0.79148800  1
  F  F16  1  0.58848500  0.92723200  0.77221900  1
  F  F17  1  0.25000000  0.05785700  0.80785700  1
  F  F18  1  0.75000000  0.94214300  0.19214300  1
  F  F19  1  0.65501200  0.31626600  0.22778100  1
  F  F20  1  0.34498800  0.68373400  0.77221900  1
  F  F21  1  0.91151500  0.68373400  0.33874700  1
  F  F22  1  0.08848500  0.31626600  0.66125300  1
  F  F23  1  0.41151500  0.07276800  0.22778100  1
  F  F24  1  0.84498800  0.07276800  0.66125300  1
  F  F25  1  0.15501200  0.92723200  0.33874700  1
