# generated using pymatgen
data_H2CO
_symmetry_space_group_name_H-M   'P 1'
_cell_length_a   6.16761624
_cell_length_b   6.16761624
_cell_length_c   6.16761636
_cell_angle_alpha   100.99131584
_cell_angle_beta   100.99131584
_cell_angle_gamma   100.99131608
_symmetry_Int_Tables_number   1
_chemical_formula_structural   H2CO
_chemical_formula_sum   'H12 C6 O6'
_cell_volume   219.72160809
_cell_formula_units_Z   6
loop_
 _symmetry_equiv_pos_site_id
 _symmetry_equiv_pos_as_xyz
  1  'x, y, z'
loop_
 _atom_site_type_symbol
 _atom_site_label
 _atom_site_symmetry_multiplicity
 _atom_site_fract_x
 _atom_site_fract_y
 _atom_site_fract_z
 _atom_site_occupancy
  H  H0  1  0.24198400  0.73419100  0.44949600  1
  H  H1  1  0.73419100  0.44949600  0.24198400  1
  H  H2  1  0.44949600  0.24198400  0.73419100  1
  H  H3  1  0.94949600  0.23419100  0.74198400  1
  H  H4  1  0.23419100  0.74198400  0.94949600  1
  H  H5  1  0.74198400  0.94949600  0.23419100  1
  H  H6  1  0.52251500  0.80617900  0.64250200  1
  H  H7  1  0.80617900  0.64250200  0.52251500  1
  H  H8  1  0.02251500  0.14250200  0.30617900  1
  H  H9  1  0.14250200  0.30617900  0.02251500  1
  H  H10  1  0.30617900  0.02251500  0.14250200  1
  H  H11  1  0.64250200  0.52251500  0.80617900  1
  C  C12  1  0.89221900  0.01056200  0.17291000  1
  C  C13  1  0.67291000  0.51056200  0.39221900  1
  C  C14  1  0.51056200  0.39221900  0.67291000  1
  C  C15  1  0.01056200  0.17291000  0.89221900  1
  C  C16  1  0.17291000  0.89221900  0.01056200  1
  C  C17  1  0.39221900  0.67291000  0.51056200  1
  O  O18  1  0.32014500  0.48431100  0.60398700  1
  O  O19  1  0.48431100  0.60398700  0.32014500  1
  O  O20  1  0.60398700  0.32014500  0.48431100  1
  O  O21  1  0.10398700  0.98431100  0.82014500  1
  O  O22  1  0.98431100  0.82014500  0.10398700  1
  O  O23  1  0.82014500  0.10398700  0.98431100  1
