# generated using pymatgen
data_Zn3B7ClO13
_symmetry_space_group_name_H-M   'P 1'
_cell_length_a   8.65923854
_cell_length_b   8.65923854
_cell_length_c   8.65923867
_cell_angle_alpha   59.80068696
_cell_angle_beta   59.80068696
_cell_angle_gamma   59.80068319
_symmetry_Int_Tables_number   1
_chemical_formula_structural   Zn3B7ClO13
_chemical_formula_sum   'Zn6 B14 Cl2 O26'
_cell_volume   457.04046940
_cell_formula_units_Z   2
loop_
 _symmetry_equiv_pos_site_id
 _symmetry_equiv_pos_as_xyz
  1  'x, y, z'
loop_
 _atom_site_type_symbol
 _atom_site_label
 _atom_site_symmetry_multiplicity
 _atom_site_fract_x
 _atom_site_fract_y
 _atom_site_fract_z
 _atom_site_occupancy
  Zn  Zn0  1  0.02760700  0.02872700  0.46440200  1
  Zn  Zn1  1  0.02872700  0.46440200  0.02760700  1
  Zn  Zn2  1  0.46440200  0.02760700  0.02872700  1
  Zn  Zn3  1  0.52872700  0.52760700  0.96440200  1
  Zn  Zn4  1  0.52760700  0.96440200  0.52872700  1
  Zn  Zn5  1  0.96440200  0.52872700  0.52760700  1
  B  B6  1  0.73310900  0.42711900  0.42664600  1
  B  B7  1  0.39687300  0.39687300  0.39687300  1
  B  B8  1  0.89687300  0.89687300  0.89687300  1
  B  B9  1  0.42711900  0.42664600  0.73310900  1
  B  B10  1  0.42664600  0.73310900  0.42711900  1
  B  B11  1  0.92711900  0.23310900  0.92664600  1
  B  B12  1  0.23310900  0.92664600  0.92711900  1
  B  B13  1  0.92664600  0.92711900  0.23310900  1
  B  B14  1  0.75214600  0.75336300  0.24583400  1
  B  B15  1  0.24583400  0.75214600  0.75336300  1
  B  B16  1  0.75336300  0.24583400  0.75214600  1
  B  B17  1  0.25214600  0.74583400  0.25336300  1
  B  B18  1  0.25336300  0.25214600  0.74583400  1
  B  B19  1  0.74583400  0.25336300  0.25214600  1
  Cl  Cl20  1  0.23033700  0.23033700  0.23033700  1
  Cl  Cl21  1  0.73033700  0.73033700  0.73033700  1
  O  O22  1  0.38736600  0.56509200  0.81056900  1
  O  O23  1  0.81056900  0.38736600  0.56509200  1
  O  O24  1  0.75167000  0.28522900  0.89946900  1
  O  O25  1  0.89946900  0.75167000  0.28522900  1
  O  O26  1  0.28522900  0.89946900  0.75167000  1
  O  O27  1  0.39946900  0.78522900  0.25167000  1
  O  O28  1  0.25167000  0.39946900  0.78522900  1
  O  O29  1  0.78522900  0.25167000  0.39946900  1
  O  O30  1  0.01206300  0.01206300  0.01206300  1
  O  O31  1  0.51206300  0.51206300  0.51206300  1
  O  O32  1  0.89336500  0.05433400  0.73516100  1
  O  O33  1  0.73516100  0.89336500  0.05433400  1
  O  O34  1  0.05433400  0.73516100  0.89336500  1
  O  O35  1  0.39336500  0.23516100  0.55433400  1
  O  O36  1  0.55433400  0.39336500  0.23516100  1
  O  O37  1  0.23516100  0.55433400  0.39336500  1
  O  O38  1  0.29975000  0.74701500  0.06475700  1
  O  O39  1  0.06475700  0.29975000  0.74701500  1
  O  O40  1  0.74701500  0.06475700  0.29975000  1
  O  O41  1  0.79975000  0.56475700  0.24701500  1
  O  O42  1  0.24701500  0.79975000  0.56475700  1
  O  O43  1  0.56475700  0.24701500  0.79975000  1
  O  O44  1  0.06509200  0.88736600  0.31056900  1
  O  O45  1  0.31056900  0.06509200  0.88736600  1
  O  O46  1  0.88736600  0.31056900  0.06509200  1
  O  O47  1  0.56509200  0.81056900  0.38736600  1
