# generated using pymatgen
data_Ca2MnP2(H2O5)2
_symmetry_space_group_name_H-M   'P 1'
_cell_length_a   5.84821003
_cell_length_b   9.54657388
_cell_length_c   7.69163285
_cell_angle_alpha   79.77358100
_cell_angle_beta   103.63426597
_cell_angle_gamma   79.25999989
_symmetry_Int_Tables_number   1
_chemical_formula_structural   Ca2MnP2(H2O5)2
_chemical_formula_sum   'Ca4 Mn2 P4 H8 O20'
_cell_volume   398.83305973
_cell_formula_units_Z   2
loop_
 _symmetry_equiv_pos_site_id
 _symmetry_equiv_pos_as_xyz
  1  'x, y, z'
loop_
 _atom_site_type_symbol
 _atom_site_label
 _atom_site_symmetry_multiplicity
 _atom_site_fract_x
 _atom_site_fract_y
 _atom_site_fract_z
 _atom_site_occupancy
  Ca  Ca0  1  0.60294500  0.94931700  0.28444800  1
  Ca  Ca1  1  0.60294500  0.44931700  0.78444800  1
  Ca  Ca2  1  0.39705500  0.05068300  0.71555200  1
  Ca  Ca3  1  0.39705500  0.55068300  0.21555200  1
  Mn  Mn4  1  0.00000000  0.50000000  0.50000000  1
  Mn  Mn5  1  0.00000000  0.00000000  0.00000000  1
  P  P6  1  0.75296100  0.20775200  0.55940200  1
  P  P7  1  0.75296100  0.70775200  0.05940200  1
  P  P8  1  0.24703900  0.79224800  0.44059800  1
  P  P9  1  0.24703900  0.29224800  0.94059800  1
  H  H10  1  0.07087900  0.87616700  0.68706300  1
  H  H11  1  0.07087900  0.37616700  0.18706300  1
  H  H12  1  0.92912100  0.12383300  0.31293700  1
  H  H13  1  0.92912100  0.62383300  0.81293700  1
  H  H14  1  0.28395600  0.28842200  0.36914800  1
  H  H15  1  0.28395600  0.78842200  0.86914800  1
  H  H16  1  0.71604400  0.71157800  0.63085200  1
  H  H17  1  0.71604400  0.21157800  0.13085200  1
  O  O18  1  0.15769100  0.88300400  0.81476800  1
  O  O19  1  0.15769100  0.38300400  0.31476800  1
  O  O20  1  0.84230900  0.11699600  0.18523200  1
  O  O21  1  0.84230900  0.61699600  0.68523200  1
  O  O22  1  0.24609500  0.83713700  0.23370000  1
  O  O23  1  0.24609500  0.33713700  0.73370000  1
  O  O24  1  0.75390500  0.16286300  0.76630000  1
  O  O25  1  0.75390500  0.66286300  0.26630000  1
  O  O26  1  0.30686400  0.62027500  0.49715800  1
  O  O27  1  0.30686400  0.12027500  0.99715800  1
  O  O28  1  0.69313600  0.37972500  0.50284200  1
  O  O29  1  0.69313600  0.87972500  0.00284200  1
  O  O30  1  0.00462900  0.85641300  0.47342300  1
  O  O31  1  0.00462900  0.35641300  0.97342300  1
  O  O32  1  0.99537100  0.14358700  0.52657700  1
  O  O33  1  0.99537100  0.64358700  0.02657700  1
  O  O34  1  0.45844900  0.85040000  0.54801200  1
  O  O35  1  0.45844900  0.35040000  0.04801200  1
  O  O36  1  0.54155100  0.14960000  0.45198800  1
  O  O37  1  0.54155100  0.64960000  0.95198800  1
