# generated using pymatgen
data_CaCuH4(CO2)4
_symmetry_space_group_name_H-M   'P 1'
_cell_length_a   8.58112900
_cell_length_b   6.67058000
_cell_length_c   7.49747554
_cell_angle_alpha   80.51964431
_cell_angle_beta   90.00000000
_cell_angle_gamma   90.00000000
_symmetry_Int_Tables_number   1
_chemical_formula_structural   CaCuH4(CO2)4
_chemical_formula_sum   'Ca2 Cu2 H8 C8 O16'
_cell_volume   423.30234017
_cell_formula_units_Z   2
loop_
 _symmetry_equiv_pos_site_id
 _symmetry_equiv_pos_as_xyz
  1  'x, y, z'
loop_
 _atom_site_type_symbol
 _atom_site_label
 _atom_site_symmetry_multiplicity
 _atom_site_fract_x
 _atom_site_fract_y
 _atom_site_fract_z
 _atom_site_occupancy
  Ca  Ca0  1  0.13638600  0.75000000  0.00000000  1
  Ca  Ca1  1  0.86361400  0.25000000  0.00000000  1
  Cu  Cu2  1  0.40099100  0.75000000  0.50000000  1
  Cu  Cu3  1  0.59900900  0.25000000  0.50000000  1
  H  H4  1  0.15090300  0.08916100  0.41425600  1
  H  H5  1  0.15090300  0.41083900  0.58574400  1
  H  H6  1  0.84909700  0.91083900  0.58574400  1
  H  H7  1  0.84909700  0.58916100  0.41425600  1
  H  H8  1  0.56213800  0.76559500  0.83625200  1
  H  H9  1  0.56213800  0.73440500  0.16374800  1
  H  H10  1  0.43786200  0.23440500  0.16374800  1
  H  H11  1  0.43786200  0.26559500  0.83625200  1
  C  C12  1  0.60284500  0.87976900  0.20006900  1
  C  C13  1  0.14267600  0.99110800  0.30878400  1
  C  C14  1  0.14267600  0.50889200  0.69121600  1
  C  C15  1  0.85732400  0.00889200  0.69121600  1
  C  C16  1  0.85732400  0.49110800  0.30878400  1
  C  C17  1  0.39715500  0.37976900  0.20006900  1
  C  C18  1  0.39715500  0.12023100  0.79993200  1
  C  C19  1  0.60284500  0.62023100  0.79993200  1
  O  O20  1  0.31500000  0.49521600  0.08995300  1
  O  O21  1  0.68500000  0.50478400  0.91004700  1
  O  O22  1  0.31500000  0.00478400  0.91004700  1
  O  O23  1  0.68500000  0.99521600  0.08995300  1
  O  O24  1  0.95804800  0.52796400  0.18525900  1
  O  O25  1  0.43880100  0.41794400  0.35611800  1
  O  O26  1  0.23687500  0.65846100  0.68398200  1
  O  O27  1  0.76312500  0.15846100  0.68398200  1
  O  O28  1  0.76312500  0.34153900  0.31601800  1
  O  O29  1  0.04195200  0.02796400  0.18525900  1
  O  O30  1  0.04195200  0.47203600  0.81474100  1
  O  O31  1  0.95804800  0.97203600  0.81474100  1
  O  O32  1  0.56119900  0.58205600  0.64388200  1
  O  O33  1  0.56119900  0.91794400  0.35611800  1
  O  O34  1  0.23687500  0.84153900  0.31601800  1
  O  O35  1  0.43880100  0.08205600  0.64388200  1
