# generated using pymatgen
data_H4N2O3
_symmetry_space_group_name_H-M   'P 1'
_cell_length_a   4.93735300
_cell_length_b   5.67510300
_cell_length_c   5.75321100
_cell_angle_alpha   90.00000000
_cell_angle_beta   90.00000000
_cell_angle_gamma   90.00000000
_symmetry_Int_Tables_number   1
_chemical_formula_structural   H4N2O3
_chemical_formula_sum   'H8 N4 O6'
_cell_volume   161.20489641
_cell_formula_units_Z   2
loop_
 _symmetry_equiv_pos_site_id
 _symmetry_equiv_pos_as_xyz
  1  'x, y, z'
loop_
 _atom_site_type_symbol
 _atom_site_label
 _atom_site_symmetry_multiplicity
 _atom_site_fract_x
 _atom_site_fract_y
 _atom_site_fract_z
 _atom_site_occupancy
  H  H0  1  0.55387300  0.50000000  0.14793100  1
  H  H1  1  0.31225200  0.64669400  0.00000000  1
  H  H2  1  0.31225200  0.35330600  0.00000000  1
  H  H3  1  0.68774800  0.14669400  0.50000000  1
  H  H4  1  0.55387300  0.50000000  0.85206900  1
  H  H5  1  0.44612700  0.00000000  0.35206900  1
  H  H6  1  0.44612700  0.00000000  0.64793100  1
  H  H7  1  0.68774800  0.85330600  0.50000000  1
  N  N8  1  0.02693100  0.50000000  0.50000000  1
  N  N9  1  0.43427400  0.50000000  0.00000000  1
  N  N10  1  0.56572600  0.00000000  0.50000000  1
  N  N11  1  0.97306900  0.00000000  0.00000000  1
  O  O12  1  0.89815800  0.50000000  0.69168900  1
  O  O13  1  0.10184200  0.00000000  0.19168900  1
  O  O14  1  0.10184200  0.00000000  0.80831100  1
  O  O15  1  0.28244500  0.50000000  0.50000000  1
  O  O16  1  0.71755500  0.00000000  0.00000000  1
  O  O17  1  0.89815800  0.50000000  0.30831100  1
