# generated using pymatgen
data_Co3B7ClO13
_symmetry_space_group_name_H-M   'P 1'
_cell_length_a   8.65226301
_cell_length_b   8.65226301
_cell_length_c   8.65226296
_cell_angle_alpha   59.78750328
_cell_angle_beta   59.78750328
_cell_angle_gamma   59.78750285
_symmetry_Int_Tables_number   1
_chemical_formula_structural   Co3B7ClO13
_chemical_formula_sum   'Co6 B14 Cl2 O26'
_cell_volume   455.79958808
_cell_formula_units_Z   2
loop_
 _symmetry_equiv_pos_site_id
 _symmetry_equiv_pos_as_xyz
  1  'x, y, z'
loop_
 _atom_site_type_symbol
 _atom_site_label
 _atom_site_symmetry_multiplicity
 _atom_site_fract_x
 _atom_site_fract_y
 _atom_site_fract_z
 _atom_site_occupancy
  Co  Co0  1  0.97050900  0.97268700  0.53005900  1
  Co  Co1  1  0.97268700  0.53005900  0.97050900  1
  Co  Co2  1  0.53005900  0.97050900  0.97268700  1
  Co  Co3  1  0.03005900  0.47268700  0.47050900  1
  Co  Co4  1  0.47050900  0.03005900  0.47268700  1
  Co  Co5  1  0.47268700  0.47050900  0.03005900  1
  B  B6  1  0.57148700  0.57107500  0.26439500  1
  B  B7  1  0.60044600  0.60044600  0.60044600  1
  B  B8  1  0.10044600  0.10044600  0.10044600  1
  B  B9  1  0.26439500  0.57148700  0.57107500  1
  B  B10  1  0.57107500  0.26439500  0.57148700  1
  B  B11  1  0.07148700  0.76439500  0.07107500  1
  B  B12  1  0.07107500  0.07148700  0.76439500  1
  B  B13  1  0.76439500  0.07107500  0.07148700  1
  B  B14  1  0.75152800  0.24491900  0.24558700  1
  B  B15  1  0.24491900  0.24558700  0.75152800  1
  B  B16  1  0.24558700  0.75152800  0.24491900  1
  B  B17  1  0.74491900  0.25152800  0.74558700  1
  B  B18  1  0.25152800  0.74558700  0.74491900  1
  B  B19  1  0.74558700  0.74491900  0.25152800  1
  Cl  Cl20  1  0.76792000  0.76792000  0.76792000  1
  Cl  Cl21  1  0.26792000  0.26792000  0.26792000  1
  O  O22  1  0.74687100  0.21216600  0.59829300  1
  O  O23  1  0.43315400  0.61022200  0.18670800  1
  O  O24  1  0.09829300  0.71216600  0.24687100  1
  O  O25  1  0.71216600  0.24687100  0.09829300  1
  O  O26  1  0.24687100  0.09829300  0.71216600  1
  O  O27  1  0.18670800  0.43315400  0.61022200  1
  O  O28  1  0.21216600  0.59829300  0.74687100  1
  O  O29  1  0.59829300  0.74687100  0.21216600  1
  O  O30  1  0.98568200  0.98568200  0.98568200  1
  O  O31  1  0.48568200  0.48568200  0.48568200  1
  O  O32  1  0.61022200  0.18670800  0.43315400  1
  O  O33  1  0.94319200  0.10420600  0.26260900  1
  O  O34  1  0.10420600  0.26260900  0.94319200  1
  O  O35  1  0.44319200  0.76260900  0.60420600  1
  O  O36  1  0.76260900  0.60420600  0.44319200  1
  O  O37  1  0.60420600  0.44319200  0.76260900  1
  O  O38  1  0.93322400  0.25124800  0.69811300  1
  O  O39  1  0.25124800  0.69811300  0.93322400  1
  O  O40  1  0.69811300  0.93322400  0.25124800  1
  O  O41  1  0.75124800  0.43322400  0.19811300  1
  O  O42  1  0.43322400  0.19811300  0.75124800  1
  O  O43  1  0.19811300  0.75124800  0.43322400  1
  O  O44  1  0.68670800  0.11022200  0.93315400  1
  O  O45  1  0.11022200  0.93315400  0.68670800  1
  O  O46  1  0.93315400  0.68670800  0.11022200  1
  O  O47  1  0.26260900  0.94319200  0.10420600  1
