# generated using pymatgen
data_K3AlH6
_symmetry_space_group_name_H-M   'P 1'
_cell_length_a   6.20344564
_cell_length_b   6.20344564
_cell_length_c   6.20344564
_cell_angle_alpha   123.70785427
_cell_angle_beta   123.70785427
_cell_angle_gamma   83.68947257
_symmetry_Int_Tables_number   1
_chemical_formula_structural   K3AlH6
_chemical_formula_sum   'K3 Al1 H6'
_cell_volume   158.29227516
_cell_formula_units_Z   1
loop_
 _symmetry_equiv_pos_site_id
 _symmetry_equiv_pos_as_xyz
  1  'x, y, z'
loop_
 _atom_site_type_symbol
 _atom_site_label
 _atom_site_symmetry_multiplicity
 _atom_site_fract_x
 _atom_site_fract_y
 _atom_site_fract_z
 _atom_site_occupancy
  K  K0  1  0.25000000  0.75000000  0.50000000  1
  K  K1  1  0.75000000  0.25000000  0.50000000  1
  K  K2  1  0.50000000  0.50000000  0.00000000  1
  Al  Al3  1  0.00000000  0.00000000  0.00000000  1
  H  H4  1  0.00000000  0.70416800  0.70416800  1
  H  H5  1  0.70416800  0.00000000  0.70416800  1
  H  H6  1  0.29583200  0.00000000  0.29583200  1
  H  H7  1  0.00000000  0.29583200  0.29583200  1
  H  H8  1  0.20926200  0.20926200  0.00000000  1
  H  H9  1  0.79073800  0.79073800  0.00000000  1
