# generated using pymatgen
data_KHCO3
_symmetry_space_group_name_H-M   'P 1'
_cell_length_a   4.41724700
_cell_length_b   5.63077253
_cell_length_c   7.02280369
_cell_angle_alpha   109.73117328
_cell_angle_beta   104.78502716
_cell_angle_gamma   94.50126239
_symmetry_Int_Tables_number   1
_chemical_formula_structural   KHCO3
_chemical_formula_sum   'K2 H2 C2 O6'
_cell_volume   156.35249773
_cell_formula_units_Z   2
loop_
 _symmetry_equiv_pos_site_id
 _symmetry_equiv_pos_as_xyz
  1  'x, y, z'
loop_
 _atom_site_type_symbol
 _atom_site_label
 _atom_site_symmetry_multiplicity
 _atom_site_fract_x
 _atom_site_fract_y
 _atom_site_fract_z
 _atom_site_occupancy
  K  K0  1  0.29163000  0.14086300  0.30448900  1
  K  K1  1  0.70837000  0.85913700  0.69551100  1
  H  H2  1  0.45453000  0.29799200  0.92627500  1
  H  H3  1  0.54547000  0.70200800  0.07372500  1
  C  C4  1  0.09991700  0.42690800  0.77334800  1
  C  C5  1  0.90008300  0.57309200  0.22665200  1
  O  O6  1  0.16622800  0.63747400  0.36683400  1
  O  O7  1  0.83377200  0.36252600  0.63316600  1
  O  O8  1  0.24797400  0.23099700  0.79974700  1
  O  O9  1  0.75202600  0.76900300  0.20025300  1
  O  O10  1  0.24160500  0.65867900  0.89093700  1
  O  O11  1  0.75839500  0.34132100  0.10906300  1
