# generated using pymatgen
data_HgH12C2(Br2N3)2
_symmetry_space_group_name_H-M   'P 1'
_cell_length_a   7.68039358
_cell_length_b   7.68039358
_cell_length_c   13.53489697
_cell_angle_alpha   77.41999427
_cell_angle_beta   77.41999427
_cell_angle_gamma   94.94009929
_symmetry_Int_Tables_number   1
_chemical_formula_structural   HgH12C2(Br2N3)2
_chemical_formula_sum   'Hg2 H24 C4 Br8 N12'
_cell_volume   753.01599297
_cell_formula_units_Z   2
loop_
 _symmetry_equiv_pos_site_id
 _symmetry_equiv_pos_as_xyz
  1  'x, y, z'
loop_
 _atom_site_type_symbol
 _atom_site_label
 _atom_site_symmetry_multiplicity
 _atom_site_fract_x
 _atom_site_fract_y
 _atom_site_fract_z
 _atom_site_occupancy
  Hg  Hg0  1  0.21206000  0.78794000  0.75000000  1
  Hg  Hg1  1  0.78794000  0.21206000  0.25000000  1
  H  H2  1  0.12258300  0.43523500  0.34900600  1
  H  H3  1  0.56476500  0.87741700  0.15099400  1
  H  H4  1  0.87741700  0.56476500  0.65099400  1
  H  H5  1  0.43523500  0.12258300  0.84900600  1
  H  H6  1  0.34003800  0.39219000  0.35268600  1
  H  H7  1  0.60781000  0.65996200  0.14731400  1
  H  H8  1  0.65996200  0.60781000  0.64731400  1
  H  H9  1  0.39219000  0.34003800  0.85268600  1
  H  H10  1  0.14482300  0.83361000  0.43729200  1
  H  H11  1  0.16638900  0.85517700  0.06270800  1
  H  H12  1  0.85517700  0.16639000  0.56270800  1
  H  H13  1  0.83361000  0.14482300  0.93729200  1
  H  H14  1  0.01668700  0.68857200  0.38813300  1
  H  H15  1  0.53365100  0.61432700  0.39493600  1
  H  H16  1  0.98331300  0.31142800  0.61186700  1
  H  H17  1  0.68857200  0.01668700  0.88813300  1
  H  H18  1  0.46634900  0.38567300  0.60506400  1
  H  H19  1  0.38567300  0.46634900  0.10506400  1
  H  H20  1  0.79299100  0.44463800  0.93692900  1
  H  H21  1  0.55536200  0.20700900  0.56307100  1
  H  H22  1  0.20700900  0.55536200  0.06307100  1
  H  H23  1  0.44463800  0.79299100  0.43692900  1
  H  H24  1  0.61432700  0.53365100  0.89493600  1
  H  H25  1  0.31142800  0.98331300  0.11186700  1
  C  C26  1  0.62162900  0.26578300  0.89827500  1
  C  C27  1  0.26578300  0.62162900  0.39827500  1
  C  C28  1  0.37837100  0.73421700  0.10172500  1
  C  C29  1  0.73421700  0.37837100  0.60172500  1
  Br  Br30  1  0.44686800  0.17517700  0.21934700  1
  Br  Br31  1  0.99180900  0.77752900  0.93024700  1
  Br  Br32  1  0.00819100  0.22247100  0.06975300  1
  Br  Br33  1  0.77752900  0.99180900  0.43024700  1
  Br  Br34  1  0.17517700  0.44686800  0.71934700  1
  Br  Br35  1  0.22247100  0.00819100  0.56975300  1
  Br  Br36  1  0.82482300  0.55313200  0.28065300  1
  Br  Br37  1  0.55313200  0.82482300  0.78065300  1
  N  N38  1  0.42210400  0.67163700  0.41972700  1
  N  N39  1  0.13073700  0.71936500  0.41140500  1
  N  N40  1  0.57789600  0.32836300  0.58027300  1
  N  N41  1  0.67163700  0.42210400  0.91972700  1
  N  N42  1  0.86926300  0.28063500  0.58859500  1
  N  N43  1  0.71936500  0.13073700  0.91140500  1
  N  N44  1  0.32836300  0.57789600  0.08027300  1
  N  N45  1  0.28063500  0.86926300  0.08859500  1
  N  N46  1  0.24134800  0.47024300  0.36600500  1
  N  N47  1  0.52975700  0.75865200  0.13399500  1
  N  N48  1  0.75865200  0.52975700  0.63399500  1
  N  N49  1  0.47024300  0.24134800  0.86600500  1
