# generated using pymatgen
data_Cs3H(SeO4)2
_symmetry_space_group_name_H-M   'P 1'
_cell_length_a   6.42977607
_cell_length_b   6.42977607
_cell_length_c   8.68068572
_cell_angle_alpha   71.30743741
_cell_angle_beta   71.30743741
_cell_angle_gamma   60.85276384
_symmetry_Int_Tables_number   1
_chemical_formula_structural   Cs3H(SeO4)2
_chemical_formula_sum   'Cs3 H1 Se2 O8'
_cell_volume   290.97913886
_cell_formula_units_Z   1
loop_
 _symmetry_equiv_pos_site_id
 _symmetry_equiv_pos_as_xyz
  1  'x, y, z'
loop_
 _atom_site_type_symbol
 _atom_site_label
 _atom_site_symmetry_multiplicity
 _atom_site_fract_x
 _atom_site_fract_y
 _atom_site_fract_z
 _atom_site_occupancy
  Cs  Cs0  1  0.80202800  0.80202800  0.60994900  1
  Cs  Cs1  1  0.19797200  0.19797200  0.39005100  1
  Cs  Cs2  1  0.00000000  0.00000000  0.00000000  1
  H  H3  1  0.50000000  0.50000000  0.00000000  1
  Se  Se4  1  0.57107400  0.57107400  0.23409900  1
  Se  Se5  1  0.42892600  0.42892600  0.76590100  1
  O  O6  1  0.71292300  0.71292300  0.25760600  1
  O  O7  1  0.28707700  0.28707700  0.74239400  1
  O  O8  1  0.60301100  0.60301100  0.02214200  1
  O  O9  1  0.39698900  0.39698900  0.97785800  1
  O  O10  1  0.27281600  0.69739100  0.30934600  1
  O  O11  1  0.30260900  0.72718400  0.69065400  1
  O  O12  1  0.72718400  0.30260900  0.69065400  1
  O  O13  1  0.69739100  0.27281600  0.30934600  1
