# generated using pymatgen
data_MnCrH18(NF)6
_symmetry_space_group_name_H-M   'P 1'
_cell_length_a   10.16173100
_cell_length_b   10.16173100
_cell_length_c   10.16173100
_cell_angle_alpha   90.00000000
_cell_angle_beta   90.00000000
_cell_angle_gamma   90.00000000
_symmetry_Int_Tables_number   1
_chemical_formula_structural   MnCrH18(NF)6
_chemical_formula_sum   'Mn4 Cr4 H72 N24 F24'
_cell_volume   1049.30823788
_cell_formula_units_Z   4
loop_
 _symmetry_equiv_pos_site_id
 _symmetry_equiv_pos_as_xyz
  1  'x, y, z'
loop_
 _atom_site_type_symbol
 _atom_site_label
 _atom_site_symmetry_multiplicity
 _atom_site_fract_x
 _atom_site_fract_y
 _atom_site_fract_z
 _atom_site_occupancy
  Mn  Mn0  1  0.00000000  0.00000000  0.00000000  1
  Mn  Mn1  1  0.50000000  0.00000000  0.50000000  1
  Mn  Mn2  1  0.50000000  0.50000000  0.00000000  1
  Mn  Mn3  1  0.00000000  0.50000000  0.50000000  1
  Cr  Cr4  1  0.50000000  0.50000000  0.50000000  1
  Cr  Cr5  1  0.00000000  0.50000000  0.00000000  1
  Cr  Cr6  1  0.00000000  0.00000000  0.50000000  1
  Cr  Cr7  1  0.50000000  0.00000000  0.00000000  1
  H  H8  1  0.73729900  0.04634100  0.10119300  1
  H  H9  1  0.23729900  0.45365900  0.89880700  1
  H  H10  1  0.26270100  0.54634100  0.39880700  1
  H  H11  1  0.45365900  0.89880700  0.23729900  1
  H  H12  1  0.39880700  0.26270100  0.54634100  1
  H  H13  1  0.89880700  0.23729900  0.45365900  1
  H  H14  1  0.04634100  0.10119300  0.73729900  1
  H  H15  1  0.10119300  0.73729900  0.04634100  1
  H  H16  1  0.54634100  0.39880700  0.26270100  1
  H  H17  1  0.95365900  0.60119300  0.76270100  1
  H  H18  1  0.60119300  0.76270100  0.95365900  1
  H  H19  1  0.76270100  0.95365900  0.60119300  1
  H  H20  1  0.26270100  0.95365900  0.89880700  1
  H  H21  1  0.76270100  0.54634100  0.10119300  1
  H  H22  1  0.73729900  0.45365900  0.60119300  1
  H  H23  1  0.54634100  0.10119300  0.76270100  1
  H  H24  1  0.60119300  0.73729900  0.45365900  1
  H  H25  1  0.10119300  0.76270100  0.54634100  1
  H  H26  1  0.95365900  0.89880700  0.26270100  1
  H  H27  1  0.89880700  0.26270100  0.95365900  1
  H  H28  1  0.45365900  0.60119300  0.73729900  1
  H  H29  1  0.04634100  0.39880700  0.23729900  1
  H  H30  1  0.39880700  0.23729900  0.04634100  1
  H  H31  1  0.23729900  0.04634100  0.39880700  1
  H  H32  1  0.63275800  0.03812200  0.22519600  1
  H  H33  1  0.13275800  0.46187800  0.77480400  1
  H  H34  1  0.36724200  0.53812200  0.27480400  1
  H  H35  1  0.46187800  0.77480400  0.13275800  1
  H  H36  1  0.27480400  0.36724200  0.53812200  1
  H  H37  1  0.77480400  0.13275800  0.46187800  1
  H  H38  1  0.03812200  0.22519600  0.63275800  1
  H  H39  1  0.67323900  0.36923400  0.35900400  1
  H  H40  1  0.22519600  0.63275800  0.03812200  1
  H  H41  1  0.96187800  0.72519600  0.86724200  1
  H  H42  1  0.72519600  0.86724200  0.96187800  1
  H  H43  1  0.86724200  0.96187800  0.72519600  1
  H  H44  1  0.36724200  0.96187800  0.77480400  1
  H  H45  1  0.86724200  0.53812200  0.22519600  1
  H  H46  1  0.63275800  0.46187800  0.72519600  1
  H  H47  1  0.53812200  0.22519600  0.86724200  1
  H  H48  1  0.72519600  0.63275800  0.46187800  1
  H  H49  1  0.22519600  0.86724200  0.53812200  1
  H  H50  1  0.96187800  0.77480400  0.36724200  1
  H  H51  1  0.77480400  0.36724200  0.96187800  1
  H  H52  1  0.46187800  0.72519600  0.63275800  1
  H  H53  1  0.03812200  0.27480400  0.13275800  1
  H  H54  1  0.27480400  0.13275800  0.03812200  1
  H  H55  1  0.13275800  0.03812200  0.27480400  1
  H  H56  1  0.64099600  0.17323900  0.13076600  1
  H  H57  1  0.14099600  0.32676100  0.86923400  1
  H  H58  1  0.35900400  0.67323900  0.36923400  1
  H  H59  1  0.32676100  0.86923400  0.14099600  1
  H  H60  1  0.36923400  0.35900400  0.67323900  1
  H  H61  1  0.86923400  0.14099600  0.32676100  1
  H  H62  1  0.17323900  0.13076600  0.64099600  1
  H  H63  1  0.13076600  0.64099600  0.17323900  1
  H  H64  1  0.14099600  0.17323900  0.36923400  1
  H  H65  1  0.36923400  0.14099600  0.17323900  1
  H  H66  1  0.17323900  0.36923400  0.14099600  1
  H  H67  1  0.32676100  0.63076600  0.64099600  1
  H  H68  1  0.86923400  0.35900400  0.82676100  1
  H  H69  1  0.82676100  0.86923400  0.35900400  1
  H  H70  1  0.13076600  0.85900400  0.67323900  1
  H  H71  1  0.63076600  0.64099600  0.32676100  1
  H  H72  1  0.67323900  0.13076600  0.85900400  1
  H  H73  1  0.64099600  0.32676100  0.63076600  1
  H  H74  1  0.85900400  0.67323900  0.13076600  1
  H  H75  1  0.35900400  0.82676100  0.86923400  1
  H  H76  1  0.85900400  0.82676100  0.63076600  1
  H  H77  1  0.63076600  0.85900400  0.82676100  1
  H  H78  1  0.82676100  0.63076600  0.85900400  1
  H  H79  1  0.53812200  0.27480400  0.36724200  1
  N  N80  1  0.86981300  0.14400000  0.42809900  1
  N  N81  1  0.36981300  0.35600000  0.57190100  1
  N  N82  1  0.13018700  0.64400000  0.07190100  1
  N  N83  1  0.35600000  0.57190100  0.36981300  1
  N  N84  1  0.07190100  0.13018700  0.64400000  1
  N  N85  1  0.57190100  0.36981300  0.35600000  1
  N  N86  1  0.14400000  0.42809900  0.86981300  1
  N  N87  1  0.42809900  0.86981300  0.14400000  1
  N  N88  1  0.64400000  0.07190100  0.13018700  1
  N  N89  1  0.85600000  0.92809900  0.63018700  1
  N  N90  1  0.92809900  0.63018700  0.85600000  1
  N  N91  1  0.63018700  0.85600000  0.92809900  1
  N  N92  1  0.13018700  0.85600000  0.57190100  1
  N  N93  1  0.63018700  0.64400000  0.42809900  1
  N  N94  1  0.86981300  0.35600000  0.92809900  1
  N  N95  1  0.64400000  0.42809900  0.63018700  1
  N  N96  1  0.92809900  0.86981300  0.35600000  1
  N  N97  1  0.42809900  0.63018700  0.64400000  1
  N  N98  1  0.85600000  0.57190100  0.13018700  1
  N  N99  1  0.57190100  0.13018700  0.85600000  1
  N  N100  1  0.35600000  0.92809900  0.86981300  1
  N  N101  1  0.14400000  0.07190100  0.36981300  1
  N  N102  1  0.07190100  0.36981300  0.14400000  1
  N  N103  1  0.36981300  0.14400000  0.07190100  1
  F  F104  1  0.61865500  0.14122800  0.56305200  1
  F  F105  1  0.11865500  0.35877200  0.43694800  1
  F  F106  1  0.38134500  0.64122800  0.93694800  1
  F  F107  1  0.35877200  0.43694800  0.11865500  1
  F  F108  1  0.11865500  0.14122800  0.93694800  1
  F  F109  1  0.43694800  0.11865500  0.35877200  1
  F  F110  1  0.14122800  0.56305200  0.61865500  1
  F  F111  1  0.56305200  0.61865500  0.14122800  1
  F  F112  1  0.64122800  0.93694800  0.38134500  1
  F  F113  1  0.85877200  0.06305200  0.88134500  1
  F  F114  1  0.06305200  0.88134500  0.85877200  1
  F  F115  1  0.88134500  0.85877200  0.06305200  1
  F  F116  1  0.38134500  0.85877200  0.43694800  1
  F  F117  1  0.88134500  0.64122800  0.56305200  1
  F  F118  1  0.61865500  0.35877200  0.06305200  1
  F  F119  1  0.64122800  0.56305200  0.88134500  1
  F  F120  1  0.06305200  0.61865500  0.35877200  1
  F  F121  1  0.56305200  0.88134500  0.64122800  1
  F  F122  1  0.85877200  0.43694800  0.38134500  1
  F  F123  1  0.43694800  0.38134500  0.85877200  1
  F  F124  1  0.35877200  0.06305200  0.61865500  1
  F  F125  1  0.14122800  0.93694800  0.11865500  1
  F  F126  1  0.93694800  0.11865500  0.14122800  1
  F  F127  1  0.93694800  0.38134500  0.64122800  1
