# generated using pymatgen
data_CoSnH12(OF)6
_symmetry_space_group_name_H-M   'P 1'
_cell_length_a   6.65086891
_cell_length_b   6.65086891
_cell_length_c   6.65086868
_cell_angle_alpha   96.64609489
_cell_angle_beta   96.64609489
_cell_angle_gamma   96.64609525
_symmetry_Int_Tables_number   1
_chemical_formula_structural   CoSnH12(OF)6
_chemical_formula_sum   'Co1 Sn1 H12 O6 F6'
_cell_volume   287.75732688
_cell_formula_units_Z   1
loop_
 _symmetry_equiv_pos_site_id
 _symmetry_equiv_pos_as_xyz
  1  'x, y, z'
loop_
 _atom_site_type_symbol
 _atom_site_label
 _atom_site_symmetry_multiplicity
 _atom_site_fract_x
 _atom_site_fract_y
 _atom_site_fract_z
 _atom_site_occupancy
  Co  Co0  1  0.50000000  0.50000000  0.50000000  1
  Sn  Sn1  1  0.00000000  0.00000000  0.00000000  1
  H  H2  1  0.89384100  0.69708800  0.54381800  1
  H  H3  1  0.54381800  0.89384100  0.69708800  1
  H  H4  1  0.69708800  0.54381800  0.89384100  1
  H  H5  1  0.10615900  0.30291200  0.45618200  1
  H  H6  1  0.45618200  0.10615900  0.30291200  1
  H  H7  1  0.30291200  0.45618200  0.10615900  1
  H  H8  1  0.80328100  0.66969000  0.30826100  1
  H  H9  1  0.30826100  0.80328100  0.66969000  1
  H  H10  1  0.66969000  0.30826100  0.80328100  1
  H  H11  1  0.69173900  0.19671900  0.33031000  1
  H  H12  1  0.33031000  0.69173900  0.19671900  1
  H  H13  1  0.19671900  0.33031000  0.69173900  1
  O  O14  1  0.43886900  0.79002100  0.61658700  1
  O  O15  1  0.61658700  0.43886900  0.79002100  1
  O  O16  1  0.20997900  0.38341300  0.56113100  1
  O  O17  1  0.56113100  0.20997900  0.38341300  1
  O  O18  1  0.38341300  0.56113100  0.20997900  1
  O  O19  1  0.79002100  0.61658700  0.43886900  1
  F  F20  1  0.06659300  0.84310900  0.74476600  1
  F  F21  1  0.74476600  0.06659300  0.84310900  1
  F  F22  1  0.84310900  0.74476600  0.06659300  1
  F  F23  1  0.93340700  0.15689100  0.25523400  1
  F  F24  1  0.15689100  0.25523400  0.93340700  1
  F  F25  1  0.25523400  0.93340700  0.15689100  1
