# generated using pymatgen
data_FeH18C3(N3F2)3
_symmetry_space_group_name_H-M   'P 1'
_cell_length_a   14.33583201
_cell_length_b   14.33583201
_cell_length_c   14.33583201
_cell_angle_alpha   90.00000000
_cell_angle_beta   90.00000000
_cell_angle_gamma   90.00000000
_symmetry_Int_Tables_number   1
_chemical_formula_structural   FeH18C3(N3F2)3
_chemical_formula_sum   'Fe8 H144 C24 N72 F48'
_cell_volume   2946.24398990
_cell_formula_units_Z   8
loop_
 _symmetry_equiv_pos_site_id
 _symmetry_equiv_pos_as_xyz
  1  'x, y, z'
loop_
 _atom_site_type_symbol
 _atom_site_label
 _atom_site_symmetry_multiplicity
 _atom_site_fract_x
 _atom_site_fract_y
 _atom_site_fract_z
 _atom_site_occupancy
  Fe  Fe0  1  0.00000000  -0.00000000  0.50000000  1
  Fe  Fe1  1  0.00000000  0.50000000  -0.00000000  1
  Fe  Fe2  1  0.50000000  -0.00000000  -0.00000000  1
  Fe  Fe3  1  0.50000000  0.50000000  0.50000000  1
  Fe  Fe4  1  0.50000000  0.50000000  -0.00000000  1
  Fe  Fe5  1  0.50000000  -0.00000000  0.50000000  1
  Fe  Fe6  1  0.00000000  0.50000000  0.50000000  1
  Fe  Fe7  1  0.00000000  -0.00000000  -0.00000000  1
  H  H8  1  0.46972260  0.75702699  0.39216711  1
  H  H9  1  0.53027740  0.25702699  0.10783289  1
  H  H10  1  0.03027740  0.24297301  0.89216711  1
  H  H11  1  0.96972260  0.74297301  0.60783289  1
  H  H12  1  0.39216711  0.46972260  0.75702699  1
  H  H13  1  0.10783289  0.53027740  0.25702699  1
  H  H14  1  0.89216711  0.03027740  0.24297301  1
  H  H15  1  0.60783289  0.96972260  0.74297301  1
  H  H16  1  0.75702699  0.39216711  0.46972260  1
  H  H17  1  0.25702699  0.10783289  0.53027740  1
  H  H18  1  0.24297301  0.89216711  0.03027740  1
  H  H19  1  0.74297301  0.60783289  0.96972260  1
  H  H20  1  0.53027740  0.24297301  0.60783289  1
  H  H21  1  0.46972260  0.74297301  0.89216711  1
  H  H22  1  0.96972260  0.75702699  0.10783289  1
  H  H23  1  0.03027740  0.25702699  0.39216711  1
  H  H24  1  0.60783289  0.53027740  0.24297301  1
  H  H25  1  0.89216711  0.46972260  0.74297301  1
  H  H26  1  0.10783289  0.96972260  0.75702699  1
  H  H27  1  0.39216711  0.03027740  0.25702699  1
  H  H28  1  0.24297301  0.60783289  0.53027740  1
  H  H29  1  0.74297301  0.89216711  0.46972260  1
  H  H30  1  0.75702699  0.10783289  0.96972260  1
  H  H31  1  0.25702699  0.39216711  0.03027740  1
  H  H32  1  0.47475223  0.64722068  0.33796002  1
  H  H33  1  0.52524777  0.14722068  0.16203998  1
  H  H34  1  0.02524777  0.35277932  0.83796002  1
  H  H35  1  0.97475223  0.85277932  0.66203998  1
  H  H36  1  0.33796002  0.47475223  0.64722068  1
  H  H37  1  0.16203998  0.52524777  0.14722068  1
  H  H38  1  0.83796002  0.02524777  0.35277932  1
  H  H39  1  0.66203998  0.97475223  0.85277932  1
  H  H40  1  0.64722068  0.33796002  0.47475223  1
  H  H41  1  0.14722068  0.16203998  0.52524777  1
  H  H42  1  0.35277932  0.83796002  0.02524777  1
  H  H43  1  0.85277932  0.66203998  0.97475223  1
  H  H44  1  0.52524777  0.35277932  0.66203998  1
  H  H45  1  0.47475223  0.85277932  0.83796002  1
  H  H46  1  0.97475223  0.64722068  0.16203998  1
  H  H47  1  0.02524777  0.14722068  0.33796002  1
  H  H48  1  0.66203998  0.52524777  0.35277932  1
  H  H49  1  0.83796002  0.47475223  0.85277932  1
  H  H50  1  0.16203998  0.97475223  0.64722068  1
  H  H51  1  0.33796002  0.02524777  0.14722068  1
  H  H52  1  0.35277932  0.66203998  0.52524777  1
  H  H53  1  0.85277932  0.83796002  0.47475223  1
  H  H54  1  0.64722068  0.16203998  0.97475223  1
  H  H55  1  0.14722068  0.33796002  0.02524777  1
  H  H56  1  0.49463053  0.64623351  0.16614082  1
  H  H57  1  0.50536947  0.14623351  0.33385918  1
  H  H58  1  0.00536947  0.35376649  0.66614082  1
  H  H59  1  0.99463053  0.85376649  0.83385918  1
  H  H60  1  0.16614082  0.49463053  0.64623351  1
  H  H61  1  0.33385918  0.50536947  0.14623351  1
  H  H62  1  0.66614082  0.00536947  0.35376649  1
  H  H63  1  0.83385918  0.99463053  0.85376649  1
  H  H64  1  0.64623351  0.16614082  0.49463053  1
  H  H65  1  0.14623351  0.33385918  0.50536947  1
  H  H66  1  0.35376649  0.66614082  0.00536947  1
  H  H67  1  0.85376649  0.83385918  0.99463053  1
  H  H68  1  0.50536947  0.35376649  0.83385918  1
  H  H69  1  0.49463053  0.85376649  0.66614082  1
  H  H70  1  0.99463053  0.64623351  0.33385918  1
  H  H71  1  0.00536947  0.14623351  0.16614082  1
  H  H72  1  0.83385918  0.50536947  0.35376649  1
  H  H73  1  0.66614082  0.49463053  0.85376649  1
  H  H74  1  0.33385918  0.99463053  0.64623351  1
  H  H75  1  0.16614082  0.00536947  0.14623351  1
  H  H76  1  0.35376649  0.83385918  0.50536947  1
  H  H77  1  0.85376649  0.66614082  0.49463053  1
  H  H78  1  0.64623351  0.33385918  0.99463053  1
  H  H79  1  0.14623351  0.16614082  0.00536947  1
  H  H80  1  0.50313167  0.75573186  0.11263719  1
  H  H81  1  0.49686833  0.25573186  0.38736281  1
  H  H82  1  0.99686833  0.24426814  0.61263719  1
  H  H83  1  0.00313167  0.74426814  0.88736281  1
  H  H84  1  0.11263719  0.50313167  0.75573186  1
  H  H85  1  0.38736281  0.49686833  0.25573186  1
  H  H86  1  0.61263719  0.99686833  0.24426814  1
  H  H87  1  0.88736281  0.00313167  0.74426814  1
  H  H88  1  0.75573186  0.11263719  0.50313167  1
  H  H89  1  0.25573186  0.38736281  0.49686833  1
  H  H90  1  0.24426814  0.61263719  0.99686833  1
  H  H91  1  0.74426814  0.88736281  0.00313167  1
  H  H92  1  0.49686833  0.24426814  0.88736281  1
  H  H93  1  0.50313167  0.74426814  0.61263719  1
  H  H94  1  0.00313167  0.75573186  0.38736281  1
  H  H95  1  0.99686833  0.25573186  0.11263719  1
  H  H96  1  0.88736281  0.49686833  0.24426814  1
  H  H97  1  0.61263719  0.50313167  0.74426814  1
  H  H98  1  0.38736281  0.00313167  0.75573186  1
  H  H99  1  0.11263719  0.99686833  0.25573186  1
  H  H100  1  0.24426814  0.88736281  0.49686833  1
  H  H101  1  0.74426814  0.61263719  0.50313167  1
  H  H102  1  0.75573186  0.38736281  0.00313167  1
  H  H103  1  0.25573186  0.11263719  0.99686833  1
  H  H104  1  0.48988373  0.89282851  0.18999889  1
  H  H105  1  0.51011627  0.39282851  0.31000111  1
  H  H106  1  0.01011627  0.10717149  0.68999889  1
  H  H107  1  0.98988373  0.60717149  0.81000111  1
  H  H108  1  0.18999889  0.48988373  0.89282851  1
  H  H109  1  0.31000111  0.51011627  0.39282851  1
  H  H110  1  0.68999889  0.01011627  0.10717149  1
  H  H111  1  0.81000111  0.98988373  0.60717149  1
  H  H112  1  0.89282851  0.18999889  0.48988373  1
  H  H113  1  0.39282851  0.31000111  0.51011627  1
  H  H114  1  0.10717149  0.68999889  0.01011627  1
  H  H115  1  0.60717149  0.81000111  0.98988373  1
  H  H116  1  0.51011627  0.10717149  0.81000111  1
  H  H117  1  0.48988373  0.60717149  0.68999889  1
  H  H118  1  0.98988373  0.89282851  0.31000111  1
  H  H119  1  0.01011627  0.39282851  0.18999889  1
  H  H120  1  0.81000111  0.51011627  0.10717149  1
  H  H121  1  0.68999889  0.48988373  0.60717149  1
  H  H122  1  0.31000111  0.98988373  0.89282851  1
  H  H123  1  0.18999889  0.01011627  0.39282851  1
  H  H124  1  0.10717149  0.81000111  0.51011627  1
  H  H125  1  0.60717149  0.68999889  0.48988373  1
  H  H126  1  0.89282851  0.31000111  0.98988373  1
  H  H127  1  0.39282851  0.18999889  0.01011627  1
  H  H128  1  0.48448411  0.89357290  0.31180054  1
  H  H129  1  0.51551589  0.39357290  0.18819946  1
  H  H130  1  0.01551589  0.10642710  0.81180054  1
  H  H131  1  0.98448411  0.60642710  0.68819946  1
  H  H132  1  0.31180054  0.48448411  0.89357290  1
  H  H133  1  0.18819946  0.51551589  0.39357290  1
  H  H134  1  0.81180054  0.01551589  0.10642710  1
  H  H135  1  0.68819946  0.98448411  0.60642710  1
  H  H136  1  0.89357290  0.31180054  0.48448411  1
  H  H137  1  0.39357290  0.18819946  0.51551589  1
  H  H138  1  0.10642710  0.81180054  0.01551589  1
  H  H139  1  0.60642710  0.68819946  0.98448411  1
  H  H140  1  0.51551589  0.10642710  0.68819946  1
  H  H141  1  0.48448411  0.60642710  0.81180054  1
  H  H142  1  0.98448411  0.89357290  0.18819946  1
  H  H143  1  0.01551589  0.39357290  0.31180054  1
  H  H144  1  0.68819946  0.51551589  0.10642710  1
  H  H145  1  0.81180054  0.48448411  0.60642710  1
  H  H146  1  0.18819946  0.98448411  0.89357290  1
  H  H147  1  0.31180054  0.01551589  0.39357290  1
  H  H148  1  0.10642710  0.68819946  0.51551589  1
  H  H149  1  0.60642710  0.81180054  0.48448411  1
  H  H150  1  0.89357290  0.18819946  0.98448411  1
  H  H151  1  0.39357290  0.31180054  0.01551589  1
  C  C152  1  0.48235222  0.76331061  0.25177991  1
  C  C153  1  0.51764778  0.26331061  0.24822009  1
  C  C154  1  0.01764778  0.23668939  0.75177991  1
  C  C155  1  0.98235222  0.73668939  0.74822009  1
  C  C156  1  0.25177991  0.48235222  0.76331061  1
  C  C157  1  0.24822009  0.51764778  0.26331061  1
  C  C158  1  0.75177991  0.01764778  0.23668939  1
  C  C159  1  0.74822009  0.98235222  0.73668939  1
  C  C160  1  0.76331061  0.25177991  0.48235222  1
  C  C161  1  0.26331061  0.24822009  0.51764778  1
  C  C162  1  0.23668939  0.75177991  0.01764778  1
  C  C163  1  0.73668939  0.74822009  0.98235222  1
  C  C164  1  0.51764778  0.23668939  0.74822009  1
  C  C165  1  0.48235222  0.73668939  0.75177991  1
  C  C166  1  0.98235222  0.76331061  0.24822009  1
  C  C167  1  0.01764778  0.26331061  0.25177991  1
  C  C168  1  0.74822009  0.51764778  0.23668939  1
  C  C169  1  0.75177991  0.48235222  0.73668939  1
  C  C170  1  0.24822009  0.98235222  0.76331061  1
  C  C171  1  0.25177991  0.01764778  0.26331061  1
  C  C172  1  0.23668939  0.74822009  0.51764778  1
  C  C173  1  0.73668939  0.75177991  0.48235222  1
  C  C174  1  0.76331061  0.24822009  0.98235222  1
  C  C175  1  0.26331061  0.25177991  0.01764778  1
  N  N176  1  0.47056328  0.71837097  0.33247422  1
  N  N177  1  0.52943672  0.21837097  0.16752578  1
  N  N178  1  0.02943672  0.28162903  0.83247422  1
  N  N179  1  0.97056328  0.78162903  0.66752578  1
  N  N180  1  0.33247422  0.47056328  0.71837097  1
  N  N181  1  0.16752578  0.52943672  0.21837097  1
  N  N182  1  0.83247422  0.02943672  0.28162903  1
  N  N183  1  0.66752578  0.97056328  0.78162903  1
  N  N184  1  0.71837097  0.33247422  0.47056328  1
  N  N185  1  0.21837097  0.16752578  0.52943672  1
  N  N186  1  0.28162903  0.83247422  0.02943672  1
  N  N187  1  0.78162903  0.66752578  0.97056328  1
  N  N188  1  0.52943672  0.28162903  0.66752578  1
  N  N189  1  0.47056328  0.78162903  0.83247422  1
  N  N190  1  0.97056328  0.71837097  0.16752578  1
  N  N191  1  0.02943672  0.21837097  0.33247422  1
  N  N192  1  0.66752578  0.52943672  0.28162903  1
  N  N193  1  0.83247422  0.47056328  0.78162903  1
  N  N194  1  0.16752578  0.97056328  0.71837097  1
  N  N195  1  0.33247422  0.02943672  0.21837097  1
  N  N196  1  0.28162903  0.66752578  0.52943672  1
  N  N197  1  0.78162903  0.83247422  0.47056328  1
  N  N198  1  0.71837097  0.16752578  0.97056328  1
  N  N199  1  0.21837097  0.33247422  0.02943672  1
  N  N200  1  0.48430021  0.85673557  0.25103200  1
  N  N201  1  0.51569979  0.35673557  0.24896800  1
  N  N202  1  0.01569979  0.14326443  0.75103200  1
  N  N203  1  0.98430021  0.64326443  0.74896800  1
  N  N204  1  0.25103200  0.48430021  0.85673557  1
  N  N205  1  0.24896800  0.51569979  0.35673557  1
  N  N206  1  0.75103200  0.01569979  0.14326443  1
  N  N207  1  0.74896800  0.98430021  0.64326443  1
  N  N208  1  0.85673557  0.25103200  0.48430021  1
  N  N209  1  0.35673557  0.24896800  0.51569979  1
  N  N210  1  0.14326443  0.75103200  0.01569979  1
  N  N211  1  0.64326443  0.74896800  0.98430021  1
  N  N212  1  0.51569979  0.14326443  0.74896800  1
  N  N213  1  0.48430021  0.64326443  0.75103200  1
  N  N214  1  0.98430021  0.85673557  0.24896800  1
  N  N215  1  0.01569979  0.35673557  0.25103200  1
  N  N216  1  0.74896800  0.51569979  0.14326443  1
  N  N217  1  0.75103200  0.48430021  0.64326443  1
  N  N218  1  0.24896800  0.98430021  0.85673557  1
  N  N219  1  0.25103200  0.01569979  0.35673557  1
  N  N220  1  0.14326443  0.74896800  0.51569979  1
  N  N221  1  0.64326443  0.75103200  0.48430021  1
  N  N222  1  0.85673557  0.24896800  0.98430021  1
  N  N223  1  0.35673557  0.25103200  0.01569979  1
  N  N224  1  0.49077301  0.71739831  0.17101292  1
  N  N225  1  0.50922699  0.21739831  0.32898708  1
  N  N226  1  0.00922699  0.28260169  0.67101292  1
  N  N227  1  0.99077301  0.78260169  0.82898708  1
  N  N228  1  0.17101292  0.49077301  0.71739831  1
  N  N229  1  0.32898708  0.50922699  0.21739831  1
  N  N230  1  0.67101292  0.00922699  0.28260169  1
  N  N231  1  0.82898708  0.99077301  0.78260169  1
  N  N232  1  0.71739831  0.17101292  0.49077301  1
  N  N233  1  0.21739831  0.32898708  0.50922699  1
  N  N234  1  0.28260169  0.67101292  0.00922699  1
  N  N235  1  0.78260169  0.82898708  0.99077301  1
  N  N236  1  0.50922699  0.28260169  0.82898708  1
  N  N237  1  0.49077301  0.78260169  0.67101292  1
  N  N238  1  0.99077301  0.71739831  0.32898708  1
  N  N239  1  0.00922699  0.21739831  0.17101292  1
  N  N240  1  0.82898708  0.50922699  0.28260169  1
  N  N241  1  0.67101292  0.49077301  0.78260169  1
  N  N242  1  0.32898708  0.99077301  0.71739831  1
  N  N243  1  0.17101292  0.00922699  0.21739831  1
  N  N244  1  0.28260169  0.82898708  0.50922699  1
  N  N245  1  0.78260169  0.67101292  0.49077301  1
  N  N246  1  0.71739831  0.32898708  0.99077301  1
  N  N247  1  0.21739831  0.17101292  0.00922699  1
  F  F248  1  0.02017922  0.36654379  0.02714531  1
  F  F249  1  0.97982078  0.86654379  0.47285469  1
  F  F250  1  0.47982078  0.63345621  0.52714531  1
  F  F251  1  0.52017922  0.13345621  0.97285469  1
  F  F252  1  0.02714531  0.02017922  0.36654379  1
  F  F253  1  0.47285469  0.97982078  0.86654379  1
  F  F254  1  0.52714531  0.47982078  0.63345621  1
  F  F255  1  0.97285469  0.52017922  0.13345621  1
  F  F256  1  0.36654379  0.02714531  0.02017922  1
  F  F257  1  0.86654379  0.47285469  0.97982078  1
  F  F258  1  0.63345621  0.52714531  0.47982078  1
  F  F259  1  0.13345621  0.97285469  0.52017922  1
  F  F260  1  0.97982078  0.63345621  0.97285469  1
  F  F261  1  0.02017922  0.13345621  0.52714531  1
  F  F262  1  0.52017922  0.36654379  0.47285469  1
  F  F263  1  0.47982078  0.86654379  0.02714531  1
  F  F264  1  0.97285469  0.97982078  0.63345621  1
  F  F265  1  0.52714531  0.02017922  0.13345621  1
  F  F266  1  0.47285469  0.52017922  0.36654379  1
  F  F267  1  0.02714531  0.47982078  0.86654379  1
  F  F268  1  0.63345621  0.97285469  0.97982078  1
  F  F269  1  0.13345621  0.52714531  0.02017922  1
  F  F270  1  0.36654379  0.47285469  0.52017922  1
  F  F271  1  0.86654379  0.02714531  0.47982078  1
  F  F272  1  0.47486539  0.02675871  0.36744919  1
  F  F273  1  0.52513461  0.52675871  0.13255081  1
  F  F274  1  0.02513461  0.97324129  0.86744919  1
  F  F275  1  0.97486539  0.47324129  0.63255081  1
  F  F276  1  0.36744919  0.47486539  0.02675871  1
  F  F277  1  0.13255081  0.52513461  0.52675871  1
  F  F278  1  0.86744919  0.02513461  0.97324129  1
  F  F279  1  0.63255081  0.97486539  0.47324129  1
  F  F280  1  0.02675871  0.36744919  0.47486539  1
  F  F281  1  0.52675871  0.13255081  0.52513461  1
  F  F282  1  0.97324129  0.86744919  0.02513461  1
  F  F283  1  0.47324129  0.63255081  0.97486539  1
  F  F284  1  0.52513461  0.97324129  0.63255081  1
  F  F285  1  0.47486539  0.47324129  0.86744919  1
  F  F286  1  0.97486539  0.02675871  0.13255081  1
  F  F287  1  0.02513461  0.52675871  0.36744919  1
  F  F288  1  0.63255081  0.52513461  0.97324129  1
  F  F289  1  0.86744919  0.47486539  0.47324129  1
  F  F290  1  0.13255081  0.97486539  0.02675871  1
  F  F291  1  0.36744919  0.02513461  0.52675871  1
  F  F292  1  0.97324129  0.63255081  0.52513461  1
  F  F293  1  0.47324129  0.86744919  0.47486539  1
  F  F294  1  0.02675871  0.13255081  0.97486539  1
  F  F295  1  0.52675871  0.36744919  0.02513461  1
