# generated using pymatgen
data_BaH4(IO)2
_symmetry_space_group_name_H-M   'P 1'
_cell_length_a   6.74771767
_cell_length_b   6.74771767
_cell_length_c   8.80088224
_cell_angle_alpha   72.87090193
_cell_angle_beta   72.87090193
_cell_angle_gamma   69.16496630
_symmetry_Int_Tables_number   1
_chemical_formula_structural   BaH4(IO)2
_chemical_formula_sum   'Ba2 H8 I4 O4'
_cell_volume   349.73134066
_cell_formula_units_Z   2
loop_
 _symmetry_equiv_pos_site_id
 _symmetry_equiv_pos_as_xyz
  1  'x, y, z'
loop_
 _atom_site_type_symbol
 _atom_site_label
 _atom_site_symmetry_multiplicity
 _atom_site_fract_x
 _atom_site_fract_y
 _atom_site_fract_z
 _atom_site_occupancy
  Ba  Ba0  1  0.59566300  0.40433700  0.25000000  1
  Ba  Ba1  1  0.40433700  0.59566300  0.75000000  1
  H  H2  1  0.71339200  0.13946400  0.61333500  1
  H  H3  1  0.86053600  0.28660800  0.88666500  1
  H  H4  1  0.28660800  0.86053600  0.38666500  1
  H  H5  1  0.13946400  0.71339200  0.11333500  1
  H  H6  1  0.87251500  0.28021400  0.55190400  1
  H  H7  1  0.71978600  0.12748500  0.94809600  1
  H  H8  1  0.28021400  0.87251500  0.05190400  1
  H  H9  1  0.12748500  0.71978600  0.44809600  1
  I  I10  1  0.19017300  0.22613600  0.14921600  1
  I  I11  1  0.77386400  0.80982700  0.35078400  1
  I  I12  1  0.22613600  0.19017300  0.64921600  1
  I  I13  1  0.80982700  0.77386400  0.85078400  1
  O  O14  1  0.71347600  0.27772400  0.94476200  1
  O  O15  1  0.72227600  0.28652400  0.55523800  1
  O  O16  1  0.28652400  0.72227600  0.05523800  1
  O  O17  1  0.27772400  0.71347600  0.44476200  1
