# generated using pymatgen
data_CrFeH18(NF)6
_symmetry_space_group_name_H-M   'P 1'
_cell_length_a   10.18150200
_cell_length_b   10.18150200
_cell_length_c   10.18150200
_cell_angle_alpha   90.00000000
_cell_angle_beta   90.00000000
_cell_angle_gamma   90.00000000
_symmetry_Int_Tables_number   1
_chemical_formula_structural   CrFeH18(NF)6
_chemical_formula_sum   'Cr4 Fe4 H72 N24 F24'
_cell_volume   1055.44486850
_cell_formula_units_Z   4
loop_
 _symmetry_equiv_pos_site_id
 _symmetry_equiv_pos_as_xyz
  1  'x, y, z'
loop_
 _atom_site_type_symbol
 _atom_site_label
 _atom_site_symmetry_multiplicity
 _atom_site_fract_x
 _atom_site_fract_y
 _atom_site_fract_z
 _atom_site_occupancy
  Cr  Cr0  1  0.50000000  0.50000000  0.50000000  1
  Cr  Cr1  1  0.00000000  0.50000000  0.00000000  1
  Cr  Cr2  1  0.00000000  0.00000000  0.50000000  1
  Cr  Cr3  1  0.50000000  0.00000000  0.00000000  1
  Fe  Fe4  1  0.00000000  0.00000000  0.00000000  1
  Fe  Fe5  1  0.50000000  0.00000000  0.50000000  1
  Fe  Fe6  1  0.50000000  0.50000000  0.00000000  1
  Fe  Fe7  1  0.00000000  0.50000000  0.50000000  1
  H  H8  1  0.73649000  0.04494400  0.10755400  1
  H  H9  1  0.23649000  0.45505600  0.89244600  1
  H  H10  1  0.26351000  0.54494400  0.39244600  1
  H  H11  1  0.45505600  0.89244600  0.23649000  1
  H  H12  1  0.39244600  0.26351000  0.54494400  1
  H  H13  1  0.89244600  0.23649000  0.45505600  1
  H  H14  1  0.04494400  0.10755400  0.73649000  1
  H  H15  1  0.10755400  0.73649000  0.04494400  1
  H  H16  1  0.54494400  0.39244600  0.26351000  1
  H  H17  1  0.95505600  0.60755400  0.76351000  1
  H  H18  1  0.60755400  0.76351000  0.95505600  1
  H  H19  1  0.76351000  0.95505600  0.60755400  1
  H  H20  1  0.26351000  0.95505600  0.89244600  1
  H  H21  1  0.76351000  0.54494400  0.10755400  1
  H  H22  1  0.73649000  0.45505600  0.60755400  1
  H  H23  1  0.54494400  0.10755400  0.76351000  1
  H  H24  1  0.60755400  0.73649000  0.45505600  1
  H  H25  1  0.10755400  0.76351000  0.54494400  1
  H  H26  1  0.95505600  0.89244600  0.26351000  1
  H  H27  1  0.89244600  0.26351000  0.95505600  1
  H  H28  1  0.45505600  0.60755400  0.73649000  1
  H  H29  1  0.04494400  0.39244600  0.23649000  1
  H  H30  1  0.39244600  0.23649000  0.04494400  1
  H  H31  1  0.23649000  0.04494400  0.39244600  1
  H  H32  1  0.62793000  0.04589400  0.22703200  1
  H  H33  1  0.12793000  0.45410600  0.77296800  1
  H  H34  1  0.37207000  0.54589400  0.27296800  1
  H  H35  1  0.45410600  0.77296800  0.12793000  1
  H  H36  1  0.27296800  0.37207000  0.54589400  1
  H  H37  1  0.77296800  0.12793000  0.45410600  1
  H  H38  1  0.04589400  0.22703200  0.62793000  1
  H  H39  1  0.67600200  0.37249000  0.35537500  1
  H  H40  1  0.22703200  0.62793000  0.04589400  1
  H  H41  1  0.95410600  0.72703200  0.87207000  1
  H  H42  1  0.72703200  0.87207000  0.95410600  1
  H  H43  1  0.87207000  0.95410600  0.72703200  1
  H  H44  1  0.37207000  0.95410600  0.77296800  1
  H  H45  1  0.87207000  0.54589400  0.22703200  1
  H  H46  1  0.62793000  0.45410600  0.72703200  1
  H  H47  1  0.54589400  0.22703200  0.87207000  1
  H  H48  1  0.72703200  0.62793000  0.45410600  1
  H  H49  1  0.22703200  0.87207000  0.54589400  1
  H  H50  1  0.95410600  0.77296800  0.37207000  1
  H  H51  1  0.77296800  0.37207000  0.95410600  1
  H  H52  1  0.45410600  0.72703200  0.62793000  1
  H  H53  1  0.04589400  0.27296800  0.12793000  1
  H  H54  1  0.27296800  0.12793000  0.04589400  1
  H  H55  1  0.12793000  0.04589400  0.27296800  1
  H  H56  1  0.64462500  0.17600200  0.12751000  1
  H  H57  1  0.14462500  0.32399800  0.87249000  1
  H  H58  1  0.35537500  0.67600200  0.37249000  1
  H  H59  1  0.32399800  0.87249000  0.14462500  1
  H  H60  1  0.37249000  0.35537500  0.67600200  1
  H  H61  1  0.87249000  0.14462500  0.32399800  1
  H  H62  1  0.17600200  0.12751000  0.64462500  1
  H  H63  1  0.12751000  0.64462500  0.17600200  1
  H  H64  1  0.14462500  0.17600200  0.37249000  1
  H  H65  1  0.37249000  0.14462500  0.17600200  1
  H  H66  1  0.17600200  0.37249000  0.14462500  1
  H  H67  1  0.32399800  0.62751000  0.64462500  1
  H  H68  1  0.87249000  0.35537500  0.82399800  1
  H  H69  1  0.82399800  0.87249000  0.35537500  1
  H  H70  1  0.12751000  0.85537500  0.67600200  1
  H  H71  1  0.62751000  0.64462500  0.32399800  1
  H  H72  1  0.67600200  0.12751000  0.85537500  1
  H  H73  1  0.64462500  0.32399800  0.62751000  1
  H  H74  1  0.85537500  0.67600200  0.12751000  1
  H  H75  1  0.35537500  0.82399800  0.87249000  1
  H  H76  1  0.85537500  0.82399800  0.62751000  1
  H  H77  1  0.62751000  0.85537500  0.82399800  1
  H  H78  1  0.82399800  0.62751000  0.85537500  1
  H  H79  1  0.54589400  0.27296800  0.37207000  1
  N  N80  1  0.86880500  0.14333700  0.42510500  1
  N  N81  1  0.36880500  0.35666300  0.57489500  1
  N  N82  1  0.13119500  0.64333700  0.07489500  1
  N  N83  1  0.35666300  0.57489500  0.36880500  1
  N  N84  1  0.07489500  0.13119500  0.64333700  1
  N  N85  1  0.57489500  0.36880500  0.35666300  1
  N  N86  1  0.14333700  0.42510500  0.86880500  1
  N  N87  1  0.42510500  0.86880500  0.14333700  1
  N  N88  1  0.64333700  0.07489500  0.13119500  1
  N  N89  1  0.85666300  0.92510500  0.63119500  1
  N  N90  1  0.92510500  0.63119500  0.85666300  1
  N  N91  1  0.63119500  0.85666300  0.92510500  1
  N  N92  1  0.13119500  0.85666300  0.57489500  1
  N  N93  1  0.63119500  0.64333700  0.42510500  1
  N  N94  1  0.86880500  0.35666300  0.92510500  1
  N  N95  1  0.64333700  0.42510500  0.63119500  1
  N  N96  1  0.92510500  0.86880500  0.35666300  1
  N  N97  1  0.42510500  0.63119500  0.64333700  1
  N  N98  1  0.85666300  0.57489500  0.13119500  1
  N  N99  1  0.57489500  0.13119500  0.85666300  1
  N  N100  1  0.35666300  0.92510500  0.86880500  1
  N  N101  1  0.14333700  0.07489500  0.36880500  1
  N  N102  1  0.07489500  0.36880500  0.14333700  1
  N  N103  1  0.36880500  0.14333700  0.07489500  1
  F  F104  1  0.61714400  0.14075900  0.56275900  1
  F  F105  1  0.11714400  0.35924100  0.43724100  1
  F  F106  1  0.38285600  0.64075900  0.93724100  1
  F  F107  1  0.35924100  0.43724100  0.11714400  1
  F  F108  1  0.11714400  0.14075900  0.93724100  1
  F  F109  1  0.43724100  0.11714400  0.35924100  1
  F  F110  1  0.14075900  0.56275900  0.61714400  1
  F  F111  1  0.56275900  0.61714400  0.14075900  1
  F  F112  1  0.64075900  0.93724100  0.38285600  1
  F  F113  1  0.85924100  0.06275900  0.88285600  1
  F  F114  1  0.06275900  0.88285600  0.85924100  1
  F  F115  1  0.88285600  0.85924100  0.06275900  1
  F  F116  1  0.38285600  0.85924100  0.43724100  1
  F  F117  1  0.88285600  0.64075900  0.56275900  1
  F  F118  1  0.61714400  0.35924100  0.06275900  1
  F  F119  1  0.64075900  0.56275900  0.88285600  1
  F  F120  1  0.06275900  0.61714400  0.35924100  1
  F  F121  1  0.56275900  0.88285600  0.64075900  1
  F  F122  1  0.85924100  0.43724100  0.38285600  1
  F  F123  1  0.43724100  0.38285600  0.85924100  1
  F  F124  1  0.35924100  0.06275900  0.61714400  1
  F  F125  1  0.14075900  0.93724100  0.11714400  1
  F  F126  1  0.93724100  0.11714400  0.14075900  1
  F  F127  1  0.93724100  0.38285600  0.64075900  1
