# generated using pymatgen
data_K3H(SeO4)2
_symmetry_space_group_name_H-M   'P 1'
_cell_length_a   8.25216351
_cell_length_b   8.25216351
_cell_length_c   10.34552328
_cell_angle_alpha   77.43093385
_cell_angle_beta   77.43093385
_cell_angle_gamma   42.83042892
_symmetry_Int_Tables_number   1
_chemical_formula_structural   K3H(SeO4)2
_chemical_formula_sum   'K6 H2 Se4 O16'
_cell_volume   465.67967900
_cell_formula_units_Z   2
loop_
 _symmetry_equiv_pos_site_id
 _symmetry_equiv_pos_as_xyz
  1  'x, y, z'
loop_
 _atom_site_type_symbol
 _atom_site_label
 _atom_site_symmetry_multiplicity
 _atom_site_fract_x
 _atom_site_fract_y
 _atom_site_fract_z
 _atom_site_occupancy
  K  K0  1  0.75719500  0.24280500  0.25000000  1
  K  K1  1  0.24280500  0.75719500  0.75000000  1
  K  K2  1  0.53896600  0.07169200  0.65203600  1
  K  K3  1  0.92830800  0.46103400  0.84796400  1
  K  K4  1  0.07169200  0.53896600  0.15203600  1
  K  K5  1  0.46103400  0.92830800  0.34796400  1
  H  H6  1  0.00000000  0.00000000  0.00000000  1
  H  H7  1  0.00000000  0.00000000  0.50000000  1
  Se  Se8  1  0.11236800  0.65508800  0.46133900  1
  Se  Se9  1  0.34491200  0.88763200  0.03866100  1
  Se  Se10  1  0.88763200  0.34491200  0.53866100  1
  Se  Se11  1  0.65508800  0.11236800  0.96133900  1
  O  O12  1  0.41120500  0.33442700  0.88139200  1
  O  O13  1  0.66557300  0.58879500  0.61860800  1
  O  O14  1  0.58879500  0.66557300  0.11860800  1
  O  O15  1  0.33442700  0.41120500  0.38139200  1
  O  O16  1  0.59442600  0.09559100  0.12527500  1
  O  O17  1  0.90440900  0.40557400  0.37472500  1
  O  O18  1  0.40557400  0.90440900  0.87472500  1
  O  O19  1  0.09559100  0.59442600  0.62527500  1
  O  O20  1  0.85056500  0.83220800  0.39967300  1
  O  O21  1  0.16779300  0.14943500  0.10032700  1
  O  O22  1  0.14943500  0.16779300  0.60032700  1
  O  O23  1  0.83220700  0.85056500  0.89967300  1
  O  O24  1  0.16962300  0.82489600  0.43847500  1
  O  O25  1  0.17510400  0.83037700  0.06152500  1
  O  O26  1  0.83037700  0.17510400  0.56152500  1
  O  O27  1  0.82489600  0.16962300  0.93847500  1
