# generated using pymatgen
data_NiH12(N3O2)2
_symmetry_space_group_name_H-M   'P 1'
_cell_length_a   7.18520073
_cell_length_b   7.18520073
_cell_length_c   6.78431025
_cell_angle_alpha   67.87580618
_cell_angle_beta   67.87580618
_cell_angle_gamma   47.02278099
_symmetry_Int_Tables_number   1
_chemical_formula_structural   NiH12(N3O2)2
_chemical_formula_sum   'Ni1 H12 N6 O4'
_cell_volume   233.64409351
_cell_formula_units_Z   1
loop_
 _symmetry_equiv_pos_site_id
 _symmetry_equiv_pos_as_xyz
  1  'x, y, z'
loop_
 _atom_site_type_symbol
 _atom_site_label
 _atom_site_symmetry_multiplicity
 _atom_site_fract_x
 _atom_site_fract_y
 _atom_site_fract_z
 _atom_site_occupancy
  Ni  Ni0  1  0.00000000  0.00000000  0.00000000  1
  H  H1  1  0.43420000  0.70312200  0.28029200  1
  H  H2  1  0.29687800  0.56580000  0.71970800  1
  H  H3  1  0.56580000  0.29687800  0.71970800  1
  H  H4  1  0.70312200  0.43420000  0.28029200  1
  H  H5  1  0.14342800  0.41140800  0.19043700  1
  H  H6  1  0.58859200  0.85657200  0.80956300  1
  H  H7  1  0.85657200  0.58859200  0.80956300  1
  H  H8  1  0.41140800  0.14342800  0.19043700  1
  H  H9  1  0.05606200  0.69750100  0.40149600  1
  H  H10  1  0.30249900  0.94393800  0.59850400  1
  H  H11  1  0.94393800  0.30249900  0.59850400  1
  H  H12  1  0.69750100  0.05606200  0.40149600  1
  N  N13  1  0.15522400  0.93087400  0.67959400  1
  N  N14  1  0.86478700  0.86478700  0.05758900  1
  N  N15  1  0.13521300  0.13521300  0.94241100  1
  N  N16  1  0.84477600  0.06912600  0.32040600  1
  N  N17  1  0.06912600  0.84477600  0.32040600  1
  N  N18  1  0.93087400  0.15522400  0.67959400  1
  O  O19  1  0.27199000  0.27199000  0.28373900  1
  O  O20  1  0.61457900  0.61457900  0.28135800  1
  O  O21  1  0.38542100  0.38542100  0.71864200  1
  O  O22  1  0.72801000  0.72801000  0.71626100  1
