# generated using pymatgen
data_GaH36C12S6(IO2)3
_symmetry_space_group_name_H-M   'P 1'
_cell_length_a   10.31288899
_cell_length_b   10.31288899
_cell_length_c   10.31288953
_cell_angle_alpha   65.03761222
_cell_angle_beta   65.03761222
_cell_angle_gamma   65.03761506
_symmetry_Int_Tables_number   1
_chemical_formula_structural   GaH36C12S6(IO2)3
_chemical_formula_sum   'Ga1 H36 C12 S6 I3 O6'
_cell_volume   860.86961256
_cell_formula_units_Z   1
loop_
 _symmetry_equiv_pos_site_id
 _symmetry_equiv_pos_as_xyz
  1  'x, y, z'
loop_
 _atom_site_type_symbol
 _atom_site_label
 _atom_site_symmetry_multiplicity
 _atom_site_fract_x
 _atom_site_fract_y
 _atom_site_fract_z
 _atom_site_occupancy
  Ga  Ga0  1  0.00000000  0.00000000  0.00000000  1
  H  H1  1  0.77346100  0.44447700  0.24332100  1
  H  H2  1  0.44447700  0.24332100  0.77346100  1
  H  H3  1  0.24332100  0.77346100  0.44447700  1
  H  H4  1  0.22653900  0.55552300  0.75667900  1
  H  H5  1  0.55552300  0.75667900  0.22653900  1
  H  H6  1  0.75667900  0.22653900  0.55552300  1
  H  H7  1  0.96843000  0.34973300  0.16885700  1
  H  H8  1  0.34973300  0.16885700  0.96843000  1
  H  H9  1  0.16885700  0.96843000  0.34973300  1
  H  H10  1  0.03157000  0.65026700  0.83114300  1
  H  H11  1  0.65026700  0.83114300  0.03157000  1
  H  H12  1  0.83114300  0.03157000  0.65026700  1
  H  H13  1  0.85840200  0.48733600  0.04175000  1
  H  H14  1  0.48733600  0.04175000  0.85840200  1
  H  H15  1  0.04175000  0.85840200  0.48733600  1
  H  H16  1  0.70726200  0.89881100  0.41435400  1
  H  H17  1  0.14159800  0.51266400  0.95825000  1
  H  H18  1  0.95825000  0.14159800  0.51266400  1
  H  H19  1  0.58564600  0.29273800  0.10118900  1
  H  H20  1  0.29273800  0.10118900  0.58564600  1
  H  H21  1  0.10118900  0.58564600  0.29273800  1
  H  H22  1  0.41435400  0.70726200  0.89881100  1
  H  H23  1  0.99825400  0.34376900  0.54467500  1
  H  H24  1  0.54467500  0.99825400  0.34376900  1
  H  H25  1  0.34376900  0.54467500  0.99825400  1
  H  H26  1  0.00174600  0.65623100  0.45532500  1
  H  H27  1  0.45532500  0.00174600  0.65623100  1
  H  H28  1  0.65623100  0.45532500  0.00174600  1
  H  H29  1  0.79963700  0.44357800  0.58535800  1
  H  H30  1  0.58535800  0.79963700  0.44357800  1
  H  H31  1  0.44357800  0.58535800  0.79963700  1
  H  H32  1  0.20036300  0.55642200  0.41464200  1
  H  H33  1  0.41464200  0.20036300  0.55642200  1
  H  H34  1  0.55642200  0.41464200  0.20036300  1
  H  H35  1  0.89881100  0.41435400  0.70726200  1
  H  H36  1  0.51266400  0.95825000  0.14159800  1
  C  C37  1  0.63267100  0.36663800  0.10778300  1
  C  C38  1  0.36663800  0.10778300  0.63267100  1
  C  C39  1  0.10778300  0.63267100  0.36663800  1
  C  C40  1  0.36732900  0.63336200  0.89221700  1
  C  C41  1  0.84981100  0.14238400  0.59980000  1
  C  C42  1  0.59980000  0.84981100  0.14238400  1
  C  C43  1  0.14238400  0.59980000  0.84981100  1
  C  C44  1  0.15018900  0.85761600  0.40020000  1
  C  C45  1  0.89221700  0.36732900  0.63336200  1
  C  C46  1  0.85761600  0.40020000  0.15018900  1
  C  C47  1  0.63336200  0.89221700  0.36732900  1
  C  C48  1  0.40020000  0.15018900  0.85761600  1
  S  S49  1  0.80347000  0.25472400  0.15483900  1
  S  S50  1  0.25472400  0.15483900  0.80347000  1
  S  S51  1  0.15483900  0.80347000  0.25472400  1
  S  S52  1  0.19653000  0.74527600  0.84516100  1
  S  S53  1  0.74527600  0.84516100  0.19653000  1
  S  S54  1  0.84516100  0.19653000  0.74527600  1
  I  I55  1  0.50000000  0.50000000  0.50000000  1
  I  I56  1  0.75164800  0.75164800  0.75164800  1
  I  I57  1  0.24835300  0.24835300  0.24835300  1
  O  O58  1  0.91616600  0.21087500  0.01043800  1
  O  O59  1  0.21087500  0.01043800  0.91616600  1
  O  O60  1  0.98956200  0.08383400  0.78912500  1
  O  O61  1  0.08383400  0.78912500  0.98956200  1
  O  O62  1  0.78912500  0.98956200  0.08383400  1
  O  O63  1  0.01043800  0.91616600  0.21087500  1
