# generated using pymatgen
data_Sr3Al2(HO)12
_symmetry_space_group_name_H-M   'P 1'
_cell_length_a   11.43461145
_cell_length_b   11.43461145
_cell_length_c   11.43461145
_cell_angle_alpha   109.47122063
_cell_angle_beta   109.47122063
_cell_angle_gamma   109.47122063
_symmetry_Int_Tables_number   1
_chemical_formula_structural   Sr3Al2(HO)12
_chemical_formula_sum   'Sr12 Al8 H48 O48'
_cell_volume   1150.91260055
_cell_formula_units_Z   4
loop_
 _symmetry_equiv_pos_site_id
 _symmetry_equiv_pos_as_xyz
  1  'x, y, z'
loop_
 _atom_site_type_symbol
 _atom_site_label
 _atom_site_symmetry_multiplicity
 _atom_site_fract_x
 _atom_site_fract_y
 _atom_site_fract_z
 _atom_site_occupancy
  Sr  Sr0  1  0.25000000  0.37500000  0.12500000  1
  Sr  Sr1  1  0.75000000  0.12500000  0.37500000  1
  Sr  Sr2  1  0.37500000  0.12500000  0.25000000  1
  Sr  Sr3  1  0.37500000  0.75000000  0.12500000  1
  Sr  Sr4  1  0.12500000  0.37500000  0.75000000  1
  Sr  Sr5  1  0.12500000  0.25000000  0.37500000  1
  Sr  Sr6  1  0.62500000  0.25000000  0.87500000  1
  Sr  Sr7  1  0.75000000  0.62500000  0.87500000  1
  Sr  Sr8  1  0.25000000  0.87500000  0.62500000  1
  Sr  Sr9  1  0.62500000  0.87500000  0.75000000  1
  Sr  Sr10  1  0.87500000  0.62500000  0.25000000  1
  Sr  Sr11  1  0.87500000  0.75000000  0.62500000  1
  Al  Al12  1  0.50000000  0.00000000  0.00000000  1
  Al  Al13  1  0.50000000  0.50000000  0.00000000  1
  Al  Al14  1  0.00000000  0.50000000  0.50000000  1
  Al  Al15  1  0.00000000  0.00000000  0.00000000  1
  Al  Al16  1  0.00000000  0.00000000  0.50000000  1
  Al  Al17  1  0.50000000  0.50000000  0.50000000  1
  Al  Al18  1  0.00000000  0.50000000  0.00000000  1
  Al  Al19  1  0.50000000  0.00000000  0.50000000  1
  H  H20  1  0.74926300  0.80848600  0.36128500  1
  H  H21  1  0.36128500  0.74926300  0.80848600  1
  H  H22  1  0.11202200  0.05922300  0.75073700  1
  H  H23  1  0.55279900  0.69151400  0.44077700  1
  H  H24  1  0.05922300  0.80848600  0.94720100  1
  H  H25  1  0.13871500  0.94720100  0.38797800  1
  H  H26  1  0.36128500  0.11202200  0.55279900  1
  H  H27  1  0.80848600  0.36128500  0.74926300  1
  H  H28  1  0.44077700  0.38797800  0.74926300  1
  H  H29  1  0.55279900  0.36128500  0.11202200  1
  H  H30  1  0.80848600  0.94720100  0.05922300  1
  H  H31  1  0.69151400  0.75073700  0.13871500  1
  H  H32  1  0.75073700  0.13871500  0.69151400  1
  H  H33  1  0.11202200  0.55279900  0.36128500  1
  H  H34  1  0.74926300  0.44077700  0.38797800  1
  H  H35  1  0.38797800  0.74926300  0.44077700  1
  H  H36  1  0.94720100  0.05922300  0.80848600  1
  H  H37  1  0.75073700  0.11202200  0.05922300  1
  H  H38  1  0.94720100  0.38797800  0.13871500  1
  H  H39  1  0.44077700  0.55279900  0.69151400  1
  H  H40  1  0.38797800  0.13871500  0.94720100  1
  H  H41  1  0.13871500  0.69151400  0.75073700  1
  H  H42  1  0.25073700  0.19151400  0.63871500  1
  H  H43  1  0.63871500  0.25073700  0.19151400  1
  H  H44  1  0.88797800  0.94077700  0.24926300  1
  H  H45  1  0.44720100  0.30848600  0.55922300  1
  H  H46  1  0.94077700  0.19151400  0.05279900  1
  H  H47  1  0.86128500  0.05279900  0.61202200  1
  H  H48  1  0.63871500  0.88797800  0.44720100  1
  H  H49  1  0.19151400  0.63871500  0.25073700  1
  H  H50  1  0.55922300  0.61202200  0.25073700  1
  H  H51  1  0.44720100  0.63871500  0.88797800  1
  H  H52  1  0.19151400  0.05279900  0.94077700  1
  H  H53  1  0.30848600  0.24926300  0.86128500  1
  H  H54  1  0.24926300  0.86128500  0.30848600  1
  H  H55  1  0.88797800  0.44720100  0.63871500  1
  H  H56  1  0.25073700  0.55922300  0.61202200  1
  H  H57  1  0.61202200  0.25073700  0.55922300  1
  H  H58  1  0.05279900  0.94077700  0.19151400  1
  H  H59  1  0.24926300  0.88797800  0.94077700  1
  H  H60  1  0.05279900  0.61202200  0.86128500  1
  H  H61  1  0.55922300  0.44720100  0.30848600  1
  H  H62  1  0.94077700  0.24926300  0.88797800  1
  H  H63  1  0.30848600  0.55922300  0.44720100  1
  H  H64  1  0.61202200  0.86128500  0.05279900  1
  H  H65  1  0.86128500  0.30848600  0.24926300  1
  H  H66  1  0.05922300  0.75073700  0.11202200  1
  H  H67  1  0.69151400  0.44077700  0.55279900  1
  O  O68  1  0.16342300  0.47948300  0.58747000  1
  O  O69  1  0.02051700  0.18394000  0.10798700  1
  O  O70  1  0.92404700  0.31606000  0.33657700  1
  O  O71  1  0.02051700  0.33657700  0.91253000  1
  O  O72  1  0.18394000  0.57595300  0.16342300  1
  O  O73  1  0.57595300  0.16342300  0.18394000  1
  O  O74  1  0.31606000  0.47948300  0.39201300  1
  O  O75  1  0.92404700  0.10798700  0.58747000  1
  O  O76  1  0.58747000  0.92404700  0.10798700  1
  O  O77  1  0.91253000  0.02051700  0.33657700  1
  O  O78  1  0.58747000  0.16342300  0.47948300  1
  O  O79  1  0.16342300  0.18394000  0.57595300  1
  O  O80  1  0.91253000  0.39201300  0.57595300  1
  O  O81  1  0.39201300  0.31606000  0.47948300  1
  O  O82  1  0.10798700  0.02051700  0.18394000  1
  O  O83  1  0.33657700  0.91253000  0.02051700  1
  O  O84  1  0.47948300  0.58747000  0.16342300  1
  O  O85  1  0.31606000  0.33657700  0.92404700  1
  O  O86  1  0.39201300  0.57595300  0.91253000  1
  O  O87  1  0.57595300  0.91253000  0.39201300  1
  O  O88  1  0.18394000  0.10798700  0.02051700  1
  O  O89  1  0.10798700  0.58747000  0.92404700  1
  O  O90  1  0.42404700  0.08747000  0.60798700  1
  O  O91  1  0.60798700  0.42404700  0.08747000  1
  O  O92  1  0.68394000  0.66342300  0.07595300  1
  O  O93  1  0.52051700  0.41253000  0.83657700  1
  O  O94  1  0.66342300  0.08747000  0.97948300  1
  O  O95  1  0.89201300  0.97948300  0.81606000  1
  O  O96  1  0.60798700  0.68394000  0.52051700  1
  O  O97  1  0.08747000  0.60798700  0.42404700  1
  O  O98  1  0.83657700  0.81606000  0.42404700  1
  O  O99  1  0.52051700  0.60798700  0.68394000  1
  O  O100  1  0.08747000  0.97948300  0.66342300  1
  O  O101  1  0.41253000  0.07595300  0.89201300  1
  O  O102  1  0.07595300  0.89201300  0.41253000  1
  O  O103  1  0.68394000  0.52051700  0.60798700  1
  O  O104  1  0.42404700  0.83657700  0.81606000  1
  O  O105  1  0.81606000  0.42404700  0.83657700  1
  O  O106  1  0.97948300  0.66342300  0.08747000  1
  O  O107  1  0.07595300  0.68394000  0.66342300  1
  O  O108  1  0.97948300  0.81606000  0.89201300  1
  O  O109  1  0.83657700  0.52051700  0.41253000  1
  O  O110  1  0.66342300  0.07595300  0.68394000  1
  O  O111  1  0.41253000  0.83657700  0.52051700  1
  O  O112  1  0.81606000  0.89201300  0.97948300  1
  O  O113  1  0.89201300  0.41253000  0.07595300  1
  O  O114  1  0.33657700  0.92404700  0.31606000  1
  O  O115  1  0.47948300  0.39201300  0.31606000  1
