# generated using pymatgen
data_MgP2(H8O5)2
_symmetry_space_group_name_H-M   'P 1'
_cell_length_a   12.62050704
_cell_length_b   12.62050704
_cell_length_c   12.62050704
_cell_angle_alpha   131.10153769
_cell_angle_beta   131.10153769
_cell_angle_gamma   71.65180656
_symmetry_Int_Tables_number   1
_chemical_formula_structural   MgP2(H8O5)2
_chemical_formula_sum   'Mg4 P8 H64 O40'
_cell_volume   1116.77802878
_cell_formula_units_Z   4
loop_
 _symmetry_equiv_pos_site_id
 _symmetry_equiv_pos_as_xyz
  1  'x, y, z'
loop_
 _atom_site_type_symbol
 _atom_site_label
 _atom_site_symmetry_multiplicity
 _atom_site_fract_x
 _atom_site_fract_y
 _atom_site_fract_z
 _atom_site_occupancy
  Mg  Mg0  1  0.00000000  0.50000000  0.50000000  1
  Mg  Mg1  1  0.25000000  0.25000000  0.00000000  1
  Mg  Mg2  1  0.75000000  0.75000000  0.00000000  1
  Mg  Mg3  1  0.50000000  0.00000000  0.50000000  1
  P  P4  1  0.12500000  0.63808500  0.01308500  1
  P  P5  1  0.38808500  0.87500000  0.01308500  1
  P  P6  1  0.86191500  0.37500000  0.98691500  1
  P  P7  1  0.62500000  0.11191500  0.98691500  1
  P  P8  1  0.12500000  0.13808500  0.51308500  1
  P  P9  1  0.88808500  0.87500000  0.51308500  1
  P  P10  1  0.36191500  0.37500000  0.48691500  1
  P  P11  1  0.62500000  0.61191500  0.48691500  1
  H  H12  1  0.51060600  0.65659100  0.49380600  1
  H  H13  1  0.48319900  0.33721500  0.49380600  1
  H  H14  1  0.84340900  0.98939400  0.50619400  1
  H  H15  1  0.73939400  0.73319900  0.64598400  1
  H  H16  1  0.08721500  0.09340900  0.35401600  1
  H  H17  1  0.40659100  0.41278500  0.64598400  1
  H  H18  1  0.76680100  0.76060600  0.35401600  1
  H  H19  1  0.16278500  0.01680100  0.50619400  1
  H  H20  1  0.23939400  0.59340900  0.00619400  1
  H  H21  1  0.26680100  0.91278500  0.00619400  1
  H  H22  1  0.90659100  0.26060600  0.99380600  1
  H  H23  1  0.01060600  0.51680100  0.85401600  1
  H  H24  1  0.66278500  0.15659100  0.14598400  1
  H  H25  1  0.34340900  0.83721500  0.85401600  1
  H  H26  1  0.98319900  0.48939400  0.14598400  1
  H  H27  1  0.58721500  0.23319900  0.99380600  1
  H  H28  1  0.46964900  0.77049100  0.18867500  1
  H  H29  1  0.21902600  0.91818300  0.18867500  1
  H  H30  1  0.72950900  0.03035100  0.81132500  1
  H  H31  1  0.78035100  0.46902600  0.80084200  1
  H  H32  1  0.66818300  0.97950900  0.19915800  1
  H  H33  1  0.52049100  0.83181700  0.80084200  1
  H  H34  1  0.03097400  0.71964900  0.19915800  1
  H  H35  1  0.58181700  0.28097400  0.81132500  1
  H  H36  1  0.28035100  0.47950900  0.31132500  1
  H  H37  1  0.53097400  0.33181700  0.31132500  1
  H  H38  1  0.02049100  0.21964900  0.68867500  1
  H  H39  1  0.96964900  0.78097400  0.69915800  1
  H  H40  1  0.92442200  0.31431600  0.49922000  1
  H  H41  1  0.08181700  0.27049100  0.30084200  1
  H  H42  1  0.71902600  0.53035100  0.30084200  1
  H  H43  1  0.16818300  0.96902600  0.68867500  1
  H  H44  1  0.52691100  0.71735400  0.30261400  1
  H  H45  1  0.27570300  0.08526000  0.30261400  1
  H  H46  1  0.78264600  0.97308900  0.69738600  1
  H  H47  1  0.72308900  0.52570300  0.69044300  1
  H  H48  1  0.83526000  0.03264600  0.30955700  1
  H  H49  1  0.46735400  0.66474000  0.69044300  1
  H  H50  1  0.97429700  0.77691100  0.30955700  1
  H  H51  1  0.41474000  0.22429700  0.69738600  1
  H  H52  1  0.22308900  0.53264600  0.19738600  1
  H  H53  1  0.47429700  0.16474000  0.19738600  1
  H  H54  1  0.96735400  0.27691100  0.80261400  1
  H  H55  1  0.02691100  0.72429700  0.80955700  1
  H  H56  1  0.91474000  0.21735400  0.19044300  1
  H  H57  1  0.28264600  0.58526000  0.80955700  1
  H  H58  1  0.77570300  0.47308900  0.19044300  1
  H  H59  1  0.33526000  0.02570300  0.80261400  1
  H  H60  1  0.43490300  0.43568400  0.11010500  1
  H  H61  1  0.17520200  0.17442200  0.11010500  1
  H  H62  1  0.06431600  0.06509700  0.88989500  1
  H  H63  1  0.81509700  0.42520200  0.50078000  1
  H  H64  1  0.42442200  0.92520200  0.61010500  1
  H  H65  1  0.67520200  0.56509700  0.00078000  1
  H  H66  1  0.56431600  0.67442200  0.99922000  1
  H  H67  1  0.82557800  0.93568400  0.00078000  1
  H  H68  1  0.93490300  0.82479800  0.99922000  1
  H  H69  1  0.68568400  0.18490300  0.61010500  1
  H  H70  1  0.57479800  0.07557800  0.38989500  1
  H  H71  1  0.31509700  0.81431600  0.38989500  1
  H  H72  1  0.32557800  0.32479800  0.88989500  1
  H  H73  1  0.07479800  0.68490300  0.49922000  1
  H  H74  1  0.18568400  0.57557800  0.50078000  1
  H  H75  1  0.22950900  0.41818300  0.69915800  1
  O  O76  1  0.58296400  0.57957200  0.32168100  1
  O  O77  1  0.23871700  0.24210900  0.32168100  1
  O  O78  1  0.92042800  0.91703600  0.67831900  1
  O  O79  1  0.66703600  0.48871700  0.49660800  1
  O  O80  1  0.99210900  0.17042800  0.50339200  1
  O  O81  1  0.32957200  0.50789100  0.49660800  1
  O  O82  1  0.01128300  0.83296400  0.50339200  1
  O  O83  1  0.25789100  0.26128300  0.67831900  1
  O  O84  1  0.16703600  0.67042800  0.17831900  1
  O  O85  1  0.51128300  0.00789100  0.17831900  1
  O  O86  1  0.82957200  0.33296400  0.82168100  1
  O  O87  1  0.08296400  0.76128300  0.00339200  1
  O  O88  1  0.75789100  0.07957200  0.99660800  1
  O  O89  1  0.42042800  0.74210900  0.00339200  1
  O  O90  1  0.73871700  0.41703600  0.99660800  1
  O  O91  1  0.49210900  0.98871700  0.82168100  1
  O  O92  1  0.74965200  0.95298000  0.19661800  1
  O  O93  1  0.94696500  0.74363800  0.19661800  1
  O  O94  1  0.54702000  0.75034800  0.80338200  1
  O  O95  1  0.50034800  0.19696500  0.70332800  1
  O  O96  1  0.49363800  0.79702000  0.29667200  1
  O  O97  1  0.70298000  0.00636200  0.70332800  1
  O  O98  1  0.30303500  0.99965200  0.29667200  1
  O  O99  1  0.75636200  0.55303500  0.80338200  1
  O  O100  1  0.00034800  0.29702000  0.30338200  1
  O  O101  1  0.80303500  0.50636200  0.30338200  1
  O  O102  1  0.20298000  0.49965200  0.69661800  1
  O  O103  1  0.24965200  0.05303500  0.79667200  1
  O  O104  1  0.25636200  0.45298000  0.20332800  1
  O  O105  1  0.04702000  0.24363800  0.79667200  1
  O  O106  1  0.44696500  0.25034800  0.20332800  1
  O  O107  1  0.99363800  0.69696500  0.69661800  1
  O  O108  1  0.64748200  0.64748200  0.00000000  1
  O  O109  1  0.39748200  0.89748200  0.50000000  1
  O  O110  1  0.60251800  0.10251800  0.50000000  1
  O  O111  1  0.85251800  0.85251800  0.00000000  1
  O  O112  1  0.10251800  0.60251800  0.50000000  1
  O  O113  1  0.35251800  0.35251800  0.00000000  1
  O  O114  1  0.14748200  0.14748200  0.00000000  1
  O  O115  1  0.89748200  0.39748200  0.50000000  1
