# generated using pymatgen
data_Rb3B12H12I
_symmetry_space_group_name_H-M   'P 1'
_cell_length_a   7.21662089
_cell_length_b   7.21662089
_cell_length_c   7.21662010
_cell_angle_alpha   93.04506640
_cell_angle_beta   93.04506640
_cell_angle_gamma   93.04506448
_symmetry_Int_Tables_number   1
_chemical_formula_structural   Rb3B12H12I
_chemical_formula_sum   'Rb3 B12 H12 I1'
_cell_volume   374.18798633
_cell_formula_units_Z   1
loop_
 _symmetry_equiv_pos_site_id
 _symmetry_equiv_pos_as_xyz
  1  'x, y, z'
loop_
 _atom_site_type_symbol
 _atom_site_label
 _atom_site_symmetry_multiplicity
 _atom_site_fract_x
 _atom_site_fract_y
 _atom_site_fract_z
 _atom_site_occupancy
  Rb  Rb0  1  0.50000000  0.50000000  0.00000000  1
  Rb  Rb1  1  0.00000000  0.50000000  0.50000000  1
  Rb  Rb2  1  0.50000000  0.00000000  0.50000000  1
  B  B3  1  0.11863900  0.84355900  0.11863900  1
  B  B4  1  0.88136100  0.15644100  0.88136100  1
  B  B5  1  0.15644100  0.88136100  0.88136100  1
  B  B6  1  0.88136100  0.88136100  0.15644100  1
  B  B7  1  0.05738600  0.05738600  0.22726600  1
  B  B8  1  0.22726600  0.05738600  0.05738600  1
  B  B9  1  0.05738600  0.22726600  0.05738600  1
  B  B10  1  0.94261400  0.77273400  0.94261400  1
  B  B11  1  0.94261400  0.94261400  0.77273400  1
  B  B12  1  0.77273400  0.94261400  0.94261400  1
  B  B13  1  0.11863900  0.11863900  0.84355900  1
  B  B14  1  0.84355900  0.11863900  0.11863900  1
  H  H15  1  0.79620300  0.79620300  0.26726800  1
  H  H16  1  0.26726800  0.79620300  0.79620300  1
  H  H17  1  0.79620300  0.26726800  0.79620300  1
  H  H18  1  0.20379700  0.73273200  0.20379700  1
  H  H19  1  0.90232300  0.90232300  0.61123100  1
  H  H20  1  0.61123100  0.90232300  0.90232300  1
  H  H21  1  0.90232300  0.61123100  0.90232300  1
  H  H22  1  0.09767700  0.38876900  0.09767700  1
  H  H23  1  0.09767700  0.09767700  0.38876900  1
  H  H24  1  0.38876900  0.09767700  0.09767700  1
  H  H25  1  0.20379700  0.20379700  0.73273200  1
  H  H26  1  0.73273200  0.20379700  0.20379700  1
  I  I27  1  0.50000000  0.50000000  0.50000000  1
