# generated using pymatgen
data_FeHO2
_symmetry_space_group_name_H-M   'P 1'
_cell_length_a   7.66837648
_cell_length_b   7.66837648
_cell_length_c   4.05002800
_cell_angle_alpha   90.00000000
_cell_angle_beta   90.00000000
_cell_angle_gamma   160.21224254
_symmetry_Int_Tables_number   1
_chemical_formula_structural   FeHO2
_chemical_formula_sum   'Fe2 H2 O4'
_cell_volume   80.62520949
_cell_formula_units_Z   2
loop_
 _symmetry_equiv_pos_site_id
 _symmetry_equiv_pos_as_xyz
  1  'x, y, z'
loop_
 _atom_site_type_symbol
 _atom_site_label
 _atom_site_symmetry_multiplicity
 _atom_site_fract_x
 _atom_site_fract_y
 _atom_site_fract_z
 _atom_site_occupancy
  Fe  Fe0  1  0.68754500  0.31245500  0.19486700  1
  Fe  Fe1  1  0.31245500  0.68754500  0.69486700  1
  H  H2  1  0.55629100  0.44370900  0.17466600  1
  H  H3  1  0.44370900  0.55629100  0.67466600  1
  O  O4  1  0.28658000  0.71342000  0.19355700  1
  O  O5  1  0.71342000  0.28658000  0.69355700  1
  O  O6  1  0.08264300  0.91735700  0.18291000  1
  O  O7  1  0.91735700  0.08264300  0.68291000  1
