# generated using pymatgen
data_CaCrH2O5
_symmetry_space_group_name_H-M   'P 1'
_cell_length_a   8.02743700
_cell_length_b   8.29902400
_cell_length_c   12.80539400
_cell_angle_alpha   90.00000000
_cell_angle_beta   90.00000000
_cell_angle_gamma   90.00000000
_symmetry_Int_Tables_number   1
_chemical_formula_structural   CaCrH2O5
_chemical_formula_sum   'Ca8 Cr8 H16 O40'
_cell_volume   853.09396941
_cell_formula_units_Z   8
loop_
 _symmetry_equiv_pos_site_id
 _symmetry_equiv_pos_as_xyz
  1  'x, y, z'
loop_
 _atom_site_type_symbol
 _atom_site_label
 _atom_site_symmetry_multiplicity
 _atom_site_fract_x
 _atom_site_fract_y
 _atom_site_fract_z
 _atom_site_occupancy
  Ca  Ca0  1  0.26504700  0.09777300  0.33060800  1
  Ca  Ca1  1  0.76504700  0.40222700  0.66939200  1
  Ca  Ca2  1  0.73495300  0.59777300  0.16939200  1
  Ca  Ca3  1  0.23495300  0.90222700  0.83060800  1
  Ca  Ca4  1  0.73495300  0.90222700  0.66939200  1
  Ca  Ca5  1  0.23495300  0.59777300  0.33060800  1
  Ca  Ca6  1  0.26504700  0.40222700  0.83060800  1
  Ca  Ca7  1  0.76504700  0.09777300  0.16939200  1
  Cr  Cr8  1  0.12912000  0.38039300  0.12342700  1
  Cr  Cr9  1  0.62912000  0.11960700  0.87657300  1
  Cr  Cr10  1  0.87088000  0.88039300  0.37657300  1
  Cr  Cr11  1  0.37088000  0.61960700  0.62342700  1
  Cr  Cr12  1  0.87088000  0.61960700  0.87657300  1
  Cr  Cr13  1  0.37088000  0.88039300  0.12342700  1
  Cr  Cr14  1  0.12912000  0.11960700  0.62342700  1
  Cr  Cr15  1  0.62912000  0.38039300  0.37657300  1
  H  H16  1  0.56791000  0.33991300  0.03472600  1
  H  H17  1  0.06791000  0.16008700  0.96527400  1
  H  H18  1  0.43209000  0.83991300  0.46527400  1
  H  H19  1  0.93209000  0.66008700  0.53472600  1
  H  H20  1  0.43209000  0.66008700  0.96527400  1
  H  H21  1  0.93209000  0.83991300  0.03472600  1
  H  H22  1  0.56791000  0.16008700  0.53472600  1
  H  H23  1  0.06791000  0.33991300  0.46527400  1
  H  H24  1  0.47947400  0.33662400  0.14445800  1
  H  H25  1  0.97947400  0.16337600  0.85554200  1
  H  H26  1  0.52052600  0.83662400  0.35554200  1
  H  H27  1  0.02052600  0.66337600  0.64445800  1
  H  H28  1  0.52052600  0.66337600  0.85554200  1
  H  H29  1  0.02052600  0.83662400  0.14445800  1
  H  H30  1  0.47947400  0.16337600  0.64445800  1
  H  H31  1  0.97947400  0.33662400  0.35554200  1
  O  O32  1  0.49430100  0.77629800  0.60014800  1
  O  O33  1  0.70742200  0.05567700  0.98732800  1
  O  O34  1  0.79257800  0.94432300  0.48732800  1
  O  O35  1  0.29257800  0.55567700  0.51267200  1
  O  O36  1  0.79257800  0.55567700  0.98732800  1
  O  O37  1  0.29257800  0.94432300  0.01267200  1
  O  O38  1  0.20742200  0.05567700  0.51267200  1
  O  O39  1  0.70742200  0.44432300  0.48732800  1
  O  O40  1  0.00569900  0.22370200  0.10014800  1
  O  O41  1  0.50569900  0.27629800  0.89985200  1
  O  O42  1  0.99430100  0.72370200  0.39985200  1
  O  O43  1  0.20742200  0.44432300  0.01267200  1
  O  O44  1  0.99430100  0.77629800  0.89985200  1
  O  O45  1  0.49430100  0.72370200  0.10014800  1
  O  O46  1  0.00569900  0.27629800  0.60014800  1
  O  O47  1  0.50569900  0.22370200  0.39985200  1
  O  O48  1  0.28429400  0.32661300  0.20415900  1
  O  O49  1  0.78429400  0.17338700  0.79584100  1
  O  O50  1  0.71570600  0.82661300  0.29584100  1
  O  O51  1  0.21570600  0.67338700  0.70415900  1
  O  O52  1  0.71570600  0.67338700  0.79584100  1
  O  O53  1  0.21570600  0.82661300  0.20415900  1
  O  O54  1  0.28429400  0.17338700  0.70415900  1
  O  O55  1  0.78429400  0.32661300  0.29584100  1
  O  O56  1  0.02627300  0.52710100  0.18533800  1
  O  O57  1  0.52627300  0.97289900  0.81466200  1
  O  O58  1  0.97372700  0.02710100  0.31466200  1
  O  O59  1  0.47372700  0.47289900  0.68533800  1
  O  O60  1  0.97372700  0.47289900  0.81466200  1
  O  O61  1  0.47372700  0.02710100  0.18533800  1
  O  O62  1  0.02627300  0.97289900  0.68533800  1
  O  O63  1  0.52627300  0.52710100  0.31466200  1
  O  O64  1  0.09100800  0.34755000  0.38943500  1
  O  O65  1  0.59100800  0.15245000  0.61056500  1
  O  O66  1  0.90899200  0.84755000  0.11056500  1
  O  O67  1  0.40899200  0.65245000  0.88943500  1
  O  O68  1  0.90899200  0.65245000  0.61056500  1
  O  O69  1  0.40899200  0.84755000  0.38943500  1
  O  O70  1  0.59100800  0.34755000  0.11056500  1
  O  O71  1  0.09100800  0.15245000  0.88943500  1
