# generated using pymatgen
data_CaPH5O6
_symmetry_space_group_name_H-M   'P 1'
_cell_length_a   8.22536191
_cell_length_b   8.22536191
_cell_length_c   5.89979607
_cell_angle_alpha   78.92750294
_cell_angle_beta   78.92750294
_cell_angle_gamma   133.92526913
_symmetry_Int_Tables_number   1
_chemical_formula_structural   CaPH5O6
_chemical_formula_sum   'Ca2 P2 H10 O12'
_cell_volume   250.49077167
_cell_formula_units_Z   2
loop_
 _symmetry_equiv_pos_site_id
 _symmetry_equiv_pos_as_xyz
  1  'x, y, z'
loop_
 _atom_site_type_symbol
 _atom_site_label
 _atom_site_symmetry_multiplicity
 _atom_site_fract_x
 _atom_site_fract_y
 _atom_site_fract_z
 _atom_site_occupancy
  Ca  Ca0  1  0.83451500  0.17760500  0.75055600  1
  Ca  Ca1  1  0.17760500  0.83451500  0.25055600  1
  P  P2  1  0.30885200  0.66378000  0.76594500  1
  P  P3  1  0.66378000  0.30885200  0.26594500  1
  H  H4  1  0.53981500  0.67342800  0.14640600  1
  H  H5  1  0.67342800  0.53981500  0.64640600  1
  H  H6  1  0.78558500  0.76005200  0.99691500  1
  H  H7  1  0.76005200  0.78558500  0.49691500  1
  H  H8  1  0.24698000  0.26345800  0.38821500  1
  H  H9  1  0.26345800  0.24698000  0.88821500  1
  H  H10  1  0.61713100  0.96206400  0.36529600  1
  H  H11  1  0.96206400  0.61713100  0.86529600  1
  H  H12  1  0.16151200  0.33568400  0.21275900  1
  H  H13  1  0.33568400  0.16151100  0.71275900  1
  O  O14  1  0.18971500  0.40170000  0.90176600  1
  O  O15  1  0.13867100  0.63480600  0.65255700  1
  O  O16  1  0.32309200  0.17560700  0.87845200  1
  O  O17  1  0.17560700  0.32309200  0.37845200  1
  O  O18  1  0.82231800  0.71812200  0.51170200  1
  O  O19  1  0.71812200  0.82231800  0.01170200  1
  O  O20  1  0.36382900  0.80067300  0.93349700  1
  O  O21  1  0.80067300  0.36382900  0.43349700  1
  O  O22  1  0.58341800  0.84678800  0.52303500  1
  O  O23  1  0.84678800  0.58341800  0.02303500  1
  O  O24  1  0.63480600  0.13867100  0.15255700  1
  O  O25  1  0.40170000  0.18971500  0.40176600  1
