# generated using pymatgen
data_H5CN3O4
_symmetry_space_group_name_H-M   'P 1'
_cell_length_a   8.30836000
_cell_length_b   7.87215500
_cell_length_c   8.51168424
_cell_angle_alpha   72.25789926
_cell_angle_beta   90.00000000
_cell_angle_gamma   90.00000000
_symmetry_Int_Tables_number   1
_chemical_formula_structural   H5CN3O4
_chemical_formula_sum   'H20 C4 N12 O16'
_cell_volume   530.22607368
_cell_formula_units_Z   4
loop_
 _symmetry_equiv_pos_site_id
 _symmetry_equiv_pos_as_xyz
  1  'x, y, z'
loop_
 _atom_site_type_symbol
 _atom_site_label
 _atom_site_symmetry_multiplicity
 _atom_site_fract_x
 _atom_site_fract_y
 _atom_site_fract_z
 _atom_site_occupancy
  H  H0  1  0.85479900  0.51848500  0.23287500  1
  H  H1  1  0.45490000  0.84546600  0.41135200  1
  H  H2  1  0.95490000  0.65453400  0.58864800  1
  H  H3  1  0.54510000  0.15453400  0.58864800  1
  H  H4  1  0.35479900  0.98151500  0.76712500  1
  H  H5  1  0.14520100  0.48151500  0.76712500  1
  H  H6  1  0.64520100  0.01848500  0.23287500  1
  H  H7  1  0.16862600  0.75147100  0.99821000  1
  H  H8  1  0.66862600  0.74852900  0.00179000  1
  H  H9  1  0.83137400  0.24852900  0.00179000  1
  H  H10  1  0.33137400  0.25147100  0.99821000  1
  H  H11  1  0.04510000  0.34546600  0.41135200  1
  H  H12  1  0.82214700  0.87153800  0.87196900  1
  H  H13  1  0.67785300  0.37153800  0.87196900  1
  H  H14  1  0.17785300  0.12846200  0.12803100  1
  H  H15  1  0.24725700  0.39812200  0.36354700  1
  H  H16  1  0.74725700  0.10187800  0.63645300  1
  H  H17  1  0.32214700  0.62846200  0.12803100  1
  H  H18  1  0.25274300  0.89812200  0.36354700  1
  H  H19  1  0.75274300  0.60187800  0.63645300  1
  C  C20  1  0.08965200  0.55580500  0.19952500  1
  C  C21  1  0.58965200  0.94419500  0.80047500  1
  C  C22  1  0.91034800  0.44419500  0.80047500  1
  C  C23  1  0.41034800  0.05580500  0.19952500  1
  N  N24  1  0.08127400  0.05534600  0.69045300  1
  N  N25  1  0.91872600  0.94465400  0.30954700  1
  N  N26  1  0.70243900  0.84713200  0.89831600  1
  N  N27  1  0.20243900  0.65286800  0.10168400  1
  N  N28  1  0.58127400  0.44465400  0.30954700  1
  N  N29  1  0.37188800  0.92543000  0.33488800  1
  N  N30  1  0.87188800  0.57457000  0.66511200  1
  N  N31  1  0.62811200  0.07457000  0.66511200  1
  N  N32  1  0.12811200  0.42543000  0.33488800  1
  N  N33  1  0.29756100  0.15286800  0.10168400  1
  N  N34  1  0.79756100  0.34713200  0.89831600  1
  N  N35  1  0.41872600  0.55534600  0.69045300  1
  O  O36  1  0.77247900  0.90136000  0.34756400  1
  O  O37  1  0.27247900  0.59864000  0.65243600  1
  O  O38  1  0.22752100  0.09864000  0.65243600  1
  O  O39  1  0.02921600  0.85399300  0.39876000  1
  O  O40  1  0.72752100  0.40136000  0.34756400  1
  O  O41  1  0.95219200  0.07552600  0.18500200  1
  O  O42  1  0.45219200  0.42447400  0.81499800  1
  O  O43  1  0.04780800  0.92447400  0.81499800  1
  O  O44  1  0.93927300  0.59663600  0.15466400  1
  O  O45  1  0.43927300  0.90336400  0.84533600  1
  O  O46  1  0.06072700  0.40336400  0.84533600  1
  O  O47  1  0.56072700  0.09663600  0.15466400  1
  O  O48  1  0.47078400  0.35399300  0.39876000  1
  O  O49  1  0.54780800  0.57552600  0.18500200  1
  O  O50  1  0.52921600  0.64600700  0.60124000  1
  O  O51  1  0.97078400  0.14600700  0.60124000  1
