# generated using pymatgen
data_TiH8N2F5
_symmetry_space_group_name_H-M   'P 1'
_cell_length_a   6.35276500
_cell_length_b   7.75244900
_cell_length_c   11.45059300
_cell_angle_alpha   90.00000000
_cell_angle_beta   90.00000000
_cell_angle_gamma   90.00000000
_symmetry_Int_Tables_number   1
_chemical_formula_structural   TiH8N2F5
_chemical_formula_sum   'Ti4 H32 N8 F20'
_cell_volume   563.93582733
_cell_formula_units_Z   4
loop_
 _symmetry_equiv_pos_site_id
 _symmetry_equiv_pos_as_xyz
  1  'x, y, z'
loop_
 _atom_site_type_symbol
 _atom_site_label
 _atom_site_symmetry_multiplicity
 _atom_site_fract_x
 _atom_site_fract_y
 _atom_site_fract_z
 _atom_site_occupancy
  Ti  Ti0  1  0.50000000  0.00000000  0.50000000  1
  Ti  Ti1  1  0.00000000  0.50000000  0.00000000  1
  Ti  Ti2  1  0.50000000  0.50000000  0.50000000  1
  Ti  Ti3  1  0.00000000  0.00000000  0.00000000  1
  H  H4  1  0.90127600  0.64300000  0.38634000  1
  H  H5  1  0.40127600  0.85700000  0.11366000  1
  H  H6  1  0.09872400  0.14300000  0.61366000  1
  H  H7  1  0.59872400  0.35700000  0.88634000  1
  H  H8  1  0.09872400  0.35700000  0.61366000  1
  H  H9  1  0.59872400  0.14300000  0.88634000  1
  H  H10  1  0.90127600  0.85700000  0.38634000  1
  H  H11  1  0.40127600  0.64300000  0.11366000  1
  H  H12  1  0.87291800  0.25000000  0.59017900  1
  H  H13  1  0.37291800  0.25000000  0.90982100  1
  H  H14  1  0.12708200  0.75000000  0.40982100  1
  H  H15  1  0.62708200  0.75000000  0.09017900  1
  H  H16  1  0.97967700  0.25000000  0.72505400  1
  H  H17  1  0.47967700  0.25000000  0.77494600  1
  H  H18  1  0.02032300  0.75000000  0.27494600  1
  H  H19  1  0.92719500  0.75000000  0.63367900  1
  H  H20  1  0.97854300  0.36109700  0.25116900  1
  H  H21  1  0.47854300  0.13890300  0.24883100  1
  H  H22  1  0.02145700  0.86109700  0.74883100  1
  H  H23  1  0.52145700  0.63890300  0.75116900  1
  H  H24  1  0.02145700  0.63890300  0.74883100  1
  H  H25  1  0.52145700  0.86109700  0.75116900  1
  H  H26  1  0.97854300  0.13890300  0.25116900  1
  H  H27  1  0.47854300  0.36109700  0.24883100  1
  H  H28  1  0.18603100  0.75000000  0.65647700  1
  H  H29  1  0.68603100  0.75000000  0.84352300  1
  H  H30  1  0.81396900  0.25000000  0.34352300  1
  H  H31  1  0.31396900  0.25000000  0.15647700  1
  H  H32  1  0.57280500  0.25000000  0.13367900  1
  H  H33  1  0.07280500  0.25000000  0.36632100  1
  H  H34  1  0.42719500  0.75000000  0.86632100  1
  H  H35  1  0.52032300  0.75000000  0.22505400  1
  N  N36  1  0.04214000  0.75000000  0.69791500  1
  N  N37  1  0.54214000  0.75000000  0.80208500  1
  N  N38  1  0.95786000  0.25000000  0.30208500  1
  N  N39  1  0.45786000  0.25000000  0.19791500  1
  N  N40  1  0.01199700  0.25000000  0.63672200  1
  N  N41  1  0.51199700  0.25000000  0.86327800  1
  N  N42  1  0.48800300  0.75000000  0.13672200  1
  N  N43  1  0.98800300  0.75000000  0.36327800  1
  F  F44  1  0.41586300  0.02783900  0.66921500  1
  F  F45  1  0.91586300  0.47216100  0.83078500  1
  F  F46  1  0.58413700  0.52783900  0.33078500  1
  F  F47  1  0.08413700  0.97216100  0.16921500  1
  F  F48  1  0.91586300  0.02783900  0.83078500  1
  F  F49  1  0.41586300  0.47216100  0.66921500  1
  F  F50  1  0.08413700  0.52783900  0.16921500  1
  F  F51  1  0.58413700  0.97216100  0.33078500  1
  F  F52  1  0.11761800  0.25000000  0.01380000  1
  F  F53  1  0.27720700  0.56433800  0.95302900  1
  F  F54  1  0.22279300  0.43566200  0.45302900  1
  F  F55  1  0.72279300  0.06433800  0.04697100  1
  F  F56  1  0.22279300  0.06433800  0.45302900  1
  F  F57  1  0.72279300  0.43566200  0.04697100  1
  F  F58  1  0.77720700  0.56433800  0.54697100  1
  F  F59  1  0.27720700  0.93566200  0.95302900  1
  F  F60  1  0.38238200  0.75000000  0.51380000  1
  F  F61  1  0.88238200  0.75000000  0.98620000  1
  F  F62  1  0.61761800  0.25000000  0.48620000  1
  F  F63  1  0.77720700  0.93566200  0.54697100  1
