# generated using pymatgen
data_Fe7P6(HO6)4
_symmetry_space_group_name_H-M   'P 1'
_cell_length_a   6.67537400
_cell_length_b   8.10758902
_cell_length_c   9.58312758
_cell_angle_alpha   103.41336389
_cell_angle_beta   108.96053982
_cell_angle_gamma   101.62690951
_symmetry_Int_Tables_number   1
_chemical_formula_structural   Fe7P6(HO6)4
_chemical_formula_sum   'Fe7 P6 H4 O24'
_cell_volume   455.00093997
_cell_formula_units_Z   1
loop_
 _symmetry_equiv_pos_site_id
 _symmetry_equiv_pos_as_xyz
  1  'x, y, z'
loop_
 _atom_site_type_symbol
 _atom_site_label
 _atom_site_symmetry_multiplicity
 _atom_site_fract_x
 _atom_site_fract_y
 _atom_site_fract_z
 _atom_site_occupancy
  Fe  Fe0  1  0.05577800  0.70967500  0.51637000  1
  Fe  Fe1  1  0.94422200  0.29032500  0.48363000  1
  Fe  Fe2  1  0.26859200  0.80391600  0.28048900  1
  Fe  Fe3  1  0.73140800  0.19608400  0.71951100  1
  Fe  Fe4  1  0.61353900  0.54602200  0.88677900  1
  Fe  Fe5  1  0.38646100  0.45397800  0.11322100  1
  Fe  Fe6  1  0.00000000  0.00000000  0.00000000  1
  P  P7  1  0.59320400  0.77919900  0.63318300  1
  P  P8  1  0.40679600  0.22080100  0.36681700  1
  P  P9  1  0.91219900  0.41516400  0.17098000  1
  P  P10  1  0.08780100  0.58483600  0.82902000  1
  P  P11  1  0.77788100  0.85434500  0.22645300  1
  P  P12  1  0.22211900  0.14565500  0.77354700  1
  H  H13  1  0.66082400  0.73420300  0.42071500  1
  H  H14  1  0.17760400  0.87935400  0.80541100  1
  H  H15  1  0.82239600  0.12064600  0.19458900  1
  H  H16  1  0.33917600  0.26579700  0.57928500  1
  O  O17  1  0.74052000  0.73875900  0.53170000  1
  O  O18  1  0.25948000  0.26124100  0.46830000  1
  O  O19  1  0.55007100  0.63265400  0.70104600  1
  O  O20  1  0.44992900  0.36734600  0.29895400  1
  O  O21  1  0.38229300  0.79203500  0.51145900  1
  O  O22  1  0.61770700  0.20796500  0.48854100  1
  O  O23  1  0.88028900  0.46287300  0.83487900  1
  O  O24  1  0.11971100  0.53712700  0.16512100  1
  O  O25  1  0.89790200  0.21568500  0.10407800  1
  O  O26  1  0.01442100  0.16983500  0.65949000  1
  O  O27  1  0.98557900  0.83016500  0.34051000  1
  O  O28  1  0.22511700  0.18800800  0.93975300  1
  O  O29  1  0.77488300  0.81199200  0.06024700  1
  O  O30  1  0.56904000  0.75271400  0.24567300  1
  O  O31  1  0.43096000  0.24728600  0.75432700  1
  O  O32  1  0.78963900  0.05925600  0.27499800  1
  O  O33  1  0.21036100  0.94074400  0.72500200  1
  O  O34  1  0.27380700  0.03872800  0.23551200  1
  O  O35  1  0.72619300  0.96127200  0.76448800  1
  O  O36  1  0.30257100  0.54906800  0.92243400  1
  O  O37  1  0.69742900  0.45093200  0.07756600  1
  O  O38  1  0.06353500  0.54553500  0.65642100  1
  O  O39  1  0.93646500  0.45446500  0.34357900  1
  O  O40  1  0.10209800  0.78431500  0.89592200  1
