# generated using pymatgen
data_BaCoBP2HO9
_symmetry_space_group_name_H-M   'P 1'
_cell_length_a   8.12313483
_cell_length_b   8.38714567
_cell_length_c   10.74535165
_cell_angle_alpha   79.41001572
_cell_angle_beta   87.08932933
_cell_angle_gamma   88.48925798
_symmetry_Int_Tables_number   1
_chemical_formula_structural   BaCoBP2HO9
_chemical_formula_sum   'Ba4 Co4 B4 P8 H4 O36'
_cell_volume   718.57420621
_cell_formula_units_Z   4
loop_
 _symmetry_equiv_pos_site_id
 _symmetry_equiv_pos_as_xyz
  1  'x, y, z'
loop_
 _atom_site_type_symbol
 _atom_site_label
 _atom_site_symmetry_multiplicity
 _atom_site_fract_x
 _atom_site_fract_y
 _atom_site_fract_z
 _atom_site_occupancy
  Ba  Ba0  1  0.69030600  0.88556100  0.13852100  1
  Ba  Ba1  1  0.69026000  0.88455400  0.63831200  1
  Ba  Ba2  1  0.30986800  0.11535200  0.36182500  1
  Ba  Ba3  1  0.30952500  0.11422100  0.86130300  1
  Co  Co4  1  0.19986000  0.80211200  0.63687100  1
  Co  Co5  1  0.80013100  0.19786200  0.36318400  1
  Co  Co6  1  0.20081400  0.80428500  0.13632600  1
  Co  Co7  1  0.79868600  0.19600500  0.86425200  1
  B  B8  1  0.74431100  0.54816700  0.44343300  1
  B  B9  1  0.74437000  0.54707700  0.94336300  1
  B  B10  1  0.25597600  0.45279000  0.05667100  1
  B  B11  1  0.25569700  0.45186600  0.55648200  1
  P  P12  1  0.94073000  0.81754500  0.38733300  1
  P  P13  1  0.94007800  0.81676600  0.88823500  1
  P  P14  1  0.05976100  0.18335800  0.11179300  1
  P  P15  1  0.05910900  0.18254100  0.61264500  1
  P  P16  1  0.56820600  0.30111800  0.09991700  1
  P  P17  1  0.56891000  0.30251900  0.59948600  1
  P  P18  1  0.43115500  0.69758900  0.40046100  1
  P  P19  1  0.43185900  0.69869100  0.90010900  1
  H  H20  1  0.94679500  0.45297000  0.36638100  1
  H  H21  1  0.94674700  0.45266800  0.86554100  1
  H  H22  1  0.05369300  0.54790800  0.13379600  1
  H  H23  1  0.05323000  0.54693300  0.63369700  1
  O  O24  1  0.62021600  0.19431100  0.22386500  1
  O  O25  1  0.62149400  0.19621500  0.72366100  1
  O  O26  1  0.37876000  0.80406700  0.27636000  1
  O  O27  1  0.37991800  0.80558300  0.77615600  1
  O  O28  1  0.13687200  0.34025100  0.02039300  1
  O  O29  1  0.13668200  0.33924900  0.52049100  1
  O  O30  1  0.86336600  0.66075100  0.47941000  1
  O  O31  1  0.86335000  0.65957700  0.97971100  1
  O  O32  1  0.79651300  0.94542400  0.37760900  1
  O  O33  1  0.79566900  0.94418000  0.87828300  1
  O  O34  1  0.20393800  0.05546200  0.12200000  1
  O  O35  1  0.20335500  0.05463800  0.62251500  1
  O  O36  1  0.17290300  0.55768800  0.13614100  1
  O  O37  1  0.17241800  0.55740400  0.63549500  1
  O  O38  1  0.82761000  0.44259000  0.36446100  1
  O  O39  1  0.82754700  0.44234500  0.86389800  1
  O  O40  1  0.42877900  0.79570700  0.00869500  1
  O  O41  1  0.42771500  0.79405200  0.50945700  1
  O  O42  1  0.57233000  0.20593000  0.49057100  1
  O  O43  1  0.57089900  0.20379400  0.99149000  1
  O  O44  1  0.67428800  0.45711700  0.06535100  1
  O  O45  1  0.67419300  0.45892900  0.56543200  1
  O  O46  1  0.32584000  0.54116200  0.43449900  1
  O  O47  1  0.32581000  0.54260700  0.93455100  1
  O  O48  1  0.98250800  0.77901000  0.25466100  1
  O  O49  1  0.98347600  0.77866600  0.75549900  1
  O  O50  1  0.01646200  0.22132000  0.24452900  1
  O  O51  1  0.01697000  0.22136400  0.74514500  1
  O  O52  1  0.38722400  0.35957900  0.13348600  1
  O  O53  1  0.38735400  0.35930000  0.63340200  1
  O  O54  1  0.61270200  0.64068000  0.36655800  1
  O  O55  1  0.61291200  0.64028800  0.86656900  1
  O  O56  1  0.91350000  0.13812700  0.04297900  1
  O  O57  1  0.91279100  0.13734600  0.54426600  1
  O  O58  1  0.08723700  0.86263000  0.45557300  1
  O  O59  1  0.08632000  0.86219500  0.95690000  1
