# generated using pymatgen
data_NiH4SeO5
_symmetry_space_group_name_H-M   'P 1'
_cell_length_a   8.83562500
_cell_length_b   6.50222700
_cell_length_c   9.17736335
_cell_angle_alpha   55.20183063
_cell_angle_beta   90.00000000
_cell_angle_gamma   90.00000000
_symmetry_Int_Tables_number   1
_chemical_formula_structural   NiH4SeO5
_chemical_formula_sum   'Ni4 H16 Se4 O20'
_cell_volume   432.96127298
_cell_formula_units_Z   4
loop_
 _symmetry_equiv_pos_site_id
 _symmetry_equiv_pos_as_xyz
  1  'x, y, z'
loop_
 _atom_site_type_symbol
 _atom_site_label
 _atom_site_symmetry_multiplicity
 _atom_site_fract_x
 _atom_site_fract_y
 _atom_site_fract_z
 _atom_site_occupancy
  Ni  Ni0  1  0.63795000  0.33263700  0.01822500  1
  Ni  Ni1  1  0.13795000  0.66736300  0.48177500  1
  Ni  Ni2  1  0.36205000  0.66736300  0.98177500  1
  Ni  Ni3  1  0.86205000  0.33263700  0.51822500  1
  H  H4  1  0.63474400  0.42585100  0.64169900  1
  H  H5  1  0.13474400  0.57414900  0.85830100  1
  H  H6  1  0.36525600  0.57414900  0.35830100  1
  H  H7  1  0.86525600  0.42585100  0.14169900  1
  H  H8  1  0.57730700  0.19737400  0.63128400  1
  H  H9  1  0.07730700  0.80262600  0.86871600  1
  H  H10  1  0.42269300  0.80262600  0.36871600  1
  H  H11  1  0.92269300  0.19737400  0.13128400  1
  H  H12  1  0.14666800  0.92908100  0.12781300  1
  H  H13  1  0.64666800  0.07091900  0.37218700  1
  H  H14  1  0.01709300  0.19726800  0.79368400  1
  H  H15  1  0.51709300  0.80273200  0.70631600  1
  H  H16  1  0.98290700  0.80273200  0.20631600  1
  H  H17  1  0.48290700  0.19726800  0.29368400  1
  H  H18  1  0.85333200  0.07091900  0.87218700  1
  H  H19  1  0.35333200  0.92908100  0.62781300  1
  Se  Se20  1  0.15503100  0.26094000  0.33755900  1
  Se  Se21  1  0.65503100  0.73906000  0.16244100  1
  Se  Se22  1  0.84496900  0.73906000  0.66244100  1
  Se  Se23  1  0.34496900  0.26094000  0.83755900  1
  O  O24  1  0.20409900  0.95656500  0.50264700  1
  O  O25  1  0.90847000  0.63803200  0.53326000  1
  O  O26  1  0.79590100  0.04343500  0.49735300  1
  O  O27  1  0.29590100  0.95656500  0.00264700  1
  O  O28  1  0.56312500  0.09276500  0.28953800  1
  O  O29  1  0.06312500  0.90723500  0.21046200  1
  O  O30  1  0.40847000  0.36196800  0.96674000  1
  O  O31  1  0.93687500  0.09276500  0.78953800  1
  O  O32  1  0.85811400  0.34731000  0.07485500  1
  O  O33  1  0.35811400  0.65269000  0.42514500  1
  O  O34  1  0.14188600  0.65269000  0.92514500  1
  O  O35  1  0.64188600  0.34731000  0.57485500  1
  O  O36  1  0.09153000  0.36196800  0.46674000  1
  O  O37  1  0.59153000  0.63803200  0.03326000  1
  O  O38  1  0.16921400  0.40802400  0.76604200  1
  O  O39  1  0.66921400  0.59197600  0.73395800  1
  O  O40  1  0.83078600  0.59197600  0.23395800  1
  O  O41  1  0.33078600  0.40802400  0.26604200  1
  O  O42  1  0.70409900  0.04343500  0.99735300  1
  O  O43  1  0.43687500  0.90723500  0.71046200  1
