# generated using pymatgen
data_Na3MnP3(H12O11)2
_symmetry_space_group_name_H-M   'P 1'
_cell_length_a   14.81834400
_cell_length_b   9.32158000
_cell_length_c   21.25422246
_cell_angle_alpha   90.00000000
_cell_angle_beta   134.16150728
_cell_angle_gamma   90.00000000
_symmetry_Int_Tables_number   1
_chemical_formula_structural   Na3MnP3(H12O11)2
_chemical_formula_sum   'Na12 Mn4 P12 H96 O88'
_cell_volume   2106.11933448
_cell_formula_units_Z   4
loop_
 _symmetry_equiv_pos_site_id
 _symmetry_equiv_pos_as_xyz
  1  'x, y, z'
loop_
 _atom_site_type_symbol
 _atom_site_label
 _atom_site_symmetry_multiplicity
 _atom_site_fract_x
 _atom_site_fract_y
 _atom_site_fract_z
 _atom_site_occupancy
  Na  Na0  1  0.43168200  0.46264000  0.29038900  1
  Na  Na1  1  0.56831800  0.96264000  0.20961100  1
  Na  Na2  1  0.56831800  0.53736000  0.70961100  1
  Na  Na3  1  0.43168200  0.03736000  0.79038900  1
  Na  Na4  1  0.68449200  0.19707700  0.79743000  1
  Na  Na5  1  0.31550800  0.69707700  0.70257000  1
  Na  Na6  1  0.31550800  0.80292300  0.20257000  1
  Na  Na7  1  0.68449200  0.30292300  0.29743000  1
  Na  Na8  1  0.19140200  0.26093700  0.43686500  1
  Na  Na9  1  0.80859800  0.76093700  0.06313500  1
  Na  Na10  1  0.80859800  0.73906300  0.56313500  1
  Na  Na11  1  0.19140200  0.23906300  0.93686500  1
  Mn  Mn12  1  0.93090900  0.04158300  0.18269800  1
  Mn  Mn13  1  0.06909100  0.54158300  0.31730200  1
  Mn  Mn14  1  0.06909100  0.95841700  0.81730200  1
  Mn  Mn15  1  0.93090900  0.45841700  0.68269800  1
  P  P16  1  0.69658400  0.27867100  0.08886100  1
  P  P17  1  0.30341600  0.77867100  0.41113900  1
  P  P18  1  0.30341600  0.72132900  0.91113900  1
  P  P19  1  0.69658400  0.22132900  0.58886100  1
  P  P20  1  0.00377600  0.26930600  0.09709000  1
  P  P21  1  0.99622400  0.76930600  0.40291000  1
  P  P22  1  0.99622400  0.73069400  0.90291000  1
  P  P23  1  0.00377600  0.23069400  0.59709000  1
  P  P24  1  0.74211400  0.15432200  0.98260400  1
  P  P25  1  0.25788600  0.65432200  0.51739600  1
  P  P26  1  0.25788600  0.84567800  0.01739600  1
  P  P27  1  0.74211400  0.34567800  0.48260400  1
  H  H28  1  0.15382700  0.54300300  0.17346200  1
  H  H29  1  0.84617300  0.04300300  0.32653800  1
  H  H30  1  0.84617300  0.45699700  0.82653800  1
  H  H31  1  0.15382700  0.95699700  0.67346200  1
  H  H32  1  0.42521600  0.29204700  0.69112200  1
  H  H33  1  0.57478400  0.79204700  0.80887800  1
  H  H34  1  0.57478400  0.70795300  0.30887800  1
  H  H35  1  0.42521600  0.20795300  0.19112200  1
  H  H36  1  0.74691300  0.77941300  0.82574300  1
  H  H37  1  0.25308700  0.27941300  0.67425700  1
  H  H38  1  0.25308700  0.22058700  0.17425700  1
  H  H39  1  0.74691300  0.72058700  0.32574300  1
  H  H40  1  0.45831500  0.30233200  0.02826000  1
  H  H41  1  0.54168500  0.80233200  0.47174000  1
  H  H42  1  0.54168500  0.69766800  0.97174000  1
  H  H43  1  0.45831500  0.19766800  0.52826000  1
  H  H44  1  0.94138600  0.11933800  0.84635100  1
  H  H45  1  0.05861400  0.61933800  0.65364900  1
  H  H46  1  0.05861400  0.88066200  0.15364900  1
  H  H47  1  0.94138600  0.38066200  0.34635100  1
  H  H48  1  0.43535800  0.23796700  0.62602200  1
  H  H49  1  0.56464200  0.73796700  0.87397800  1
  H  H50  1  0.56464200  0.76203300  0.37397800  1
  H  H51  1  0.43535800  0.26203300  0.12602200  1
  H  H52  1  0.70701900  0.52597100  0.89762600  1
  H  H53  1  0.29298100  0.02597100  0.60237400  1
  H  H54  1  0.29298100  0.47402900  0.10237400  1
  H  H55  1  0.70701900  0.97402900  0.39762600  1
  H  H56  1  0.90617200  0.55506900  0.02370400  1
  H  H57  1  0.09382800  0.05506900  0.47629600  1
  H  H58  1  0.09382800  0.44493100  0.97629600  1
  H  H59  1  0.90617200  0.94493100  0.52370400  1
  H  H60  1  0.12960800  0.30064900  0.27006400  1
  H  H61  1  0.87039200  0.80064900  0.22993600  1
  H  H62  1  0.87039200  0.69935100  0.72993600  1
  H  H63  1  0.12960800  0.19935100  0.77006400  1
  H  H64  1  0.36657900  0.43616700  0.98154500  1
  H  H65  1  0.63342100  0.93616700  0.51845500  1
  H  H66  1  0.63342100  0.56383300  0.01845500  1
  H  H67  1  0.36657900  0.06383300  0.48154500  1
  H  H68  1  0.63569800  0.85835200  0.73803900  1
  H  H69  1  0.36430200  0.35835200  0.76196100  1
  H  H70  1  0.36430200  0.14164800  0.26196100  1
  H  H71  1  0.63569800  0.64164800  0.23803900  1
  H  H72  1  0.12686300  0.18401700  0.53826200  1
  H  H73  1  0.87313700  0.68401700  0.96173800  1
  H  H74  1  0.87313700  0.81598300  0.46173800  1
  H  H75  1  0.12686300  0.31598300  0.03826200  1
  H  H76  1  0.91640900  0.19721500  0.76734800  1
  H  H77  1  0.08359100  0.69721500  0.73265200  1
  H  H78  1  0.08359100  0.80278500  0.23265200  1
  H  H79  1  0.91640900  0.30278500  0.26734800  1
  H  H80  1  0.84392300  0.50182800  0.14885800  1
  H  H81  1  0.15607700  0.00182800  0.35114200  1
  H  H82  1  0.15607700  0.49817200  0.85114200  1
  H  H83  1  0.84392300  0.99817200  0.64885800  1
  H  H84  1  0.26078700  0.38623900  0.34472000  1
  H  H85  1  0.73921300  0.88623900  0.15528000  1
  H  H86  1  0.73921300  0.61376100  0.65528000  1
  H  H87  1  0.26078700  0.11376100  0.84472000  1
  H  H88  1  0.95215400  0.49670000  0.14729100  1
  H  H89  1  0.04784600  0.99670000  0.35270900  1
  H  H90  1  0.04784600  0.50330000  0.85270900  1
  H  H91  1  0.95215400  0.00330000  0.64729100  1
  H  H92  1  0.65837800  0.02026900  0.66358700  1
  H  H93  1  0.34162200  0.52026900  0.83641300  1
  H  H94  1  0.34162200  0.97973100  0.33641300  1
  H  H95  1  0.65837800  0.47973100  0.16358700  1
  H  H96  1  0.94900800  0.12722500  0.95336600  1
  H  H97  1  0.05099200  0.62722500  0.54663400  1
  H  H98  1  0.05099200  0.87277500  0.04663400  1
  H  H99  1  0.94900800  0.37277500  0.45336600  1
  H  H100  1  0.62416600  0.11361300  0.36489300  1
  H  H101  1  0.37583400  0.61361300  0.13510700  1
  H  H102  1  0.37583400  0.88638700  0.63510700  1
  H  H103  1  0.62416600  0.38638700  0.86489300  1
  H  H104  1  0.21959700  0.62753500  0.25902600  1
  H  H105  1  0.78040300  0.12753500  0.24097400  1
  H  H106  1  0.78040300  0.37246500  0.74097400  1
  H  H107  1  0.21959700  0.87246500  0.75902600  1
  H  H108  1  0.10056700  0.02280000  0.09589000  1
  H  H109  1  0.89943300  0.52280000  0.40411000  1
  H  H110  1  0.89943300  0.97720000  0.90411000  1
  H  H111  1  0.10056700  0.47720000  0.59589000  1
  H  H112  1  0.46854800  0.37800300  0.44551100  1
  H  H113  1  0.53145200  0.87800300  0.05448900  1
  H  H114  1  0.53145200  0.62199700  0.55448900  1
  H  H115  1  0.46854800  0.12199700  0.94551100  1
  H  H116  1  0.41445000  0.53510800  0.41280100  1
  H  H117  1  0.58555000  0.03510800  0.08719900  1
  H  H118  1  0.58555000  0.46489200  0.58719900  1
  H  H119  1  0.41445000  0.96489200  0.91280100  1
  H  H120  1  0.53038100  0.04207000  0.63505000  1
  H  H121  1  0.46961900  0.54207000  0.86495000  1
  H  H122  1  0.46961900  0.95793000  0.36495000  1
  H  H123  1  0.53038100  0.45793000  0.13505000  1
  O  O124  1  0.81174500  0.19772400  0.17156700  1
  O  O125  1  0.18825500  0.69772400  0.32843300  1
  O  O126  1  0.18825500  0.80227600  0.82843300  1
  O  O127  1  0.81174500  0.30227600  0.67156700  1
  O  O128  1  0.78523300  0.01975400  0.03698200  1
  O  O129  1  0.21476700  0.51975400  0.46301800  1
  O  O130  1  0.21476700  0.98024600  0.96301800  1
  O  O131  1  0.78523300  0.48024600  0.53698200  1
  O  O132  1  0.84181500  0.63027300  0.98370000  1
  O  O133  1  0.15818500  0.13027300  0.51630000  1
  O  O134  1  0.15818500  0.36972700  0.01630000  1
  O  O135  1  0.84181500  0.86972700  0.48370000  1
  O  O136  1  0.01043700  0.43296100  0.10468600  1
  O  O137  1  0.98956300  0.93296100  0.39531400  1
  O  O138  1  0.98956300  0.56703900  0.89531400  1
  O  O139  1  0.01043700  0.06703900  0.60468600  1
  O  O140  1  0.17693100  0.36180100  0.32326300  1
  O  O141  1  0.82306900  0.86180100  0.17673700  1
  O  O142  1  0.82306900  0.63819900  0.67673700  1
  O  O143  1  0.17693100  0.13819900  0.82326300  1
  O  O144  1  0.70298200  0.43985700  0.10588400  1
  O  O145  1  0.29701800  0.93985700  0.39411600  1
  O  O146  1  0.29701800  0.56014300  0.89411600  1
  O  O147  1  0.70298200  0.06014300  0.60588400  1
  O  O148  1  0.22759100  0.60476700  0.21786000  1
  O  O149  1  0.77240900  0.10476700  0.28214000  1
  O  O150  1  0.77240900  0.39523300  0.78214000  1
  O  O151  1  0.22759100  0.89523300  0.71786000  1
  O  O152  1  0.92424400  0.54742600  0.17289300  1
  O  O153  1  0.07575600  0.04742600  0.32710700  1
  O  O154  1  0.07575600  0.45257400  0.82710700  1
  O  O155  1  0.92424400  0.95257400  0.67289300  1
  O  O156  1  0.89201700  0.08336600  0.89474800  1
  O  O157  1  0.10798300  0.58336600  0.60525200  1
  O  O158  1  0.10798300  0.91663400  0.10525200  1
  O  O159  1  0.89201700  0.41663400  0.39474800  1
  O  O160  1  0.02770800  0.19671700  0.17232100  1
  O  O161  1  0.97229200  0.69671700  0.32767900  1
  O  O162  1  0.97229200  0.80328300  0.82767900  1
  O  O163  1  0.02770800  0.30328300  0.67232100  1
  O  O164  1  0.39496700  0.35629700  0.02300000  1
  O  O165  1  0.60503300  0.85629700  0.47700000  1
  O  O166  1  0.60503300  0.64370300  0.97700000  1
  O  O167  1  0.39496700  0.14370300  0.52300000  1
  O  O168  1  0.97865300  0.14015700  0.82190700  1
  O  O169  1  0.02134700  0.64015700  0.67809300  1
  O  O170  1  0.02134700  0.85984300  0.17809300  1
  O  O171  1  0.97865300  0.35984300  0.32190700  1
  O  O172  1  0.57268800  0.20701400  0.04737200  1
  O  O173  1  0.42731200  0.70701400  0.45262800  1
  O  O174  1  0.42731200  0.79298600  0.95262800  1
  O  O175  1  0.57268800  0.29298600  0.54737200  1
  O  O176  1  0.70497900  0.27482600  0.01610600  1
  O  O177  1  0.29502100  0.77482600  0.48389400  1
  O  O178  1  0.29502100  0.72517400  0.98389400  1
  O  O179  1  0.70497900  0.22517400  0.51610600  1
  O  O180  1  0.63946900  0.14832800  0.88450800  1
  O  O181  1  0.36053100  0.64832800  0.61549200  1
  O  O182  1  0.36053100  0.85167200  0.11549200  1
  O  O183  1  0.63946900  0.35167200  0.38450800  1
  O  O184  1  0.08226000  0.20636600  0.08079400  1
  O  O185  1  0.91774000  0.70636600  0.41920600  1
  O  O186  1  0.91774000  0.79363400  0.91920600  1
  O  O187  1  0.08226000  0.29363400  0.58079400  1
  O  O188  1  0.85916200  0.23134100  0.00478700  1
  O  O189  1  0.14083800  0.73134100  0.49521300  1
  O  O190  1  0.14083800  0.76865900  0.99521300  1
  O  O191  1  0.85916200  0.26865900  0.50478700  1
  O  O192  1  0.40629900  0.43628100  0.39147800  1
  O  O193  1  0.59370100  0.93628100  0.10852200  1
  O  O194  1  0.59370100  0.56371900  0.60852200  1
  O  O195  1  0.40629900  0.06371900  0.89147800  1
  O  O196  1  0.61883400  0.01677300  0.68678000  1
  O  O197  1  0.38116600  0.51677300  0.81322000  1
  O  O198  1  0.38116600  0.98322700  0.31322000  1
  O  O199  1  0.61883400  0.48322700  0.18678000  1
  O  O200  1  0.62999800  0.47681200  0.84474400  1
  O  O201  1  0.37000200  0.97681200  0.65525600  1
  O  O202  1  0.37000200  0.52318800  0.15525600  1
  O  O203  1  0.62999800  0.02318800  0.34474400  1
  O  O204  1  0.47785000  0.29803200  0.67788500  1
  O  O205  1  0.52215000  0.79803200  0.82211500  1
  O  O206  1  0.52215000  0.70196800  0.32211500  1
  O  O207  1  0.47785000  0.20196800  0.17788500  1
  O  O208  1  0.65464000  0.77526200  0.77529900  1
  O  O209  1  0.34536000  0.27526200  0.72470100  1
  O  O210  1  0.34536000  0.22473800  0.22470100  1
  O  O211  1  0.65464000  0.72473800  0.27529900  1
