# generated using pymatgen
data_Nd2H16S3O20
_symmetry_space_group_name_H-M   'P 1'
_cell_length_a   7.67090500
_cell_length_b   7.67090500
_cell_length_c   18.56349620
_cell_angle_alpha   78.63187406
_cell_angle_beta   78.63187406
_cell_angle_gamma   53.43825602
_symmetry_Int_Tables_number   1
_chemical_formula_structural   Nd2H16S3O20
_chemical_formula_sum   'Nd4 H32 S6 O40'
_cell_volume   855.74484611
_cell_formula_units_Z   2
loop_
 _symmetry_equiv_pos_site_id
 _symmetry_equiv_pos_as_xyz
  1  'x, y, z'
loop_
 _atom_site_type_symbol
 _atom_site_label
 _atom_site_symmetry_multiplicity
 _atom_site_fract_x
 _atom_site_fract_y
 _atom_site_fract_z
 _atom_site_occupancy
  Nd  Nd0  1  0.69325600  0.64504100  0.60687800  1
  Nd  Nd1  1  0.35495900  0.30674400  0.89312200  1
  Nd  Nd2  1  0.30674400  0.35495900  0.39312200  1
  Nd  Nd3  1  0.64504100  0.69325600  0.10687800  1
  H  H4  1  0.74691700  0.71035500  0.75656000  1
  H  H5  1  0.28964500  0.25308300  0.74344000  1
  H  H6  1  0.25308300  0.28964500  0.24344000  1
  H  H7  1  0.71035500  0.74691700  0.25656000  1
  H  H8  1  0.80163800  0.86357200  0.70064800  1
  H  H9  1  0.13642800  0.19836200  0.79935200  1
  H  H10  1  0.19836200  0.13642800  0.29935200  1
  H  H11  1  0.86357200  0.80163800  0.20064800  1
  H  H12  1  0.34139800  0.55052700  0.64938900  1
  H  H13  1  0.44947300  0.65860200  0.85061100  1
  H  H14  1  0.65860200  0.44947400  0.35061100  1
  H  H15  1  0.55052600  0.34139800  0.14938900  1
  H  H16  1  0.20647300  0.80333800  0.66144500  1
  H  H17  1  0.19666200  0.79352700  0.83855500  1
  H  H18  1  0.79352700  0.19666200  0.33855500  1
  H  H19  1  0.80333800  0.20647300  0.16144500  1
  H  H20  1  0.71743500  0.00582600  0.51728600  1
  H  H21  1  0.99417400  0.28256500  0.98271400  1
  H  H22  1  0.28256500  0.99417400  0.48271400  1
  H  H23  1  0.00582600  0.71743500  0.01728600  1
  H  H24  1  0.96449800  0.79984300  0.50517500  1
  H  H25  1  0.20015700  0.03550200  0.99482500  1
  H  H26  1  0.03550200  0.20015700  0.49482500  1
  H  H27  1  0.79984300  0.96449800  0.00517500  1
  H  H28  1  0.83335100  0.17875600  0.60669700  1
  H  H29  1  0.82124400  0.16664900  0.89330300  1
  H  H30  1  0.16664900  0.82124400  0.39330300  1
  H  H31  1  0.17875600  0.83335100  0.10669700  1
  H  H32  1  0.66690100  0.30429200  0.54589100  1
  H  H33  1  0.69570800  0.33309900  0.95410900  1
  H  H34  1  0.33309900  0.69570800  0.45410900  1
  H  H35  1  0.30429200  0.66690100  0.04589100  1
  S  S36  1  0.82969200  0.17030800  0.75000000  1
  S  S37  1  0.17030800  0.82969200  0.25000000  1
  S  S38  1  0.31754700  0.25587500  0.58992000  1
  S  S39  1  0.74412500  0.68245300  0.91008000  1
  S  S40  1  0.68245300  0.74412500  0.41008000  1
  S  S41  1  0.25587500  0.31754700  0.08992000  1
  O  O42  1  0.76028500  0.76219700  0.70379600  1
  O  O43  1  0.23780300  0.23971500  0.79620400  1
  O  O44  1  0.23971500  0.23780300  0.29620400  1
  O  O45  1  0.76219700  0.76028500  0.20379600  1
  O  O46  1  0.34941600  0.67759700  0.64269100  1
  O  O47  1  0.32240300  0.65058400  0.85730900  1
  O  O48  1  0.65058400  0.32240300  0.35730900  1
  O  O49  1  0.67759700  0.34941600  0.14269100  1
  O  O50  1  0.83168400  0.86305100  0.54050500  1
  O  O51  1  0.13694900  0.16831600  0.95949500  1
  O  O52  1  0.16831600  0.13694900  0.45949500  1
  O  O53  1  0.86305100  0.83168400  0.04050500  1
  O  O54  1  0.78478400  0.29481400  0.56427000  1
  O  O55  1  0.70518600  0.21521600  0.93573000  1
  O  O56  1  0.21521600  0.70518600  0.43573000  1
  O  O57  1  0.29481400  0.78478400  0.06427000  1
  O  O58  1  0.62184600  0.20833200  0.78724100  1
  O  O59  1  0.79166800  0.37815400  0.71275900  1
  O  O60  1  0.37815400  0.79166800  0.21275900  1
  O  O61  1  0.20833200  0.62184600  0.28724100  1
  O  O62  1  0.92055100  0.01328200  0.69338200  1
  O  O63  1  0.98671800  0.07944900  0.80661800  1
  O  O64  1  0.07944900  0.98671800  0.30661800  1
  O  O65  1  0.01328200  0.92055100  0.19338200  1
  O  O66  1  0.44805300  0.27369100  0.51925600  1
  O  O67  1  0.72630900  0.55194700  0.98074400  1
  O  O68  1  0.55194700  0.72630900  0.48074400  1
  O  O69  1  0.27369100  0.44805300  0.01925600  1
  O  O70  1  0.36574200  0.31303400  0.65134100  1
  O  O71  1  0.68696600  0.63425800  0.84865900  1
  O  O72  1  0.63425800  0.68696600  0.34865900  1
  O  O73  1  0.31303400  0.36574200  0.15134100  1
  O  O74  1  0.38068800  0.02893900  0.60471200  1
  O  O75  1  0.97106100  0.61931200  0.89528800  1
  O  O76  1  0.61931200  0.97106100  0.39528800  1
  O  O77  1  0.02893900  0.38068800  0.10471200  1
  O  O78  1  0.08432000  0.40794900  0.57721900  1
  O  O79  1  0.59205100  0.91568000  0.92278100  1
  O  O80  1  0.91568000  0.59205100  0.42278100  1
  O  O81  1  0.40794900  0.08432000  0.07721900  1
