# generated using pymatgen
data_CoH20Se2(NO7)2
_symmetry_space_group_name_H-M   'P 1'
_cell_length_a   12.76044800
_cell_length_b   6.50683700
_cell_length_c   9.38642286
_cell_angle_alpha   73.13670298
_cell_angle_beta   90.00000000
_cell_angle_gamma   90.00000000
_symmetry_Int_Tables_number   1
_chemical_formula_structural   CoH20Se2(NO7)2
_chemical_formula_sum   'Co2 H40 Se4 N4 O28'
_cell_volume   745.84352707
_cell_formula_units_Z   2
loop_
 _symmetry_equiv_pos_site_id
 _symmetry_equiv_pos_as_xyz
  1  'x, y, z'
loop_
 _atom_site_type_symbol
 _atom_site_label
 _atom_site_symmetry_multiplicity
 _atom_site_fract_x
 _atom_site_fract_y
 _atom_site_fract_z
 _atom_site_occupancy
  Co  Co0  1  0.00000000  0.00000000  0.00000000  1
  Co  Co1  1  0.50000000  0.00000000  0.50000000  1
  H  H2  1  0.82055100  0.45653900  0.42711500  1
  H  H3  1  0.40401900  0.05270000  0.23782100  1
  H  H4  1  0.90401900  0.94730000  0.26217900  1
  H  H5  1  0.59598100  0.94730000  0.76217900  1
  H  H6  1  0.67071000  0.19985400  0.93077600  1
  H  H7  1  0.17071000  0.80014600  0.56922400  1
  H  H8  1  0.32929000  0.80014600  0.06922400  1
  H  H9  1  0.82929000  0.19985400  0.43077600  1
  H  H10  1  0.58040100  0.37595100  0.83153700  1
  H  H11  1  0.08040100  0.62404900  0.66846300  1
  H  H12  1  0.41959900  0.62404900  0.16846300  1
  H  H13  1  0.91959900  0.37595100  0.33153700  1
  H  H14  1  0.70579400  0.39062200  0.76918600  1
  H  H15  1  0.20579400  0.60937800  0.73081400  1
  H  H16  1  0.29420600  0.60937800  0.23081400  1
  H  H17  1  0.79420600  0.39062200  0.26918600  1
  H  H18  1  0.67944900  0.45653900  0.92711500  1
  H  H19  1  0.17944900  0.54346100  0.57288500  1
  H  H20  1  0.32055100  0.54346100  0.07288500  1
  H  H21  1  0.12004500  0.89553900  0.24978000  1
  H  H22  1  0.31573200  0.99416400  0.36295800  1
  H  H23  1  0.81573200  0.00583600  0.13704200  1
  H  H24  1  0.68426800  0.00583600  0.63704200  1
  H  H25  1  0.18426800  0.99416400  0.86295800  1
  H  H26  1  0.41438200  0.67967100  0.71236300  1
  H  H27  1  0.91438200  0.32032900  0.78763700  1
  H  H28  1  0.58561800  0.32032900  0.28763700  1
  H  H29  1  0.08561800  0.67967100  0.21236300  1
  H  H30  1  0.37995500  0.89553900  0.74978000  1
  H  H31  1  0.87995500  0.10446100  0.75022000  1
  H  H32  1  0.14260100  0.32054800  0.97877900  1
  H  H33  1  0.64260100  0.67945200  0.52122100  1
  H  H34  1  0.85739900  0.67945200  0.02122100  1
  H  H35  1  0.35739900  0.32054800  0.47877900  1
  H  H36  1  0.05563200  0.33205300  0.09676500  1
  H  H37  1  0.55563200  0.66794700  0.40323500  1
  H  H38  1  0.94436800  0.66794700  0.90323500  1
  H  H39  1  0.44436800  0.33205300  0.59676500  1
  H  H40  1  0.62004500  0.10446100  0.25022000  1
  H  H41  1  0.09598100  0.05270000  0.73782100  1
  Se  Se42  1  0.13220000  0.25941300  0.41321300  1
  Se  Se43  1  0.63220000  0.74058700  0.08678700  1
  Se  Se44  1  0.36780000  0.25941300  0.91321300  1
  Se  Se45  1  0.86780000  0.74058700  0.58678700  1
  N  N46  1  0.65917400  0.35567800  0.86339300  1
  N  N47  1  0.84082600  0.35567800  0.36339300  1
  N  N48  1  0.15917400  0.64432200  0.63660700  1
  N  N49  1  0.34082600  0.64432200  0.13660700  1
  O  O50  1  0.39300900  0.83161600  0.66790100  1
  O  O51  1  0.93260600  0.70897800  0.99589000  1
  O  O52  1  0.56739400  0.70897800  0.49589000  1
  O  O53  1  0.06739400  0.29102200  0.00411000  1
  O  O54  1  0.82036400  0.96759000  0.61459600  1
  O  O55  1  0.32036400  0.03241000  0.88540400  1
  O  O56  1  0.11085200  0.96216000  0.84167400  1
  O  O57  1  0.61085200  0.03784000  0.65832600  1
  O  O58  1  0.88914800  0.03784000  0.15832600  1
  O  O59  1  0.38914800  0.96216000  0.34167400  1
  O  O60  1  0.17963600  0.03241000  0.38540400  1
  O  O61  1  0.67963600  0.96759000  0.11459600  1
  O  O62  1  0.94405700  0.60664000  0.73063500  1
  O  O63  1  0.44405700  0.39336000  0.76936500  1
  O  O64  1  0.89300900  0.16838400  0.83209900  1
  O  O65  1  0.43260600  0.29102200  0.50411000  1
  O  O66  1  0.10699100  0.83161600  0.16790100  1
  O  O67  1  0.05594300  0.39336000  0.26936500  1
  O  O68  1  0.56185400  0.79327100  0.93162100  1
  O  O69  1  0.06185400  0.20672900  0.56837900  1
  O  O70  1  0.43814600  0.20672900  0.06837900  1
  O  O71  1  0.93814600  0.79327100  0.43162100  1
  O  O72  1  0.73266100  0.57651500  0.07648600  1
  O  O73  1  0.23266100  0.42348500  0.42351400  1
  O  O74  1  0.26733900  0.42348500  0.92351400  1
  O  O75  1  0.76733900  0.57651500  0.57648600  1
  O  O76  1  0.55594300  0.60664000  0.23063500  1
  O  O77  1  0.60699100  0.16838400  0.33209900  1
