# generated using pymatgen
data_VO2
_symmetry_space_group_name_H-M   'P 1'
_cell_length_a   5.91991451
_cell_length_b   5.92048988
_cell_length_c   5.93223418
_cell_angle_alpha   120.02863964
_cell_angle_beta   120.02885015
_cell_angle_gamma   89.84004883
_symmetry_Int_Tables_number   1
_chemical_formula_structural   VO2
_chemical_formula_sum   'V4 O8'
_cell_volume   147.09659814
_cell_formula_units_Z   4
loop_
 _symmetry_equiv_pos_site_id
 _symmetry_equiv_pos_as_xyz
  1  'x, y, z'
loop_
 _atom_site_type_symbol
 _atom_site_label
 _atom_site_symmetry_multiplicity
 _atom_site_fract_x
 _atom_site_fract_y
 _atom_site_fract_z
 _atom_site_occupancy
  V  V0  1  0.49998600  0.49997000  0.00001100  1
  V  V1  1  0.99996400  0.00001200  0.49992500  1
  V  V2  1  0.99995500  0.49993600  0.99996900  1
  V  V3  1  0.00008200  0.50010500  0.50009600  1
  O  O4  1  0.76069200  0.73437200  0.03311000  1
  O  O5  1  0.20136500  0.73788300  0.46661600  1
  O  O6  1  0.23928200  0.26556200  0.96683900  1
  O  O7  1  0.22781800  0.70125700  0.96694300  1
  O  O8  1  0.79863700  0.26215700  0.53338800  1
  O  O9  1  0.23436400  0.27107200  0.53295600  1
  O  O10  1  0.76563800  0.72894900  0.46704100  1
  O  O11  1  0.77222400  0.29873100  0.03311100  1
