# generated using pymatgen
data_VPO5
_symmetry_space_group_name_H-M   'P 1'
_cell_length_a   7.01504600
_cell_length_b   7.42846511
_cell_length_c   7.57874872
_cell_angle_alpha   90.96435184
_cell_angle_beta   89.87936407
_cell_angle_gamma   115.38783626
_symmetry_Int_Tables_number   1
_chemical_formula_structural   VPO5
_chemical_formula_sum   'V4 P4 O20'
_cell_volume   356.73966211
_cell_formula_units_Z   4
loop_
 _symmetry_equiv_pos_site_id
 _symmetry_equiv_pos_as_xyz
  1  'x, y, z'
loop_
 _atom_site_type_symbol
 _atom_site_label
 _atom_site_symmetry_multiplicity
 _atom_site_fract_x
 _atom_site_fract_y
 _atom_site_fract_z
 _atom_site_occupancy
  V  V0  1  0.70432500  0.46165200  0.26972900  1
  V  V1  1  0.20606900  0.95659000  0.22956500  1
  V  V2  1  0.79393100  0.04341000  0.77043500  1
  V  V3  1  0.29567500  0.53834800  0.73027100  1
  P  P4  1  0.48308700  0.24262200  0.90918600  1
  P  P5  1  0.01205300  0.75519400  0.59159200  1
  P  P6  1  0.98794700  0.24480600  0.40840800  1
  P  P7  1  0.51691300  0.75737800  0.09081400  1
  O  O8  1  0.29035000  0.11814600  0.02282800  1
  O  O9  1  0.42032600  0.35627700  0.77099600  1
  O  O10  1  0.50210300  0.27395000  0.34484500  1
  O  O11  1  0.66694500  0.39186600  0.02659600  1
  O  O12  1  0.82025000  0.60833400  0.48398500  1
  O  O13  1  0.55916500  0.10285400  0.80829000  1
  O  O14  1  0.94995600  0.89605500  0.70252700  1
  O  O15  1  0.01490700  0.75616700  0.15338500  1
  O  O16  1  0.80194300  0.12067700  0.53211400  1
  O  O17  1  0.08631400  0.63847600  0.72006700  1
  O  O18  1  0.91368600  0.36152400  0.27993300  1
  O  O19  1  0.19805700  0.87932300  0.46788600  1
  O  O20  1  0.98509300  0.24383300  0.84661500  1
  O  O21  1  0.05004400  0.10394500  0.29747300  1
  O  O22  1  0.70965000  0.88185400  0.97717200  1
  O  O23  1  0.17975000  0.39166600  0.51601500  1
  O  O24  1  0.33305500  0.60813400  0.97340400  1
  O  O25  1  0.49789700  0.72605000  0.65515500  1
  O  O26  1  0.57967400  0.64372300  0.22900400  1
  O  O27  1  0.44083500  0.89714600  0.19171000  1
