# generated using pymatgen
data_FeO2
_symmetry_space_group_name_H-M   'P 1'
_cell_length_a   5.21546187
_cell_length_b   5.21546187
_cell_length_c   5.21546198
_cell_angle_alpha   33.33430978
_cell_angle_beta   33.33430978
_cell_angle_gamma   33.33431208
_symmetry_Int_Tables_number   1
_chemical_formula_structural   FeO2
_chemical_formula_sum   'Fe1 O2'
_cell_volume   38.14473419
_cell_formula_units_Z   1
loop_
 _symmetry_equiv_pos_site_id
 _symmetry_equiv_pos_as_xyz
  1  'x, y, z'
loop_
 _atom_site_type_symbol
 _atom_site_label
 _atom_site_symmetry_multiplicity
 _atom_site_fract_x
 _atom_site_fract_y
 _atom_site_fract_z
 _atom_site_occupancy
  Fe  Fe0  1  0.50000000  0.50000000  0.50000000  1
  O  O1  1  0.76791600  0.76791600  0.76791600  1
  O  O2  1  0.23208400  0.23208400  0.23208400  1
