# generated using pymatgen
data_VP2O7
_symmetry_space_group_name_H-M   'P 1'
_cell_length_a   8.01617700
_cell_length_b   4.87133500
_cell_length_c   6.99101337
_cell_angle_alpha   73.92632626
_cell_angle_beta   90.00000000
_cell_angle_gamma   90.00000000
_symmetry_Int_Tables_number   1
_chemical_formula_structural   VP2O7
_chemical_formula_sum   'V2 P4 O14'
_cell_volume   262.32310638
_cell_formula_units_Z   2
loop_
 _symmetry_equiv_pos_site_id
 _symmetry_equiv_pos_as_xyz
  1  'x, y, z'
loop_
 _atom_site_type_symbol
 _atom_site_label
 _atom_site_symmetry_multiplicity
 _atom_site_fract_x
 _atom_site_fract_y
 _atom_site_fract_z
 _atom_site_occupancy
  V  V0  1  0.00184500  0.78628700  0.72725100  1
  V  V1  1  0.50184500  0.21371300  0.27274900  1
  P  P2  1  0.23327000  0.23491000  0.89643900  1
  P  P3  1  0.81890600  0.39197900  0.49132400  1
  P  P4  1  0.73327000  0.76509000  0.10356100  1
  P  P5  1  0.31890600  0.60802100  0.50867600  1
  O  O6  1  0.82832500  0.58574900  0.63168900  1
  O  O7  1  0.83499100  0.85723500  0.91398400  1
  O  O8  1  0.08372500  0.42583300  0.90821700  1
  O  O9  1  0.36223200  0.41089300  0.72921900  1
  O  O10  1  0.17696800  0.97066600  0.83304100  1
  O  O11  1  0.86223200  0.58910700  0.27078100  1
  O  O12  1  0.94912000  0.15609900  0.53786900  1
  O  O13  1  0.32832500  0.41425100  0.36831100  1
  O  O14  1  0.67696800  0.02933400  0.16695900  1
  O  O15  1  0.64191900  0.27802800  0.48526800  1
  O  O16  1  0.33499100  0.14276500  0.08601600  1
  O  O17  1  0.14191900  0.72197200  0.51473200  1
  O  O18  1  0.58372500  0.57416700  0.09178300  1
  O  O19  1  0.44912000  0.84390100  0.46213100  1
