# generated using pymatgen
data_V2(SO4)3
_symmetry_space_group_name_H-M   'P 1'
_cell_length_a   7.71633737
_cell_length_b   7.71633737
_cell_length_c   8.66907844
_cell_angle_alpha   69.74449301
_cell_angle_beta   69.74449301
_cell_angle_gamma   64.83981922
_symmetry_Int_Tables_number   1
_chemical_formula_structural   V2(SO4)3
_chemical_formula_sum   'V4 S6 O24'
_cell_volume   426.09918745
_cell_formula_units_Z   2
loop_
 _symmetry_equiv_pos_site_id
 _symmetry_equiv_pos_as_xyz
  1  'x, y, z'
loop_
 _atom_site_type_symbol
 _atom_site_label
 _atom_site_symmetry_multiplicity
 _atom_site_fract_x
 _atom_site_fract_y
 _atom_site_fract_z
 _atom_site_occupancy
  V  V0  1  0.38025700  0.87212900  0.48001900  1
  V  V1  1  0.87212900  0.38025700  0.98001900  1
  V  V2  1  0.12787100  0.61974300  0.01998100  1
  V  V3  1  0.61974300  0.12787100  0.51998100  1
  S  S4  1  0.76290300  0.52230100  0.33204400  1
  S  S5  1  0.52230100  0.76290300  0.83204400  1
  S  S6  1  0.05383900  0.94616100  0.25000000  1
  S  S7  1  0.94616100  0.05383900  0.75000000  1
  S  S8  1  0.47769900  0.23709700  0.16795600  1
  S  S9  1  0.23709700  0.47769900  0.66795600  1
  O  O10  1  0.86944600  0.96568700  0.38562600  1
  O  O11  1  0.96568700  0.86944600  0.88562600  1
  O  O12  1  0.90864700  0.46050100  0.42380200  1
  O  O13  1  0.62309600  0.72958100  0.33061100  1
  O  O14  1  0.86653600  0.53185700  0.13801400  1
  O  O15  1  0.46050100  0.90864700  0.92380200  1
  O  O16  1  0.21912600  0.90713700  0.31991800  1
  O  O17  1  0.64797900  0.39195400  0.38197600  1
  O  O18  1  0.72958100  0.62309600  0.83061100  1
  O  O19  1  0.53185700  0.86653600  0.63801400  1
  O  O20  1  0.90713700  0.21912600  0.81991800  1
  O  O21  1  0.60804600  0.35202100  0.11802400  1
  O  O22  1  0.39195400  0.64797900  0.88197600  1
  O  O23  1  0.09286300  0.78087400  0.18008200  1
  O  O24  1  0.46814300  0.13346400  0.36198600  1
  O  O25  1  0.27041900  0.37690400  0.16938900  1
  O  O26  1  0.35202100  0.60804600  0.61802400  1
  O  O27  1  0.78087400  0.09286300  0.68008200  1
  O  O28  1  0.53949900  0.09135300  0.07619800  1
  O  O29  1  0.13346400  0.46814300  0.86198600  1
  O  O30  1  0.37690400  0.27041900  0.66938900  1
  O  O31  1  0.09135300  0.53949900  0.57619800  1
  O  O32  1  0.03431300  0.13055400  0.11437400  1
  O  O33  1  0.13055400  0.03431300  0.61437400  1
