# generated using pymatgen
data_Mn2NiO6
_symmetry_space_group_name_H-M   'P 1'
_cell_length_a   5.01128075
_cell_length_b   5.01128075
_cell_length_c   10.01321300
_cell_angle_alpha   90.00000000
_cell_angle_beta   90.00000000
_cell_angle_gamma   120.04774300
_symmetry_Int_Tables_number   1
_chemical_formula_structural   Mn2NiO6
_chemical_formula_sum   'Mn4 Ni2 O12'
_cell_volume   217.66691343
_cell_formula_units_Z   2
loop_
 _symmetry_equiv_pos_site_id
 _symmetry_equiv_pos_as_xyz
  1  'x, y, z'
loop_
 _atom_site_type_symbol
 _atom_site_label
 _atom_site_symmetry_multiplicity
 _atom_site_fract_x
 _atom_site_fract_y
 _atom_site_fract_z
 _atom_site_occupancy
  Mn  Mn0  1  0.33338600  0.66661400  0.00000000  1
  Mn  Mn1  1  0.16661400  0.83338600  0.50000000  1
  Mn  Mn2  1  0.66661400  0.33338600  0.00000000  1
  Mn  Mn3  1  0.83338600  0.16661400  0.50000000  1
  Ni  Ni4  1  0.00000000  0.00000000  0.00000000  1
  Ni  Ni5  1  0.50000000  0.50000000  0.50000000  1
  O  O6  1  0.50018200  0.17255800  0.59554600  1
  O  O7  1  0.49981800  0.82744200  0.40445400  1
  O  O8  1  0.99981800  0.32744200  0.09554600  1
  O  O9  1  0.67255800  0.00018200  0.90445400  1
  O  O10  1  0.32756100  0.32756100  0.90454200  1
  O  O11  1  0.17243900  0.17243900  0.40454200  1
  O  O12  1  0.17255800  0.50018200  0.59554600  1
  O  O13  1  0.82744200  0.49981800  0.40445400  1
  O  O14  1  0.32744200  0.99981800  0.09554600  1
  O  O15  1  0.67243900  0.67243900  0.09545800  1
  O  O16  1  0.82756100  0.82756100  0.59545800  1
  O  O17  1  0.00018200  0.67255800  0.90445400  1
