# generated using pymatgen
data_VCuO4
_symmetry_space_group_name_H-M   'P 1'
_cell_length_a   5.82000024
_cell_length_b   5.82000024
_cell_length_c   5.82000024
_cell_angle_alpha   121.66525047
_cell_angle_beta   115.45193290
_cell_angle_gamma   92.59585490
_symmetry_Int_Tables_number   1
_chemical_formula_structural   VCuO4
_chemical_formula_sum   'V2 Cu2 O8'
_cell_volume   141.78096528
_cell_formula_units_Z   2
loop_
 _symmetry_equiv_pos_site_id
 _symmetry_equiv_pos_as_xyz
  1  'x, y, z'
loop_
 _atom_site_type_symbol
 _atom_site_label
 _atom_site_symmetry_multiplicity
 _atom_site_fract_x
 _atom_site_fract_y
 _atom_site_fract_z
 _atom_site_occupancy
  V  V0  1  0.03265000  0.78265000  0.25000000  1
  V  V1  1  0.96735000  0.21735000  0.75000000  1
  Cu  Cu2  1  0.50000000  0.50000000  0.50000000  1
  Cu  Cu3  1  0.50000000  0.00000000  0.00000000  1
  O  O4  1  0.32871600  0.27028900  0.05842700  1
  O  O5  1  0.84110300  0.84882900  0.50772500  1
  O  O6  1  0.15889700  0.15117100  0.49227500  1
  O  O7  1  0.15889700  0.66662200  0.00772500  1
  O  O8  1  0.28813900  0.72971100  0.55842700  1
  O  O9  1  0.67128400  0.72971100  0.94157300  1
  O  O10  1  0.84110300  0.33337800  0.99227500  1
  O  O11  1  0.71186100  0.27028900  0.44157300  1
