# generated using pymatgen
data_PWO4
_symmetry_space_group_name_H-M   'P 1'
_cell_length_a   5.10752300
_cell_length_b   5.99302500
_cell_length_c   10.20480200
_cell_angle_alpha   90.00000000
_cell_angle_beta   90.00000000
_cell_angle_gamma   90.00000000
_symmetry_Int_Tables_number   1
_chemical_formula_structural   PWO4
_chemical_formula_sum   'P4 W4 O16'
_cell_volume   312.36401976
_cell_formula_units_Z   4
loop_
 _symmetry_equiv_pos_site_id
 _symmetry_equiv_pos_as_xyz
  1  'x, y, z'
loop_
 _atom_site_type_symbol
 _atom_site_label
 _atom_site_symmetry_multiplicity
 _atom_site_fract_x
 _atom_site_fract_y
 _atom_site_fract_z
 _atom_site_occupancy
  P  P0  1  0.13103200  0.75000000  0.08632800  1
  P  P1  1  0.36896800  0.75000000  0.58632800  1
  P  P2  1  0.86896800  0.25000000  0.91367200  1
  P  P3  1  0.63103200  0.25000000  0.41367200  1
  W  W4  1  0.56434600  0.75000000  0.27161300  1
  W  W5  1  0.93565400  0.75000000  0.77161300  1
  W  W6  1  0.43565400  0.25000000  0.72838700  1
  W  W7  1  0.06434600  0.25000000  0.22838700  1
  O  O8  1  0.16138800  0.25000000  0.88574100  1
  O  O9  1  0.77660000  0.45272800  0.34223500  1
  O  O10  1  0.27660000  0.54727200  0.15776500  1
  O  O11  1  0.22340000  0.95272800  0.65776500  1
  O  O12  1  0.72340000  0.04727200  0.84223500  1
  O  O13  1  0.22340000  0.54727200  0.65776500  1
  O  O14  1  0.72340000  0.45272800  0.84223500  1
  O  O15  1  0.77660000  0.04727200  0.34223500  1
  O  O16  1  0.83861200  0.75000000  0.11425900  1
  O  O17  1  0.33861200  0.25000000  0.38574100  1
  O  O18  1  0.27660000  0.95272800  0.15776500  1
  O  O19  1  0.66138800  0.75000000  0.61425900  1
  O  O20  1  0.31270700  0.75000000  0.44022900  1
  O  O21  1  0.81270700  0.25000000  0.05977100  1
  O  O22  1  0.68729300  0.25000000  0.55977100  1
  O  O23  1  0.18729300  0.75000000  0.94022900  1
