# generated using pymatgen
data_Mo(CO)6
_symmetry_space_group_name_H-M   'P 1'
_cell_length_a   6.56680700
_cell_length_b   11.55784900
_cell_length_c   12.17190900
_cell_angle_alpha   90.00000000
_cell_angle_beta   90.00000000
_cell_angle_gamma   90.00000000
_symmetry_Int_Tables_number   1
_chemical_formula_structural   Mo(CO)6
_chemical_formula_sum   'Mo4 C24 O24'
_cell_volume   923.82554204
_cell_formula_units_Z   4
loop_
 _symmetry_equiv_pos_site_id
 _symmetry_equiv_pos_as_xyz
  1  'x, y, z'
loop_
 _atom_site_type_symbol
 _atom_site_label
 _atom_site_symmetry_multiplicity
 _atom_site_fract_x
 _atom_site_fract_y
 _atom_site_fract_z
 _atom_site_occupancy
  Mo  Mo0  1  0.43540800  0.25000000  0.37311400  1
  Mo  Mo1  1  0.93540800  0.75000000  0.12688600  1
  Mo  Mo2  1  0.56459200  0.75000000  0.62688600  1
  Mo  Mo3  1  0.06459200  0.25000000  0.87311400  1
  C  C4  1  0.43950300  0.62189400  0.72682000  1
  C  C5  1  0.67159500  0.75000000  0.22121400  1
  C  C6  1  0.81205200  0.62304600  0.02575700  1
  C  C7  1  0.18794800  0.12304600  0.97424300  1
  C  C8  1  0.70022200  0.25000000  0.46717600  1
  C  C9  1  0.17159500  0.25000000  0.27878600  1
  C  C10  1  0.79977800  0.25000000  0.96717600  1
  C  C11  1  0.56049700  0.12189400  0.27318000  1
  C  C12  1  0.93950300  0.12189400  0.77318000  1
  C  C13  1  0.56049700  0.37810600  0.27318000  1
  C  C14  1  0.43950300  0.87810600  0.72682000  1
  C  C15  1  0.93950300  0.37810600  0.77318000  1
  C  C16  1  0.29977800  0.75000000  0.53282400  1
  C  C17  1  0.18794800  0.37695400  0.97424300  1
  C  C18  1  0.32840500  0.25000000  0.77878600  1
  C  C19  1  0.82840500  0.75000000  0.72121400  1
  C  C20  1  0.68794800  0.87695400  0.52575700  1
  C  C21  1  0.31205200  0.37695400  0.47424300  1
  C  C22  1  0.20022200  0.75000000  0.03282400  1
  C  C23  1  0.06049700  0.87810600  0.22682000  1
  C  C24  1  0.81205200  0.87695400  0.02575700  1
  C  C25  1  0.31205200  0.12304600  0.47424300  1
  C  C26  1  0.68794800  0.62304600  0.52575700  1
  C  C27  1  0.06049700  0.62189400  0.22682000  1
  O  O28  1  0.36909000  0.94979800  0.78131900  1
  O  O29  1  0.75555700  0.94744500  0.46868900  1
  O  O30  1  0.02432800  0.25000000  0.22611100  1
  O  O31  1  0.84882900  0.25000000  0.51857900  1
  O  O32  1  0.97567200  0.75000000  0.77388900  1
  O  O33  1  0.74444300  0.55255500  0.96868900  1
  O  O34  1  0.75555700  0.55255500  0.46868900  1
  O  O35  1  0.13091000  0.94979800  0.28131900  1
  O  O36  1  0.65117100  0.25000000  0.01857900  1
  O  O37  1  0.24444300  0.05255500  0.53131100  1
  O  O38  1  0.25555700  0.44744500  0.03131100  1
  O  O39  1  0.63091000  0.05020200  0.21868100  1
  O  O40  1  0.74444300  0.94744500  0.96868900  1
  O  O41  1  0.86909000  0.44979800  0.71868100  1
  O  O42  1  0.13091000  0.55020200  0.28131900  1
  O  O43  1  0.52432800  0.75000000  0.27388900  1
  O  O44  1  0.24444300  0.44744500  0.53131100  1
  O  O45  1  0.86909000  0.05020200  0.71868100  1
  O  O46  1  0.15117100  0.75000000  0.48142100  1
  O  O47  1  0.25555700  0.05255500  0.03131100  1
  O  O48  1  0.63091000  0.44979800  0.21868100  1
  O  O49  1  0.36909000  0.55020200  0.78131900  1
  O  O50  1  0.34882900  0.75000000  0.98142100  1
  O  O51  1  0.47567200  0.25000000  0.72611100  1
