# generated using pymatgen
data_La4CoO8
_symmetry_space_group_name_H-M   'P 1'
_cell_length_a   6.91961077
_cell_length_b   6.91961077
_cell_length_c   5.34915400
_cell_angle_alpha   90.00000000
_cell_angle_beta   90.00000000
_cell_angle_gamma   134.87873690
_symmetry_Int_Tables_number   1
_chemical_formula_structural   La4CoO8
_chemical_formula_sum   'La4 Co1 O8'
_cell_volume   181.48914376
_cell_formula_units_Z   1
loop_
 _symmetry_equiv_pos_site_id
 _symmetry_equiv_pos_as_xyz
  1  'x, y, z'
loop_
 _atom_site_type_symbol
 _atom_site_label
 _atom_site_symmetry_multiplicity
 _atom_site_fract_x
 _atom_site_fract_y
 _atom_site_fract_z
 _atom_site_occupancy
  La  La0  1  0.63369000  0.36631000  0.50000000  1
  La  La1  1  0.86543500  0.13456500  0.00000000  1
  La  La2  1  0.13456500  0.86543500  0.00000000  1
  La  La3  1  0.36631000  0.63369000  0.50000000  1
  Co  Co4  1  0.00000000  0.00000000  0.50000000  1
  O  O5  1  0.24809600  0.24809600  0.73835400  1
  O  O6  1  0.75190400  0.75190400  0.73835400  1
  O  O7  1  0.83842100  0.16157900  0.50000000  1
  O  O8  1  0.16157900  0.83842100  0.50000000  1
  O  O9  1  0.75190400  0.75190400  0.26164600  1
  O  O10  1  0.31175400  0.68824600  0.00000000  1
  O  O11  1  0.68824600  0.31175400  0.00000000  1
  O  O12  1  0.24809600  0.24809600  0.26164600  1
