# generated using pymatgen
data_Ba2(CuO2)3
_symmetry_space_group_name_H-M   'P 1'
_cell_length_a   9.30592371
_cell_length_b   8.47858951
_cell_length_c   7.03693917
_cell_angle_alpha   73.04164722
_cell_angle_beta   60.63094256
_cell_angle_gamma   46.32741022
_symmetry_Int_Tables_number   1
_chemical_formula_structural   Ba2(CuO2)3
_chemical_formula_sum   'Ba4 Cu6 O12'
_cell_volume   349.00435591
_cell_formula_units_Z   2
loop_
 _symmetry_equiv_pos_site_id
 _symmetry_equiv_pos_as_xyz
  1  'x, y, z'
loop_
 _atom_site_type_symbol
 _atom_site_label
 _atom_site_symmetry_multiplicity
 _atom_site_fract_x
 _atom_site_fract_y
 _atom_site_fract_z
 _atom_site_occupancy
  Ba  Ba0  1  0.75000000  0.75000000  0.75000000  1
  Ba  Ba1  1  0.23279800  0.76720200  0.23279800  1
  Ba  Ba2  1  0.76720200  0.23279800  0.76720200  1
  Ba  Ba3  1  0.25000000  0.25000000  0.25000000  1
  Cu  Cu4  1  0.30766100  0.69233900  0.69233900  1
  Cu  Cu5  1  0.69233900  0.30766100  0.30766100  1
  Cu  Cu6  1  0.00410100  0.69988000  0.99589900  1
  Cu  Cu7  1  0.30012000  0.99589900  0.69988000  1
  Cu  Cu8  1  0.69988000  0.00410100  0.30012000  1
  Cu  Cu9  1  0.99589900  0.30012000  0.00410100  1
  O  O10  1  0.07985700  0.73852900  0.69347400  1
  O  O11  1  0.26147100  0.92014300  0.51186000  1
  O  O12  1  0.30652600  0.51186000  0.92014300  1
  O  O13  1  0.48814000  0.69347400  0.73852900  1
  O  O14  1  0.06770700  0.29935200  0.70064800  1
  O  O15  1  0.70064800  0.93229300  0.06770700  1
  O  O16  1  0.93229300  0.70064800  0.29935200  1
  O  O17  1  0.29935200  0.06770700  0.93229300  1
  O  O18  1  0.51186000  0.30652600  0.26147100  1
  O  O19  1  0.92014300  0.26147100  0.30652600  1
  O  O20  1  0.73852900  0.07985700  0.48814000  1
  O  O21  1  0.69347400  0.48814000  0.07985700  1
