# generated using pymatgen
data_Li(CoO2)2
_symmetry_space_group_name_H-M   'P 1'
_cell_length_a   5.79629773
_cell_length_b   5.79629756
_cell_length_c   5.79629700
_cell_angle_alpha   59.99999750
_cell_angle_beta   59.99999844
_cell_angle_gamma   59.99999802
_symmetry_Int_Tables_number   1
_chemical_formula_structural   Li(CoO2)2
_chemical_formula_sum   'Li2 Co4 O8'
_cell_volume   137.70096071
_cell_formula_units_Z   2
loop_
 _symmetry_equiv_pos_site_id
 _symmetry_equiv_pos_as_xyz
  1  'x, y, z'
loop_
 _atom_site_type_symbol
 _atom_site_label
 _atom_site_symmetry_multiplicity
 _atom_site_fract_x
 _atom_site_fract_y
 _atom_site_fract_z
 _atom_site_occupancy
  Li  Li0  1  0.12500200  0.12499900  0.12500000  1
  Li  Li1  1  0.87500000  0.87499900  0.87500100  1
  Co  Co2  1  0.49999800  0.50000100  0.50000000  1
  Co  Co3  1  0.50000100  0.00000000  0.50000000  1
  Co  Co4  1  0.00000100  0.50000100  0.50000000  1
  Co  Co5  1  0.49999800  0.50000100  0.00000100  1
  O  O6  1  0.26402200  0.26401900  0.70794100  1
  O  O7  1  0.73598100  0.73598200  0.73598000  1
  O  O8  1  0.73598100  0.73598200  0.29205600  1
  O  O9  1  0.26402000  0.70794100  0.26402000  1
  O  O10  1  0.26402200  0.26401900  0.26401900  1
  O  O11  1  0.29205800  0.73598200  0.73598200  1
  O  O12  1  0.73598100  0.29205700  0.73598300  1
  O  O13  1  0.70794300  0.26401900  0.26402000  1
