# generated using pymatgen
data_NiP2O7
_symmetry_space_group_name_H-M   'P 1'
_cell_length_a   8.12440900
_cell_length_b   4.93909000
_cell_length_c   7.07749914
_cell_angle_alpha   73.06074187
_cell_angle_beta   90.00000000
_cell_angle_gamma   90.00000000
_symmetry_Int_Tables_number   1
_chemical_formula_structural   NiP2O7
_chemical_formula_sum   'Ni2 P4 O14'
_cell_volume   271.67855312
_cell_formula_units_Z   2
loop_
 _symmetry_equiv_pos_site_id
 _symmetry_equiv_pos_as_xyz
  1  'x, y, z'
loop_
 _atom_site_type_symbol
 _atom_site_label
 _atom_site_symmetry_multiplicity
 _atom_site_fract_x
 _atom_site_fract_y
 _atom_site_fract_z
 _atom_site_occupancy
  Ni  Ni0  1  0.50566400  0.78470500  0.72531500  1
  Ni  Ni1  1  0.00566400  0.21529500  0.27468500  1
  P  P2  1  0.68383500  0.39132700  0.48415100  1
  P  P3  1  0.18383500  0.60867300  0.51584900  1
  P  P4  1  0.77492200  0.77348400  0.09951800  1
  P  P5  1  0.27492200  0.22651600  0.90048200  1
  O  O6  1  0.35847300  0.72854300  0.50767300  1
  O  O7  1  0.32100800  0.96658500  0.83659000  1
  O  O8  1  0.82100800  0.03341500  0.16341000  1
  O  O9  1  0.17981900  0.13341900  0.09300200  1
  O  O10  1  0.92605800  0.59431000  0.08618200  1
  O  O11  1  0.64804000  0.58611000  0.26200600  1
  O  O12  1  0.18037300  0.42299100  0.37645400  1
  O  O13  1  0.85847300  0.27145700  0.49232700  1
  O  O14  1  0.42605800  0.40569000  0.91381800  1
  O  O15  1  0.05140800  0.83508300  0.47479700  1
  O  O16  1  0.67981900  0.86658100  0.90699800  1
  O  O17  1  0.68037300  0.57700900  0.62354600  1
  O  O18  1  0.14804000  0.41389000  0.73799400  1
  O  O19  1  0.55140800  0.16491700  0.52520300  1
