# generated using pymatgen
data_Fe(PO3)4
_symmetry_space_group_name_H-M   'P 1'
_cell_length_a   7.08279987
_cell_length_b   7.08279987
_cell_length_c   9.51413908
_cell_angle_alpha   88.45647431
_cell_angle_beta   88.45647431
_cell_angle_gamma   108.98433576
_symmetry_Int_Tables_number   1
_chemical_formula_structural   Fe(PO3)4
_chemical_formula_sum   'Fe2 P8 O24'
_cell_volume   450.84039405
_cell_formula_units_Z   2
loop_
 _symmetry_equiv_pos_site_id
 _symmetry_equiv_pos_as_xyz
  1  'x, y, z'
loop_
 _atom_site_type_symbol
 _atom_site_label
 _atom_site_symmetry_multiplicity
 _atom_site_fract_x
 _atom_site_fract_y
 _atom_site_fract_z
 _atom_site_occupancy
  Fe  Fe0  1  0.39549200  0.60450800  0.25000000  1
  Fe  Fe1  1  0.60450800  0.39549200  0.75000000  1
  P  P2  1  0.78041300  0.70434200  0.47150800  1
  P  P3  1  0.70434200  0.78041300  0.97150800  1
  P  P4  1  0.22300900  0.87145200  0.46639600  1
  P  P5  1  0.87145200  0.22300900  0.96639600  1
  P  P6  1  0.21958700  0.29565800  0.52849200  1
  P  P7  1  0.12854800  0.77699100  0.03360400  1
  P  P8  1  0.29565800  0.21958700  0.02849200  1
  P  P9  1  0.77699100  0.12854800  0.53360400  1
  O  O10  1  0.62004900  0.64229100  0.85549900  1
  O  O11  1  0.84169000  0.36760400  0.85636700  1
  O  O12  1  0.10575300  0.26768200  0.96915100  1
  O  O13  1  0.00157300  0.79844300  0.40224600  1
  O  O14  1  0.36760400  0.84169000  0.35636700  1
  O  O15  1  0.42859200  0.21711200  0.90306500  1
  O  O16  1  0.78288800  0.57140800  0.59693500  1
  O  O17  1  0.20155700  0.99842700  0.09775400  1
  O  O18  1  0.15831000  0.63239600  0.14363300  1
  O  O19  1  0.77023000  0.22448400  0.39170700  1
  O  O20  1  0.21711200  0.42859200  0.40306500  1
  O  O21  1  0.26768200  0.10575300  0.46915100  1
  O  O22  1  0.37995100  0.35770900  0.14450100  1
  O  O23  1  0.35770900  0.37995100  0.64450100  1
  O  O24  1  0.22448400  0.77023000  0.89170700  1
  O  O25  1  0.79844300  0.00157300  0.90224600  1
  O  O26  1  0.89424700  0.73231800  0.03084900  1
  O  O27  1  0.99842700  0.20155700  0.59775400  1
  O  O28  1  0.22977000  0.77551600  0.60829300  1
  O  O29  1  0.63239600  0.15831000  0.64363300  1
  O  O30  1  0.73231800  0.89424700  0.53084900  1
  O  O31  1  0.77551600  0.22977000  0.10829300  1
  O  O32  1  0.64229100  0.62004900  0.35549900  1
  O  O33  1  0.57140800  0.78288800  0.09693500  1
