# generated using pymatgen
data_SrMg2
_symmetry_space_group_name_H-M   'P 1'
_cell_length_a   6.47636645
_cell_length_b   6.47636645
_cell_length_c   10.36479000
_cell_angle_alpha   90.00000000
_cell_angle_beta   90.00000000
_cell_angle_gamma   120.00000460
_symmetry_Int_Tables_number   1
_chemical_formula_structural   SrMg2
_chemical_formula_sum   'Sr4 Mg8'
_cell_volume   376.49043536
_cell_formula_units_Z   4
loop_
 _symmetry_equiv_pos_site_id
 _symmetry_equiv_pos_as_xyz
  1  'x, y, z'
loop_
 _atom_site_type_symbol
 _atom_site_label
 _atom_site_symmetry_multiplicity
 _atom_site_fract_x
 _atom_site_fract_y
 _atom_site_fract_z
 _atom_site_occupancy
  Sr  Sr0  1  0.33333300  0.66666700  0.93949300  1
  Sr  Sr1  1  0.33333300  0.66666700  0.56050700  1
  Sr  Sr2  1  0.66666700  0.33333300  0.06050700  1
  Sr  Sr3  1  0.66666700  0.33333300  0.43949300  1
  Mg  Mg4  1  0.83410700  0.16589300  0.75000000  1
  Mg  Mg5  1  0.66821400  0.83410700  0.25000000  1
  Mg  Mg6  1  0.33178600  0.16589300  0.75000000  1
  Mg  Mg7  1  0.83410700  0.66821400  0.75000000  1
  Mg  Mg8  1  0.16589300  0.33178600  0.25000000  1
  Mg  Mg9  1  0.16589300  0.83410700  0.25000000  1
  Mg  Mg10  1  0.00000000  0.00000000  0.50000000  1
  Mg  Mg11  1  0.00000000  0.00000000  0.00000000  1
