# generated using pymatgen
data_MnP2O7
_symmetry_space_group_name_H-M   'P 1'
_cell_length_a   6.57414772
_cell_length_b   6.57414772
_cell_length_c   6.80766211
_cell_angle_alpha   68.25898316
_cell_angle_beta   68.25898316
_cell_angle_gamma   80.01131612
_symmetry_Int_Tables_number   1
_chemical_formula_structural   MnP2O7
_chemical_formula_sum   'Mn2 P4 O14'
_cell_volume   253.63019037
_cell_formula_units_Z   2
loop_
 _symmetry_equiv_pos_site_id
 _symmetry_equiv_pos_as_xyz
  1  'x, y, z'
loop_
 _atom_site_type_symbol
 _atom_site_label
 _atom_site_symmetry_multiplicity
 _atom_site_fract_x
 _atom_site_fract_y
 _atom_site_fract_z
 _atom_site_occupancy
  Mn  Mn0  1  0.68555000  0.31445000  0.50000000  1
  Mn  Mn1  1  0.31445000  0.68555000  0.50000000  1
  P  P2  1  0.69388200  0.69388200  0.05706400  1
  P  P3  1  0.30611800  0.30611800  0.94293600  1
  P  P4  1  0.77225700  0.77225700  0.56558400  1
  P  P5  1  0.22774300  0.22774300  0.43441600  1
  O  O6  1  0.64066400  0.64066400  0.50310300  1
  O  O7  1  0.71126600  0.01336000  0.48348000  1
  O  O8  1  0.85838400  0.85838400  0.00315400  1
  O  O9  1  0.32402900  0.32402900  0.16396900  1
  O  O10  1  0.98664000  0.28873400  0.51652000  1
  O  O11  1  0.67597100  0.67597100  0.83603100  1
  O  O12  1  0.54445900  0.23462600  0.82211000  1
  O  O13  1  0.76537400  0.45554100  0.17789000  1
  O  O14  1  0.01336000  0.71126600  0.48348000  1
  O  O15  1  0.45554100  0.76537400  0.17789000  1
  O  O16  1  0.23462600  0.54445900  0.82211000  1
  O  O17  1  0.35933600  0.35933600  0.49689700  1
  O  O18  1  0.14161600  0.14161600  0.99684600  1
  O  O19  1  0.28873400  0.98664000  0.51652000  1
