# generated using pymatgen
data_VP2O7
_symmetry_space_group_name_H-M   'P 1'
_cell_length_a   8.14980000
_cell_length_b   7.07670300
_cell_length_c   9.01737443
_cell_angle_alpha   65.34150740
_cell_angle_beta   90.00000000
_cell_angle_gamma   90.00000000
_symmetry_Int_Tables_number   1
_chemical_formula_structural   VP2O7
_chemical_formula_sum   'V4 P8 O28'
_cell_volume   472.64104707
_cell_formula_units_Z   4
loop_
 _symmetry_equiv_pos_site_id
 _symmetry_equiv_pos_as_xyz
  1  'x, y, z'
loop_
 _atom_site_type_symbol
 _atom_site_label
 _atom_site_symmetry_multiplicity
 _atom_site_fract_x
 _atom_site_fract_y
 _atom_site_fract_z
 _atom_site_occupancy
  V  V0  1  0.09216500  0.23279700  0.38803400  1
  V  V1  1  0.90783500  0.76720300  0.61196600  1
  V  V2  1  0.59216500  0.76720300  0.11196600  1
  V  V3  1  0.40783500  0.23279700  0.88803400  1
  P  P4  1  0.73711200  0.07236900  0.75678500  1
  P  P5  1  0.24100800  0.54601800  0.03752600  1
  P  P6  1  0.76288800  0.07236900  0.25678500  1
  P  P7  1  0.25899200  0.54601800  0.53752600  1
  P  P8  1  0.23711200  0.92763100  0.74321500  1
  P  P9  1  0.74100800  0.45398200  0.46247400  1
  P  P10  1  0.75899200  0.45398200  0.96247400  1
  P  P11  1  0.26288800  0.92763100  0.24321500  1
  O  O12  1  0.15359100  0.73702200  0.89490300  1
  O  O13  1  0.61171100  0.12502400  0.32031200  1
  O  O14  1  0.88828900  0.12502400  0.82031200  1
  O  O15  1  0.40101100  0.62624400  0.07991900  1
  O  O16  1  0.84640900  0.26297800  0.10509700  1
  O  O17  1  0.08655600  0.99084500  0.62021100  1
  O  O18  1  0.59898900  0.37375600  0.92008100  1
  O  O19  1  0.11277800  0.46377700  0.17161300  1
  O  O20  1  0.22752000  0.37830800  0.47436100  1
  O  O21  1  0.91344400  0.00915500  0.37978900  1
  O  O22  1  0.41344400  0.99084500  0.12021100  1
  O  O23  1  0.74039700  0.90699300  0.18356700  1
  O  O24  1  0.24039700  0.09300700  0.31643300  1
  O  O25  1  0.34640900  0.73702200  0.39490300  1
  O  O26  1  0.58655600  0.00915500  0.87978900  1
  O  O27  1  0.11171100  0.87497600  0.17968800  1
  O  O28  1  0.25960300  0.09300700  0.81643300  1
  O  O29  1  0.88722200  0.53622300  0.82838700  1
  O  O30  1  0.27248000  0.37830800  0.97436100  1
  O  O31  1  0.72752000  0.62169200  0.02563900  1
  O  O32  1  0.90101100  0.37375600  0.42008100  1
  O  O33  1  0.38722200  0.46377700  0.67161300  1
  O  O34  1  0.61277800  0.53622300  0.32838700  1
  O  O35  1  0.38828900  0.87497600  0.67968800  1
  O  O36  1  0.75960300  0.90699300  0.68356700  1
  O  O37  1  0.09898900  0.62624400  0.57991900  1
  O  O38  1  0.77248000  0.62169200  0.52563900  1
  O  O39  1  0.65359100  0.26297800  0.60509700  1
