# generated using pymatgen
data_Mo(PO3)4
_symmetry_space_group_name_H-M   'P 1'
_cell_length_a   8.35317600
_cell_length_b   9.49590900
_cell_length_c   13.14281000
_cell_angle_alpha   90.00000000
_cell_angle_beta   90.00000000
_cell_angle_gamma   90.00000000
_symmetry_Int_Tables_number   1
_chemical_formula_structural   Mo(PO3)4
_chemical_formula_sum   'Mo4 P16 O48'
_cell_volume   1042.50082093
_cell_formula_units_Z   4
loop_
 _symmetry_equiv_pos_site_id
 _symmetry_equiv_pos_as_xyz
  1  'x, y, z'
loop_
 _atom_site_type_symbol
 _atom_site_label
 _atom_site_symmetry_multiplicity
 _atom_site_fract_x
 _atom_site_fract_y
 _atom_site_fract_z
 _atom_site_occupancy
  Mo  Mo0  1  0.85425100  0.75000000  0.50000000  1
  Mo  Mo1  1  0.14574900  0.25000000  0.50000000  1
  Mo  Mo2  1  0.64574900  0.25000000  0.00000000  1
  Mo  Mo3  1  0.35425100  0.75000000  0.00000000  1
  P  P4  1  0.46282700  0.48314500  0.84948600  1
  P  P5  1  0.53717300  0.98314500  0.84948600  1
  P  P6  1  0.18071600  0.99578000  0.85325800  1
  P  P7  1  0.96282700  0.48314500  0.65051400  1
  P  P8  1  0.18071600  0.50422000  0.14674200  1
  P  P9  1  0.81928400  0.00422000  0.14674200  1
  P  P10  1  0.46282700  0.01685500  0.15051400  1
  P  P11  1  0.53717300  0.51685500  0.15051400  1
  P  P12  1  0.03717300  0.51685500  0.34948600  1
  P  P13  1  0.96282700  0.01685500  0.34948600  1
  P  P14  1  0.81928400  0.49578000  0.85325800  1
  P  P15  1  0.68071600  0.50422000  0.35325800  1
  P  P16  1  0.31928400  0.49578000  0.64674200  1
  P  P17  1  0.68071600  0.99578000  0.64674200  1
  P  P18  1  0.03717300  0.98314500  0.65051400  1
  P  P19  1  0.31928400  0.00422000  0.35325800  1
  O  O20  1  0.80628100  0.37204200  0.92743600  1
  O  O21  1  0.19371900  0.87204200  0.92743600  1
  O  O22  1  0.52830300  0.86581400  0.92770700  1
  O  O23  1  0.47169700  0.36581400  0.92770700  1
  O  O24  1  0.19371900  0.62795800  0.07256400  1
  O  O25  1  0.80628100  0.12795800  0.07256400  1
  O  O26  1  0.47169700  0.13418600  0.07229300  1
  O  O27  1  0.52830300  0.63418600  0.07229300  1
  O  O28  1  0.09020000  0.37717500  0.12191600  1
  O  O29  1  0.90980000  0.87717500  0.12191600  1
  O  O30  1  0.36518700  0.89017700  0.11600100  1
  O  O31  1  0.63481300  0.39017700  0.11600100  1
  O  O32  1  0.36437700  0.46555500  0.18282000  1
  O  O33  1  0.63562300  0.96555500  0.18282000  1
  O  O34  1  0.11762500  0.58124300  0.25139000  1
  O  O35  1  0.88237500  0.08124300  0.25139000  1
  O  O36  1  0.38237500  0.08124300  0.24861000  1
  O  O37  1  0.09020000  0.12282500  0.87808400  1
  O  O38  1  0.13562300  0.96555500  0.31718000  1
  O  O39  1  0.86437700  0.46555500  0.31718000  1
  O  O40  1  0.13481300  0.39017700  0.38399900  1
  O  O41  1  0.86518700  0.89017700  0.38399900  1
  O  O42  1  0.40980000  0.87717500  0.37808400  1
  O  O43  1  0.59020000  0.37717500  0.37808400  1
  O  O44  1  0.02830300  0.63418600  0.42770700  1
  O  O45  1  0.97169700  0.13418600  0.42770700  1
  O  O46  1  0.30628100  0.12795800  0.42743600  1
  O  O47  1  0.69371900  0.62795800  0.42743600  1
  O  O48  1  0.30628100  0.37204200  0.57256400  1
  O  O49  1  0.69371900  0.87204200  0.57256400  1
  O  O50  1  0.02830300  0.86581400  0.57229300  1
  O  O51  1  0.97169700  0.36581400  0.57229300  1
  O  O52  1  0.40980000  0.62282500  0.62191600  1
  O  O53  1  0.59020000  0.12282500  0.62191600  1
  O  O54  1  0.13481300  0.10982300  0.61600100  1
  O  O55  1  0.86518700  0.60982300  0.61600100  1
  O  O56  1  0.13562300  0.53444500  0.68282000  1
  O  O57  1  0.86437700  0.03444500  0.68282000  1
  O  O58  1  0.38237500  0.41875700  0.75139000  1
  O  O59  1  0.61762500  0.91875700  0.75139000  1
  O  O60  1  0.11762500  0.91875700  0.74861000  1
  O  O61  1  0.88237500  0.41875700  0.74861000  1
  O  O62  1  0.36437700  0.03444500  0.81718000  1
  O  O63  1  0.63562300  0.53444500  0.81718000  1
  O  O64  1  0.36518700  0.60982300  0.88399900  1
  O  O65  1  0.63481300  0.10982300  0.88399900  1
  O  O66  1  0.90980000  0.62282500  0.87808400  1
  O  O67  1  0.61762500  0.58124300  0.24861000  1
