# generated using pymatgen
data_ScMo3O8
_symmetry_space_group_name_H-M   'P 1'
_cell_length_a   6.19315085
_cell_length_b   6.08571374
_cell_length_c   4.55245605
_cell_angle_alpha   89.73468171
_cell_angle_beta   89.36707847
_cell_angle_gamma   119.21657286
_symmetry_Int_Tables_number   1
_chemical_formula_structural   ScMo3O8
_chemical_formula_sum   'Sc1 Mo3 O8'
_cell_volume   149.73352496
_cell_formula_units_Z   1
loop_
 _symmetry_equiv_pos_site_id
 _symmetry_equiv_pos_as_xyz
  1  'x, y, z'
loop_
 _atom_site_type_symbol
 _atom_site_label
 _atom_site_symmetry_multiplicity
 _atom_site_fract_x
 _atom_site_fract_y
 _atom_site_fract_z
 _atom_site_occupancy
  Sc  Sc0  1  0.32779900  0.66412400  0.74986800  1
  Mo  Mo1  1  0.83639900  0.17010100  0.25783700  1
  Mo  Mo2  1  0.83106100  0.66982500  0.24860800  1
  Mo  Mo3  1  0.33459200  0.16633100  0.25393100  1
  O  O4  1  0.50589200  0.00379300  0.48467900  1
  O  O5  1  0.67391400  0.34774700  0.02497300  1
  O  O6  1  0.68086300  0.82991900  0.01973600  1
  O  O7  1  0.16371400  0.83526900  0.02182100  1
  O  O8  1  0.98677800  0.50403500  0.48645700  1
  O  O9  1  0.99646500  0.98581900  0.48501600  1
  O  O10  1  0.50297500  0.49762900  0.48490900  1
  O  O11  1  0.16162600  0.32748800  0.02127400  1
