# generated using pymatgen
data_Fe3(PO4)4
_symmetry_space_group_name_H-M   'P 1'
_cell_length_a   11.81012700
_cell_length_b   6.01182200
_cell_length_c   8.88703539
_cell_angle_alpha   79.60026896
_cell_angle_beta   90.00000000
_cell_angle_gamma   90.00000000
_symmetry_Int_Tables_number   1
_chemical_formula_structural   Fe3(PO4)4
_chemical_formula_sum   'Fe6 P8 O32'
_cell_volume   620.61731515
_cell_formula_units_Z   2
loop_
 _symmetry_equiv_pos_site_id
 _symmetry_equiv_pos_as_xyz
  1  'x, y, z'
loop_
 _atom_site_type_symbol
 _atom_site_label
 _atom_site_symmetry_multiplicity
 _atom_site_fract_x
 _atom_site_fract_y
 _atom_site_fract_z
 _atom_site_occupancy
  Fe  Fe0  1  0.08625100  0.88933300  0.75679300  1
  Fe  Fe1  1  0.92848700  0.57003600  0.27736000  1
  Fe  Fe2  1  0.20258800  0.13123500  0.36116800  1
  Fe  Fe3  1  0.42848700  0.42996400  0.72264000  1
  Fe  Fe4  1  0.58625100  0.11066700  0.24320700  1
  Fe  Fe5  1  0.70258800  0.86876500  0.63883200  1
  P  P6  1  0.86302100  0.62863000  0.91229900  1
  P  P7  1  0.41430400  0.96278200  0.60409800  1
  P  P8  1  0.36302100  0.37137000  0.08770100  1
  P  P9  1  0.09165100  0.42994000  0.58573500  1
  P  P10  1  0.91430400  0.03721800  0.39590200  1
  P  P11  1  0.62963400  0.14162400  0.89948300  1
  P  P12  1  0.12963400  0.85837600  0.10051700  1
  P  P13  1  0.59165100  0.57006000  0.41426500  1
  O  O14  1  0.88836900  0.26405900  0.28903900  1
  O  O15  1  0.56166600  0.91896400  0.90055500  1
  O  O16  1  0.21909500  0.90061800  0.22062900  1
  O  O17  1  0.48124100  0.50151600  0.50666100  1
  O  O18  1  0.56348300  0.35858800  0.83714100  1
  O  O19  1  0.33162000  0.37467500  0.91840200  1
  O  O20  1  0.38836900  0.73594100  0.71096100  1
  O  O21  1  0.44418500  0.17503100  0.15032100  1
  O  O22  1  0.75726800  0.65035000  0.81022300  1
  O  O23  1  0.57510600  0.78680300  0.29195500  1
  O  O24  1  0.91817900  0.39273200  0.92256700  1
  O  O25  1  0.17749700  0.84562300  0.94170600  1
  O  O26  1  0.94418500  0.82496900  0.84967900  1
  O  O27  1  0.83162000  0.62532500  0.08159800  1
  O  O28  1  0.37608200  0.14092700  0.69894400  1
  O  O29  1  0.12468700  0.63084300  0.66506300  1
  O  O30  1  0.87608200  0.85907300  0.30105600  1
  O  O31  1  0.33579900  0.98903000  0.46295000  1
  O  O32  1  0.04205900  0.01830700  0.44011900  1
  O  O33  1  0.68684800  0.61869200  0.52395500  1
  O  O34  1  0.07510600  0.21319700  0.70804500  1
  O  O35  1  0.18684800  0.38130800  0.47604500  1
  O  O36  1  0.06348300  0.64141200  0.16285900  1
  O  O37  1  0.06166600  0.08103600  0.09944500  1
  O  O38  1  0.98124100  0.49848400  0.49333900  1
  O  O39  1  0.41817900  0.60726800  0.07743300  1
  O  O40  1  0.62468700  0.36915700  0.33493700  1
  O  O41  1  0.67749700  0.15437700  0.05829400  1
  O  O42  1  0.25726800  0.34965000  0.18977700  1
  O  O43  1  0.71909500  0.09938200  0.77937100  1
  O  O44  1  0.83579900  0.01097000  0.53705000  1
  O  O45  1  0.54205900  0.98169300  0.55988100  1
