# generated using pymatgen
data_MoP4O13
_symmetry_space_group_name_H-M   'P 1'
_cell_length_a   7.11795500
_cell_length_b   8.33498800
_cell_length_c   17.38665900
_cell_angle_alpha   90.00000000
_cell_angle_beta   90.00000000
_cell_angle_gamma   90.00000000
_symmetry_Int_Tables_number   1
_chemical_formula_structural   MoP4O13
_chemical_formula_sum   'Mo4 P16 O52'
_cell_volume   1031.51691369
_cell_formula_units_Z   4
loop_
 _symmetry_equiv_pos_site_id
 _symmetry_equiv_pos_as_xyz
  1  'x, y, z'
loop_
 _atom_site_type_symbol
 _atom_site_label
 _atom_site_symmetry_multiplicity
 _atom_site_fract_x
 _atom_site_fract_y
 _atom_site_fract_z
 _atom_site_occupancy
  Mo  Mo0  1  0.76616100  0.77559100  0.78350000  1
  Mo  Mo1  1  0.73383900  0.22440900  0.28350000  1
  Mo  Mo2  1  0.26616100  0.72440900  0.21650000  1
  Mo  Mo3  1  0.23383900  0.27559100  0.71650000  1
  P  P4  1  0.89706300  0.40562300  0.83883200  1
  P  P5  1  0.89818500  0.85375400  0.33190400  1
  P  P6  1  0.60293700  0.59437700  0.33883200  1
  P  P7  1  0.91811900  0.39783700  0.57700000  1
  P  P8  1  0.06847200  0.31773700  0.42053200  1
  P  P9  1  0.08188100  0.89783700  0.92300000  1
  P  P10  1  0.10181500  0.35375400  0.16809600  1
  P  P11  1  0.10293700  0.90562300  0.66116800  1
  P  P12  1  0.39706300  0.09437700  0.16116800  1
  P  P13  1  0.39818500  0.64624600  0.66809600  1
  P  P14  1  0.93152800  0.81773700  0.07946800  1
  P  P15  1  0.43152800  0.68226300  0.92053200  1
  P  P16  1  0.56847200  0.18226300  0.57946800  1
  P  P17  1  0.58188100  0.60216300  0.07700000  1
  P  P18  1  0.60181500  0.14624600  0.83190400  1
  P  P19  1  0.41811900  0.10216300  0.42300000  1
  O  O20  1  0.96942400  0.82580000  0.85293400  1
  O  O21  1  0.99647600  0.29086800  0.50719500  1
  O  O22  1  0.92965800  0.87667300  0.41411300  1
  O  O23  1  0.92687400  0.29604600  0.21721200  1
  O  O24  1  0.00352400  0.79086800  0.99280500  1
  O  O25  1  0.03057600  0.32580000  0.64706600  1
  O  O26  1  0.07034200  0.37667300  0.08588700  1
  O  O27  1  0.07312600  0.79604600  0.28278800  1
  O  O28  1  0.07095100  0.07218800  0.92875800  1
  O  O29  1  0.08082800  0.33233300  0.80164600  1
  O  O30  1  0.10714800  0.93716800  0.57866200  1
  O  O31  1  0.10652400  0.76412600  0.12765700  1
  O  O32  1  0.14384700  0.05662500  0.71399100  1
  O  O33  1  0.14742800  0.47425800  0.40060300  1
  O  O34  1  0.17383800  0.50615400  0.21373800  1
  O  O35  1  0.20816900  0.16743500  0.41132600  1
  O  O36  1  0.24724700  0.21941500  0.19589200  1
  O  O37  1  0.25275300  0.78058500  0.69589200  1
  O  O38  1  0.89285200  0.43716800  0.92133800  1
  O  O39  1  0.32616200  0.49384600  0.71373800  1
  O  O40  1  0.35257200  0.52574200  0.90060300  1
  O  O41  1  0.35615300  0.94337500  0.21399100  1
  O  O42  1  0.39347600  0.23587400  0.62765700  1
  O  O43  1  0.39285200  0.06283200  0.07866200  1
  O  O44  1  0.41917200  0.66766700  0.30164600  1
  O  O45  1  0.42904900  0.92781200  0.42875800  1
  O  O46  1  0.42687400  0.20395400  0.78278800  1
  O  O47  1  0.42965800  0.62332700  0.58588700  1
  O  O48  1  0.46942400  0.67420000  0.14706600  1
  O  O49  1  0.49647600  0.20913200  0.49280500  1
  O  O50  1  0.50352400  0.70913200  0.00719500  1
  O  O51  1  0.53057600  0.17420000  0.35293400  1
  O  O52  1  0.57034200  0.12332700  0.91411300  1
  O  O53  1  0.57312600  0.70395400  0.71721200  1
  O  O54  1  0.57095100  0.42781200  0.07124200  1
  O  O55  1  0.58082800  0.16766700  0.19835400  1
  O  O56  1  0.60714800  0.56283200  0.42133800  1
  O  O57  1  0.60652400  0.73587400  0.87234300  1
  O  O58  1  0.64384700  0.44337500  0.28600900  1
  O  O59  1  0.64742800  0.02574200  0.59939700  1
  O  O60  1  0.67383800  0.99384600  0.78626200  1
  O  O61  1  0.70816900  0.33256500  0.58867400  1
  O  O62  1  0.74724700  0.28058500  0.80410800  1
  O  O63  1  0.75275300  0.71941500  0.30410800  1
  O  O64  1  0.79183100  0.66743500  0.08867400  1
  O  O65  1  0.82616200  0.00615400  0.28626200  1
  O  O66  1  0.85257200  0.97425800  0.09939700  1
  O  O67  1  0.85615300  0.55662500  0.78600900  1
  O  O68  1  0.89347600  0.26412600  0.37234300  1
  O  O69  1  0.92904900  0.57218800  0.57124200  1
  O  O70  1  0.91917200  0.83233300  0.69835400  1
  O  O71  1  0.29183100  0.83256500  0.91132600  1
