# generated using pymatgen
data_NiP2O7
_symmetry_space_group_name_H-M   'P 1'
_cell_length_a   6.49375361
_cell_length_b   6.49418812
_cell_length_c   13.35556308
_cell_angle_alpha   78.80199196
_cell_angle_beta   77.71567025
_cell_angle_gamma   99.38449996
_symmetry_Int_Tables_number   1
_chemical_formula_structural   NiP2O7
_chemical_formula_sum   'Ni4 P8 O28'
_cell_volume   527.43816086
_cell_formula_units_Z   4
loop_
 _symmetry_equiv_pos_site_id
 _symmetry_equiv_pos_as_xyz
  1  'x, y, z'
loop_
 _atom_site_type_symbol
 _atom_site_label
 _atom_site_symmetry_multiplicity
 _atom_site_fract_x
 _atom_site_fract_y
 _atom_site_fract_z
 _atom_site_occupancy
  Ni  Ni0  1  0.73616100  0.87269100  0.85515900  1
  Ni  Ni1  1  0.77235800  0.40882300  0.35516900  1
  Ni  Ni2  1  0.22764100  0.59117800  0.64483100  1
  Ni  Ni3  1  0.26383900  0.12731000  0.14484100  1
  P  P4  1  0.22186400  0.74424600  0.86814200  1
  P  P5  1  0.77813600  0.25575500  0.13185800  1
  P  P6  1  0.88752800  0.91002700  0.36812500  1
  P  P7  1  0.76294500  0.58676100  0.57121100  1
  P  P8  1  0.34208200  0.66569600  0.07125800  1
  P  P9  1  0.23705400  0.41324000  0.42878900  1
  P  P10  1  0.11247200  0.08997200  0.63187500  1
  P  P11  1  0.65791800  0.33430300  0.92874200  1
  O  O12  1  0.78321000  0.38866700  0.01572000  1
  O  O13  1  0.75970700  0.17692700  0.87559100  1
  O  O14  1  0.90394700  0.53029500  0.64568600  1
  O  O15  1  0.87861300  0.99236100  0.69632600  1
  O  O16  1  0.24029300  0.82307200  0.12441000  1
  O  O17  1  0.09605300  0.46970600  0.35431300  1
  O  O18  1  0.12138700  0.00763800  0.30367500  1
  O  O19  1  0.03518800  0.85722400  0.87839300  1
  O  O20  1  0.09562700  0.20099500  0.51574100  1
  O  O21  1  0.32393900  0.45017000  0.14570500  1
  O  O22  1  0.23555200  0.91343400  0.62164100  1
  O  O23  1  0.28560300  0.59476700  0.48485900  1
  O  O24  1  0.18864700  0.57483500  0.80370100  1
  O  O25  1  0.21138900  0.26583900  0.67918800  1
  O  O26  1  0.57965600  0.77044700  0.01520400  1
  O  O27  1  0.21678900  0.61133400  0.98428100  1
  O  O28  1  0.44759400  0.36462700  0.37564300  1
  O  O29  1  0.90437400  0.79900500  0.48425800  1
  O  O30  1  0.44510600  0.89037400  0.82079400  1
  O  O31  1  0.55240600  0.63537300  0.62435700  1
  O  O32  1  0.96481100  0.14277700  0.12160700  1
  O  O33  1  0.42034400  0.22955300  0.98479500  1
  O  O34  1  0.78861100  0.73416200  0.32081200  1
  O  O35  1  0.81135300  0.42516500  0.19629900  1
  O  O36  1  0.71439700  0.40523400  0.51514100  1
  O  O37  1  0.76444800  0.08656700  0.37835900  1
  O  O38  1  0.67605900  0.54982900  0.85429600  1
  O  O39  1  0.55489400  0.10962700  0.17920700  1
