# generated using pymatgen
data_Fe(PO3)5
_symmetry_space_group_name_H-M   'P 1'
_cell_length_a   5.14761844
_cell_length_b   13.85623100
_cell_length_c   8.74430246
_cell_angle_alpha   90.00000000
_cell_angle_beta   96.98189429
_cell_angle_gamma   90.00000000
_symmetry_Int_Tables_number   1
_chemical_formula_structural   Fe(PO3)5
_chemical_formula_sum   'Fe2 P10 O30'
_cell_volume   619.07629189
_cell_formula_units_Z   2
loop_
 _symmetry_equiv_pos_site_id
 _symmetry_equiv_pos_as_xyz
  1  'x, y, z'
loop_
 _atom_site_type_symbol
 _atom_site_label
 _atom_site_symmetry_multiplicity
 _atom_site_fract_x
 _atom_site_fract_y
 _atom_site_fract_z
 _atom_site_occupancy
  Fe  Fe0  1  0.50000000  0.50000000  0.50000000  1
  Fe  Fe1  1  0.50000000  0.00000000  0.50000000  1
  P  P2  1  0.65848200  0.92262500  0.17953200  1
  P  P3  1  0.98093700  0.64211800  0.46506700  1
  P  P4  1  0.01906300  0.14211800  0.53493300  1
  P  P5  1  0.01906300  0.35788200  0.53493300  1
  P  P6  1  0.34151800  0.07737500  0.82046800  1
  P  P7  1  0.34151800  0.42262500  0.82046800  1
  P  P8  1  0.98093700  0.85788200  0.46506700  1
  P  P9  1  0.55125400  0.25000000  0.99430600  1
  P  P10  1  0.65848200  0.57737500  0.17953200  1
  P  P11  1  0.44874600  0.75000000  0.00569400  1
  O  O12  1  0.51990200  0.98492600  0.29255400  1
  O  O13  1  0.76008400  0.97566000  0.05349700  1
  O  O14  1  0.23991600  0.02434000  0.94650300  1
  O  O15  1  0.23991600  0.47566000  0.94650300  1
  O  O16  1  0.09656100  0.25000000  0.49367400  1
  O  O17  1  0.10633200  0.13477500  0.71628000  1
  O  O18  1  0.10633200  0.36522500  0.71628000  1
  O  O19  1  0.19089500  0.75000000  0.90423800  1
  O  O20  1  0.19317600  0.07689700  0.44981800  1
  O  O21  1  0.19317600  0.42310300  0.44981800  1
  O  O22  1  0.26949600  0.62704400  0.49975300  1
  O  O23  1  0.26949600  0.87295600  0.49975300  1
  O  O24  1  0.48009800  0.01507400  0.70744600  1
  O  O25  1  0.48009800  0.48492600  0.70744600  1
  O  O26  1  0.54297600  0.16249700  0.86976300  1
  O  O27  1  0.54297600  0.33750300  0.86976300  1
  O  O28  1  0.32234900  0.25000000  0.08647800  1
  O  O29  1  0.67765100  0.75000000  0.91352200  1
  O  O30  1  0.45702400  0.66249700  0.13023700  1
  O  O31  1  0.90343900  0.75000000  0.50632600  1
  O  O32  1  0.51990200  0.51507400  0.29255400  1
  O  O33  1  0.45702400  0.83750300  0.13023700  1
  O  O34  1  0.73050400  0.12704400  0.50024700  1
  O  O35  1  0.73050400  0.37295600  0.50024700  1
  O  O36  1  0.80682400  0.57689700  0.55018200  1
  O  O37  1  0.80682400  0.92310300  0.55018200  1
  O  O38  1  0.80910500  0.25000000  0.09576200  1
  O  O39  1  0.89366800  0.63477500  0.28372000  1
  O  O40  1  0.89366800  0.86522500  0.28372000  1
  O  O41  1  0.76008400  0.52434000  0.05349700  1
