# generated using pymatgen
data_Cr3(P2O7)2
_symmetry_space_group_name_H-M   'P 1'
_cell_length_a   5.91531100
_cell_length_b   7.04445539
_cell_length_c   7.63909822
_cell_angle_alpha   80.87530048
_cell_angle_beta   73.58494205
_cell_angle_gamma   75.27679515
_symmetry_Int_Tables_number   1
_chemical_formula_structural   Cr3(P2O7)2
_chemical_formula_sum   'Cr3 P4 O14'
_cell_volume   294.02703358
_cell_formula_units_Z   1
loop_
 _symmetry_equiv_pos_site_id
 _symmetry_equiv_pos_as_xyz
  1  'x, y, z'
loop_
 _atom_site_type_symbol
 _atom_site_label
 _atom_site_symmetry_multiplicity
 _atom_site_fract_x
 _atom_site_fract_y
 _atom_site_fract_z
 _atom_site_occupancy
  Cr  Cr0  1  0.75797100  0.52823500  0.66778500  1
  Cr  Cr1  1  0.24202900  0.47176500  0.33221500  1
  Cr  Cr2  1  0.00000000  0.00000000  0.00000000  1
  P  P3  1  0.21549300  0.69757700  0.68576400  1
  P  P4  1  0.35162200  0.32516900  0.91964900  1
  P  P5  1  0.64837800  0.67483100  0.08035100  1
  P  P6  1  0.78450700  0.30242300  0.31423600  1
  O  O7  1  0.48243400  0.67849700  0.58115300  1
  O  O8  1  0.91488200  0.38414200  0.43332900  1
  O  O9  1  0.66651100  0.68057500  0.87614100  1
  O  O10  1  0.08511800  0.61585800  0.56667100  1
  O  O11  1  0.33348900  0.31942500  0.12385900  1
  O  O12  1  0.23480400  0.17792500  0.87657400  1
  O  O13  1  0.07878000  0.89563000  0.74633700  1
  O  O14  1  0.20292100  0.54659300  0.86804900  1
  O  O15  1  0.92122000  0.10437000  0.25366300  1
  O  O16  1  0.51756600  0.32150300  0.41884700  1
  O  O17  1  0.76519600  0.82207500  0.12342600  1
  O  O18  1  0.61472500  0.31247700  0.80191300  1
  O  O19  1  0.79707900  0.45340700  0.13195100  1
  O  O20  1  0.38527500  0.68752300  0.19808700  1
