# generated using pymatgen
data_CrP2O7
_symmetry_space_group_name_H-M   'P 1'
_cell_length_a   12.99619507
_cell_length_b   12.99619507
_cell_length_c   13.17288839
_cell_angle_alpha   27.54376360
_cell_angle_beta   27.54376360
_cell_angle_gamma   36.14807964
_symmetry_Int_Tables_number   1
_chemical_formula_structural   CrP2O7
_chemical_formula_sum   'Cr4 P8 O28'
_cell_volume   473.39747758
_cell_formula_units_Z   4
loop_
 _symmetry_equiv_pos_site_id
 _symmetry_equiv_pos_as_xyz
  1  'x, y, z'
loop_
 _atom_site_type_symbol
 _atom_site_label
 _atom_site_symmetry_multiplicity
 _atom_site_fract_x
 _atom_site_fract_y
 _atom_site_fract_z
 _atom_site_occupancy
  Cr  Cr0  1  0.41384800  0.87890900  0.85233500  1
  Cr  Cr1  1  0.87890900  0.41384800  0.35233500  1
  Cr  Cr2  1  0.12109100  0.58615200  0.64766500  1
  Cr  Cr3  1  0.58615200  0.12109100  0.14766500  1
  P  P4  1  0.91819400  0.74669300  0.47113900  1
  P  P5  1  0.08180600  0.25330700  0.52886100  1
  P  P6  1  0.74669300  0.91819400  0.97113900  1
  P  P7  1  0.66725300  0.58484900  0.17759300  1
  P  P8  1  0.58484900  0.66725300  0.67759300  1
  P  P9  1  0.33274700  0.41515100  0.82240700  1
  P  P10  1  0.41515100  0.33274700  0.32240700  1
  P  P11  1  0.25330700  0.08180600  0.02886100  1
  O  O12  1  0.81699300  0.64208900  0.90870700  1
  O  O13  1  0.35791100  0.18300700  0.59129300  1
  O  O14  1  0.43950200  0.52803000  0.38782600  1
  O  O15  1  0.42908500  0.97764800  0.89045800  1
  O  O16  1  0.64208900  0.81699300  0.40870700  1
  O  O17  1  0.56049800  0.47197000  0.61217400  1
  O  O18  1  0.57091500  0.02235200  0.10954200  1
  O  O19  1  0.09527400  0.87212200  0.15485300  1
  O  O20  1  0.39186600  0.19329500  0.89748300  1
  O  O21  1  0.52803000  0.43950200  0.88782600  1
  O  O22  1  0.12787800  0.90472600  0.34514700  1
  O  O23  1  0.21274700  0.59464900  0.70052200  1
  O  O24  1  0.02235200  0.57091500  0.60954200  1
  O  O25  1  0.40535100  0.78725300  0.79947800  1
  O  O26  1  0.09532200  0.27158800  0.95525300  1
  O  O27  1  0.18300700  0.35791100  0.09129300  1
  O  O28  1  0.80670500  0.60813400  0.60251700  1
  O  O29  1  0.60813400  0.80670500  0.10251700  1
  O  O30  1  0.72841200  0.90467800  0.54474700  1
  O  O31  1  0.19329500  0.39186600  0.39748300  1
  O  O32  1  0.27158800  0.09532200  0.45525300  1
  O  O33  1  0.90467800  0.72841200  0.04474700  1
  O  O34  1  0.59464900  0.21274700  0.20052200  1
  O  O35  1  0.97764800  0.42908500  0.39045800  1
  O  O36  1  0.78725300  0.40535100  0.29947800  1
  O  O37  1  0.87212200  0.09527400  0.65485300  1
  O  O38  1  0.47197000  0.56049800  0.11217400  1
  O  O39  1  0.90472600  0.12787800  0.84514700  1
