# generated using pymatgen
data_LiFe2(PO4)3
_symmetry_space_group_name_H-M   'P 1'
_cell_length_a   8.26586716
_cell_length_b   8.26128600
_cell_length_c   8.73664594
_cell_angle_alpha   118.16805239
_cell_angle_beta   90.29973514
_cell_angle_gamma   119.70958313
_symmetry_Int_Tables_number   1
_chemical_formula_structural   LiFe2(PO4)3
_chemical_formula_sum   'Li2 Fe4 P6 O24'
_cell_volume   433.94424796
_cell_formula_units_Z   2
loop_
 _symmetry_equiv_pos_site_id
 _symmetry_equiv_pos_as_xyz
  1  'x, y, z'
loop_
 _atom_site_type_symbol
 _atom_site_label
 _atom_site_symmetry_multiplicity
 _atom_site_fract_x
 _atom_site_fract_y
 _atom_site_fract_z
 _atom_site_occupancy
  Li  Li0  1  0.20591500  0.72577400  0.55620400  1
  Li  Li1  1  0.79408500  0.27422600  0.44379600  1
  Fe  Fe2  1  0.86217400  0.21453400  0.07171100  1
  Fe  Fe3  1  0.35159200  0.20209700  0.55288200  1
  Fe  Fe4  1  0.64840800  0.79790300  0.44711800  1
  Fe  Fe5  1  0.13782600  0.78546600  0.92828900  1
  P  P6  1  0.03810800  0.00840100  0.74634400  1
  P  P7  1  0.46518500  0.71010300  0.74206400  1
  P  P8  1  0.53481500  0.28989700  0.25793600  1
  P  P9  1  0.96189200  0.99159900  0.25365600  1
  P  P10  1  0.25968700  0.71587000  0.25178700  1
  P  P11  1  0.74031300  0.28413000  0.74821300  1
  O  O12  1  0.76190600  0.10851700  0.58141500  1
  O  O13  1  0.79331800  0.30561200  0.92620700  1
  O  O14  1  0.51656700  0.48635600  0.31224300  1
  O  O15  1  0.88989400  0.13159400  0.25549500  1
  O  O16  1  0.11010600  0.86840600  0.74450500  1
  O  O17  1  0.23809400  0.89148300  0.41858500  1
  O  O18  1  0.20668200  0.69438800  0.07379300  1
  O  O19  1  0.12042700  0.51059400  0.25870500  1
  O  O20  1  0.25816900  0.65162100  0.74673700  1
  O  O21  1  0.03129900  0.15130700  0.93410600  1
  O  O22  1  0.47311400  0.77525900  0.28703200  1
  O  O23  1  0.17635100  0.17078100  0.39215300  1
  O  O24  1  0.17413700  0.16656300  0.68745600  1
  O  O25  1  0.74183100  0.34837900  0.25326300  1
  O  O26  1  0.62756200  0.90897700  0.92145900  1
  O  O27  1  0.48343300  0.51364400  0.68775700  1
  O  O28  1  0.47899000  0.76859800  0.59034500  1
  O  O29  1  0.37243800  0.09102300  0.07854100  1
  O  O30  1  0.52101000  0.23140200  0.40965500  1
  O  O31  1  0.82586300  0.83343700  0.31254400  1
  O  O32  1  0.82364900  0.82921900  0.60784700  1
  O  O33  1  0.52688600  0.22474100  0.71296800  1
  O  O34  1  0.96870100  0.84869300  0.06589400  1
  O  O35  1  0.87957300  0.48940600  0.74129500  1
