# generated using pymatgen
data_MnPO4
_symmetry_space_group_name_H-M   'P 1'
_cell_length_a   5.44114500
_cell_length_b   8.47293100
_cell_length_c   8.63602136
_cell_angle_alpha   75.63301437
_cell_angle_beta   90.00000000
_cell_angle_gamma   90.00000000
_symmetry_Int_Tables_number   1
_chemical_formula_structural   MnPO4
_chemical_formula_sum   'Mn4 P4 O16'
_cell_volume   385.69034441
_cell_formula_units_Z   4
loop_
 _symmetry_equiv_pos_site_id
 _symmetry_equiv_pos_as_xyz
  1  'x, y, z'
loop_
 _atom_site_type_symbol
 _atom_site_label
 _atom_site_symmetry_multiplicity
 _atom_site_fract_x
 _atom_site_fract_y
 _atom_site_fract_z
 _atom_site_occupancy
  Mn  Mn0  1  0.68076100  0.63772200  0.87650900  1
  Mn  Mn1  1  0.19040300  0.11166700  0.71350400  1
  Mn  Mn2  1  0.31923900  0.63772200  0.37650900  1
  Mn  Mn3  1  0.80959700  0.11166700  0.21350400  1
  P  P4  1  0.17757300  0.76304500  0.01004800  1
  P  P5  1  0.30066600  0.25297700  0.32763100  1
  P  P6  1  0.82242700  0.76304500  0.51004800  1
  P  P7  1  0.69933400  0.25297700  0.82763100  1
  O  O8  1  0.09694600  0.71144500  0.51466700  1
  O  O9  1  0.22455900  0.92731300  0.89018900  1
  O  O10  1  0.74461700  0.13453000  0.99449200  1
  O  O11  1  0.75661100  0.42825100  0.83618200  1
  O  O12  1  0.90305400  0.71144500  0.01466700  1
  O  O13  1  0.13954600  0.19653800  0.20428600  1
  O  O14  1  0.57042800  0.24974800  0.27466400  1
  O  O15  1  0.23226000  0.78703600  0.17997500  1
  O  O16  1  0.24338900  0.42825100  0.33618200  1
  O  O17  1  0.76774000  0.78703600  0.67997500  1
  O  O18  1  0.77544100  0.92731300  0.39018900  1
  O  O19  1  0.65121000  0.63341000  0.46954000  1
  O  O20  1  0.34879000  0.63341000  0.96954000  1
  O  O21  1  0.86045400  0.19653800  0.70428600  1
  O  O22  1  0.42957200  0.24974800  0.77466400  1
  O  O23  1  0.25538300  0.13453000  0.49449200  1
