# generated using pymatgen
data_Li5Cr2P5O18
_symmetry_space_group_name_H-M   'P 1'
_cell_length_a   9.31215520
_cell_length_b   10.62896033
_cell_length_c   6.48245954
_cell_angle_alpha   93.03929414
_cell_angle_beta   91.08237840
_cell_angle_gamma   96.02953082
_symmetry_Int_Tables_number   1
_chemical_formula_structural   Li5Cr2P5O18
_chemical_formula_sum   'Li10 Cr4 P10 O36'
_cell_volume   636.98395874
_cell_formula_units_Z   2
loop_
 _symmetry_equiv_pos_site_id
 _symmetry_equiv_pos_as_xyz
  1  'x, y, z'
loop_
 _atom_site_type_symbol
 _atom_site_label
 _atom_site_symmetry_multiplicity
 _atom_site_fract_x
 _atom_site_fract_y
 _atom_site_fract_z
 _atom_site_occupancy
  Li  Li0  1  0.06200400  0.86998400  0.98277500  1
  Li  Li1  1  0.93799800  0.13001600  0.01722200  1
  Li  Li2  1  0.86893400  0.64438200  0.17760800  1
  Li  Li3  1  0.78455800  0.34318800  0.87976000  1
  Li  Li4  1  0.72406200  0.41437300  0.45049500  1
  Li  Li5  1  0.13106600  0.35562100  0.82239600  1
  Li  Li6  1  0.21544500  0.65681200  0.12024100  1
  Li  Li7  1  0.27594100  0.58563000  0.54950400  1
  Li  Li8  1  0.37230800  0.86107400  0.34200100  1
  Li  Li9  1  0.62769400  0.13892500  0.65800100  1
  Cr  Cr10  1  0.76882100  0.94941300  0.33107400  1
  Cr  Cr11  1  0.64191800  0.59836600  0.76831500  1
  Cr  Cr12  1  0.35806500  0.40163700  0.23168400  1
  Cr  Cr13  1  0.23118900  0.05059700  0.66890500  1
  P  P14  1  0.58159200  0.65310600  0.28101600  1
  P  P15  1  0.58217700  0.17545500  0.16742700  1
  P  P16  1  0.72814600  0.89739900  0.83147100  1
  P  P17  1  0.98548000  0.59851200  0.77623600  1
  P  P18  1  0.04771100  0.80054000  0.48244400  1
  P  P19  1  0.01451600  0.40148800  0.22376600  1
  P  P20  1  0.27185500  0.10259900  0.16852700  1
  P  P21  1  0.41782300  0.82454800  0.83257500  1
  P  P22  1  0.41840700  0.34689300  0.71898400  1
  P  P23  1  0.95229200  0.19946000  0.51755800  1
  O  O24  1  0.31986900  0.81447800  0.01534700  1
  O  O25  1  0.96483600  0.68137300  0.58082800  1
  O  O26  1  0.92313600  0.09617100  0.34038200  1
  O  O27  1  0.98409600  0.31424700  0.02890200  1
  O  O28  1  0.01590300  0.68575300  0.97110000  1
  O  O29  1  0.07686800  0.90383000  0.65961700  1
  O  O30  1  0.03516300  0.31862900  0.41917400  1
  O  O31  1  0.06755800  0.16697300  0.67669600  1
  O  O32  1  0.10930700  0.52128100  0.72962000  1
  O  O33  1  0.18121100  0.75452300  0.38605200  1
  O  O34  1  0.16504700  0.48014200  0.22014800  1
  O  O35  1  0.17534300  0.04542200  0.98314200  1
  O  O36  1  0.89069300  0.47872100  0.27038200  1
  O  O37  1  0.24702700  0.23727500  0.22779300  1
  O  O38  1  0.37235500  0.91396100  0.66759100  1
  O  O39  1  0.25596900  0.02053300  0.35657700  1
  O  O40  1  0.33845900  0.38346900  0.91767500  1
  O  O41  1  0.93244600  0.83302800  0.32330400  1
  O  O42  1  0.42003900  0.59724900  0.25738100  1
  O  O43  1  0.45123400  0.69382200  0.73692400  1
  O  O44  1  0.40365100  0.19992200  0.67805600  1
  O  O45  1  0.42996800  0.10148600  0.07888800  1
  O  O46  1  0.57003400  0.89851300  0.92111200  1
  O  O47  1  0.59634900  0.80007700  0.32194600  1
  O  O48  1  0.54876200  0.30617600  0.26307800  1
  O  O49  1  0.57995800  0.40274900  0.74262100  1
  O  O50  1  0.65214100  0.58662800  0.45926200  1
  O  O51  1  0.66153800  0.61652800  0.08232500  1
  O  O52  1  0.74403300  0.97946300  0.64342200  1
  O  O53  1  0.62764900  0.08603900  0.33240800  1
  O  O54  1  0.75296800  0.76272100  0.77220900  1
  O  O55  1  0.68013200  0.18552300  0.98465300  1
  O  O56  1  0.82466100  0.95457600  0.01685400  1
  O  O57  1  0.83494900  0.51985900  0.77985100  1
  O  O58  1  0.81879100  0.24547400  0.61395100  1
  O  O59  1  0.34785600  0.41337000  0.54073800  1
