# generated using pymatgen
data_FeP2O7
_symmetry_space_group_name_H-M   'P 1'
_cell_length_a   6.56701513
_cell_length_b   6.56701513
_cell_length_c   6.98355695
_cell_angle_alpha   68.20144586
_cell_angle_beta   68.20144586
_cell_angle_gamma   79.94122156
_symmetry_Int_Tables_number   1
_chemical_formula_structural   FeP2O7
_chemical_formula_sum   'Fe2 P4 O14'
_cell_volume   259.40409761
_cell_formula_units_Z   2
loop_
 _symmetry_equiv_pos_site_id
 _symmetry_equiv_pos_as_xyz
  1  'x, y, z'
loop_
 _atom_site_type_symbol
 _atom_site_label
 _atom_site_symmetry_multiplicity
 _atom_site_fract_x
 _atom_site_fract_y
 _atom_site_fract_z
 _atom_site_occupancy
  Fe  Fe0  1  0.30609400  0.69390600  0.50000000  1
  Fe  Fe1  1  0.69390600  0.30609400  0.50000000  1
  P  P2  1  0.23428200  0.23428200  0.42504800  1
  P  P3  1  0.69027200  0.69027200  0.05131700  1
  P  P4  1  0.76571800  0.76571800  0.57495200  1
  P  P5  1  0.30972800  0.30972800  0.94868300  1
  O  O6  1  0.46234300  0.76851000  0.17465700  1
  O  O7  1  0.76851000  0.46234300  0.17465700  1
  O  O8  1  0.63827100  0.63827100  0.50962700  1
  O  O9  1  0.99033500  0.29073500  0.50036000  1
  O  O10  1  0.29073500  0.99033500  0.50036000  1
  O  O11  1  0.66851900  0.66851900  0.83891300  1
  O  O12  1  0.14057500  0.14057500  0.01355000  1
  O  O13  1  0.70926500  0.00966500  0.49964000  1
  O  O14  1  0.00966500  0.70926500  0.49964000  1
  O  O15  1  0.36172900  0.36172900  0.49037300  1
  O  O16  1  0.23149000  0.53765700  0.82534300  1
  O  O17  1  0.53765700  0.23149000  0.82534300  1
  O  O18  1  0.85942500  0.85942500  0.98645000  1
  O  O19  1  0.33148100  0.33148100  0.16108700  1
