# generated using pymatgen
data_VP2O7
_symmetry_space_group_name_H-M   'P 1'
_cell_length_a   8.08249900
_cell_length_b   7.26826200
_cell_length_c   9.44719285
_cell_angle_alpha   69.52861419
_cell_angle_beta   90.00000000
_cell_angle_gamma   90.00000000
_symmetry_Int_Tables_number   1
_chemical_formula_structural   VP2O7
_chemical_formula_sum   'V4 P8 O28'
_cell_volume   519.93334511
_cell_formula_units_Z   4
loop_
 _symmetry_equiv_pos_site_id
 _symmetry_equiv_pos_as_xyz
  1  'x, y, z'
loop_
 _atom_site_type_symbol
 _atom_site_label
 _atom_site_symmetry_multiplicity
 _atom_site_fract_x
 _atom_site_fract_y
 _atom_site_fract_z
 _atom_site_occupancy
  V  V0  1  0.98949800  0.77345600  0.75401100  1
  V  V1  1  0.51050200  0.77345600  0.25401100  1
  V  V2  1  0.48949800  0.22654400  0.74598900  1
  V  V3  1  0.01050200  0.22654400  0.24598900  1
  P  P4  1  0.29702700  0.82528700  0.94942000  1
  P  P5  1  0.20297300  0.82528700  0.44942000  1
  P  P6  1  0.24052300  0.43010200  0.94274900  1
  P  P7  1  0.74052300  0.56989800  0.55725100  1
  P  P8  1  0.25947700  0.43010200  0.44274900  1
  P  P9  1  0.75947700  0.56989800  0.05725100  1
  P  P10  1  0.79702700  0.17471300  0.55058000  1
  P  P11  1  0.70297300  0.17471300  0.05058000  1
  O  O12  1  0.41413000  0.96974500  0.83383400  1
  O  O13  1  0.11678400  0.85570000  0.89723900  1
  O  O14  1  0.08587000  0.96974500  0.33383400  1
  O  O15  1  0.80807000  0.69370800  0.89636000  1
  O  O16  1  0.17825700  0.83093700  0.60729200  1
  O  O17  1  0.35084900  0.61268500  0.94847500  1
  O  O18  1  0.38321600  0.85570000  0.39723900  1
  O  O19  1  0.85783300  0.68373000  0.62092800  1
  O  O20  1  0.08893700  0.51725200  0.84324900  1
  O  O21  1  0.69193000  0.69370800  0.39636000  1
  O  O22  1  0.32174300  0.83093700  0.10729200  1
  O  O23  1  0.14915100  0.61268500  0.44847500  1
  O  O24  1  0.58893700  0.48274800  0.65675100  1
  O  O25  1  0.64216700  0.68373000  0.12092800  1
  O  O26  1  0.35783300  0.31627000  0.87907200  1
  O  O27  1  0.41106300  0.51725200  0.34324900  1
  O  O28  1  0.85084900  0.38731500  0.55152500  1
  O  O29  1  0.67825700  0.16906300  0.89270800  1
  O  O30  1  0.30807000  0.30629200  0.60364000  1
  O  O31  1  0.91106300  0.48274800  0.15675100  1
  O  O32  1  0.14216700  0.31627000  0.37907200  1
  O  O33  1  0.61678400  0.14430000  0.60276100  1
  O  O34  1  0.64915100  0.38731500  0.05152500  1
  O  O35  1  0.82174300  0.16906300  0.39270800  1
  O  O36  1  0.19193000  0.30629200  0.10364000  1
  O  O37  1  0.91413000  0.03025500  0.66616600  1
  O  O38  1  0.88321600  0.14430000  0.10276100  1
  O  O39  1  0.58587000  0.03025500  0.16616600  1
