# generated using pymatgen
data_CrPO4
_symmetry_space_group_name_H-M   'P 1'
_cell_length_a   5.97598700
_cell_length_b   7.71282100
_cell_length_c   11.10066600
_cell_angle_alpha   90.00000000
_cell_angle_beta   90.00000000
_cell_angle_gamma   90.00000000
_symmetry_Int_Tables_number   1
_chemical_formula_structural   CrPO4
_chemical_formula_sum   'Cr8 P8 O32'
_cell_volume   511.64876721
_cell_formula_units_Z   8
loop_
 _symmetry_equiv_pos_site_id
 _symmetry_equiv_pos_as_xyz
  1  'x, y, z'
loop_
 _atom_site_type_symbol
 _atom_site_label
 _atom_site_symmetry_multiplicity
 _atom_site_fract_x
 _atom_site_fract_y
 _atom_site_fract_z
 _atom_site_occupancy
  Cr  Cr0  1  0.60706300  0.82881500  0.43333200  1
  Cr  Cr1  1  0.10706300  0.82881500  0.06666800  1
  Cr  Cr2  1  0.60706300  0.67118500  0.93333200  1
  Cr  Cr3  1  0.10706300  0.67118500  0.56666800  1
  Cr  Cr4  1  0.89293700  0.32881500  0.43333200  1
  Cr  Cr5  1  0.39293700  0.32881500  0.06666800  1
  Cr  Cr6  1  0.89293700  0.17118500  0.93333200  1
  Cr  Cr7  1  0.39293700  0.17118500  0.56666800  1
  P  P8  1  0.89337300  0.05183000  0.64299600  1
  P  P9  1  0.39337300  0.05183000  0.85700400  1
  P  P10  1  0.89337300  0.44817000  0.14299600  1
  P  P11  1  0.39337300  0.44817000  0.35700400  1
  P  P12  1  0.60662700  0.55183000  0.64299600  1
  P  P13  1  0.10662700  0.55183000  0.85700400  1
  P  P14  1  0.60662700  0.94817000  0.14299600  1
  P  P15  1  0.10662700  0.94817000  0.35700400  1
  O  O16  1  0.82280800  0.53600500  0.55873600  1
  O  O17  1  0.82280800  0.96399500  0.05873600  1
  O  O18  1  0.67818400  0.90223000  0.26927200  1
  O  O19  1  0.17818400  0.90223000  0.23072800  1
  O  O20  1  0.51137300  0.87721300  0.85485200  1
  O  O21  1  0.01137300  0.87721300  0.64514800  1
  O  O22  1  0.96807200  0.79784500  0.42112200  1
  O  O23  1  0.46807200  0.79784500  0.07887800  1
  O  O24  1  0.67719200  0.03600500  0.55873600  1
  O  O25  1  0.17719200  0.03600500  0.94126400  1
  O  O26  1  0.32181600  0.09777000  0.73072800  1
  O  O27  1  0.82181600  0.09777000  0.76927200  1
  O  O28  1  0.48862700  0.12278700  0.14514800  1
  O  O29  1  0.98862700  0.12278700  0.35485200  1
  O  O30  1  0.03192800  0.20215500  0.57887800  1
  O  O31  1  0.53192800  0.20215500  0.92112200  1
  O  O32  1  0.03192800  0.29784500  0.07887800  1
  O  O33  1  0.53192800  0.29784500  0.42112200  1
  O  O34  1  0.48862700  0.37721300  0.64514800  1
  O  O35  1  0.96807200  0.70215500  0.92112200  1
  O  O36  1  0.32181600  0.40223000  0.23072800  1
  O  O37  1  0.82181600  0.40223000  0.26927200  1
  O  O38  1  0.67719200  0.46399500  0.05873600  1
  O  O39  1  0.17719200  0.46399500  0.44126400  1
  O  O40  1  0.98862700  0.37721300  0.85485200  1
  O  O41  1  0.32280800  0.53600500  0.94126400  1
  O  O42  1  0.17818400  0.59777000  0.73072800  1
  O  O43  1  0.67818400  0.59777000  0.76927200  1
  O  O44  1  0.01137300  0.62278700  0.14514800  1
  O  O45  1  0.51137300  0.62278700  0.35485200  1
  O  O46  1  0.46807200  0.70215500  0.57887800  1
  O  O47  1  0.32280800  0.96399500  0.44126400  1
