# generated using pymatgen
data_Mn3(P2O7)2
_symmetry_space_group_name_H-M   'P 1'
_cell_length_a   7.97080973
_cell_length_b   8.35650265
_cell_length_c   10.09628534
_cell_angle_alpha   107.66598095
_cell_angle_beta   84.57585689
_cell_angle_gamma   70.81460881
_symmetry_Int_Tables_number   1
_chemical_formula_structural   Mn3(P2O7)2
_chemical_formula_sum   'Mn6 P8 O28'
_cell_volume   590.92435383
_cell_formula_units_Z   2
loop_
 _symmetry_equiv_pos_site_id
 _symmetry_equiv_pos_as_xyz
  1  'x, y, z'
loop_
 _atom_site_type_symbol
 _atom_site_label
 _atom_site_symmetry_multiplicity
 _atom_site_fract_x
 _atom_site_fract_y
 _atom_site_fract_z
 _atom_site_occupancy
  Mn  Mn0  1  0.99931900  0.00006500  0.99993800  1
  Mn  Mn1  1  0.06048200  0.66269100  0.47404400  1
  Mn  Mn2  1  0.94141500  0.33692300  0.52556800  1
  Mn  Mn3  1  0.50028400  0.99974500  0.50012100  1
  Mn  Mn4  1  0.55976100  0.66259200  0.97455000  1
  Mn  Mn5  1  0.43930100  0.33751500  0.02609100  1
  P  P6  1  0.50964600  0.92550900  0.79731000  1
  P  P7  1  0.00946200  0.92675400  0.29793100  1
  P  P8  1  0.99032800  0.07450100  0.70272100  1
  P  P9  1  0.49031000  0.07345600  0.20210800  1
  P  P10  1  0.60976000  0.30806700  0.70098400  1
  P  P11  1  0.10889900  0.30705100  0.20125600  1
  P  P12  1  0.89037200  0.69189000  0.79894700  1
  P  P13  1  0.39100800  0.69286300  0.29868800  1
  O  O14  1  0.52915900  0.42382200  0.86463800  1
  O  O15  1  0.02877100  0.42095900  0.36521500  1
  O  O16  1  0.97101900  0.57588800  0.63536400  1
  O  O17  1  0.47116000  0.57883600  0.13478500  1
  O  O18  1  0.67524800  0.41676000  0.62891000  1
  O  O19  1  0.17284300  0.41756500  0.13049900  1
  O  O20  1  0.82508900  0.58315800  0.87113800  1
  O  O21  1  0.32712800  0.58238500  0.36953300  1
  O  O22  1  0.51011400  0.88342700  0.63759300  1
  O  O23  1  0.00976100  0.88509600  0.13828400  1
  O  O24  1  0.98971200  0.11672100  0.86246500  1
  O  O25  1  0.48971900  0.11521200  0.36178900  1
  O  O26  1  0.72323700  0.87009800  0.80726100  1
  O  O27  1  0.22278200  0.87125200  0.30823700  1
  O  O28  1  0.77690000  0.12971400  0.69252100  1
  O  O29  1  0.27708900  0.12856700  0.19152800  1
  O  O30  1  0.02604500  0.76975300  0.86224900  1
  O  O31  1  0.52663300  0.77051400  0.36226400  1
  O  O32  1  0.47401600  0.23026300  0.63765300  1
  O  O33  1  0.97316300  0.22957000  0.13763100  1
  O  O34  1  0.57807100  0.87135100  0.11691100  1
  O  O35  1  0.07907800  0.87336500  0.61739700  1
  O  O36  1  0.92215100  0.12888500  0.38316500  1
  O  O37  1  0.42114200  0.12670500  0.88256100  1
  O  O38  1  0.06730200  0.18953400  0.64277000  1
  O  O39  1  0.56912300  0.18662200  0.14198800  1
  O  O40  1  0.43277400  0.81055600  0.85732600  1
  O  O41  1  0.93042200  0.81379700  0.35807000  1
