# generated using pymatgen
data_MoP2O7
_symmetry_space_group_name_H-M   'P 1'
_cell_length_a   8.29899500
_cell_length_b   7.45584900
_cell_length_c   9.79351967
_cell_angle_alpha   68.66340006
_cell_angle_beta   90.00000000
_cell_angle_gamma   90.00000000
_symmetry_Int_Tables_number   1
_chemical_formula_structural   MoP2O7
_chemical_formula_sum   'Mo4 P8 O28'
_cell_volume   564.44957221
_cell_formula_units_Z   4
loop_
 _symmetry_equiv_pos_site_id
 _symmetry_equiv_pos_as_xyz
  1  'x, y, z'
loop_
 _atom_site_type_symbol
 _atom_site_label
 _atom_site_symmetry_multiplicity
 _atom_site_fract_x
 _atom_site_fract_y
 _atom_site_fract_z
 _atom_site_occupancy
  Mo  Mo0  1  0.00582600  0.26768000  0.74778700  1
  Mo  Mo1  1  0.99417400  0.73232000  0.25221300  1
  Mo  Mo2  1  0.49417400  0.26768000  0.24778700  1
  Mo  Mo3  1  0.50582600  0.73232000  0.75221300  1
  P  P4  1  0.29008500  0.67719500  0.04728000  1
  P  P5  1  0.70991500  0.32280500  0.95272000  1
  P  P6  1  0.20991500  0.67719500  0.54728000  1
  P  P7  1  0.25922200  0.07039600  0.54796200  1
  P  P8  1  0.79008500  0.32280500  0.45272000  1
  P  P9  1  0.75922200  0.92960400  0.95203800  1
  P  P10  1  0.24077800  0.07039600  0.04796200  1
  P  P11  1  0.74077800  0.92960400  0.45203800  1
  O  O12  1  0.14181900  0.18544600  0.60031700  1
  O  O13  1  0.30681300  0.18386200  0.38807000  1
  O  O14  1  0.41302800  0.53799500  0.14853100  1
  O  O15  1  0.40830200  0.99897800  0.64614100  1
  O  O16  1  0.15914300  0.88466300  0.54865700  1
  O  O17  1  0.69318700  0.81613800  0.61193000  1
  O  O18  1  0.91302800  0.46200500  0.35146900  1
  O  O19  1  0.34085700  0.88466300  0.04865700  1
  O  O20  1  0.58697200  0.46200500  0.85146900  1
  O  O21  1  0.64181900  0.81455400  0.89968300  1
  O  O22  1  0.19318700  0.18386200  0.88807000  1
  O  O23  1  0.69163200  0.31363600  0.11126100  1
  O  O24  1  0.38216400  0.63630100  0.60411700  1
  O  O25  1  0.80681300  0.81613800  0.11193000  1
  O  O26  1  0.90830200  0.00102200  0.85385900  1
  O  O27  1  0.85818100  0.81455400  0.39968300  1
  O  O28  1  0.65914300  0.11533700  0.95134300  1
  O  O29  1  0.08697200  0.53799500  0.64853100  1
  O  O30  1  0.84085700  0.11533700  0.45134300  1
  O  O31  1  0.19163200  0.68636400  0.38873900  1
  O  O32  1  0.88216400  0.36369900  0.89588300  1
  O  O33  1  0.09169800  0.99897800  0.14614100  1
  O  O34  1  0.61783600  0.36369900  0.39588300  1
  O  O35  1  0.11783600  0.63630100  0.10411700  1
  O  O36  1  0.35818100  0.18544600  0.10031700  1
  O  O37  1  0.59169800  0.00102200  0.35385900  1
  O  O38  1  0.80836800  0.31363600  0.61126100  1
  O  O39  1  0.30836800  0.68636400  0.88873900  1
