# generated using pymatgen
data_VPO5
_symmetry_space_group_name_H-M   'P 1'
_cell_length_a   10.45392700
_cell_length_b   5.05236000
_cell_length_c   7.29588743
_cell_angle_alpha   65.84758008
_cell_angle_beta   90.00000000
_cell_angle_gamma   90.00000000
_symmetry_Int_Tables_number   1
_chemical_formula_structural   VPO5
_chemical_formula_sum   'V4 P4 O20'
_cell_volume   351.61371955
_cell_formula_units_Z   4
loop_
 _symmetry_equiv_pos_site_id
 _symmetry_equiv_pos_as_xyz
  1  'x, y, z'
loop_
 _atom_site_type_symbol
 _atom_site_label
 _atom_site_symmetry_multiplicity
 _atom_site_fract_x
 _atom_site_fract_y
 _atom_site_fract_z
 _atom_site_occupancy
  V  V0  1  0.07354400  0.42626800  0.17597400  1
  V  V1  1  0.57354400  0.57373200  0.32402600  1
  V  V2  1  0.42645600  0.42626800  0.67597400  1
  V  V3  1  0.92645600  0.57373200  0.82402600  1
  P  P4  1  0.65052000  0.21675300  0.02767000  1
  P  P5  1  0.15052000  0.78324700  0.47233000  1
  P  P6  1  0.84948000  0.21675300  0.52767000  1
  P  P7  1  0.34948000  0.78324700  0.97233000  1
  O  O8  1  0.21888800  0.63257000  0.04413000  1
  O  O9  1  0.67666400  0.88670700  0.14916700  1
  O  O10  1  0.04112700  0.27606200  0.00426700  1
  O  O11  1  0.42837600  0.75252600  0.15983300  1
  O  O12  1  0.58339700  0.34490400  0.15695100  1
  O  O13  1  0.08339700  0.65509600  0.34304900  1
  O  O14  1  0.92837600  0.24747400  0.34016700  1
  O  O15  1  0.54112700  0.72393800  0.49573300  1
  O  O16  1  0.17666400  0.11329300  0.35083300  1
  O  O17  1  0.71888800  0.36743000  0.45587000  1
  O  O18  1  0.28111200  0.63257000  0.54413000  1
  O  O19  1  0.82333600  0.88670700  0.64916700  1
  O  O20  1  0.45887300  0.27606200  0.50426700  1
  O  O21  1  0.07162400  0.75252600  0.65983300  1
  O  O22  1  0.78111200  0.36743000  0.95587000  1
  O  O23  1  0.41660300  0.65509600  0.84304900  1
  O  O24  1  0.57162400  0.24747400  0.84016700  1
  O  O25  1  0.95887300  0.72393800  0.99573300  1
  O  O26  1  0.32333600  0.11329300  0.85083300  1
  O  O27  1  0.91660300  0.34490400  0.65695100  1
