# generated using pymatgen
data_LiSnP2O7
_symmetry_space_group_name_H-M   'P 1'
_cell_length_a   5.12009615
_cell_length_b   6.66481309
_cell_length_c   9.67812801
_cell_angle_alpha   109.67932017
_cell_angle_beta   91.52698011
_cell_angle_gamma   109.33056050
_symmetry_Int_Tables_number   1
_chemical_formula_structural   LiSnP2O7
_chemical_formula_sum   'Li2 Sn2 P4 O14'
_cell_volume   289.87295295
_cell_formula_units_Z   2
loop_
 _symmetry_equiv_pos_site_id
 _symmetry_equiv_pos_as_xyz
  1  'x, y, z'
loop_
 _atom_site_type_symbol
 _atom_site_label
 _atom_site_symmetry_multiplicity
 _atom_site_fract_x
 _atom_site_fract_y
 _atom_site_fract_z
 _atom_site_occupancy
  Li  Li0  1  0.05968500  0.32933500  0.04090300  1
  Li  Li1  1  0.94031500  0.67066500  0.95909700  1
  Sn  Sn2  1  0.14752100  0.12115600  0.33630200  1
  Sn  Sn3  1  0.85247900  0.87884400  0.66369800  1
  P  P4  1  0.28941000  0.67158500  0.37869000  1
  P  P5  1  0.50257600  0.83639400  0.14057100  1
  P  P6  1  0.49742400  0.16360600  0.85942900  1
  P  P7  1  0.71059000  0.32841500  0.62131000  1
  O  O8  1  0.08427700  0.80464400  0.40572400  1
  O  O9  1  0.14668100  0.41711300  0.27531100  1
  O  O10  1  0.29107900  0.62643900  0.02417200  1
  O  O11  1  0.43990100  0.69990100  0.52536600  1
  O  O12  1  0.18757300  0.09711800  0.88239800  1
  O  O13  1  0.59100300  0.95582900  0.82223500  1
  O  O14  1  0.52530400  0.78927000  0.29581400  1
  O  O15  1  0.47469600  0.21073000  0.70418600  1
  O  O16  1  0.40899700  0.04417100  0.17776500  1
  O  O17  1  0.81242700  0.90288200  0.11760200  1
  O  O18  1  0.56009900  0.30009900  0.47463400  1
  O  O19  1  0.70892100  0.37356100  0.97582800  1
  O  O20  1  0.85331900  0.58288700  0.72468900  1
  O  O21  1  0.91572300  0.19535600  0.59427600  1
