# generated using pymatgen
data_V7O13
_symmetry_space_group_name_H-M   'P 1'
_cell_length_a   5.54866300
_cell_length_b   7.11967038
_cell_length_c   11.43493485
_cell_angle_alpha   96.97771867
_cell_angle_beta   89.84790334
_cell_angle_gamma   107.99971111
_symmetry_Int_Tables_number   1
_chemical_formula_structural   V7O13
_chemical_formula_sum   'V14 O26'
_cell_volume   426.15112551
_cell_formula_units_Z   2
loop_
 _symmetry_equiv_pos_site_id
 _symmetry_equiv_pos_as_xyz
  1  'x, y, z'
loop_
 _atom_site_type_symbol
 _atom_site_label
 _atom_site_symmetry_multiplicity
 _atom_site_fract_x
 _atom_site_fract_y
 _atom_site_fract_z
 _atom_site_occupancy
  V  V0  1  0.00000000  0.50000000  0.50000000  1
  V  V1  1  0.00000000  0.00000000  0.50000000  1
  V  V2  1  0.61525100  0.26296900  0.64776000  1
  V  V3  1  0.38474900  0.73703100  0.35224000  1
  V  V4  1  0.59001600  0.75094100  0.64117800  1
  V  V5  1  0.40998400  0.24905900  0.35882200  1
  V  V6  1  0.20738900  0.01803700  0.78575800  1
  V  V7  1  0.79261100  0.98196300  0.21424200  1
  V  V8  1  0.20712300  0.51221000  0.79840500  1
  V  V9  1  0.79287700  0.48779000  0.20159500  1
  V  V10  1  0.79820800  0.78563100  0.94131400  1
  V  V11  1  0.20179200  0.21436900  0.05868600  1
  V  V12  1  0.78930300  0.28367100  0.94521500  1
  V  V13  1  0.21069700  0.71632900  0.05478500  1
  O  O14  1  0.36268700  0.17351700  0.51149600  1
  O  O15  1  0.63731300  0.82648300  0.48850400  1
  O  O16  1  0.87501900  0.22612400  0.55704400  1
  O  O17  1  0.12498100  0.77387600  0.44295600  1
  O  O18  1  0.71142800  0.53605900  0.60702700  1
  O  O19  1  0.28857200  0.46394100  0.39297300  1
  O  O20  1  0.24341100  0.59793600  0.63830600  1
  O  O21  1  0.75658900  0.40206400  0.36169400  1
  O  O22  1  0.97458100  0.92623300  0.67079200  1
  O  O23  1  0.02541900  0.07376700  0.32920800  1
  O  O24  1  0.50076900  0.99104100  0.70278200  1
  O  O25  1  0.49923100  0.00895900  0.29721800  1
  O  O26  1  0.33529600  0.28749600  0.74628600  1
  O  O27  1  0.66470400  0.71250400  0.25371400  1
  O  O28  1  0.80855600  0.55632100  0.02386400  1
  O  O29  1  0.19144400  0.44367900  0.97613600  1
  O  O30  1  0.54388600  0.83459900  0.05679800  1
  O  O31  1  0.45611400  0.16540100  0.94320200  1
  O  O32  1  0.04759700  0.92922300  0.09218000  1
  O  O33  1  0.95240300  0.07077700  0.90782000  1
  O  O34  1  0.87041500  0.23077400  0.12139900  1
  O  O35  1  0.12958500  0.76922600  0.87860100  1
  O  O36  1  0.41847500  0.30588700  0.17778800  1
  O  O37  1  0.58152500  0.69411300  0.82221200  1
  O  O38  1  0.15564900  0.63790100  0.20705100  1
  O  O39  1  0.84435100  0.36209900  0.79294900  1
