# generated using pymatgen
data_V2(PO4)3
_symmetry_space_group_name_H-M   'P 1'
_cell_length_a   8.51173690
_cell_length_b   8.51173690
_cell_length_c   8.51173739
_cell_angle_alpha   60.62351838
_cell_angle_beta   60.62351838
_cell_angle_gamma   60.62352486
_symmetry_Int_Tables_number   1
_chemical_formula_structural   V2(PO4)3
_chemical_formula_sum   'V4 P6 O24'
_cell_volume   442.19298911
_cell_formula_units_Z   2
loop_
 _symmetry_equiv_pos_site_id
 _symmetry_equiv_pos_as_xyz
  1  'x, y, z'
loop_
 _atom_site_type_symbol
 _atom_site_label
 _atom_site_symmetry_multiplicity
 _atom_site_fract_x
 _atom_site_fract_y
 _atom_site_fract_z
 _atom_site_occupancy
  V  V0  1  0.36362500  0.36362500  0.36362500  1
  V  V1  1  0.13637500  0.13637500  0.13637500  1
  V  V2  1  0.86362500  0.86362500  0.86362500  1
  V  V3  1  0.63637500  0.63637500  0.63637500  1
  P  P4  1  0.03571800  0.46428200  0.75000000  1
  P  P5  1  0.96428200  0.53571800  0.25000000  1
  P  P6  1  0.25000000  0.96428200  0.53571800  1
  P  P7  1  0.53571800  0.25000000  0.96428200  1
  P  P8  1  0.46428200  0.75000000  0.03571800  1
  P  P9  1  0.75000000  0.03571800  0.46428200  1
  O  O10  1  0.69787100  0.86926700  0.50042300  1
  O  O11  1  0.94047400  0.72578000  0.08333900  1
  O  O12  1  0.44047400  0.58333900  0.22578000  1
  O  O13  1  0.55952600  0.41666100  0.77422000  1
  O  O14  1  0.22578000  0.44047400  0.58333900  1
  O  O15  1  0.27422000  0.91666100  0.05952600  1
  O  O16  1  0.77422000  0.55952600  0.41666100  1
  O  O17  1  0.19787100  0.00042300  0.36926700  1
  O  O18  1  0.80212900  0.99957700  0.63073300  1
  O  O19  1  0.00042300  0.36926700  0.19787100  1
  O  O20  1  0.36926700  0.19787100  0.00042300  1
  O  O21  1  0.30212900  0.13073300  0.49957700  1
  O  O22  1  0.86926700  0.50042300  0.69787100  1
  O  O23  1  0.72578000  0.08333900  0.94047400  1
  O  O24  1  0.13073300  0.49957700  0.30212900  1
  O  O25  1  0.50042300  0.69787100  0.86926700  1
  O  O26  1  0.41666100  0.77422000  0.55952600  1
  O  O27  1  0.58333900  0.22578000  0.44047400  1
  O  O28  1  0.99957700  0.63073300  0.80212900  1
  O  O29  1  0.05952600  0.27422000  0.91666100  1
  O  O30  1  0.49957700  0.30212900  0.13073300  1
  O  O31  1  0.08333900  0.94047400  0.72578000  1
  O  O32  1  0.91666100  0.05952600  0.27422000  1
  O  O33  1  0.63073300  0.80212900  0.99957700  1
