# generated using pymatgen
data_Co3(P2O7)2
_symmetry_space_group_name_H-M   'P 1'
_cell_length_a   7.93742700
_cell_length_b   7.31112400
_cell_length_c   9.39994245
_cell_angle_alpha   69.76686774
_cell_angle_beta   90.00000000
_cell_angle_gamma   90.00000000
_symmetry_Int_Tables_number   1
_chemical_formula_structural   Co3(P2O7)2
_chemical_formula_sum   'Co6 P8 O28'
_cell_volume   511.83225791
_cell_formula_units_Z   2
loop_
 _symmetry_equiv_pos_site_id
 _symmetry_equiv_pos_as_xyz
  1  'x, y, z'
loop_
 _atom_site_type_symbol
 _atom_site_label
 _atom_site_symmetry_multiplicity
 _atom_site_fract_x
 _atom_site_fract_y
 _atom_site_fract_z
 _atom_site_occupancy
  Co  Co0  1  0.00000000  0.00000000  0.50000000  1
  Co  Co1  1  0.37704900  0.80566100  0.52708500  1
  Co  Co2  1  0.50000000  0.00000000  0.00000000  1
  Co  Co3  1  0.12295100  0.80566100  0.02708500  1
  Co  Co4  1  0.87704900  0.19433900  0.97291500  1
  Co  Co5  1  0.62295100  0.19433900  0.47291500  1
  P  P6  1  0.78866100  0.89250200  0.80201700  1
  P  P7  1  0.71133900  0.89250200  0.30201700  1
  P  P8  1  0.03478100  0.60371900  0.78956200  1
  P  P9  1  0.46521900  0.60371900  0.28956200  1
  P  P10  1  0.53478100  0.39628100  0.71043800  1
  P  P11  1  0.96521900  0.39628100  0.21043800  1
  P  P12  1  0.28866100  0.10749800  0.69798300  1
  P  P13  1  0.21133900  0.10749800  0.19798300  1
  O  O14  1  0.28834100  0.99613600  0.87145800  1
  O  O15  1  0.91915200  0.97049600  0.88894000  1
  O  O16  1  0.61667100  0.87735800  0.87650100  1
  O  O17  1  0.21165900  0.99613600  0.37145800  1
  O  O18  1  0.58084800  0.97049600  0.38894000  1
  O  O19  1  0.88332900  0.87735800  0.37650100  1
  O  O20  1  0.84723100  0.67901300  0.81457900  1
  O  O21  1  0.15090000  0.63461500  0.90849300  1
  O  O22  1  0.09642000  0.73197200  0.62952600  1
  O  O23  1  0.50585800  0.61039800  0.68808200  1
  O  O24  1  0.65276900  0.67901300  0.31457900  1
  O  O25  1  0.34910000  0.63461500  0.40849300  1
  O  O26  1  0.40358000  0.73197200  0.12952600  1
  O  O27  1  0.00585800  0.38960200  0.81191800  1
  O  O28  1  0.99414200  0.61039800  0.18808200  1
  O  O29  1  0.59642000  0.26802800  0.87047400  1
  O  O30  1  0.65090000  0.36538500  0.59150700  1
  O  O31  1  0.34723100  0.32098700  0.68542100  1
  O  O32  1  0.49414200  0.38960200  0.31191800  1
  O  O33  1  0.90358000  0.26802800  0.37047400  1
  O  O34  1  0.84910000  0.36538500  0.09150700  1
  O  O35  1  0.15276900  0.32098700  0.18542100  1
  O  O36  1  0.11667100  0.12264200  0.62349900  1
  O  O37  1  0.41915200  0.02950400  0.61106000  1
  O  O38  1  0.78834100  0.00386400  0.62854200  1
  O  O39  1  0.38332900  0.12264200  0.12349900  1
  O  O40  1  0.08084800  0.02950400  0.11106000  1
  O  O41  1  0.71165900  0.00386400  0.12854200  1
