# generated using pymatgen
data_KTh6F25
_symmetry_space_group_name_H-M   'P 1'
_cell_length_a   9.78572603
_cell_length_b   9.78572603
_cell_length_c   9.78572645
_cell_angle_alpha   50.66213880
_cell_angle_beta   50.66213880
_cell_angle_gamma   50.66214123
_symmetry_Int_Tables_number   1
_chemical_formula_structural   KTh6F25
_chemical_formula_sum   'K1 Th6 F25'
_cell_volume   516.64134749
_cell_formula_units_Z   1
loop_
 _symmetry_equiv_pos_site_id
 _symmetry_equiv_pos_as_xyz
  1  'x, y, z'
loop_
 _atom_site_type_symbol
 _atom_site_label
 _atom_site_symmetry_multiplicity
 _atom_site_fract_x
 _atom_site_fract_y
 _atom_site_fract_z
 _atom_site_occupancy
  K  K0  1  0.00000000  0.00000000  0.00000000  1
  Th  Th1  1  0.90877800  0.40825300  0.40825300  1
  Th  Th2  1  0.40825300  0.90877800  0.40825300  1
  Th  Th3  1  0.59174700  0.09122200  0.59174700  1
  Th  Th4  1  0.59174700  0.59174700  0.09122200  1
  Th  Th5  1  0.09122200  0.59174700  0.59174700  1
  Th  Th6  1  0.40825300  0.40825300  0.90877800  1
  F  F7  1  0.25266100  0.25266100  0.68866700  1
  F  F8  1  0.68866700  0.25266100  0.25266100  1
  F  F9  1  0.25266100  0.68866700  0.25266100  1
  F  F10  1  0.74733900  0.31133300  0.74733900  1
  F  F11  1  0.74733900  0.74733900  0.31133300  1
  F  F12  1  0.31133300  0.74733900  0.74733900  1
  F  F13  1  0.54995900  0.54995900  0.54995900  1
  F  F14  1  0.50000000  0.50000000  0.00000000  1
  F  F15  1  0.50000000  0.00000000  0.50000000  1
  F  F16  1  0.00000000  0.50000000  0.50000000  1
  F  F17  1  0.55166100  0.12678700  0.12678700  1
  F  F18  1  0.12678700  0.12678700  0.55166100  1
  F  F19  1  0.12678700  0.55166100  0.12678700  1
  F  F20  1  0.87321300  0.44833900  0.87321300  1
  F  F21  1  0.44833900  0.87321300  0.87321300  1
  F  F22  1  0.87321300  0.87321300  0.44833900  1
  F  F23  1  0.17808600  0.82191400  0.50000000  1
  F  F24  1  0.82191400  0.50000000  0.17808600  1
  F  F25  1  0.50000000  0.17808600  0.82191400  1
  F  F26  1  0.82191400  0.17808600  0.50000000  1
  F  F27  1  0.17808600  0.50000000  0.82191400  1
  F  F28  1  0.50000000  0.82191400  0.17808600  1
  F  F29  1  0.21000100  0.21000100  0.21000100  1
  F  F30  1  0.78999900  0.78999900  0.78999900  1
  F  F31  1  0.45004100  0.45004100  0.45004100  1
