# generated using pymatgen
data_C2N
_symmetry_space_group_name_H-M   'P 1'
_cell_length_a   11.12513300
_cell_length_b   11.12513300
_cell_length_c   11.12513300
_cell_angle_alpha   90.00000000
_cell_angle_beta   90.00000000
_cell_angle_gamma   90.00000000
_symmetry_Int_Tables_number   1
_chemical_formula_structural   C2N
_chemical_formula_sum   'C48 N24'
_cell_volume   1376.94196120
_cell_formula_units_Z   24
loop_
 _symmetry_equiv_pos_site_id
 _symmetry_equiv_pos_as_xyz
  1  'x, y, z'
loop_
 _atom_site_type_symbol
 _atom_site_label
 _atom_site_symmetry_multiplicity
 _atom_site_fract_x
 _atom_site_fract_y
 _atom_site_fract_z
 _atom_site_occupancy
  C  C0  1  0.09196800  0.91278900  0.99519400  1
  C  C1  1  0.99519400  0.09196800  0.91278900  1
  C  C2  1  0.91278900  0.99519400  0.09196800  1
  C  C3  1  0.58721100  0.00480600  0.59196800  1
  C  C4  1  0.49519400  0.40803200  0.08721100  1
  C  C5  1  0.08721100  0.49519400  0.40803200  1
  C  C6  1  0.50480600  0.90803200  0.41278900  1
  C  C7  1  0.00480600  0.59196800  0.58721100  1
  C  C8  1  0.41278900  0.50480600  0.90803200  1
  C  C9  1  0.59196800  0.58721100  0.00480600  1
  C  C10  1  0.90803200  0.41278900  0.50480600  1
  C  C11  1  0.40803200  0.08721100  0.49519400  1
  C  C12  1  0.90803200  0.08721100  0.00480600  1
  C  C13  1  0.00480600  0.90803200  0.08721100  1
  C  C14  1  0.08721100  0.00480600  0.90803200  1
  C  C15  1  0.41278900  0.99519400  0.40803200  1
  C  C16  1  0.50480600  0.59196800  0.91278900  1
  C  C17  1  0.91278900  0.50480600  0.59196800  1
  C  C18  1  0.49519400  0.09196800  0.58721100  1
  C  C19  1  0.99519400  0.40803200  0.41278900  1
  C  C20  1  0.58721100  0.49519400  0.09196800  1
  C  C21  1  0.40803200  0.41278900  0.99519400  1
  C  C22  1  0.09196800  0.58721100  0.49519400  1
  C  C23  1  0.59196800  0.91278900  0.50480600  1
  C  C24  1  0.18471700  0.82474300  0.98993300  1
  C  C25  1  0.98993300  0.18471700  0.82474300  1
  C  C26  1  0.82474300  0.98993300  0.18471700  1
  C  C27  1  0.67525700  0.01006700  0.68471700  1
  C  C28  1  0.48993300  0.31528300  0.17525700  1
  C  C29  1  0.17525700  0.48993300  0.31528300  1
  C  C30  1  0.51006700  0.81528300  0.32474300  1
  C  C31  1  0.01006700  0.68471700  0.67525700  1
  C  C32  1  0.32474300  0.51006700  0.81528300  1
  C  C33  1  0.68471700  0.67525700  0.01006700  1
  C  C34  1  0.81528300  0.32474300  0.51006700  1
  C  C35  1  0.31528300  0.17525700  0.48993300  1
  C  C36  1  0.81528300  0.17525700  0.01006700  1
  C  C37  1  0.01006700  0.81528300  0.17525700  1
  C  C38  1  0.17525700  0.01006700  0.81528300  1
  C  C39  1  0.32474300  0.98993300  0.31528300  1
  C  C40  1  0.51006700  0.68471700  0.82474300  1
  C  C41  1  0.82474300  0.51006700  0.68471700  1
  C  C42  1  0.48993300  0.18471700  0.67525700  1
  C  C43  1  0.98993300  0.31528300  0.32474300  1
  C  C44  1  0.67525700  0.48993300  0.18471700  1
  C  C45  1  0.31528300  0.32474300  0.98993300  1
  C  C46  1  0.18471700  0.67525700  0.48993300  1
  C  C47  1  0.68471700  0.82474300  0.51006700  1
  N  N48  1  0.26063200  0.75262200  0.98467700  1
  N  N49  1  0.98467700  0.26063200  0.75262200  1
  N  N50  1  0.75262200  0.98467700  0.26063200  1
  N  N51  1  0.74737800  0.01532300  0.76063200  1
  N  N52  1  0.48467700  0.23936800  0.24737800  1
  N  N53  1  0.24737800  0.48467700  0.23936800  1
  N  N54  1  0.51532300  0.73936800  0.25262200  1
  N  N55  1  0.01532300  0.76063200  0.74737800  1
  N  N56  1  0.25262200  0.51532300  0.73936800  1
  N  N57  1  0.76063200  0.74737800  0.01532300  1
  N  N58  1  0.73936800  0.25262200  0.51532300  1
  N  N59  1  0.23936800  0.24737800  0.48467700  1
  N  N60  1  0.73936800  0.24737800  0.01532300  1
  N  N61  1  0.01532300  0.73936800  0.24737800  1
  N  N62  1  0.24737800  0.01532300  0.73936800  1
  N  N63  1  0.25262200  0.98467700  0.23936800  1
  N  N64  1  0.51532300  0.76063200  0.75262200  1
  N  N65  1  0.75262200  0.51532300  0.76063200  1
  N  N66  1  0.48467700  0.26063200  0.74737800  1
  N  N67  1  0.98467700  0.23936800  0.25262200  1
  N  N68  1  0.74737800  0.48467700  0.26063200  1
  N  N69  1  0.23936800  0.25262200  0.98467700  1
  N  N70  1  0.26063200  0.74737800  0.48467700  1
  N  N71  1  0.76063200  0.75262200  0.51532300  1
