# generated using pymatgen
data_Fe3(P2O7)2
_symmetry_space_group_name_H-M   'P 1'
_cell_length_a   7.89603000
_cell_length_b   7.30245800
_cell_length_c   9.52900826
_cell_angle_alpha   68.87811516
_cell_angle_beta   90.00000000
_cell_angle_gamma   90.00000000
_symmetry_Int_Tables_number   1
_chemical_formula_structural   Fe3(P2O7)2
_chemical_formula_sum   'Fe6 P8 O28'
_cell_volume   512.53264171
_cell_formula_units_Z   2
loop_
 _symmetry_equiv_pos_site_id
 _symmetry_equiv_pos_as_xyz
  1  'x, y, z'
loop_
 _atom_site_type_symbol
 _atom_site_label
 _atom_site_symmetry_multiplicity
 _atom_site_fract_x
 _atom_site_fract_y
 _atom_site_fract_z
 _atom_site_occupancy
  Fe  Fe0  1  0.63484100  0.19390600  0.47067800  1
  Fe  Fe1  1  0.86515900  0.19390600  0.97067800  1
  Fe  Fe2  1  0.13484100  0.80609400  0.02932200  1
  Fe  Fe3  1  0.50000000  0.00000000  0.00000000  1
  Fe  Fe4  1  0.36515900  0.80609400  0.52932200  1
  Fe  Fe5  1  0.00000000  0.00000000  0.50000000  1
  P  P6  1  0.71093100  0.88440000  0.30443800  1
  P  P7  1  0.05220900  0.59698500  0.79540400  1
  P  P8  1  0.44779100  0.59698500  0.29540400  1
  P  P9  1  0.55220900  0.40301500  0.70459600  1
  P  P10  1  0.94779100  0.40301500  0.20459600  1
  P  P11  1  0.28906900  0.11560000  0.69556200  1
  P  P12  1  0.78906900  0.88440000  0.80443800  1
  P  P13  1  0.21093100  0.11560000  0.19556200  1
  O  O14  1  0.62952800  0.28235800  0.86019600  1
  O  O15  1  0.71630400  0.00550300  0.13381300  1
  O  O16  1  0.07921900  0.03352800  0.10966400  1
  O  O17  1  0.37929900  0.14726800  0.11755000  1
  O  O18  1  0.78369600  0.00550300  0.63381300  1
  O  O19  1  0.42078100  0.03352800  0.60966400  1
  O  O20  1  0.28369600  0.99449700  0.86618700  1
  O  O21  1  0.92078100  0.96647200  0.89033600  1
  O  O22  1  0.62070100  0.85273200  0.88245000  1
  O  O23  1  0.21630400  0.99449700  0.36618700  1
  O  O24  1  0.57921900  0.96647200  0.39033600  1
  O  O25  1  0.86436500  0.68118800  0.80463300  1
  O  O26  1  0.15695000  0.62967300  0.91882600  1
  O  O27  1  0.87929900  0.85273200  0.38245000  1
  O  O28  1  0.12952800  0.71764200  0.63980400  1
  O  O29  1  0.51600200  0.61772600  0.67899000  1
  O  O30  1  0.63563500  0.68118800  0.30463300  1
  O  O31  1  0.84305000  0.37032700  0.08117400  1
  O  O32  1  0.37047200  0.71764200  0.13980400  1
  O  O33  1  0.01600200  0.38227400  0.82101000  1
  O  O34  1  0.98399800  0.61772600  0.17899000  1
  O  O35  1  0.13563500  0.31881200  0.19536700  1
  O  O36  1  0.65695000  0.37032700  0.58117400  1
  O  O37  1  0.36436500  0.31881200  0.69536700  1
  O  O38  1  0.48399800  0.38227400  0.32101000  1
  O  O39  1  0.87047200  0.28235800  0.36019600  1
  O  O40  1  0.12070100  0.14726800  0.61755000  1
  O  O41  1  0.34305000  0.62967300  0.41882600  1
