# generated using pymatgen
data_Cr4(PO4)3
_symmetry_space_group_name_H-M   'P 1'
_cell_length_a   7.61470319
_cell_length_b   8.20711433
_cell_length_c   9.67932752
_cell_angle_alpha   108.63753348
_cell_angle_beta   112.72944040
_cell_angle_gamma   94.21110508
_symmetry_Int_Tables_number   1
_chemical_formula_structural   Cr4(PO4)3
_chemical_formula_sum   'Cr8 P6 O24'
_cell_volume   515.07837346
_cell_formula_units_Z   2
loop_
 _symmetry_equiv_pos_site_id
 _symmetry_equiv_pos_as_xyz
  1  'x, y, z'
loop_
 _atom_site_type_symbol
 _atom_site_label
 _atom_site_symmetry_multiplicity
 _atom_site_fract_x
 _atom_site_fract_y
 _atom_site_fract_z
 _atom_site_occupancy
  Cr  Cr0  1  0.02739600  0.80357500  0.47530400  1
  Cr  Cr1  1  0.97260400  0.19642500  0.52469600  1
  Cr  Cr2  1  0.26109100  0.90855600  0.90577300  1
  Cr  Cr3  1  0.73890900  0.09144300  0.09422700  1
  Cr  Cr4  1  0.26630300  0.53896900  0.91855500  1
  Cr  Cr5  1  0.73369700  0.46103100  0.08144500  1
  Cr  Cr6  1  0.29529900  0.61032800  0.29479400  1
  Cr  Cr7  1  0.70470100  0.38967200  0.70520600  1
  P  P8  1  0.03036300  0.25960100  0.95077500  1
  P  P9  1  0.96963700  0.74039900  0.04922500  1
  P  P10  1  0.31266400  0.55882700  0.61636600  1
  P  P11  1  0.68733600  0.44117300  0.38363400  1
  P  P12  1  0.39668400  0.15650600  0.74807700  1
  P  P13  1  0.60331600  0.84349400  0.25192300  1
  O  O14  1  0.11827300  0.73854400  0.97378200  1
  O  O15  1  0.88172700  0.26145600  0.02621800  1
  O  O16  1  0.11299500  0.09837900  0.93949400  1
  O  O17  1  0.88700500  0.90162100  0.06050600  1
  O  O18  1  0.30039100  0.66686400  0.77718300  1
  O  O19  1  0.69960900  0.33313600  0.22281700  1
  O  O20  1  0.16034400  0.38524600  0.52873900  1
  O  O21  1  0.83965600  0.61475400  0.47126100  1
  O  O22  1  0.18912000  0.06554200  0.60346400  1
  O  O23  1  0.81088000  0.93445800  0.39653600  1
  O  O24  1  0.06131400  0.71973100  0.21752300  1
  O  O25  1  0.93868600  0.28026900  0.78247700  1
  O  O26  1  0.26088900  0.67321300  0.50639400  1
  O  O27  1  0.73911100  0.32678700  0.49360600  1
  O  O28  1  0.40099100  0.34181800  0.85777800  1
  O  O29  1  0.59900900  0.65818200  0.14222200  1
  O  O30  1  0.44847300  0.03671500  0.84655900  1
  O  O31  1  0.55152700  0.96328500  0.15344100  1
  O  O32  1  0.19368800  0.43711600  0.06304500  1
  O  O33  1  0.80631200  0.56288400  0.93695500  1
  O  O34  1  0.52143900  0.53666900  0.65234600  1
  O  O35  1  0.47856100  0.46333100  0.34765400  1
  O  O36  1  0.54675900  0.17839400  0.67954500  1
  O  O37  1  0.45324100  0.82160700  0.32045500  1
