# generated using pymatgen
data_V(PO3)4
_symmetry_space_group_name_H-M   'P 1'
_cell_length_a   10.52211755
_cell_length_b   10.52211755
_cell_length_c   5.24330674
_cell_angle_alpha   81.23592638
_cell_angle_beta   81.23592638
_cell_angle_gamma   73.14205649
_symmetry_Int_Tables_number   1
_chemical_formula_structural   V(PO3)4
_chemical_formula_sum   'V2 P8 O24'
_cell_volume   545.47610193
_cell_formula_units_Z   2
loop_
 _symmetry_equiv_pos_site_id
 _symmetry_equiv_pos_as_xyz
  1  'x, y, z'
loop_
 _atom_site_type_symbol
 _atom_site_label
 _atom_site_symmetry_multiplicity
 _atom_site_fract_x
 _atom_site_fract_y
 _atom_site_fract_z
 _atom_site_occupancy
  V  V0  1  0.00000000  0.50000000  0.50000000  1
  V  V1  1  0.50000000  0.00000000  0.50000000  1
  P  P2  1  0.36012400  0.79504200  0.32257400  1
  P  P3  1  0.79504200  0.36012400  0.32257400  1
  P  P4  1  0.69314000  0.93370900  0.96342200  1
  P  P5  1  0.93370900  0.69314000  0.96342200  1
  P  P6  1  0.06629100  0.30686000  0.03657800  1
  P  P7  1  0.63987600  0.20495800  0.67742600  1
  P  P8  1  0.20495800  0.63987600  0.67742600  1
  P  P9  1  0.30686000  0.06629100  0.03657800  1
  O  O10  1  0.42580800  0.85957600  0.49748600  1
  O  O11  1  0.85957600  0.42580800  0.49748600  1
  O  O12  1  0.22677700  0.77322300  0.50000000  1
  O  O13  1  0.77322300  0.22677700  0.50000000  1
  O  O14  1  0.65824100  0.91525400  0.25406800  1
  O  O15  1  0.91525400  0.65824100  0.25406800  1
  O  O16  1  0.44285400  0.68374200  0.18571400  1
  O  O17  1  0.68374200  0.44285400  0.18571400  1
  O  O18  1  0.28294500  0.92356000  0.12898600  1
  O  O19  1  0.92356000  0.28294500  0.12898600  1
  O  O20  1  0.84087200  0.84087200  0.89473800  1
  O  O21  1  0.40160600  0.09289800  0.19888000  1
  O  O22  1  0.09289800  0.40160600  0.19888000  1
  O  O23  1  0.90710200  0.59839400  0.80112000  1
  O  O24  1  0.59839400  0.90710200  0.80112000  1
  O  O25  1  0.15912800  0.15912800  0.10526200  1
  O  O26  1  0.07644000  0.71705500  0.87101400  1
  O  O27  1  0.57419200  0.14042400  0.50251400  1
  O  O28  1  0.31625800  0.55714600  0.81428600  1
  O  O29  1  0.55714600  0.31625800  0.81428600  1
  O  O30  1  0.08474600  0.34175900  0.74593200  1
  O  O31  1  0.34175900  0.08474600  0.74593200  1
  O  O32  1  0.14042400  0.57419200  0.50251400  1
  O  O33  1  0.71705500  0.07644000  0.87101400  1
