# generated using pymatgen
data_Cs3HgCl5
_symmetry_space_group_name_H-M   'P 1'
_cell_length_a   9.17696300
_cell_length_b   10.94765700
_cell_length_c   13.95134300
_cell_angle_alpha   90.00000000
_cell_angle_beta   90.00000000
_cell_angle_gamma   90.00000000
_symmetry_Int_Tables_number   1
_chemical_formula_structural   Cs3HgCl5
_chemical_formula_sum   'Cs12 Hg4 Cl20'
_cell_volume   1401.63901916
_cell_formula_units_Z   4
loop_
 _symmetry_equiv_pos_site_id
 _symmetry_equiv_pos_as_xyz
  1  'x, y, z'
loop_
 _atom_site_type_symbol
 _atom_site_label
 _atom_site_symmetry_multiplicity
 _atom_site_fract_x
 _atom_site_fract_y
 _atom_site_fract_z
 _atom_site_occupancy
  Cs  Cs0  1  0.58942100  0.02671500  0.83384400  1
  Cs  Cs1  1  0.08942100  0.47328500  0.66615600  1
  Cs  Cs2  1  0.41057900  0.52671500  0.16615600  1
  Cs  Cs3  1  0.91057900  0.97328500  0.33384400  1
  Cs  Cs4  1  0.41057900  0.97328500  0.16615600  1
  Cs  Cs5  1  0.91057900  0.52671500  0.33384400  1
  Cs  Cs6  1  0.58942100  0.47328500  0.83384400  1
  Cs  Cs7  1  0.08942100  0.02671500  0.66615600  1
  Cs  Cs8  1  0.40968300  0.75000000  0.45192100  1
  Cs  Cs9  1  0.90968300  0.75000000  0.04807900  1
  Cs  Cs10  1  0.59031700  0.25000000  0.54807900  1
  Cs  Cs11  1  0.09031700  0.25000000  0.95192100  1
  Hg  Hg12  1  0.29738900  0.75000000  0.88261700  1
  Hg  Hg13  1  0.79738900  0.75000000  0.61738300  1
  Hg  Hg14  1  0.70261100  0.25000000  0.11738300  1
  Hg  Hg15  1  0.20261100  0.25000000  0.38261700  1
  Cl  Cl16  1  0.16081100  0.75000000  0.23578700  1
  Cl  Cl17  1  0.66081100  0.75000000  0.26421300  1
  Cl  Cl18  1  0.83918900  0.25000000  0.76421300  1
  Cl  Cl19  1  0.33918900  0.25000000  0.73578700  1
  Cl  Cl20  1  0.81499600  0.44959900  0.06837400  1
  Cl  Cl21  1  0.31499600  0.05040100  0.43162600  1
  Cl  Cl22  1  0.18500400  0.94959900  0.93162600  1
  Cl  Cl23  1  0.68500400  0.55040100  0.56837400  1
  Cl  Cl24  1  0.18500400  0.55040100  0.93162600  1
  Cl  Cl25  1  0.68500400  0.94959900  0.56837400  1
  Cl  Cl26  1  0.81499600  0.05040100  0.06837400  1
  Cl  Cl27  1  0.31499600  0.44959900  0.43162600  1
  Cl  Cl28  1  0.37290700  0.75000000  0.70955100  1
  Cl  Cl29  1  0.87290700  0.75000000  0.79044900  1
  Cl  Cl30  1  0.62709300  0.25000000  0.29044900  1
  Cl  Cl31  1  0.12709300  0.25000000  0.20955100  1
  Cl  Cl32  1  0.96680900  0.25000000  0.48630400  1
  Cl  Cl33  1  0.46680900  0.25000000  0.01369600  1
  Cl  Cl34  1  0.03319100  0.75000000  0.51369600  1
  Cl  Cl35  1  0.53319100  0.75000000  0.98630400  1
