# generated using pymatgen
data_Xe(OF)2
_symmetry_space_group_name_H-M   'P 1'
_cell_length_a   4.60701188
_cell_length_b   4.60701188
_cell_length_c   8.87888700
_cell_angle_alpha   90.00000000
_cell_angle_beta   90.00000000
_cell_angle_gamma   91.07311688
_symmetry_Int_Tables_number   1
_chemical_formula_structural   Xe(OF)2
_chemical_formula_sum   'Xe2 O4 F4'
_cell_volume   188.41740402
_cell_formula_units_Z   2
loop_
 _symmetry_equiv_pos_site_id
 _symmetry_equiv_pos_as_xyz
  1  'x, y, z'
loop_
 _atom_site_type_symbol
 _atom_site_label
 _atom_site_symmetry_multiplicity
 _atom_site_fract_x
 _atom_site_fract_y
 _atom_site_fract_z
 _atom_site_occupancy
  Xe  Xe0  1  0.26960400  0.73039600  0.75000000  1
  Xe  Xe1  1  0.73039600  0.26960400  0.25000000  1
  O  O2  1  0.66750700  0.80707100  0.75000000  1
  O  O3  1  0.33249300  0.19292900  0.25000000  1
  O  O4  1  0.80707100  0.66750700  0.25000000  1
  O  O5  1  0.19292900  0.33249300  0.75000000  1
  F  F6  1  0.75150300  0.24849700  0.48009900  1
  F  F7  1  0.24849700  0.75150300  0.98009900  1
  F  F8  1  0.75150300  0.24849700  0.01990100  1
  F  F9  1  0.24849700  0.75150300  0.51990100  1
