# generated using pymatgen
data_K5ThF9
_symmetry_space_group_name_H-M   'P 1'
_cell_length_a   7.61806406
_cell_length_b   7.61806406
_cell_length_c   10.91048500
_cell_angle_alpha   90.00000000
_cell_angle_beta   90.00000000
_cell_angle_gamma   117.27933497
_symmetry_Int_Tables_number   1
_chemical_formula_structural   K5ThF9
_chemical_formula_sum   'K10 Th2 F18'
_cell_volume   562.76728004
_cell_formula_units_Z   2
loop_
 _symmetry_equiv_pos_site_id
 _symmetry_equiv_pos_as_xyz
  1  'x, y, z'
loop_
 _atom_site_type_symbol
 _atom_site_label
 _atom_site_symmetry_multiplicity
 _atom_site_fract_x
 _atom_site_fract_y
 _atom_site_fract_z
 _atom_site_occupancy
  K  K0  1  0.14308300  0.35511200  0.90061600  1
  K  K1  1  0.85691700  0.64488800  0.40061600  1
  K  K2  1  0.64488800  0.85691700  0.90061600  1
  K  K3  1  0.35511200  0.14308300  0.40061600  1
  K  K4  1  0.12308300  0.39529100  0.55315400  1
  K  K5  1  0.87691700  0.60470900  0.05315400  1
  K  K6  1  0.60470900  0.87691700  0.55315400  1
  K  K7  1  0.39529100  0.12308300  0.05315400  1
  K  K8  1  0.57794700  0.42205300  0.71592000  1
  K  K9  1  0.42205300  0.57794700  0.21592000  1
  Th  Th10  1  0.16180200  0.83819800  0.74972800  1
  Th  Th11  1  0.83819800  0.16180200  0.24972800  1
  F  F12  1  0.49538300  0.05362700  0.77157400  1
  F  F13  1  0.50461700  0.94637300  0.27157400  1
  F  F14  1  0.94637300  0.50461700  0.77157400  1
  F  F15  1  0.05362700  0.49538300  0.27157400  1
  F  F16  1  0.21517200  0.15032600  0.67864100  1
  F  F17  1  0.78482800  0.84967400  0.17864100  1
  F  F18  1  0.84967400  0.78482800  0.67864100  1
  F  F19  1  0.15032600  0.21517200  0.17864100  1
  F  F20  1  0.51748300  0.48251700  0.95979100  1
  F  F21  1  0.48251700  0.51748300  0.45979100  1
  F  F22  1  0.24415400  0.75584600  0.94929200  1
  F  F23  1  0.75584600  0.24415400  0.44929200  1
  F  F24  1  0.95950600  0.04049400  0.40625600  1
  F  F25  1  0.04049400  0.95950600  0.90625600  1
  F  F26  1  0.80038900  0.19961100  0.04139300  1
  F  F27  1  0.19961100  0.80038900  0.54139300  1
  F  F28  1  0.65178600  0.34821400  0.22414900  1
  F  F29  1  0.34821400  0.65178600  0.72414900  1
