# generated using pymatgen
data_SnAsF7
_symmetry_space_group_name_H-M   'P 1'
_cell_length_a   7.86622503
_cell_length_b   7.86622503
_cell_length_c   7.86622522
_cell_angle_alpha   72.92053942
_cell_angle_beta   72.92053942
_cell_angle_gamma   72.92053892
_symmetry_Int_Tables_number   1
_chemical_formula_structural   SnAsF7
_chemical_formula_sum   'Sn3 As3 F21'
_cell_volume   433.14399378
_cell_formula_units_Z   3
loop_
 _symmetry_equiv_pos_site_id
 _symmetry_equiv_pos_as_xyz
  1  'x, y, z'
loop_
 _atom_site_type_symbol
 _atom_site_label
 _atom_site_symmetry_multiplicity
 _atom_site_fract_x
 _atom_site_fract_y
 _atom_site_fract_z
 _atom_site_occupancy
  Sn  Sn0  1  0.50000000  0.24150700  0.75849300  1
  Sn  Sn1  1  0.75849300  0.50000000  0.24150700  1
  Sn  Sn2  1  0.24150700  0.75849300  0.50000000  1
  As  As3  1  0.70093300  0.70093300  0.70093300  1
  As  As4  1  0.29906700  0.29906700  0.29906700  1
  As  As5  1  0.00000000  0.00000000  0.00000000  1
  F  F6  1  0.32074800  0.50000000  0.67925200  1
  F  F7  1  0.67925200  0.32074800  0.50000000  1
  F  F8  1  0.50000000  0.67925200  0.32074800  1
  F  F9  1  0.79842700  0.63602100  0.48646400  1
  F  F10  1  0.48646400  0.79842700  0.63602100  1
  F  F11  1  0.63602100  0.48646400  0.79842700  1
  F  F12  1  0.15001300  0.14895500  0.88103800  1
  F  F13  1  0.14895500  0.88103800  0.15001300  1
  F  F14  1  0.88103800  0.15001300  0.14895500  1
  F  F15  1  0.85104500  0.84998700  0.11896200  1
  F  F16  1  0.84998700  0.11896200  0.85104500  1
  F  F17  1  0.11896200  0.85104500  0.84998700  1
  F  F18  1  0.23911300  0.39721100  0.08635900  1
  F  F19  1  0.39721100  0.08635900  0.23911300  1
  F  F20  1  0.08635900  0.23911300  0.39721100  1
  F  F21  1  0.60278900  0.76088700  0.91364100  1
  F  F22  1  0.76088700  0.91364100  0.60278900  1
  F  F23  1  0.91364100  0.60278900  0.76088700  1
  F  F24  1  0.51353600  0.36397900  0.20157300  1
  F  F25  1  0.36397900  0.20157300  0.51353600  1
  F  F26  1  0.20157300  0.51353600  0.36397900  1
