# generated using pymatgen
data_V4O9
_symmetry_space_group_name_H-M   'P 1'
_cell_length_a   3.70357100
_cell_length_b   9.55549100
_cell_length_c   18.19565100
_cell_angle_alpha   90.00000000
_cell_angle_beta   90.00000000
_cell_angle_gamma   90.00000000
_symmetry_Int_Tables_number   1
_chemical_formula_structural   V4O9
_chemical_formula_sum   'V16 O36'
_cell_volume   643.93388765
_cell_formula_units_Z   4
loop_
 _symmetry_equiv_pos_site_id
 _symmetry_equiv_pos_as_xyz
  1  'x, y, z'
loop_
 _atom_site_type_symbol
 _atom_site_label
 _atom_site_symmetry_multiplicity
 _atom_site_fract_x
 _atom_site_fract_y
 _atom_site_fract_z
 _atom_site_occupancy
  V  V0  1  0.75000000  0.03604600  0.42201000  1
  V  V1  1  0.25000000  0.96395400  0.57799000  1
  V  V2  1  0.75000000  0.46395400  0.92201000  1
  V  V3  1  0.25000000  0.53604600  0.07799000  1
  V  V4  1  0.25000000  0.27038500  0.49024000  1
  V  V5  1  0.75000000  0.77038500  0.00976000  1
  V  V6  1  0.25000000  0.22961500  0.99024000  1
  V  V7  1  0.75000000  0.72961500  0.50976000  1
  V  V8  1  0.25000000  0.45390200  0.31710100  1
  V  V9  1  0.25000000  0.04609800  0.81710100  1
  V  V10  1  0.75000000  0.95390200  0.18289900  1
  V  V11  1  0.75000000  0.54609800  0.68289900  1
  V  V12  1  0.25000000  0.20339900  0.16766400  1
  V  V13  1  0.25000000  0.29660100  0.66766400  1
  V  V14  1  0.75000000  0.79660100  0.83233600  1
  V  V15  1  0.75000000  0.70339900  0.33233600  1
  O  O16  1  0.25000000  0.44754300  0.95073900  1
  O  O17  1  0.25000000  0.05245700  0.45073900  1
  O  O18  1  0.75000000  0.55245700  0.04926100  1
  O  O19  1  0.75000000  0.94754300  0.54926100  1
  O  O20  1  0.25000000  0.64919900  0.34476400  1
  O  O21  1  0.75000000  0.35080100  0.65523600  1
  O  O22  1  0.25000000  0.85080100  0.84476400  1
  O  O23  1  0.75000000  0.14919900  0.15523600  1
  O  O24  1  0.25000000  0.15610600  0.58482200  1
  O  O25  1  0.25000000  0.34389400  0.08482200  1
  O  O26  1  0.75000000  0.84389400  0.41517800  1
  O  O27  1  0.75000000  0.65610600  0.91517800  1
  O  O28  1  0.75000000  0.81683900  0.26008500  1
  O  O29  1  0.25000000  0.31683900  0.23991500  1
  O  O30  1  0.25000000  0.18316100  0.73991500  1
  O  O31  1  0.75000000  0.68316100  0.76008500  1
  O  O32  1  0.25000000  0.58307000  0.16325700  1
  O  O33  1  0.75000000  0.41693000  0.83674300  1
  O  O34  1  0.25000000  0.91693000  0.66325700  1
  O  O35  1  0.75000000  0.08307000  0.33674300  1
  O  O36  1  0.25000000  0.35301600  0.39643000  1
  O  O37  1  0.75000000  0.85301600  0.10357000  1
  O  O38  1  0.25000000  0.14698400  0.89643000  1
  O  O39  1  0.75000000  0.64698400  0.60357000  1
  O  O40  1  0.25000000  0.72249100  0.02289400  1
  O  O41  1  0.75000000  0.27750900  0.97710600  1
  O  O42  1  0.25000000  0.77750900  0.52289400  1
  O  O43  1  0.75000000  0.22249100  0.47710600  1
  O  O44  1  0.75000000  0.90654100  0.95525400  1
  O  O45  1  0.75000000  0.59345900  0.45525400  1
  O  O46  1  0.25000000  0.40654100  0.54474600  1
  O  O47  1  0.25000000  0.09345900  0.04474600  1
  O  O48  1  0.75000000  0.50868200  0.29794100  1
  O  O49  1  0.75000000  0.99131800  0.79794100  1
  O  O50  1  0.25000000  0.00868200  0.20205900  1
  O  O51  1  0.25000000  0.49131800  0.70205900  1
