# generated using pymatgen
data_P2Pd15
_symmetry_space_group_name_H-M   'P 1'
_cell_length_a   7.13851203
_cell_length_b   7.13851203
_cell_length_c   7.13851214
_cell_angle_alpha   60.81142813
_cell_angle_beta   60.81142813
_cell_angle_gamma   60.81142561
_symmetry_Int_Tables_number   1
_chemical_formula_structural   P2Pd15
_chemical_formula_sum   'P2 Pd15'
_cell_volume   261.92927898
_cell_formula_units_Z   1
loop_
 _symmetry_equiv_pos_site_id
 _symmetry_equiv_pos_as_xyz
  1  'x, y, z'
loop_
 _atom_site_type_symbol
 _atom_site_label
 _atom_site_symmetry_multiplicity
 _atom_site_fract_x
 _atom_site_fract_y
 _atom_site_fract_z
 _atom_site_occupancy
  P  P0  1  0.71431700  0.71431700  0.71431700  1
  P  P1  1  0.28568300  0.28568300  0.28568300  1
  Pd  Pd2  1  0.63467300  0.15354400  0.32038400  1
  Pd  Pd3  1  0.32038400  0.63467300  0.15354400  1
  Pd  Pd4  1  0.15354400  0.32038400  0.63467300  1
  Pd  Pd5  1  0.36532700  0.84645600  0.67961600  1
  Pd  Pd6  1  0.67961600  0.36532700  0.84645600  1
  Pd  Pd7  1  0.84645600  0.67961600  0.36532700  1
  Pd  Pd8  1  0.94721800  0.22508800  0.44202100  1
  Pd  Pd9  1  0.44202100  0.94721800  0.22508800  1
  Pd  Pd10  1  0.22508800  0.44202100  0.94721800  1
  Pd  Pd11  1  0.05278200  0.77491200  0.55797900  1
  Pd  Pd12  1  0.55797900  0.05278200  0.77491200  1
  Pd  Pd13  1  0.77491200  0.55797900  0.05278200  1
  Pd  Pd14  1  0.92057300  0.92057300  0.92057300  1
  Pd  Pd15  1  0.07942700  0.07942700  0.07942700  1
  Pd  Pd16  1  0.50000000  0.50000000  0.50000000  1
