# generated using pymatgen
data_Ba2Ni3F10
_symmetry_space_group_name_H-M   'P 1'
_cell_length_a   9.85645012
_cell_length_b   9.85645012
_cell_length_c   7.94789777
_cell_angle_alpha   69.29966546
_cell_angle_beta   69.29966546
_cell_angle_gamma   35.61463435
_symmetry_Int_Tables_number   1
_chemical_formula_structural   Ba2Ni3F10
_chemical_formula_sum   'Ba4 Ni6 F20'
_cell_volume   417.50049168
_cell_formula_units_Z   2
loop_
 _symmetry_equiv_pos_site_id
 _symmetry_equiv_pos_as_xyz
  1  'x, y, z'
loop_
 _atom_site_type_symbol
 _atom_site_label
 _atom_site_symmetry_multiplicity
 _atom_site_fract_x
 _atom_site_fract_y
 _atom_site_fract_z
 _atom_site_occupancy
  Ba  Ba0  1  0.78309100  0.78309100  0.81329000  1
  Ba  Ba1  1  0.21690900  0.21690900  0.18671000  1
  Ba  Ba2  1  0.88537700  0.88537700  0.22093600  1
  Ba  Ba3  1  0.11462300  0.11462300  0.77906400  1
  Ni  Ni4  1  0.75320200  0.24679800  0.50000000  1
  Ni  Ni5  1  0.24679800  0.75320200  0.50000000  1
  Ni  Ni6  1  0.67736400  0.67736400  0.48312400  1
  Ni  Ni7  1  0.32263600  0.32263600  0.51687600  1
  Ni  Ni8  1  0.57455000  0.57455000  0.04058800  1
  Ni  Ni9  1  0.42545000  0.42545000  0.95941200  1
  F  F10  1  0.50000000  0.00000000  0.50000000  1
  F  F11  1  0.00000000  0.50000000  0.50000000  1
  F  F12  1  0.27460800  0.72539200  0.00000000  1
  F  F13  1  0.72539200  0.27460800  0.00000000  1
  F  F14  1  0.73671800  0.73671800  0.21953900  1
  F  F15  1  0.26328200  0.26328200  0.78046100  1
  F  F16  1  0.98258100  0.98258100  0.68181900  1
  F  F17  1  0.01741900  0.01741900  0.31818100  1
  F  F18  1  0.63409100  0.63409100  0.75677500  1
  F  F19  1  0.36590900  0.36590900  0.24322500  1
  F  F20  1  0.87059700  0.35282600  0.47329000  1
  F  F21  1  0.64717400  0.12940300  0.52671000  1
  F  F22  1  0.12940300  0.64717400  0.52671000  1
  F  F23  1  0.35282600  0.87059700  0.47329000  1
  F  F24  1  0.11163300  0.58884600  0.97571700  1
  F  F25  1  0.41115400  0.88836700  0.02428300  1
  F  F26  1  0.88836700  0.41115400  0.02428300  1
  F  F27  1  0.58884600  0.11163300  0.97571700  1
  F  F28  1  0.47876600  0.47876600  0.68399200  1
  F  F29  1  0.52123400  0.52123400  0.31600800  1
