# generated using pymatgen
data_BH7N2
_symmetry_space_group_name_H-M   'P 1'
_cell_length_a   5.19486800
_cell_length_b   9.68516400
_cell_length_c   12.73873500
_cell_angle_alpha   90.00000000
_cell_angle_beta   90.00000000
_cell_angle_gamma   90.00000000
_symmetry_Int_Tables_number   1
_chemical_formula_structural   BH7N2
_chemical_formula_sum   'B8 H56 N16'
_cell_volume   640.92586625
_cell_formula_units_Z   8
loop_
 _symmetry_equiv_pos_site_id
 _symmetry_equiv_pos_as_xyz
  1  'x, y, z'
loop_
 _atom_site_type_symbol
 _atom_site_label
 _atom_site_symmetry_multiplicity
 _atom_site_fract_x
 _atom_site_fract_y
 _atom_site_fract_z
 _atom_site_occupancy
  B  B0  1  0.64373100  0.39671600  0.89263900  1
  B  B1  1  0.64373100  0.10328400  0.10736100  1
  B  B2  1  0.85626900  0.89671600  0.60736100  1
  B  B3  1  0.85626900  0.60328400  0.39263900  1
  B  B4  1  0.35626900  0.60328400  0.10736100  1
  B  B5  1  0.35626900  0.89671600  0.89263900  1
  B  B6  1  0.14373100  0.10328400  0.39263900  1
  B  B7  1  0.14373100  0.39671600  0.60736100  1
  H  H8  1  0.35613700  0.72153200  0.65708900  1
  H  H9  1  0.35613700  0.77846800  0.34291100  1
  H  H10  1  0.14386300  0.22153200  0.84291100  1
  H  H11  1  0.14386300  0.27846800  0.15708900  1
  H  H12  1  0.64386300  0.27846800  0.34291100  1
  H  H13  1  0.64386300  0.22153200  0.65708900  1
  H  H14  1  0.85613700  0.77846800  0.15708900  1
  H  H15  1  0.85613700  0.72153200  0.84291100  1
  H  H16  1  0.48807500  0.59009300  0.59472100  1
  H  H17  1  0.48807500  0.90990700  0.40527900  1
  H  H18  1  0.01192500  0.09009300  0.90527900  1
  H  H19  1  0.01192500  0.40990700  0.09472100  1
  H  H20  1  0.51192500  0.40990700  0.40527900  1
  H  H21  1  0.51192500  0.09009300  0.59472100  1
  H  H22  1  0.98807500  0.90990700  0.09472100  1
  H  H23  1  0.98807500  0.59009300  0.90527900  1
  H  H24  1  0.02071200  0.56888300  0.70912000  1
  H  H25  1  0.02071200  0.93111700  0.29088000  1
  H  H26  1  0.47928800  0.06888300  0.79088000  1
  H  H27  1  0.03043300  0.60890700  0.58043200  1
  H  H28  1  0.47928800  0.43111700  0.20912000  1
  H  H29  1  0.97928800  0.06888300  0.70912000  1
  H  H30  1  0.52071200  0.93111700  0.20912000  1
  H  H31  1  0.52071200  0.56888300  0.79088000  1
  H  H32  1  0.73696400  0.33290200  0.81975900  1
  H  H33  1  0.73696400  0.16709800  0.18024100  1
  H  H34  1  0.76303600  0.83290200  0.68024100  1
  H  H35  1  0.76303600  0.66709800  0.31975900  1
  H  H36  1  0.26303600  0.66709800  0.18024100  1
  H  H37  1  0.26303600  0.83290200  0.81975900  1
  H  H38  1  0.23696400  0.16709800  0.31975900  1
  H  H39  1  0.23696400  0.33290200  0.68024100  1
  H  H40  1  0.78175900  0.39032200  0.97064000  1
  H  H41  1  0.78175900  0.10967800  0.02936000  1
  H  H42  1  0.71824100  0.89032200  0.52936000  1
  H  H43  1  0.71824100  0.60967800  0.47064000  1
  H  H44  1  0.21824100  0.60967800  0.02936000  1
  H  H45  1  0.21824100  0.89032200  0.97064000  1
  H  H46  1  0.28175900  0.10967800  0.47064000  1
  H  H47  1  0.28175900  0.39032200  0.52936000  1
  H  H48  1  0.42409000  0.35864800  0.91254600  1
  H  H49  1  0.42409000  0.14135200  0.08745400  1
  H  H50  1  0.07591000  0.85864800  0.58745400  1
  H  H51  1  0.07591000  0.64135200  0.41254600  1
  H  H52  1  0.57591000  0.64135200  0.08745400  1
  H  H53  1  0.57591000  0.85864800  0.91254600  1
  H  H54  1  0.92409000  0.14135200  0.41254600  1
  H  H55  1  0.92409000  0.35864800  0.58745400  1
  H  H56  1  0.53043300  0.60890700  0.91956800  1
  H  H57  1  0.53043300  0.89109300  0.08043200  1
  H  H58  1  0.96956700  0.10890700  0.58043200  1
  H  H59  1  0.96956700  0.39109300  0.41956800  1
  H  H60  1  0.46956700  0.39109300  0.08043200  1
  H  H61  1  0.46956700  0.10890700  0.91956800  1
  H  H62  1  0.03043300  0.89109300  0.41956800  1
  H  H63  1  0.97928800  0.43111700  0.29088000  1
  N  N64  1  0.12476700  0.55519700  0.63905500  1
  N  N65  1  0.12476700  0.94480300  0.36094500  1
  N  N66  1  0.37523300  0.05519700  0.86094500  1
  N  N67  1  0.37523300  0.44480300  0.13905500  1
  N  N68  1  0.87523300  0.44480300  0.36094500  1
  N  N69  1  0.87523300  0.05519700  0.63905500  1
  N  N70  1  0.62476700  0.94480300  0.13905500  1
  N  N71  1  0.62476700  0.55519700  0.86094500  1
  N  N72  1  0.87592100  0.61597900  0.84183700  1
  N  N73  1  0.87592100  0.88402100  0.15816300  1
  N  N74  1  0.62407900  0.11597900  0.65816300  1
  N  N75  1  0.62407900  0.38402100  0.34183700  1
  N  N76  1  0.12407900  0.38402100  0.15816300  1
  N  N77  1  0.12407900  0.11597900  0.84183700  1
  N  N78  1  0.37592100  0.88402100  0.34183700  1
  N  N79  1  0.37592100  0.61597900  0.65816300  1
