# generated using pymatgen
data_K2Cr3O10
_symmetry_space_group_name_H-M   'P 1'
_cell_length_a   18.24806100
_cell_length_b   7.65577400
_cell_length_c   9.83858696
_cell_angle_alpha   50.07692679
_cell_angle_beta   90.00000000
_cell_angle_gamma   90.00000000
_symmetry_Int_Tables_number   1
_chemical_formula_structural   K2Cr3O10
_chemical_formula_sum   'K8 Cr12 O40'
_cell_volume   1054.09834570
_cell_formula_units_Z   4
loop_
 _symmetry_equiv_pos_site_id
 _symmetry_equiv_pos_as_xyz
  1  'x, y, z'
loop_
 _atom_site_type_symbol
 _atom_site_label
 _atom_site_symmetry_multiplicity
 _atom_site_fract_x
 _atom_site_fract_y
 _atom_site_fract_z
 _atom_site_occupancy
  K  K0  1  0.19634300  0.90994900  0.56386000  1
  K  K1  1  0.69634300  0.09005100  0.93614000  1
  K  K2  1  0.80365700  0.09005100  0.43614000  1
  K  K3  1  0.30365700  0.90994900  0.06386000  1
  K  K4  1  0.40928900  0.50523600  0.62835800  1
  K  K5  1  0.90928900  0.49476400  0.87164200  1
  K  K6  1  0.59071100  0.49476400  0.37164200  1
  K  K7  1  0.09071100  0.50523600  0.12835800  1
  Cr  Cr8  1  0.72047700  0.58077400  0.96241600  1
  Cr  Cr9  1  0.22047700  0.41922600  0.53758400  1
  Cr  Cr10  1  0.27952300  0.41922600  0.03758400  1
  Cr  Cr11  1  0.77952300  0.58077400  0.46241600  1
  Cr  Cr12  1  0.59079600  0.74526900  0.66844100  1
  Cr  Cr13  1  0.09079600  0.25473100  0.83155900  1
  Cr  Cr14  1  0.40920400  0.25473100  0.33155900  1
  Cr  Cr15  1  0.90920400  0.74526900  0.16844100  1
  Cr  Cr16  1  0.50346600  0.91885300  0.84313300  1
  Cr  Cr17  1  0.00346600  0.08114700  0.65686700  1
  Cr  Cr18  1  0.49653400  0.08114700  0.15686700  1
  Cr  Cr19  1  0.99653400  0.91885300  0.34313300  1
  O  O20  1  0.69010800  0.59640200  0.11030700  1
  O  O21  1  0.19010800  0.40359800  0.38969300  1
  O  O22  1  0.30989200  0.40359800  0.88969300  1
  O  O23  1  0.80989200  0.59640200  0.61030700  1
  O  O24  1  0.56876000  0.63581000  0.57857400  1
  O  O25  1  0.06876000  0.36419000  0.92142600  1
  O  O26  1  0.43124000  0.36419000  0.42142600  1
  O  O27  1  0.93124000  0.63581000  0.07857400  1
  O  O28  1  0.76435300  0.81278300  0.81008200  1
  O  O29  1  0.26435300  0.18721700  0.68991800  1
  O  O30  1  0.23564700  0.18721700  0.18991800  1
  O  O31  1  0.73564700  0.81278300  0.31008200  1
  O  O32  1  0.97525100  0.71341400  0.54811900  1
  O  O33  1  0.47525100  0.28658600  0.95188100  1
  O  O34  1  0.06301900  0.87450700  0.74708400  1
  O  O35  1  0.02474900  0.28658600  0.45188100  1
  O  O36  1  0.22606300  0.64061000  0.94513900  1
  O  O37  1  0.72606300  0.35939000  0.55486100  1
  O  O38  1  0.77393700  0.35939000  0.05486100  1
  O  O39  1  0.27393700  0.64061000  0.44513900  1
  O  O40  1  0.86252600  0.97463600  0.03211000  1
  O  O41  1  0.36252600  0.02536400  0.46789000  1
  O  O42  1  0.13747400  0.02536400  0.96789000  1
  O  O43  1  0.63747400  0.97463600  0.53211000  1
  O  O44  1  0.98966300  0.80750000  0.22393500  1
  O  O45  1  0.48966300  0.19250000  0.27606500  1
  O  O46  1  0.01033700  0.19250000  0.77606500  1
  O  O47  1  0.51033700  0.80750000  0.72393500  1
  O  O48  1  0.85479900  0.55154100  0.35530800  1
  O  O49  1  0.35479900  0.44845900  0.14469200  1
  O  O50  1  0.14520100  0.44845900  0.64469200  1
  O  O51  1  0.64520100  0.55154100  0.85530800  1
  O  O52  1  0.07925400  0.00884100  0.32897400  1
  O  O53  1  0.57925400  0.99115900  0.17102600  1
  O  O54  1  0.92074600  0.99115900  0.67102600  1
  O  O55  1  0.42074600  0.00884100  0.82897400  1
  O  O56  1  0.43698100  0.87450700  0.24708400  1
  O  O57  1  0.93698100  0.12549300  0.25291600  1
  O  O58  1  0.56301900  0.12549300  0.75291600  1
  O  O59  1  0.52474900  0.71341400  0.04811900  1
