# generated using pymatgen
data_TlSb3S5
_symmetry_space_group_name_H-M   'P 1'
_cell_length_a   15.95388900
_cell_length_b   7.47970200
_cell_length_c   9.19703356
_cell_angle_alpha   65.63857150
_cell_angle_beta   90.00000000
_cell_angle_gamma   90.00000000
_symmetry_Int_Tables_number   1
_chemical_formula_structural   TlSb3S5
_chemical_formula_sum   'Tl4 Sb12 S20'
_cell_volume   999.76673406
_cell_formula_units_Z   4
loop_
 _symmetry_equiv_pos_site_id
 _symmetry_equiv_pos_as_xyz
  1  'x, y, z'
loop_
 _atom_site_type_symbol
 _atom_site_label
 _atom_site_symmetry_multiplicity
 _atom_site_fract_x
 _atom_site_fract_y
 _atom_site_fract_z
 _atom_site_occupancy
  Tl  Tl0  1  0.73601700  0.02672500  0.46247900  1
  Tl  Tl1  1  0.23601700  0.97327500  0.03752100  1
  Tl  Tl2  1  0.26398300  0.97327500  0.53752100  1
  Tl  Tl3  1  0.76398300  0.02672500  0.96247900  1
  Sb  Sb4  1  0.86918700  0.49675900  0.06344500  1
  Sb  Sb5  1  0.36918700  0.50324100  0.43655500  1
  Sb  Sb6  1  0.13081300  0.50324100  0.93655500  1
  Sb  Sb7  1  0.63081300  0.49675900  0.56344500  1
  Sb  Sb8  1  0.50335200  0.99313000  0.21321400  1
  Sb  Sb9  1  0.00335200  0.00687000  0.28678600  1
  Sb  Sb10  1  0.49664800  0.00687000  0.78678600  1
  Sb  Sb11  1  0.99664800  0.99313000  0.71321400  1
  Sb  Sb12  1  0.59632500  0.53346200  0.11227800  1
  Sb  Sb13  1  0.09632500  0.46653800  0.38772200  1
  Sb  Sb14  1  0.40367500  0.46653800  0.88772200  1
  Sb  Sb15  1  0.90367500  0.53346200  0.61227800  1
  S  S16  1  0.72834200  0.32808500  0.11131100  1
  S  S17  1  0.22834200  0.67191500  0.38868900  1
  S  S18  1  0.27165800  0.67191500  0.88868900  1
  S  S19  1  0.77165800  0.32808500  0.61131100  1
  S  S20  1  0.87338400  0.78895100  0.34084300  1
  S  S21  1  0.37338400  0.21104900  0.15915700  1
  S  S22  1  0.12661600  0.21104900  0.65915700  1
  S  S23  1  0.62661600  0.78895100  0.84084300  1
  S  S24  1  0.55617100  0.25042200  0.49990900  1
  S  S25  1  0.05617100  0.74957800  0.00009100  1
  S  S26  1  0.44382900  0.74957800  0.50009100  1
  S  S27  1  0.94382900  0.25042200  0.99990900  1
  S  S28  1  0.94061400  0.22517800  0.39680400  1
  S  S29  1  0.44061400  0.77482200  0.10319600  1
  S  S30  1  0.05938600  0.77482200  0.60319600  1
  S  S31  1  0.55938600  0.22517800  0.89680400  1
  S  S32  1  0.84114100  0.70952900  0.76317400  1
  S  S33  1  0.34114100  0.29047100  0.73682600  1
  S  S34  1  0.15885900  0.29047100  0.23682600  1
  S  S35  1  0.65885900  0.70952900  0.26317400  1
