# generated using pymatgen
data_Te5(O2F11)2
_symmetry_space_group_name_H-M   'P 1'
_cell_length_a   12.57513677
_cell_length_b   12.57513677
_cell_length_c   12.57513677
_cell_angle_alpha   132.91858677
_cell_angle_beta   132.91858677
_cell_angle_gamma   68.78203134
_symmetry_Int_Tables_number   1
_chemical_formula_structural   Te5(O2F11)2
_chemical_formula_sum   'Te10 O8 F44'
_cell_volume   1047.06991078
_cell_formula_units_Z   2
loop_
 _symmetry_equiv_pos_site_id
 _symmetry_equiv_pos_as_xyz
  1  'x, y, z'
loop_
 _atom_site_type_symbol
 _atom_site_label
 _atom_site_symmetry_multiplicity
 _atom_site_fract_x
 _atom_site_fract_y
 _atom_site_fract_z
 _atom_site_occupancy
  Te  Te0  1  0.68371700  0.17742600  0.91839500  1
  Te  Te1  1  0.51532200  0.93371700  0.00629200  1
  Te  Te2  1  0.92742600  0.50903000  0.99370800  1
  Te  Te3  1  0.25903000  0.76532200  0.08160500  1
  Te  Te4  1  0.06628300  0.07257400  0.58160500  1
  Te  Te5  1  0.23467800  0.31628300  0.49370800  1
  Te  Te6  1  0.82257400  0.74097000  0.50629200  1
  Te  Te7  1  0.49097000  0.48467800  0.41839500  1
  Te  Te8  1  0.00000000  0.00000000  0.00000000  1
  Te  Te9  1  0.75000000  0.25000000  0.50000000  1
  O  O10  1  0.81720400  0.05784200  0.87206000  1
  O  O11  1  0.69514300  0.06720400  0.25936200  1
  O  O12  1  0.80784200  0.43578200  0.74063800  1
  O  O13  1  0.18578200  0.94514300  0.12794000  1
  O  O14  1  0.93279600  0.19215800  0.62794000  1
  O  O15  1  0.05485700  0.18279600  0.24063800  1
  O  O16  1  0.94215800  0.81421800  0.75936200  1
  O  O17  1  0.56421800  0.30485700  0.37206000  1
  F  F18  1  0.54738300  0.29027900  0.94764700  1
  F  F19  1  0.34973600  0.79738300  0.75710400  1
  F  F20  1  0.84062100  0.34062100  0.50000000  1
  F  F21  1  0.09062100  0.09062100  0.00000000  1
  F  F22  1  0.90937900  0.90937900  0.00000000  1
  F  F23  1  0.65937900  0.15937900  0.50000000  1
  F  F24  1  0.30225300  0.37173300  0.23392800  1
  F  F25  1  0.81832500  0.55225300  0.43052100  1
  F  F26  1  0.12173300  0.38780400  0.56947900  1
  F  F27  1  0.13780400  0.06832500  0.76607200  1
  F  F28  1  0.44774700  0.87826700  0.26607200  1
  F  F29  1  0.93167500  0.69774700  0.06947900  1
  F  F30  1  0.62826700  0.86219600  0.93052100  1
  F  F31  1  0.61219600  0.18167500  0.73392800  1
  F  F32  1  0.47826600  0.43893900  0.23380000  1
  F  F33  1  0.99446600  0.72826600  0.53932700  1
  F  F34  1  0.18893900  0.45513900  0.46067300  1
  F  F35  1  0.20513900  0.24446600  0.76620000  1
  F  F36  1  0.27173400  0.81106100  0.26620000  1
  F  F37  1  0.75553400  0.52173400  0.96067300  1
  F  F38  1  0.56106100  0.79486100  0.03932700  1
  F  F39  1  0.54486100  0.00553400  0.73380000  1
  F  F40  1  0.50190300  0.53386500  0.60386400  1
  F  F41  1  0.64803900  0.75190300  0.46803800  1
  F  F42  1  0.28386500  0.18000100  0.53196200  1
  F  F43  1  0.93000100  0.89803900  0.39613600  1
  F  F44  1  0.24809700  0.71613500  0.89613600  1
  F  F45  1  0.10196100  0.49809700  0.03196200  1
  F  F46  1  0.46613500  0.06999900  0.96803800  1
  F  F47  1  0.81999900  0.35196100  0.10386400  1
  F  F48  1  0.67899600  0.60010300  0.60363300  1
  F  F49  1  0.82536300  0.92899600  0.57889300  1
  F  F50  1  0.35010300  0.24647000  0.42110700  1
  F  F51  1  0.99647000  0.07536300  0.39636700  1
  F  F52  1  0.07100400  0.64989700  0.89636700  1
  F  F53  1  0.92463700  0.32100400  0.92110700  1
  F  F54  1  0.39989700  0.00353000  0.07889300  1
  F  F55  1  0.75353000  0.17463700  0.10363300  1
  F  F56  1  0.40736800  0.65026400  0.44764700  1
  F  F57  1  0.70972100  0.65736800  0.25710400  1
  F  F58  1  0.40026400  0.45261700  0.74289600  1
  F  F59  1  0.20261700  0.95972100  0.55235300  1
  F  F60  1  0.34263200  0.59973600  0.05235300  1
  F  F61  1  0.04027900  0.59263200  0.24289600  1
