# generated using pymatgen
data_LaBr
_symmetry_space_group_name_H-M   'P 1'
_cell_length_a   10.89886465
_cell_length_b   10.89886465
_cell_length_c   10.89886418
_cell_angle_alpha   21.85481574
_cell_angle_beta   21.85481574
_cell_angle_gamma   21.85481683
_symmetry_Int_Tables_number   1
_chemical_formula_structural   LaBr
_chemical_formula_sum   'La2 Br2'
_cell_volume   157.24963497
_cell_formula_units_Z   2
loop_
 _symmetry_equiv_pos_site_id
 _symmetry_equiv_pos_as_xyz
  1  'x, y, z'
loop_
 _atom_site_type_symbol
 _atom_site_label
 _atom_site_symmetry_multiplicity
 _atom_site_fract_x
 _atom_site_fract_y
 _atom_site_fract_z
 _atom_site_occupancy
  La  La0  1  0.88010700  0.88010700  0.88010700  1
  La  La1  1  0.11989300  0.11989300  0.11989300  1
  Br  Br2  1  0.60742600  0.60742600  0.60742600  1
  Br  Br3  1  0.39257400  0.39257400  0.39257400  1
