# generated using pymatgen
data_Ba2As
_symmetry_space_group_name_H-M   'P 1'
_cell_length_a   9.72430265
_cell_length_b   9.72430265
_cell_length_c   9.72430265
_cell_angle_alpha   149.55222606
_cell_angle_beta   149.55222606
_cell_angle_gamma   43.59908585
_symmetry_Int_Tables_number   1
_chemical_formula_structural   Ba2As
_chemical_formula_sum   'Ba4 As2'
_cell_volume   235.49045579
_cell_formula_units_Z   2
loop_
 _symmetry_equiv_pos_site_id
 _symmetry_equiv_pos_as_xyz
  1  'x, y, z'
loop_
 _atom_site_type_symbol
 _atom_site_label
 _atom_site_symmetry_multiplicity
 _atom_site_fract_x
 _atom_site_fract_y
 _atom_site_fract_z
 _atom_site_occupancy
  Ba  Ba0  1  0.31593200  0.31593200  0.00000000  1
  Ba  Ba1  1  0.68406800  0.68406800  0.00000000  1
  Ba  Ba2  1  0.00000000  0.50000000  0.50000000  1
  Ba  Ba3  1  0.50000000  0.00000000  0.50000000  1
  As  As4  1  0.13224900  0.13224900  0.00000000  1
  As  As5  1  0.86775100  0.86775100  0.00000000  1
