# generated using pymatgen
data_BiI
_symmetry_space_group_name_H-M   'P 1'
_cell_length_a   8.27490772
_cell_length_b   8.27490772
_cell_length_c   21.61785074
_cell_angle_alpha   83.66169841
_cell_angle_beta   83.66169841
_cell_angle_gamma   30.89479228
_symmetry_Int_Tables_number   1
_chemical_formula_structural   BiI
_chemical_formula_sum   'Bi8 I8'
_cell_volume   755.05866253
_cell_formula_units_Z   8
loop_
 _symmetry_equiv_pos_site_id
 _symmetry_equiv_pos_as_xyz
  1  'x, y, z'
loop_
 _atom_site_type_symbol
 _atom_site_label
 _atom_site_symmetry_multiplicity
 _atom_site_fract_x
 _atom_site_fract_y
 _atom_site_fract_z
 _atom_site_occupancy
  Bi  Bi0  1  0.25352400  0.25352400  0.38792800  1
  Bi  Bi1  1  0.74647600  0.74647600  0.61207200  1
  Bi  Bi2  1  0.00378300  0.00378300  0.88733000  1
  Bi  Bi3  1  0.99621700  0.99621700  0.11267000  1
  Bi  Bi4  1  0.69353400  0.69353400  0.75438400  1
  Bi  Bi5  1  0.30646600  0.30646600  0.24561600  1
  Bi  Bi6  1  0.06234400  0.06234400  0.74600000  1
  Bi  Bi7  1  0.93765600  0.93765600  0.25400000  1
  I  I8  1  0.37689000  0.37689000  0.63823800  1
  I  I9  1  0.62311000  0.62311000  0.36176200  1
  I  I10  1  0.12388000  0.12388000  0.56990100  1
  I  I11  1  0.87612000  0.87612000  0.43009900  1
  I  I12  1  0.37610800  0.37610800  0.85463500  1
  I  I13  1  0.62389200  0.62389200  0.14536500  1
  I  I14  1  0.62479400  0.62479400  0.93052100  1
  I  I15  1  0.37520600  0.37520600  0.06947900  1
