# generated using pymatgen
data_VH2O3
_symmetry_space_group_name_H-M   'P 1'
_cell_length_a   3.81532740
_cell_length_b   5.76549939
_cell_length_c   5.72317353
_cell_angle_alpha   65.15646042
_cell_angle_beta   70.52439072
_cell_angle_gamma   70.67405349
_symmetry_Int_Tables_number   1
_chemical_formula_structural   VH2O3
_chemical_formula_sum   'V2 H4 O6'
_cell_volume   104.99259373
_cell_formula_units_Z   2
loop_
 _symmetry_equiv_pos_site_id
 _symmetry_equiv_pos_as_xyz
  1  'x, y, z'
loop_
 _atom_site_type_symbol
 _atom_site_label
 _atom_site_symmetry_multiplicity
 _atom_site_fract_x
 _atom_site_fract_y
 _atom_site_fract_z
 _atom_site_occupancy
  V  V0  1  0.43564200  0.25001300  0.75000200  1
  V  V1  1  0.56435900  0.74998600  0.24999800  1
  H  H2  1  0.46985600  0.23413900  0.21383000  1
  H  H3  1  0.91789000  0.26581800  0.28614900  1
  H  H4  1  0.53014300  0.76586100  0.78617000  1
  H  H5  1  0.08211000  0.73418100  0.71385000  1
  O  O6  1  0.99235800  0.25001200  0.75004900  1
  O  O7  1  0.65030500  0.85327100  0.85093200  1
  O  O8  1  0.00764600  0.74998800  0.24995000  1
  O  O9  1  0.34969600  0.14672900  0.14906800  1
  O  O10  1  0.35446000  0.64675100  0.64905200  1
  O  O11  1  0.64554000  0.35325000  0.35094700  1
