# generated using pymatgen
data_Ag3O
_symmetry_space_group_name_H-M   'P 1'
_cell_length_a   5.40980067
_cell_length_b   5.40980067
_cell_length_c   5.04335700
_cell_angle_alpha   90.00000000
_cell_angle_beta   90.00000000
_cell_angle_gamma   120.00000816
_symmetry_Int_Tables_number   1
_chemical_formula_structural   Ag3O
_chemical_formula_sum   'Ag6 O2'
_cell_volume   127.82412648
_cell_formula_units_Z   2
loop_
 _symmetry_equiv_pos_site_id
 _symmetry_equiv_pos_as_xyz
  1  'x, y, z'
loop_
 _atom_site_type_symbol
 _atom_site_label
 _atom_site_symmetry_multiplicity
 _atom_site_fract_x
 _atom_site_fract_y
 _atom_site_fract_z
 _atom_site_occupancy
  Ag  Ag0  1  0.68924800  0.68924800  0.22166500  1
  Ag  Ag1  1  0.00000000  0.68924800  0.77833500  1
  Ag  Ag2  1  0.68924800  0.00000000  0.77833500  1
  Ag  Ag3  1  0.31075200  0.31075200  0.77833500  1
  Ag  Ag4  1  0.00000000  0.31075200  0.22166500  1
  Ag  Ag5  1  0.31075200  0.00000000  0.22166500  1
  O  O6  1  0.66666700  0.33333300  0.50000000  1
  O  O7  1  0.33333300  0.66666700  0.50000000  1
