# generated using pymatgen
data_CrBrO
_symmetry_space_group_name_H-M   'P 1'
_cell_length_a   3.35268400
_cell_length_b   3.94875600
_cell_length_c   8.86927000
_cell_angle_alpha   90.00000000
_cell_angle_beta   90.00000000
_cell_angle_gamma   90.00000000
_symmetry_Int_Tables_number   1
_chemical_formula_structural   CrBrO
_chemical_formula_sum   'Cr2 Br2 O2'
_cell_volume   117.41965409
_cell_formula_units_Z   2
loop_
 _symmetry_equiv_pos_site_id
 _symmetry_equiv_pos_as_xyz
  1  'x, y, z'
loop_
 _atom_site_type_symbol
 _atom_site_label
 _atom_site_symmetry_multiplicity
 _atom_site_fract_x
 _atom_site_fract_y
 _atom_site_fract_z
 _atom_site_occupancy
  Cr  Cr0  1  0.25000300  0.24999900  0.09453200  1
  Cr  Cr1  1  0.75000000  0.75000000  0.90546700  1
  Br  Br2  1  0.25000100  0.74999900  0.69431000  1
  Br  Br3  1  0.75000100  0.25000000  0.30569100  1
  O  O4  1  0.75000100  0.25000000  0.95432100  1
  O  O5  1  0.25000100  0.74999900  0.04567800  1
