# generated using pymatgen
data_BaTi5O11
_symmetry_space_group_name_H-M   'P 1'
_cell_length_a   14.24450500
_cell_length_b   7.62484100
_cell_length_c   10.04266134
_cell_angle_alpha   49.65296572
_cell_angle_beta   90.00000000
_cell_angle_gamma   90.00000000
_symmetry_Int_Tables_number   1
_chemical_formula_structural   BaTi5O11
_chemical_formula_sum   'Ba4 Ti20 O44'
_cell_volume   831.30441393
_cell_formula_units_Z   4
loop_
 _symmetry_equiv_pos_site_id
 _symmetry_equiv_pos_as_xyz
  1  'x, y, z'
loop_
 _atom_site_type_symbol
 _atom_site_label
 _atom_site_symmetry_multiplicity
 _atom_site_fract_x
 _atom_site_fract_y
 _atom_site_fract_z
 _atom_site_occupancy
  Ba  Ba0  1  0.58219200  0.03520700  0.26393200  1
  Ba  Ba1  1  0.08219200  0.96479300  0.23606800  1
  Ba  Ba2  1  0.41780800  0.96479300  0.73606800  1
  Ba  Ba3  1  0.91780800  0.03520700  0.76393200  1
  Ti  Ti4  1  0.49010200  0.47796900  0.26953500  1
  Ti  Ti5  1  0.99010200  0.52203100  0.23046500  1
  Ti  Ti6  1  0.50989800  0.52203100  0.73046500  1
  Ti  Ti7  1  0.00989800  0.47796900  0.76953500  1
  Ti  Ti8  1  0.83953900  0.70413000  0.55097500  1
  Ti  Ti9  1  0.33953900  0.29587000  0.94902500  1
  Ti  Ti10  1  0.16046100  0.29587000  0.44902500  1
  Ti  Ti11  1  0.66046100  0.70413000  0.05097500  1
  Ti  Ti12  1  0.82490100  0.49038100  0.92976700  1
  Ti  Ti13  1  0.32490100  0.50961900  0.57023300  1
  Ti  Ti14  1  0.17509900  0.50961900  0.07023300  1
  Ti  Ti15  1  0.67509900  0.49038100  0.42976700  1
  Ti  Ti16  1  0.83967100  0.97620000  0.15465300  1
  Ti  Ti17  1  0.33967100  0.02380000  0.34534700  1
  Ti  Ti18  1  0.16032900  0.02380000  0.84534700  1
  Ti  Ti19  1  0.66032900  0.97620000  0.65465300  1
  Ti  Ti20  1  0.82358000  0.23895000  0.30972300  1
  Ti  Ti21  1  0.32358000  0.76105000  0.19027700  1
  Ti  Ti22  1  0.17642000  0.76105000  0.69027700  1
  Ti  Ti23  1  0.67642000  0.23895000  0.80972300  1
  O  O24  1  0.92815700  0.78726700  0.17120700  1
  O  O25  1  0.42815700  0.21273300  0.32879300  1
  O  O26  1  0.07184300  0.21273300  0.82879300  1
  O  O27  1  0.57184300  0.78726700  0.67120700  1
  O  O28  1  0.89601600  0.98014200  0.33965300  1
  O  O29  1  0.39601600  0.01985800  0.16034700  1
  O  O30  1  0.10398400  0.01985800  0.66034700  1
  O  O31  1  0.60398400  0.98014200  0.83965300  1
  O  O32  1  0.90207500  0.49890400  0.08716600  1
  O  O33  1  0.40207500  0.50109600  0.41283400  1
  O  O34  1  0.09792500  0.50109600  0.91283400  1
  O  O35  1  0.59792500  0.49890400  0.58716600  1
  O  O36  1  0.91285200  0.24640100  0.97509500  1
  O  O37  1  0.41285200  0.75359900  0.52490500  1
  O  O38  1  0.08714800  0.75359900  0.02490500  1
  O  O39  1  0.58714800  0.24640100  0.47509500  1
  O  O40  1  0.90878800  0.70067000  0.72807300  1
  O  O41  1  0.92619000  0.49388300  0.60702100  1
  O  O42  1  0.07381000  0.50611700  0.39297900  1
  O  O43  1  0.57381000  0.49388300  0.10702100  1
  O  O44  1  0.91658900  0.28051600  0.41533400  1
  O  O45  1  0.41658900  0.71948400  0.08466600  1
  O  O46  1  0.08341100  0.71948400  0.58466600  1
  O  O47  1  0.58341100  0.28051600  0.91533400  1
  O  O48  1  0.74815800  0.98921600  0.00514700  1
  O  O49  1  0.24815800  0.01078400  0.49485300  1
  O  O50  1  0.25184200  0.01078400  0.99485300  1
  O  O51  1  0.75184200  0.98921600  0.50514700  1
  O  O52  1  0.74077600  0.73146900  0.87543500  1
  O  O53  1  0.24077600  0.26853100  0.62456500  1
  O  O54  1  0.25922400  0.26853100  0.12456500  1
  O  O55  1  0.75922400  0.73146900  0.37543500  1
  O  O56  1  0.75913600  0.47883200  0.75673700  1
  O  O57  1  0.25913600  0.52116800  0.74326300  1
  O  O58  1  0.24086400  0.52116800  0.24326300  1
  O  O59  1  0.74086400  0.47883200  0.25673700  1
  O  O60  1  0.73962700  0.23426500  0.62875300  1
  O  O61  1  0.23962700  0.76573500  0.87124700  1
  O  O62  1  0.26037300  0.76573500  0.37124700  1
  O  O63  1  0.76037300  0.23426500  0.12875300  1
  O  O64  1  0.59121200  0.70067000  0.22807300  1
  O  O65  1  0.09121200  0.29933000  0.27192700  1
  O  O66  1  0.40878800  0.29933000  0.77192700  1
  O  O67  1  0.42619000  0.50611700  0.89297900  1
