# generated using pymatgen
data_H3I3N2
_symmetry_space_group_name_H-M   'P 1'
_cell_length_a   7.73318900
_cell_length_b   6.32522000
_cell_length_c   7.39895662
_cell_angle_alpha   81.12033499
_cell_angle_beta   90.00000000
_cell_angle_gamma   90.00000000
_symmetry_Int_Tables_number   1
_chemical_formula_structural   H3I3N2
_chemical_formula_sum   'H6 I6 N4'
_cell_volume   357.57582795
_cell_formula_units_Z   2
loop_
 _symmetry_equiv_pos_site_id
 _symmetry_equiv_pos_as_xyz
  1  'x, y, z'
loop_
 _atom_site_type_symbol
 _atom_site_label
 _atom_site_symmetry_multiplicity
 _atom_site_fract_x
 _atom_site_fract_y
 _atom_site_fract_z
 _atom_site_occupancy
  H  H0  1  0.35781900  0.93667200  0.71079200  1
  H  H1  1  0.85781900  0.06332800  0.28920800  1
  H  H2  1  0.64218100  0.06332800  0.28920800  1
  H  H3  1  0.14218100  0.93667200  0.71079200  1
  H  H4  1  0.75000000  0.88534300  0.18911300  1
  H  H5  1  0.25000000  0.11465700  0.81088700  1
  I  I6  1  0.75000000  0.85122500  0.75299200  1
  I  I7  1  0.25000000  0.14877500  0.24700800  1
  I  I8  1  0.75000000  0.30314900  0.92435300  1
  I  I9  1  0.25000000  0.69685100  0.07564700  1
  I  I10  1  0.50000000  0.50000000  0.50000000  1
  I  I11  1  0.00000000  0.50000000  0.50000000  1
  N  N12  1  0.25000000  0.46229300  0.33027800  1
  N  N13  1  0.75000000  0.53770700  0.66972200  1
  N  N14  1  0.25000000  0.96019500  0.78549300  1
  N  N15  1  0.75000000  0.03980500  0.21450700  1
