# generated using pymatgen
data_P2W3O13
_symmetry_space_group_name_H-M   'P 1'
_cell_length_a   5.41311700
_cell_length_b   12.32293900
_cell_length_c   16.00259600
_cell_angle_alpha   90.00000000
_cell_angle_beta   90.00000000
_cell_angle_gamma   90.00000000
_symmetry_Int_Tables_number   1
_chemical_formula_structural   P2W3O13
_chemical_formula_sum   'P8 W12 O52'
_cell_volume   1067.46133696
_cell_formula_units_Z   4
loop_
 _symmetry_equiv_pos_site_id
 _symmetry_equiv_pos_as_xyz
  1  'x, y, z'
loop_
 _atom_site_type_symbol
 _atom_site_label
 _atom_site_symmetry_multiplicity
 _atom_site_fract_x
 _atom_site_fract_y
 _atom_site_fract_z
 _atom_site_occupancy
  P  P0  1  0.25000000  0.69848700  0.06077400  1
  P  P1  1  0.75000000  0.30151300  0.93922600  1
  P  P2  1  0.25000000  0.19848700  0.43922600  1
  P  P3  1  0.75000000  0.80151300  0.56077400  1
  P  P4  1  0.75000000  0.51324100  0.84278500  1
  P  P5  1  0.25000000  0.48675900  0.15721500  1
  P  P6  1  0.75000000  0.01324100  0.65721500  1
  P  P7  1  0.25000000  0.98675900  0.34278500  1
  W  W8  1  0.25000000  0.63245200  0.60483800  1
  W  W9  1  0.75000000  0.86754800  0.10483800  1
  W  W10  1  0.25000000  0.13245200  0.89516200  1
  W  W11  1  0.75000000  0.36754800  0.39516200  1
  W  W12  1  0.25000000  0.58857300  0.36618800  1
  W  W13  1  0.75000000  0.41142700  0.63381200  1
  W  W14  1  0.25000000  0.08857300  0.13381200  1
  W  W15  1  0.75000000  0.91142700  0.86618800  1
  W  W16  1  0.75000000  0.80429500  0.33958700  1
  W  W17  1  0.25000000  0.19570500  0.66041300  1
  W  W18  1  0.75000000  0.30429500  0.16041300  1
  W  W19  1  0.25000000  0.69570500  0.83958700  1
  O  O20  1  0.75000000  0.95137400  0.73942000  1
  O  O21  1  0.25000000  0.04862600  0.26058000  1
  O  O22  1  0.75000000  0.45137400  0.76058000  1
  O  O23  1  0.25000000  0.54862600  0.23942000  1
  O  O24  1  0.25000000  0.66989900  0.72658000  1
  O  O25  1  0.75000000  0.33010100  0.27342000  1
  O  O26  1  0.25000000  0.16989900  0.77342000  1
  O  O27  1  0.75000000  0.83010100  0.22658000  1
  O  O28  1  0.50133800  0.31069200  0.66007200  1
  O  O29  1  0.00133800  0.68930800  0.33992800  1
  O  O30  1  0.99866200  0.81069200  0.83992800  1
  O  O31  1  0.49866200  0.18930800  0.16007200  1
  O  O32  1  0.49866200  0.68930800  0.33992800  1
  O  O33  1  0.99866200  0.31069200  0.66007200  1
  O  O34  1  0.00133800  0.18930800  0.16007200  1
  O  O35  1  0.50133800  0.81069200  0.83992800  1
  O  O36  1  0.51492700  0.07763000  0.64305600  1
  O  O37  1  0.48507300  0.92237000  0.35694400  1
  O  O38  1  0.98507300  0.57763000  0.85694400  1
  O  O39  1  0.48507300  0.42237000  0.14305600  1
  O  O40  1  0.75000000  0.87787100  0.98018400  1
  O  O41  1  0.25000000  0.12212900  0.01981600  1
  O  O42  1  0.75000000  0.37787100  0.51981600  1
  O  O43  1  0.25000000  0.62212900  0.48018400  1
  O  O44  1  0.25000000  0.70581500  0.96594100  1
  O  O45  1  0.75000000  0.29418500  0.03405900  1
  O  O46  1  0.25000000  0.20581500  0.53405900  1
  O  O47  1  0.75000000  0.79418500  0.46594100  1
  O  O48  1  0.25000000  0.57238300  0.08098100  1
  O  O49  1  0.75000000  0.42761700  0.91901900  1
  O  O50  1  0.25000000  0.07238300  0.41901900  1
  O  O51  1  0.75000000  0.92761700  0.58098100  1
  O  O52  1  0.48654500  0.74607700  0.09758500  1
  O  O53  1  0.98654500  0.25392300  0.90241500  1
  O  O54  1  0.01345500  0.24607700  0.40241500  1
  O  O55  1  0.51345500  0.75392300  0.59758500  1
  O  O56  1  0.51345500  0.25392300  0.90241500  1
  O  O57  1  0.01345500  0.74607700  0.09758500  1
  O  O58  1  0.98654500  0.75392300  0.59758500  1
  O  O59  1  0.48654500  0.24607700  0.40241500  1
  O  O60  1  0.49877100  0.97402600  0.11804700  1
  O  O61  1  0.99877100  0.02597400  0.88195300  1
  O  O62  1  0.00122900  0.47402600  0.38195300  1
  O  O63  1  0.50122900  0.52597400  0.61804700  1
  O  O64  1  0.50122900  0.02597400  0.88195300  1
  O  O65  1  0.00122900  0.97402600  0.11804700  1
  O  O66  1  0.99877100  0.52597400  0.61804700  1
  O  O67  1  0.49877100  0.47402600  0.38195300  1
  O  O68  1  0.51492700  0.57763000  0.85694400  1
  O  O69  1  0.01492700  0.42237000  0.14305600  1
  O  O70  1  0.98507300  0.07763000  0.64305600  1
  O  O71  1  0.01492700  0.92237000  0.35694400  1
