# generated using pymatgen
data_W3Br8
_symmetry_space_group_name_H-M   'P 1'
_cell_length_a   10.00514546
_cell_length_b   10.00514546
_cell_length_c   14.81694700
_cell_angle_alpha   90.00000000
_cell_angle_beta   90.00000000
_cell_angle_gamma   100.47497451
_symmetry_Int_Tables_number   1
_chemical_formula_structural   W3Br8
_chemical_formula_sum   'W12 Br32'
_cell_volume   1458.50115721
_cell_formula_units_Z   4
loop_
 _symmetry_equiv_pos_site_id
 _symmetry_equiv_pos_as_xyz
  1  'x, y, z'
loop_
 _atom_site_type_symbol
 _atom_site_label
 _atom_site_symmetry_multiplicity
 _atom_site_fract_x
 _atom_site_fract_y
 _atom_site_fract_z
 _atom_site_occupancy
  W  W0  1  0.56940100  0.43059900  0.38741100  1
  W  W1  1  0.93059900  0.06940100  0.88741100  1
  W  W2  1  0.43059900  0.56940100  0.61258900  1
  W  W3  1  0.06940100  0.93059900  0.11258900  1
  W  W4  1  0.53130000  0.67463100  0.45143900  1
  W  W5  1  0.96870000  0.82536900  0.95143900  1
  W  W6  1  0.67463100  0.53130000  0.54856100  1
  W  W7  1  0.82536900  0.96870000  0.04856100  1
  W  W8  1  0.46870000  0.32536900  0.54856100  1
  W  W9  1  0.03130000  0.17463100  0.04856100  1
  W  W10  1  0.32536900  0.46870000  0.45143900  1
  W  W11  1  0.17463100  0.03130000  0.95143900  1
  Br  Br12  1  0.04324000  0.95676000  0.43194400  1
  Br  Br13  1  0.45676000  0.54324000  0.93194400  1
  Br  Br14  1  0.95676000  0.04324000  0.56805600  1
  Br  Br15  1  0.54324000  0.45676000  0.06805600  1
  Br  Br16  1  0.65900500  0.34099500  0.23930800  1
  Br  Br17  1  0.84099500  0.15900500  0.73930800  1
  Br  Br18  1  0.34099500  0.65900500  0.76069200  1
  Br  Br19  1  0.15900500  0.84099500  0.26069200  1
  Br  Br20  1  0.57689200  0.91229200  0.38404900  1
  Br  Br21  1  0.92310800  0.58770800  0.88404900  1
  Br  Br22  1  0.91229200  0.57689200  0.61595100  1
  Br  Br23  1  0.58770800  0.92310800  0.11595100  1
  Br  Br24  1  0.27300100  0.13421500  0.10860200  1
  Br  Br25  1  0.22699900  0.36578500  0.60860200  1
  Br  Br26  1  0.13421500  0.27300100  0.89139800  1
  Br  Br27  1  0.36578500  0.22699900  0.39139800  1
  Br  Br28  1  0.72699900  0.86578500  0.89139800  1
  Br  Br29  1  0.77300100  0.63421500  0.39139800  1
  Br  Br30  1  0.86578500  0.72699900  0.10860200  1
  Br  Br31  1  0.63421500  0.77300100  0.60860200  1
  Br  Br32  1  0.07459900  0.92540100  0.79508700  1
  Br  Br33  1  0.42540100  0.57459900  0.29508700  1
  Br  Br34  1  0.92540100  0.07459900  0.20491300  1
  Br  Br35  1  0.57459900  0.42540100  0.70491300  1
  Br  Br36  1  0.21004400  0.78995600  0.01367500  1
  Br  Br37  1  0.28995600  0.71004400  0.51367500  1
  Br  Br38  1  0.78995600  0.21004400  0.98632500  1
  Br  Br39  1  0.71004400  0.28995600  0.48632500  1
  Br  Br40  1  0.41229200  0.07689200  0.88404900  1
  Br  Br41  1  0.08770800  0.42310800  0.38404900  1
  Br  Br42  1  0.07689200  0.41229200  0.11595100  1
  Br  Br43  1  0.42310800  0.08770800  0.61595100  1
