# generated using pymatgen
data_In5Cl9
_symmetry_space_group_name_H-M   'P 1'
_cell_length_a   9.47732264
_cell_length_b   9.47732264
_cell_length_c   9.47732283
_cell_angle_alpha   82.57390209
_cell_angle_beta   82.57390209
_cell_angle_gamma   82.57390151
_symmetry_Int_Tables_number   1
_chemical_formula_structural   In5Cl9
_chemical_formula_sum   'In10 Cl18'
_cell_volume   831.52922241
_cell_formula_units_Z   2
loop_
 _symmetry_equiv_pos_site_id
 _symmetry_equiv_pos_as_xyz
  1  'x, y, z'
loop_
 _atom_site_type_symbol
 _atom_site_label
 _atom_site_symmetry_multiplicity
 _atom_site_fract_x
 _atom_site_fract_y
 _atom_site_fract_z
 _atom_site_occupancy
  In  In0  1  0.65172800  0.65172800  0.65172800  1
  In  In1  1  0.84827200  0.84827200  0.84827200  1
  In  In2  1  0.34827200  0.34827200  0.34827200  1
  In  In3  1  0.15172800  0.15172800  0.15172800  1
  In  In4  1  0.75000000  0.08011100  0.41988900  1
  In  In5  1  0.41988900  0.75000000  0.08011100  1
  In  In6  1  0.08011100  0.41988900  0.75000000  1
  In  In7  1  0.25000000  0.91988900  0.58011100  1
  In  In8  1  0.58011100  0.25000000  0.91988900  1
  In  In9  1  0.91988900  0.58011100  0.25000000  1
  Cl  Cl10  1  0.08406100  0.92014000  0.27127700  1
  Cl  Cl11  1  0.27127700  0.08406100  0.92014000  1
  Cl  Cl12  1  0.92014000  0.27127700  0.08406100  1
  Cl  Cl13  1  0.41593900  0.22872300  0.57986000  1
  Cl  Cl14  1  0.57986000  0.41593900  0.22872300  1
  Cl  Cl15  1  0.22872300  0.57986000  0.41593900  1
  Cl  Cl16  1  0.91593900  0.07986000  0.72872300  1
  Cl  Cl17  1  0.72872300  0.91593900  0.07986000  1
  Cl  Cl18  1  0.07986000  0.72872300  0.91593900  1
  Cl  Cl19  1  0.58406100  0.77127700  0.42014000  1
  Cl  Cl20  1  0.90693100  0.75000000  0.59306900  1
  Cl  Cl21  1  0.75000000  0.59306900  0.90693100  1
  Cl  Cl22  1  0.59306900  0.90693100  0.75000000  1
  Cl  Cl23  1  0.09306900  0.25000000  0.40693100  1
  Cl  Cl24  1  0.25000000  0.40693100  0.09306900  1
  Cl  Cl25  1  0.40693100  0.09306900  0.25000000  1
  Cl  Cl26  1  0.77127700  0.42014000  0.58406100  1
  Cl  Cl27  1  0.42014000  0.58406100  0.77127700  1
