# generated using pymatgen
data_CI4
_symmetry_space_group_name_H-M   'P 1'
_cell_length_a   6.81991073
_cell_length_b   6.81991073
_cell_length_c   6.81991073
_cell_angle_alpha   121.27612385
_cell_angle_beta   121.27612385
_cell_angle_gamma   87.80354414
_symmetry_Int_Tables_number   1
_chemical_formula_structural   CI4
_chemical_formula_sum   'C1 I4'
_cell_volume   219.79398968
_cell_formula_units_Z   1
loop_
 _symmetry_equiv_pos_site_id
 _symmetry_equiv_pos_as_xyz
  1  'x, y, z'
loop_
 _atom_site_type_symbol
 _atom_site_label
 _atom_site_symmetry_multiplicity
 _atom_site_fract_x
 _atom_site_fract_y
 _atom_site_fract_z
 _atom_site_occupancy
  C  C0  1  0.00000000  0.00000000  0.00000000  1
  I  I1  1  0.31683800  0.31683800  0.37527600  1
  I  I2  1  0.68316200  0.05843800  0.00000000  1
  I  I3  1  0.05843800  0.68316200  0.00000000  1
  I  I4  1  0.94156200  0.94156200  0.62472400  1
