# generated using pymatgen
data_P2W5O19
_symmetry_space_group_name_H-M   'P 1'
_cell_length_a   5.40535400
_cell_length_b   6.73341700
_cell_length_c   21.06946051
_cell_angle_alpha   83.90447874
_cell_angle_beta   90.00000000
_cell_angle_gamma   90.00000000
_symmetry_Int_Tables_number   1
_chemical_formula_structural   P2W5O19
_chemical_formula_sum   'P4 W10 O38'
_cell_volume   762.51906610
_cell_formula_units_Z   2
loop_
 _symmetry_equiv_pos_site_id
 _symmetry_equiv_pos_as_xyz
  1  'x, y, z'
loop_
 _atom_site_type_symbol
 _atom_site_label
 _atom_site_symmetry_multiplicity
 _atom_site_fract_x
 _atom_site_fract_y
 _atom_site_fract_z
 _atom_site_occupancy
  P  P0  1  0.26260000  0.25071400  0.83980100  1
  P  P1  1  0.76260000  0.74928600  0.16019900  1
  P  P2  1  0.24415500  0.21415400  0.26527100  1
  P  P3  1  0.74415500  0.78584600  0.73472900  1
  W  W4  1  0.25910200  0.85185800  0.96039000  1
  W  W5  1  0.75910200  0.14814200  0.03961000  1
  W  W6  1  0.24866000  0.10563700  0.68452400  1
  W  W7  1  0.74866000  0.89436300  0.31547600  1
  W  W8  1  0.24864300  0.82078800  0.53562200  1
  W  W9  1  0.74864300  0.17921200  0.46437800  1
  W  W10  1  0.24706000  0.53187700  0.38816800  1
  W  W11  1  0.74706000  0.46812300  0.61183200  1
  W  W12  1  0.25637200  0.46623600  0.10941500  1
  W  W13  1  0.75637200  0.53376400  0.89058500  1
  O  O14  1  0.00983600  0.01124200  0.00321500  1
  O  O15  1  0.50983600  0.98875800  0.99678500  1
  O  O16  1  0.24934400  0.96813400  0.61316500  1
  O  O17  1  0.74934400  0.03186600  0.38683500  1
  O  O18  1  0.24344600  0.21772600  0.76889800  1
  O  O19  1  0.74344600  0.78227400  0.23110200  1
  O  O20  1  0.25671800  0.04811500  0.87984700  1
  O  O21  1  0.75671800  0.95188500  0.12015300  1
  O  O22  1  0.01418500  0.01187900  0.49756600  1
  O  O23  1  0.51418500  0.98812100  0.50243400  1
  O  O24  1  0.01123200  0.72613100  0.34285500  1
  O  O25  1  0.51123200  0.27386900  0.65714500  1
  O  O26  1  0.51318900  0.70557000  0.34733700  1
  O  O27  1  0.01318900  0.29443000  0.65266300  1
  O  O28  1  0.75527200  0.35626500  0.96362700  1
  O  O29  1  0.25527200  0.64373500  0.03637300  1
  O  O30  1  0.76449800  0.69554300  0.80474800  1
  O  O31  1  0.26449800  0.30445700  0.19525200  1
  O  O32  1  0.74801600  0.61491200  0.69175500  1
  O  O33  1  0.24801600  0.38508800  0.30824500  1
  O  O34  1  0.74790400  0.32132500  0.54028400  1
  O  O35  1  0.24790400  0.67867500  0.45971600  1
  O  O36  1  0.49933400  0.68445600  0.91587200  1
  O  O37  1  0.99933400  0.31554400  0.08412800  1
  O  O38  1  0.99336400  0.70570000  0.92204100  1
  O  O39  1  0.49336400  0.29430000  0.07795900  1
  O  O40  1  0.50991400  0.35820800  0.84945100  1
  O  O41  1  0.00991400  0.64179200  0.15054900  1
  O  O42  1  0.04056800  0.37990200  0.85592600  1
  O  O43  1  0.54056800  0.62009800  0.14407400  1
  O  O44  1  0.96795700  0.92528800  0.72066600  1
  O  O45  1  0.46795700  0.07471200  0.27933400  1
  O  O46  1  0.49867800  0.90279600  0.72644500  1
  O  O47  1  0.99867800  0.09720400  0.27355500  1
  O  O48  1  0.48143800  0.62890900  0.57896800  1
  O  O49  1  0.98143800  0.37109100  0.42103200  1
  O  O50  1  0.98291500  0.65170000  0.57426000  1
  O  O51  1  0.48291500  0.34830000  0.42574000  1
