# generated using pymatgen
data_SNCl
_symmetry_space_group_name_H-M   'P 1'
_cell_length_a   11.75861900
_cell_length_b   5.94241700
_cell_length_c   6.51588592
_cell_angle_alpha   81.34625647
_cell_angle_beta   90.00000000
_cell_angle_gamma   90.00000000
_symmetry_Int_Tables_number   1
_chemical_formula_structural   SNCl
_chemical_formula_sum   'S6 N6 Cl6'
_cell_volume   450.11181230
_cell_formula_units_Z   6
loop_
 _symmetry_equiv_pos_site_id
 _symmetry_equiv_pos_as_xyz
  1  'x, y, z'
loop_
 _atom_site_type_symbol
 _atom_site_label
 _atom_site_symmetry_multiplicity
 _atom_site_fract_x
 _atom_site_fract_y
 _atom_site_fract_z
 _atom_site_occupancy
  S  S0  1  0.75000000  0.12162500  0.84428700  1
  S  S1  1  0.62848300  0.96603900  0.21751000  1
  S  S2  1  0.12848300  0.03396100  0.78249000  1
  S  S3  1  0.87151700  0.96603900  0.21751000  1
  S  S4  1  0.25000000  0.87837500  0.15571300  1
  S  S5  1  0.37151700  0.03396100  0.78249000  1
  N  N6  1  0.25000000  0.10266200  0.67745400  1
  N  N7  1  0.86445200  0.03642800  0.96924400  1
  N  N8  1  0.13554800  0.96357200  0.03075600  1
  N  N9  1  0.63554800  0.03642800  0.96924400  1
  N  N10  1  0.75000000  0.89733800  0.32254600  1
  N  N11  1  0.36445200  0.96357200  0.03075600  1
  Cl  Cl12  1  0.25000000  0.51559100  0.16280700  1
  Cl  Cl13  1  0.75000000  0.48440900  0.83719300  1
  Cl  Cl14  1  0.08435500  0.71886000  0.66745400  1
  Cl  Cl15  1  0.41564500  0.71886000  0.66745400  1
  Cl  Cl16  1  0.91564500  0.28114000  0.33254600  1
  Cl  Cl17  1  0.58435500  0.28114000  0.33254600  1
