# generated using pymatgen
data_Pb4IF7
_symmetry_space_group_name_H-M   'P 1'
_cell_length_a   13.08428283
_cell_length_b   13.08428283
_cell_length_c   6.07885200
_cell_angle_alpha   90.00000000
_cell_angle_beta   90.00000000
_cell_angle_gamma   152.74152579
_symmetry_Int_Tables_number   1
_chemical_formula_structural   Pb4IF7
_chemical_formula_sum   'Pb8 I2 F14'
_cell_volume   476.64167603
_cell_formula_units_Z   2
loop_
 _symmetry_equiv_pos_site_id
 _symmetry_equiv_pos_as_xyz
  1  'x, y, z'
loop_
 _atom_site_type_symbol
 _atom_site_label
 _atom_site_symmetry_multiplicity
 _atom_site_fract_x
 _atom_site_fract_y
 _atom_site_fract_z
 _atom_site_occupancy
  Pb  Pb0  1  0.82529000  0.17471000  0.25000000  1
  Pb  Pb1  1  0.17471000  0.82529000  0.75000000  1
  Pb  Pb2  1  0.45301200  0.54698800  0.25000000  1
  Pb  Pb3  1  0.54698800  0.45301200  0.75000000  1
  Pb  Pb4  1  0.65264000  0.34736000  0.25000000  1
  Pb  Pb5  1  0.34736000  0.65264000  0.75000000  1
  Pb  Pb6  1  0.05885600  0.94114400  0.25000000  1
  Pb  Pb7  1  0.94114400  0.05885600  0.75000000  1
  I  I8  1  0.25018700  0.74981300  0.25000000  1
  I  I9  1  0.74981300  0.25018700  0.75000000  1
  F  F10  1  0.35288800  0.10984200  0.51858400  1
  F  F11  1  0.64711200  0.89015800  0.01858400  1
  F  F12  1  0.10984200  0.35288800  0.48141600  1
  F  F13  1  0.89015800  0.64711200  0.98141600  1
  F  F14  1  0.64711200  0.89015800  0.48141600  1
  F  F15  1  0.35288800  0.10984200  0.98141600  1
  F  F16  1  0.89015800  0.64711200  0.51858400  1
  F  F17  1  0.10984200  0.35288800  0.01858400  1
  F  F18  1  0.22731100  0.22731100  0.50000000  1
  F  F19  1  0.77268900  0.77268900  0.00000000  1
  F  F20  1  0.43730500  0.56269500  0.75000000  1
  F  F21  1  0.56269500  0.43730500  0.25000000  1
  F  F22  1  0.22731100  0.22731100  0.00000000  1
  F  F23  1  0.77268900  0.77268900  0.50000000  1
