# generated using pymatgen
data_Na5MnO4
_symmetry_space_group_name_H-M   'P 1'
_cell_length_a   5.88600200
_cell_length_b   12.14504100
_cell_length_c   7.88226800
_cell_angle_alpha   90.00000000
_cell_angle_beta   90.00000000
_cell_angle_gamma   90.00000000
_symmetry_Int_Tables_number   1
_chemical_formula_structural   Na5MnO4
_chemical_formula_sum   'Na20 Mn4 O16'
_cell_volume   563.46972630
_cell_formula_units_Z   4
loop_
 _symmetry_equiv_pos_site_id
 _symmetry_equiv_pos_as_xyz
  1  'x, y, z'
loop_
 _atom_site_type_symbol
 _atom_site_label
 _atom_site_symmetry_multiplicity
 _atom_site_fract_x
 _atom_site_fract_y
 _atom_site_fract_z
 _atom_site_occupancy
  Na  Na0  1  0.23861800  0.33880900  0.50000000  1
  Na  Na1  1  0.23861800  0.83880900  0.50000000  1
  Na  Na2  1  0.73861800  0.16119100  0.00000000  1
  Na  Na3  1  0.73861800  0.66119100  0.00000000  1
  Na  Na4  1  0.74719300  0.30353500  0.30117000  1
  Na  Na5  1  0.74719300  0.80353500  0.30117000  1
  Na  Na6  1  0.24719300  0.19646500  0.80117000  1
  Na  Na7  1  0.24719300  0.69646500  0.80117000  1
  Na  Na8  1  0.74719300  0.30353500  0.69883000  1
  Na  Na9  1  0.74719300  0.80353500  0.69883000  1
  Na  Na10  1  0.24719300  0.19646500  0.19883000  1
  Na  Na11  1  0.24719300  0.69646500  0.19883000  1
  Na  Na12  1  0.43568100  0.46429000  0.82113400  1
  Na  Na13  1  0.43568100  0.96429000  0.82113400  1
  Na  Na14  1  0.43568100  0.46429000  0.17886600  1
  Na  Na15  1  0.43568100  0.96429000  0.17886600  1
  Na  Na16  1  0.93568100  0.03571000  0.32113400  1
  Na  Na17  1  0.93568100  0.53571000  0.32113400  1
  Na  Na18  1  0.93568100  0.03571000  0.67886600  1
  Na  Na19  1  0.93568100  0.53571000  0.67886600  1
  Mn  Mn20  1  0.49513600  0.58654100  0.50000000  1
  Mn  Mn21  1  0.99513600  0.91345900  0.00000000  1
  Mn  Mn22  1  0.49513600  0.08654100  0.50000000  1
  Mn  Mn23  1  0.99513600  0.41345900  0.00000000  1
  O  O24  1  0.61498500  0.43659600  0.50000000  1
  O  O25  1  0.61498500  0.93659600  0.50000000  1
  O  O26  1  0.11498500  0.06340400  0.00000000  1
  O  O27  1  0.11498500  0.56340400  0.00000000  1
  O  O28  1  0.18860100  0.14234100  0.50000000  1
  O  O29  1  0.18860100  0.64234100  0.50000000  1
  O  O30  1  0.68860100  0.35765900  0.00000000  1
  O  O31  1  0.68860100  0.85765900  0.00000000  1
  O  O32  1  0.59475600  0.12904000  0.27489700  1
  O  O33  1  0.59475600  0.62904000  0.27489700  1
  O  O34  1  0.09475600  0.37096000  0.22510300  1
  O  O35  1  0.09475600  0.87096000  0.22510300  1
  O  O36  1  0.09475600  0.37096000  0.77489700  1
  O  O37  1  0.09475600  0.87096000  0.77489700  1
  O  O38  1  0.59475600  0.12904000  0.72510300  1
  O  O39  1  0.59475600  0.62904000  0.72510300  1
