# generated using pymatgen
data_HfFeCl6
_symmetry_space_group_name_H-M   'P 1'
_cell_length_a   6.36160565
_cell_length_b   6.36160565
_cell_length_c   12.87187700
_cell_angle_alpha   90.00000000
_cell_angle_beta   90.00000000
_cell_angle_gamma   119.99999635
_symmetry_Int_Tables_number   1
_chemical_formula_structural   HfFeCl6
_chemical_formula_sum   'Hf2 Fe2 Cl12'
_cell_volume   451.13447541
_cell_formula_units_Z   2
loop_
 _symmetry_equiv_pos_site_id
 _symmetry_equiv_pos_as_xyz
  1  'x, y, z'
loop_
 _atom_site_type_symbol
 _atom_site_label
 _atom_site_symmetry_multiplicity
 _atom_site_fract_x
 _atom_site_fract_y
 _atom_site_fract_z
 _atom_site_occupancy
  Hf  Hf0  1  0.33333300  0.66666700  0.25000000  1
  Hf  Hf1  1  0.66666700  0.33333300  0.75000000  1
  Fe  Fe2  1  0.00000000  0.00000000  0.25000000  1
  Fe  Fe3  1  0.00000000  0.00000000  0.75000000  1
  Cl  Cl4  1  0.66434000  0.96843400  0.13993500  1
  Cl  Cl5  1  0.03156600  0.69590600  0.13993500  1
  Cl  Cl6  1  0.30409400  0.33566000  0.13993500  1
  Cl  Cl7  1  0.03156600  0.33566000  0.36006500  1
  Cl  Cl8  1  0.33566000  0.30409400  0.63993500  1
  Cl  Cl9  1  0.69590600  0.03156600  0.63993500  1
  Cl  Cl10  1  0.96843400  0.66434000  0.63993500  1
  Cl  Cl11  1  0.69590600  0.66434000  0.86006500  1
  Cl  Cl12  1  0.96843400  0.30409400  0.86006500  1
  Cl  Cl13  1  0.33566000  0.03156600  0.86006500  1
  Cl  Cl14  1  0.66434000  0.69590600  0.36006500  1
  Cl  Cl15  1  0.30409400  0.96843400  0.36006500  1
