# generated using pymatgen
data_CsTiCl3
_symmetry_space_group_name_H-M   'P 1'
_cell_length_a   7.65643680
_cell_length_b   7.65643680
_cell_length_c   5.67208100
_cell_angle_alpha   90.00000000
_cell_angle_beta   90.00000000
_cell_angle_gamma   120.00000690
_symmetry_Int_Tables_number   1
_chemical_formula_structural   CsTiCl3
_chemical_formula_sum   'Cs2 Ti2 Cl6'
_cell_volume   287.95619711
_cell_formula_units_Z   2
loop_
 _symmetry_equiv_pos_site_id
 _symmetry_equiv_pos_as_xyz
  1  'x, y, z'
loop_
 _atom_site_type_symbol
 _atom_site_label
 _atom_site_symmetry_multiplicity
 _atom_site_fract_x
 _atom_site_fract_y
 _atom_site_fract_z
 _atom_site_occupancy
  Cs  Cs0  1  0.66666700  0.33333300  0.25000000  1
  Cs  Cs1  1  0.33333300  0.66666700  0.75000000  1
  Ti  Ti2  1  0.00000000  0.00000000  0.50000000  1
  Ti  Ti3  1  0.00000000  0.00000000  0.00000000  1
  Cl  Cl4  1  0.84261100  0.68522200  0.75000000  1
  Cl  Cl5  1  0.15738900  0.84261100  0.25000000  1
  Cl  Cl6  1  0.68522200  0.84261100  0.25000000  1
  Cl  Cl7  1  0.31477800  0.15738900  0.75000000  1
  Cl  Cl8  1  0.15738900  0.31477800  0.25000000  1
  Cl  Cl9  1  0.84261100  0.15738900  0.75000000  1
