# generated using pymatgen
data_Ba5(GaS4)2
_symmetry_space_group_name_H-M   'P 1'
_cell_length_a   12.93405243
_cell_length_b   12.93405243
_cell_length_c   12.02954700
_cell_angle_alpha   90.00000000
_cell_angle_beta   90.00000000
_cell_angle_gamma   123.30877270
_symmetry_Int_Tables_number   1
_chemical_formula_structural   Ba5(GaS4)2
_chemical_formula_sum   'Ba20 Ga8 S32'
_cell_volume   1681.82580649
_cell_formula_units_Z   4
loop_
 _symmetry_equiv_pos_site_id
 _symmetry_equiv_pos_as_xyz
  1  'x, y, z'
loop_
 _atom_site_type_symbol
 _atom_site_label
 _atom_site_symmetry_multiplicity
 _atom_site_fract_x
 _atom_site_fract_y
 _atom_site_fract_z
 _atom_site_occupancy
  Ba  Ba0  1  0.00718100  0.50718100  0.75000000  1
  Ba  Ba1  1  0.49281900  0.99281900  0.25000000  1
  Ba  Ba2  1  0.99281900  0.49281900  0.25000000  1
  Ba  Ba3  1  0.50718100  0.00718100  0.75000000  1
  Ba  Ba4  1  0.06404900  0.25967700  0.50502000  1
  Ba  Ba5  1  0.43595100  0.24032300  0.00502000  1
  Ba  Ba6  1  0.75967700  0.56404900  0.99498000  1
  Ba  Ba7  1  0.74032300  0.93595100  0.49498000  1
  Ba  Ba8  1  0.93595100  0.74032300  0.49498000  1
  Ba  Ba9  1  0.56404900  0.75967700  0.99498000  1
  Ba  Ba10  1  0.24032300  0.43595100  0.00502000  1
  Ba  Ba11  1  0.25967700  0.06404900  0.50502000  1
  Ba  Ba12  1  0.39413100  0.59704400  0.34041800  1
  Ba  Ba13  1  0.10586900  0.90295600  0.84041800  1
  Ba  Ba14  1  0.09704400  0.89413100  0.15958200  1
  Ba  Ba15  1  0.40295600  0.60586900  0.65958200  1
  Ba  Ba16  1  0.60586900  0.40295600  0.65958200  1
  Ba  Ba17  1  0.89413100  0.09704400  0.15958200  1
  Ba  Ba18  1  0.90295600  0.10586900  0.84041800  1
  Ba  Ba19  1  0.59704400  0.39413100  0.34041800  1
  Ga  Ga20  1  0.75020200  0.24979800  0.50000000  1
  Ga  Ga21  1  0.74979800  0.25020200  0.00000000  1
  Ga  Ga22  1  0.24979800  0.75020200  0.50000000  1
  Ga  Ga23  1  0.25020200  0.74979800  0.00000000  1
  Ga  Ga24  1  0.18746900  0.18746900  0.23252500  1
  Ga  Ga25  1  0.31253100  0.31253100  0.73252500  1
  Ga  Ga26  1  0.68746900  0.68746900  0.26747500  1
  Ga  Ga27  1  0.81253100  0.81253100  0.76747500  1
  S  S28  1  0.14483900  0.14483900  0.04121600  1
  S  S29  1  0.35516100  0.35516100  0.54121600  1
  S  S30  1  0.64483900  0.64483900  0.45878400  1
  S  S31  1  0.85516100  0.85516100  0.95878400  1
  S  S32  1  0.83598500  0.65244600  0.74192200  1
  S  S33  1  0.66401500  0.84755400  0.24192200  1
  S  S34  1  0.15244600  0.33598500  0.75807800  1
  S  S35  1  0.34755400  0.16401500  0.25807800  1
  S  S36  1  0.16401500  0.34755400  0.25807800  1
  S  S37  1  0.33598500  0.15244600  0.75807800  1
  S  S38  1  0.84755400  0.66401500  0.24192200  1
  S  S39  1  0.65244600  0.83598500  0.74192200  1
  S  S40  1  0.95931900  0.33527800  0.00341900  1
  S  S41  1  0.54068100  0.16472200  0.50341900  1
  S  S42  1  0.03081500  0.03081500  0.34813900  1
  S  S43  1  0.83527800  0.45931900  0.49658100  1
  S  S44  1  0.04068100  0.66472200  0.99658100  1
  S  S45  1  0.45931900  0.83527800  0.49658100  1
  S  S46  1  0.16472200  0.54068100  0.50341900  1
  S  S47  1  0.33527800  0.95931900  0.00341900  1
  S  S48  1  0.81275800  0.18646600  0.35218600  1
  S  S49  1  0.68724200  0.31353400  0.85218600  1
  S  S50  1  0.68646600  0.31275800  0.14781400  1
  S  S51  1  0.81353400  0.18724200  0.64781400  1
  S  S52  1  0.18724200  0.81353400  0.64781400  1
  S  S53  1  0.31275800  0.68646600  0.14781400  1
  S  S54  1  0.31353400  0.68724200  0.85218600  1
  S  S55  1  0.18646600  0.81275800  0.35218600  1
  S  S56  1  0.96918500  0.96918500  0.65186100  1
  S  S57  1  0.53081500  0.53081500  0.15186100  1
  S  S58  1  0.46918500  0.46918500  0.84813900  1
  S  S59  1  0.66472200  0.04068100  0.99658100  1
