# generated using pymatgen
data_WBr4O
_symmetry_space_group_name_H-M   'P 1'
_cell_length_a   3.91160600
_cell_length_b   7.22025389
_cell_length_c   7.22025389
_cell_angle_alpha   85.79216816
_cell_angle_beta   74.28352103
_cell_angle_gamma   74.28352103
_symmetry_Int_Tables_number   1
_chemical_formula_structural   WBr4O
_chemical_formula_sum   'W1 Br4 O1'
_cell_volume   188.95756323
_cell_formula_units_Z   1
loop_
 _symmetry_equiv_pos_site_id
 _symmetry_equiv_pos_as_xyz
  1  'x, y, z'
loop_
 _atom_site_type_symbol
 _atom_site_label
 _atom_site_symmetry_multiplicity
 _atom_site_fract_x
 _atom_site_fract_y
 _atom_site_fract_z
 _atom_site_occupancy
  W  W0  1  0.06691600  0.00000000  0.00000000  1
  Br  Br1  1  0.24740700  0.82037300  0.69420800  1
  Br  Br2  1  0.76198800  0.17962700  0.30579200  1
  Br  Br3  1  0.94161500  0.30579200  0.82037300  1
  Br  Br4  1  0.06778000  0.69420800  0.17962700  1
  O  O5  1  0.52119400  0.00000000  0.00000000  1
