# generated using pymatgen
data_Y3(Fe31B7)2
_symmetry_space_group_name_H-M   'P 1'
_cell_length_a   10.49820070
_cell_length_b   10.49820070
_cell_length_c   10.49820070
_cell_angle_alpha   109.47122063
_cell_angle_beta   109.47122063
_cell_angle_gamma   109.47122063
_symmetry_Int_Tables_number   1
_chemical_formula_structural   Y3(Fe31B7)2
_chemical_formula_sum   'Y3 Fe62 B14'
_cell_volume   890.68209651
_cell_formula_units_Z   1
loop_
 _symmetry_equiv_pos_site_id
 _symmetry_equiv_pos_as_xyz
  1  'x, y, z'
loop_
 _atom_site_type_symbol
 _atom_site_label
 _atom_site_symmetry_multiplicity
 _atom_site_fract_x
 _atom_site_fract_y
 _atom_site_fract_z
 _atom_site_occupancy
  Y  Y0  1  0.50000000  0.00000000  0.50000000  1
  Y  Y1  1  0.00000000  0.50000000  0.50000000  1
  Y  Y2  1  0.50000000  0.50000000  0.00000000  1
  Fe  Fe3  1  0.50000000  0.25000000  0.75000000  1
  Fe  Fe4  1  0.75000000  0.50000000  0.25000000  1
  Fe  Fe5  1  0.25000000  0.50000000  0.75000000  1
  Fe  Fe6  1  0.50000000  0.75000000  0.25000000  1
  Fe  Fe7  1  0.25000000  0.75000000  0.50000000  1
  Fe  Fe8  1  0.75000000  0.25000000  0.50000000  1
  Fe  Fe9  1  0.00000000  0.00000000  0.38370400  1
  Fe  Fe10  1  0.61629600  0.00000000  0.00000000  1
  Fe  Fe11  1  0.00000000  0.61629600  0.00000000  1
  Fe  Fe12  1  0.38370400  0.38370400  0.38370400  1
  Fe  Fe13  1  0.00000000  0.38370400  0.00000000  1
  Fe  Fe14  1  0.61629600  0.61629600  0.61629600  1
  Fe  Fe15  1  0.38370400  0.00000000  0.00000000  1
  Fe  Fe16  1  0.00000000  0.00000000  0.61629600  1
  Fe  Fe17  1  0.28758100  0.14721500  0.43479600  1
  Fe  Fe18  1  0.85278500  0.28758100  0.14036500  1
  Fe  Fe19  1  0.14721500  0.71241900  0.85963500  1
  Fe  Fe20  1  0.28758100  0.43479600  0.14721500  1
  Fe  Fe21  1  0.71241900  0.85963500  0.14721500  1
  Fe  Fe22  1  0.14036500  0.85278500  0.28758100  1
  Fe  Fe23  1  0.43479600  0.14721500  0.28758100  1
  Fe  Fe24  1  0.14036500  0.28758100  0.85278500  1
  Fe  Fe25  1  0.85278500  0.56520400  0.71241900  1
  Fe  Fe26  1  0.56520400  0.71241900  0.85278500  1
  Fe  Fe27  1  0.14721500  0.85963500  0.71241900  1
  Fe  Fe28  1  0.43479600  0.28758100  0.14721500  1
  Fe  Fe29  1  0.14721500  0.43479600  0.28758100  1
  Fe  Fe30  1  0.85278500  0.14036500  0.28758100  1
  Fe  Fe31  1  0.85963500  0.71241900  0.14721500  1
  Fe  Fe32  1  0.71241900  0.85278500  0.56520400  1
  Fe  Fe33  1  0.85278500  0.71241900  0.56520400  1
  Fe  Fe34  1  0.71241900  0.14721500  0.85963500  1
  Fe  Fe35  1  0.28758100  0.14036500  0.85278500  1
  Fe  Fe36  1  0.28758100  0.85278500  0.14036500  1
  Fe  Fe37  1  0.85963500  0.14721500  0.71241900  1
  Fe  Fe38  1  0.14721500  0.28758100  0.43479600  1
  Fe  Fe39  1  0.71241900  0.56520400  0.85278500  1
  Fe  Fe40  1  0.56520400  0.85278500  0.71241900  1
  Fe  Fe41  1  0.23582000  0.23582000  0.66466200  1
  Fe  Fe42  1  0.57115800  0.23582000  0.00000000  1
  Fe  Fe43  1  0.23582000  0.57115800  0.00000000  1
  Fe  Fe44  1  0.42884200  0.66466200  0.42884200  1
  Fe  Fe45  1  0.57115800  0.00000000  0.23582000  1
  Fe  Fe46  1  0.00000000  0.57115800  0.23582000  1
  Fe  Fe47  1  0.66466200  0.42884200  0.42884200  1
  Fe  Fe48  1  0.00000000  0.42884200  0.76418000  1
  Fe  Fe49  1  0.57115800  0.33533800  0.57115800  1
  Fe  Fe50  1  0.33533800  0.57115800  0.57115800  1
  Fe  Fe51  1  0.42884200  0.00000000  0.76418000  1
  Fe  Fe52  1  0.66466200  0.23582000  0.23582000  1
  Fe  Fe53  1  0.23582000  0.66466200  0.23582000  1
  Fe  Fe54  1  0.76418000  0.00000000  0.42884200  1
  Fe  Fe55  1  0.00000000  0.76418000  0.42884200  1
  Fe  Fe56  1  0.57115800  0.57115800  0.33533800  1
  Fe  Fe57  1  0.76418000  0.76418000  0.33533800  1
  Fe  Fe58  1  0.76418000  0.42884200  0.00000000  1
  Fe  Fe59  1  0.23582000  0.00000000  0.57115800  1
  Fe  Fe60  1  0.42884200  0.76418000  0.00000000  1
  Fe  Fe61  1  0.00000000  0.23582000  0.57115800  1
  Fe  Fe62  1  0.42884200  0.42884200  0.66466200  1
  Fe  Fe63  1  0.76418000  0.33533800  0.76418000  1
  Fe  Fe64  1  0.33533800  0.76418000  0.76418000  1
  B  B65  1  0.17517100  0.00000000  0.17517100  1
  B  B66  1  0.00000000  0.17517100  0.17517100  1
  B  B67  1  0.00000000  0.82482900  0.82482900  1
  B  B68  1  0.17517100  0.17517100  0.00000000  1
  B  B69  1  0.82482900  0.82482900  0.00000000  1
  B  B70  1  0.82482900  0.00000000  0.82482900  1
  B  B71  1  0.00000000  0.00000000  0.17793300  1
  B  B72  1  0.82206700  0.00000000  0.00000000  1
  B  B73  1  0.00000000  0.82206700  0.00000000  1
  B  B74  1  0.17793300  0.17793300  0.17793300  1
  B  B75  1  0.00000000  0.17793300  0.00000000  1
  B  B76  1  0.82206700  0.82206700  0.82206700  1
  B  B77  1  0.17793300  0.00000000  0.00000000  1
  B  B78  1  0.00000000  0.00000000  0.82206700  1
