# generated using pymatgen
data_NaTi8O13
_symmetry_space_group_name_H-M   'P 1'
_cell_length_a   6.49660597
_cell_length_b   6.49660597
_cell_length_c   6.49660553
_cell_angle_alpha   73.50560569
_cell_angle_beta   73.50560569
_cell_angle_gamma   73.50560989
_symmetry_Int_Tables_number   1
_chemical_formula_structural   NaTi8O13
_chemical_formula_sum   'Na1 Ti8 O13'
_cell_volume   245.85071001
_cell_formula_units_Z   1
loop_
 _symmetry_equiv_pos_site_id
 _symmetry_equiv_pos_as_xyz
  1  'x, y, z'
loop_
 _atom_site_type_symbol
 _atom_site_label
 _atom_site_symmetry_multiplicity
 _atom_site_fract_x
 _atom_site_fract_y
 _atom_site_fract_z
 _atom_site_occupancy
  Na  Na0  1  0.50000000  0.50000000  0.50000000  1
  Ti  Ti1  1  0.68353700  0.12471100  0.94903800  1
  Ti  Ti2  1  0.94903800  0.68353700  0.12471100  1
  Ti  Ti3  1  0.12471100  0.94903800  0.68353700  1
  Ti  Ti4  1  0.31646300  0.87528900  0.05096200  1
  Ti  Ti5  1  0.05096200  0.31646300  0.87528900  1
  Ti  Ti6  1  0.87528900  0.05096200  0.31646300  1
  Ti  Ti7  1  0.27133500  0.27133500  0.27133500  1
  Ti  Ti8  1  0.72866500  0.72866500  0.72866500  1
  O  O9  1  0.00000000  0.00000000  0.00000000  1
  O  O10  1  0.17748100  0.26489600  0.57863900  1
  O  O11  1  0.57863900  0.17748100  0.26489600  1
  O  O12  1  0.26489600  0.57863900  0.17748100  1
  O  O13  1  0.82251900  0.73510400  0.42136100  1
  O  O14  1  0.42136100  0.82251900  0.73510400  1
  O  O15  1  0.73510400  0.42136100  0.82251900  1
  O  O16  1  0.35694500  0.20591800  0.95212700  1
  O  O17  1  0.95212700  0.35694500  0.20591800  1
  O  O18  1  0.20591800  0.95212700  0.35694500  1
  O  O19  1  0.64305500  0.79408200  0.04787300  1
  O  O20  1  0.04787300  0.64305500  0.79408200  1
  O  O21  1  0.79408200  0.04787300  0.64305500  1
