# generated using pymatgen
data_Zr2P
_symmetry_space_group_name_H-M   'P 1'
_cell_length_a   17.63674051
_cell_length_b   17.63674051
_cell_length_c   3.63772200
_cell_angle_alpha   90.00000000
_cell_angle_beta   90.00000000
_cell_angle_gamma   114.22060484
_symmetry_Int_Tables_number   1
_chemical_formula_structural   Zr2P
_chemical_formula_sum   'Zr36 P18'
_cell_volume   1031.92460117
_cell_formula_units_Z   18
loop_
 _symmetry_equiv_pos_site_id
 _symmetry_equiv_pos_as_xyz
  1  'x, y, z'
loop_
 _atom_site_type_symbol
 _atom_site_label
 _atom_site_symmetry_multiplicity
 _atom_site_fract_x
 _atom_site_fract_y
 _atom_site_fract_z
 _atom_site_occupancy
  Zr  Zr0  1  0.46178600  0.69931600  0.00000000  1
  Zr  Zr1  1  0.53821400  0.30068400  0.00000000  1
  Zr  Zr2  1  0.25060900  0.25060900  0.50000000  1
  Zr  Zr3  1  0.74939100  0.74939100  0.50000000  1
  Zr  Zr4  1  0.10662200  0.10662200  0.00000000  1
  Zr  Zr5  1  0.89337800  0.89337800  0.00000000  1
  Zr  Zr6  1  0.38422500  0.38422500  0.00000000  1
  Zr  Zr7  1  0.61577500  0.61577500  0.00000000  1
  Zr  Zr8  1  0.94217900  0.05782100  0.50000000  1
  Zr  Zr9  1  0.05782100  0.94217900  0.50000000  1
  Zr  Zr10  1  0.69241400  0.30758600  0.50000000  1
  Zr  Zr11  1  0.30758600  0.69241400  0.50000000  1
  Zr  Zr12  1  0.55220600  0.44779400  0.50000000  1
  Zr  Zr13  1  0.44779400  0.55220600  0.50000000  1
  Zr  Zr14  1  0.77885500  0.22114500  0.00000000  1
  Zr  Zr15  1  0.22114500  0.77885500  0.00000000  1
  Zr  Zr16  1  0.00000000  0.50000000  0.00000000  1
  Zr  Zr17  1  0.50000000  0.00000000  0.00000000  1
  Zr  Zr18  1  0.30068400  0.53821400  0.00000000  1
  Zr  Zr19  1  0.69931600  0.46178600  0.00000000  1
  Zr  Zr20  1  0.78912800  0.03157700  0.00000000  1
  Zr  Zr21  1  0.21087200  0.96842300  0.00000000  1
  Zr  Zr22  1  0.03157700  0.78912800  0.00000000  1
  Zr  Zr23  1  0.96842300  0.21087200  0.00000000  1
  Zr  Zr24  1  0.66941000  0.83471000  0.00000000  1
  Zr  Zr25  1  0.33059000  0.16529000  0.00000000  1
  Zr  Zr26  1  0.83471000  0.66941000  0.00000000  1
  Zr  Zr27  1  0.16529000  0.33059000  0.00000000  1
  Zr  Zr28  1  0.48136200  0.14125400  0.50000000  1
  Zr  Zr29  1  0.51863800  0.85874600  0.50000000  1
  Zr  Zr30  1  0.14125400  0.48136200  0.50000000  1
  Zr  Zr31  1  0.85874600  0.51863800  0.50000000  1
  Zr  Zr32  1  0.65429200  0.08599100  0.50000000  1
  Zr  Zr33  1  0.34570800  0.91400900  0.50000000  1
  Zr  Zr34  1  0.08599100  0.65429200  0.50000000  1
  Zr  Zr35  1  0.91400900  0.34570800  0.50000000  1
  P  P36  1  0.15530000  0.84470000  0.50000000  1
  P  P37  1  0.84470000  0.15530000  0.50000000  1
  P  P38  1  0.60822900  0.17800500  0.00000000  1
  P  P39  1  0.39177100  0.82199500  0.00000000  1
  P  P40  1  0.17800500  0.60822900  0.00000000  1
  P  P41  1  0.82199500  0.39177100  0.00000000  1
  P  P42  1  0.62725100  0.96102200  0.00000000  1
  P  P43  1  0.37274900  0.03897800  0.00000000  1
  P  P44  1  0.96102200  0.62725100  0.00000000  1
  P  P45  1  0.03897800  0.37274900  0.00000000  1
  P  P46  1  0.58059000  0.71842500  0.50000000  1
  P  P47  1  0.41941000  0.28157500  0.50000000  1
  P  P48  1  0.71842500  0.58059000  0.50000000  1
  P  P49  1  0.28157500  0.41941000  0.50000000  1
  P  P50  1  0.79200900  0.91821600  0.50000000  1
  P  P51  1  0.20799100  0.08178400  0.50000000  1
  P  P52  1  0.91821600  0.79200900  0.50000000  1
  P  P53  1  0.08178400  0.20799100  0.50000000  1
