# generated using pymatgen
data_In3Sb5O12
_symmetry_space_group_name_H-M   'P 1'
_cell_length_a   9.28991340
_cell_length_b   9.28991340
_cell_length_c   9.28991340
_cell_angle_alpha   109.47122063
_cell_angle_beta   109.47122063
_cell_angle_gamma   109.47122063
_symmetry_Int_Tables_number   1
_chemical_formula_structural   In3Sb5O12
_chemical_formula_sum   'In6 Sb10 O24'
_cell_volume   617.18179236
_cell_formula_units_Z   2
loop_
 _symmetry_equiv_pos_site_id
 _symmetry_equiv_pos_as_xyz
  1  'x, y, z'
loop_
 _atom_site_type_symbol
 _atom_site_label
 _atom_site_symmetry_multiplicity
 _atom_site_fract_x
 _atom_site_fract_y
 _atom_site_fract_z
 _atom_site_occupancy
  In  In0  1  0.50000000  0.75000000  0.25000000  1
  In  In1  1  0.75000000  0.25000000  0.50000000  1
  In  In2  1  0.25000000  0.50000000  0.75000000  1
  In  In3  1  0.50000000  0.25000000  0.75000000  1
  In  In4  1  0.25000000  0.75000000  0.50000000  1
  In  In5  1  0.75000000  0.50000000  0.25000000  1
  Sb  Sb6  1  0.51738900  0.51738900  0.51738900  1
  Sb  Sb7  1  0.00000000  0.00000000  0.48261100  1
  Sb  Sb8  1  0.00000000  0.48261100  0.00000000  1
  Sb  Sb9  1  0.48261100  0.00000000  0.00000000  1
  Sb  Sb10  1  0.71683700  0.71683700  0.00000000  1
  Sb  Sb11  1  0.71683700  0.00000000  0.71683700  1
  Sb  Sb12  1  0.00000000  0.71683700  0.71683700  1
  Sb  Sb13  1  0.28316300  0.28316300  0.00000000  1
  Sb  Sb14  1  0.28316300  0.00000000  0.28316300  1
  Sb  Sb15  1  0.00000000  0.28316300  0.28316300  1
  O  O16  1  0.00000000  0.80069300  0.52703000  1
  O  O17  1  0.80069300  0.52703000  0.00000000  1
  O  O18  1  0.52703000  0.00000000  0.80069300  1
  O  O19  1  0.00000000  0.52703000  0.80069300  1
  O  O20  1  0.52703000  0.80069300  0.00000000  1
  O  O21  1  0.80069300  0.00000000  0.52703000  1
  O  O22  1  0.19930700  0.19930700  0.72633800  1
  O  O23  1  0.19930700  0.72633800  0.19930700  1
  O  O24  1  0.72633800  0.19930700  0.19930700  1
  O  O25  1  0.47297000  0.47297000  0.27366200  1
  O  O26  1  0.47297000  0.27366200  0.47297000  1
  O  O27  1  0.27366200  0.47297000  0.47297000  1
  O  O28  1  0.29737300  0.00000000  0.50728100  1
  O  O29  1  0.00000000  0.50728100  0.29737300  1
  O  O30  1  0.50728100  0.29737300  0.00000000  1
  O  O31  1  0.29737300  0.50728100  0.00000000  1
  O  O32  1  0.49271900  0.79009200  0.49271900  1
  O  O33  1  0.49271900  0.49271900  0.79009200  1
  O  O34  1  0.79009200  0.49271900  0.49271900  1
  O  O35  1  0.20990800  0.70262700  0.70262700  1
  O  O36  1  0.70262700  0.20990800  0.70262700  1
  O  O37  1  0.70262700  0.70262700  0.20990800  1
  O  O38  1  0.00000000  0.29737300  0.50728100  1
  O  O39  1  0.50728100  0.00000000  0.29737300  1
