# generated using pymatgen
data_CsB3H8
_symmetry_space_group_name_H-M   'P 1'
_cell_length_a   5.75552674
_cell_length_b   5.75552674
_cell_length_c   9.12136700
_cell_angle_alpha   90.00000000
_cell_angle_beta   90.00000000
_cell_angle_gamma   98.76869768
_symmetry_Int_Tables_number   1
_chemical_formula_structural   CsB3H8
_chemical_formula_sum   'Cs2 B6 H16'
_cell_volume   298.62356045
_cell_formula_units_Z   2
loop_
 _symmetry_equiv_pos_site_id
 _symmetry_equiv_pos_as_xyz
  1  'x, y, z'
loop_
 _atom_site_type_symbol
 _atom_site_label
 _atom_site_symmetry_multiplicity
 _atom_site_fract_x
 _atom_site_fract_y
 _atom_site_fract_z
 _atom_site_occupancy
  Cs  Cs0  1  0.32207800  0.67792200  0.75000000  1
  Cs  Cs1  1  0.67792200  0.32207800  0.25000000  1
  B  B2  1  0.89739300  0.10260700  0.75000000  1
  B  B3  1  0.10260700  0.89739300  0.25000000  1
  B  B4  1  0.72237200  0.27762800  0.65125700  1
  B  B5  1  0.27762800  0.72237200  0.34874300  1
  B  B6  1  0.72237200  0.27762800  0.84874300  1
  B  B7  1  0.27762800  0.72237200  0.15125700  1
  H  H8  1  0.85483500  0.14516500  0.90578700  1
  H  H9  1  0.14516500  0.85483500  0.09421300  1
  H  H10  1  0.85483500  0.14516500  0.59421300  1
  H  H11  1  0.14516500  0.85483500  0.40578700  1
  H  H12  1  0.10785000  0.16307800  0.75000000  1
  H  H13  1  0.16307800  0.10785000  0.25000000  1
  H  H14  1  0.83692200  0.89215000  0.75000000  1
  H  H15  1  0.89215000  0.83692200  0.25000000  1
  H  H16  1  0.46874600  0.79578800  0.39444700  1
  H  H17  1  0.79578800  0.46874600  0.60555300  1
  H  H18  1  0.46874600  0.79578800  0.10555300  1
  H  H19  1  0.79578800  0.46874600  0.89444700  1
  H  H20  1  0.20421200  0.53125400  0.39444700  1
  H  H21  1  0.53125400  0.20421200  0.60555300  1
  H  H22  1  0.20421200  0.53125400  0.10555300  1
  H  H23  1  0.53125400  0.20421200  0.89444700  1
