# generated using pymatgen
data_VSeO4
_symmetry_space_group_name_H-M   'P 1'
_cell_length_a   10.01173400
_cell_length_b   3.98594700
_cell_length_c   8.18211248
_cell_angle_alpha   81.13252341
_cell_angle_beta   90.00000000
_cell_angle_gamma   90.00000000
_symmetry_Int_Tables_number   1
_chemical_formula_structural   VSeO4
_chemical_formula_sum   'V4 Se4 O16'
_cell_volume   322.61466344
_cell_formula_units_Z   4
loop_
 _symmetry_equiv_pos_site_id
 _symmetry_equiv_pos_as_xyz
  1  'x, y, z'
loop_
 _atom_site_type_symbol
 _atom_site_label
 _atom_site_symmetry_multiplicity
 _atom_site_fract_x
 _atom_site_fract_y
 _atom_site_fract_z
 _atom_site_occupancy
  V  V0  1  0.00339900  0.01778800  0.69596900  1
  V  V1  1  0.50339900  0.98221200  0.80403100  1
  V  V2  1  0.99660100  0.98221200  0.30403100  1
  V  V3  1  0.49660100  0.01778800  0.19596900  1
  Se  Se4  1  0.79057500  0.18882900  0.96657100  1
  Se  Se5  1  0.29057500  0.81117100  0.53342900  1
  Se  Se6  1  0.20942500  0.81117100  0.03342900  1
  Se  Se7  1  0.70942500  0.18882900  0.46657100  1
  O  O8  1  0.87165900  0.98527000  0.50257400  1
  O  O9  1  0.37165900  0.01473000  0.99742600  1
  O  O10  1  0.12834100  0.01473000  0.49742600  1
  O  O11  1  0.62834100  0.98527000  0.00257400  1
  O  O12  1  0.16427000  0.86936200  0.82837800  1
  O  O13  1  0.66427000  0.13063800  0.67162200  1
  O  O14  1  0.83573000  0.13063800  0.17162200  1
  O  O15  1  0.33573000  0.86936200  0.32837800  1
  O  O16  1  0.99353700  0.43511200  0.69770300  1
  O  O17  1  0.49353700  0.56488800  0.80229700  1
  O  O18  1  0.00646300  0.56488800  0.30229700  1
  O  O19  1  0.50646300  0.43511200  0.19770300  1
  O  O20  1  0.88243100  0.87930500  0.89399200  1
  O  O21  1  0.38243100  0.12069500  0.60600800  1
  O  O22  1  0.11756900  0.12069500  0.10600800  1
  O  O23  1  0.61756900  0.87930500  0.39399200  1
