# generated using pymatgen
data_Nd(Mo4O7)2
_symmetry_space_group_name_H-M   'P 1'
_cell_length_a   8.22662821
_cell_length_b   8.22662821
_cell_length_c   9.41286700
_cell_angle_alpha   90.00000000
_cell_angle_beta   90.00000000
_cell_angle_gamma   97.80182521
_symmetry_Int_Tables_number   1
_chemical_formula_structural   Nd(Mo4O7)2
_chemical_formula_sum   'Nd2 Mo16 O28'
_cell_volume   631.14173951
_cell_formula_units_Z   2
loop_
 _symmetry_equiv_pos_site_id
 _symmetry_equiv_pos_as_xyz
  1  'x, y, z'
loop_
 _atom_site_type_symbol
 _atom_site_label
 _atom_site_symmetry_multiplicity
 _atom_site_fract_x
 _atom_site_fract_y
 _atom_site_fract_z
 _atom_site_occupancy
  Nd  Nd0  1  0.45678100  0.54321900  0.00000000  1
  Nd  Nd1  1  0.95678100  0.04321900  0.50000000  1
  Mo  Mo2  1  0.23826200  0.89907400  0.85447900  1
  Mo  Mo3  1  0.46068600  0.88423500  0.37092400  1
  Mo  Mo4  1  0.11576500  0.53931400  0.62907600  1
  Mo  Mo5  1  0.96068600  0.38423500  0.12907600  1
  Mo  Mo6  1  0.61576500  0.03931400  0.87092400  1
  Mo  Mo7  1  0.33592100  0.49423500  0.35684300  1
  Mo  Mo8  1  0.50576500  0.66407900  0.64315700  1
  Mo  Mo9  1  0.83592100  0.99423500  0.14315700  1
  Mo  Mo10  1  0.00576500  0.16407900  0.85684300  1
  Mo  Mo11  1  0.10092600  0.76173800  0.14552100  1
  Mo  Mo12  1  0.36591300  0.26051500  0.62714600  1
  Mo  Mo13  1  0.23948500  0.13408700  0.12714600  1
  Mo  Mo14  1  0.86591300  0.76051500  0.87285400  1
  Mo  Mo15  1  0.60092600  0.26173800  0.35447900  1
  Mo  Mo16  1  0.73826200  0.39907400  0.64552100  1
  Mo  Mo17  1  0.73948500  0.63408700  0.37285400  1
  O  O18  1  0.25844300  0.94147700  0.25333600  1
  O  O19  1  0.30892900  0.69107100  0.50000000  1
  O  O20  1  0.80892900  0.19107100  0.00000000  1
  O  O21  1  0.78068700  0.21931300  0.50000000  1
  O  O22  1  0.28068700  0.71931300  0.00000000  1
  O  O23  1  0.66388500  0.81571700  0.49710800  1
  O  O24  1  0.18428300  0.33611500  0.50289200  1
  O  O25  1  0.16388500  0.31571700  0.00289200  1
  O  O26  1  0.68428300  0.83611500  0.99710800  1
  O  O27  1  0.51812100  0.66629400  0.25360000  1
  O  O28  1  0.33370600  0.48187900  0.74640000  1
  O  O29  1  0.01812100  0.16629400  0.24640000  1
  O  O30  1  0.83370600  0.98187900  0.75360000  1
  O  O31  1  0.91272400  0.82304000  0.29285500  1
  O  O32  1  0.17696000  0.08727600  0.70714500  1
  O  O33  1  0.41272400  0.32304000  0.20714500  1
  O  O34  1  0.45104700  0.86440800  0.75833300  1
  O  O35  1  0.13559200  0.54895300  0.24166700  1
  O  O36  1  0.95104700  0.36440800  0.74166700  1
  O  O37  1  0.63559200  0.04895300  0.25833300  1
  O  O38  1  0.55852300  0.24155700  0.75333600  1
  O  O39  1  0.75844300  0.44147700  0.24666400  1
  O  O40  1  0.05852300  0.74155700  0.74666400  1
  O  O41  1  0.67696000  0.58727600  0.79285500  1
  O  O42  1  0.39135000  0.07236200  0.98027700  1
  O  O43  1  0.92763800  0.60865000  0.01972300  1
  O  O44  1  0.89135000  0.57236200  0.51972300  1
  O  O45  1  0.42763800  0.10865000  0.48027700  1
