# generated using pymatgen
data_AlFeF5
_symmetry_space_group_name_H-M   'P 1'
_cell_length_a   5.25089046
_cell_length_b   5.25089046
_cell_length_c   5.25089046
_cell_angle_alpha   139.81074561
_cell_angle_beta   106.04824300
_cell_angle_gamma   87.68670145
_symmetry_Int_Tables_number   1
_chemical_formula_structural   AlFeF5
_chemical_formula_sum   'Al1 Fe1 F5'
_cell_volume   86.31256970
_cell_formula_units_Z   1
loop_
 _symmetry_equiv_pos_site_id
 _symmetry_equiv_pos_as_xyz
  1  'x, y, z'
loop_
 _atom_site_type_symbol
 _atom_site_label
 _atom_site_symmetry_multiplicity
 _atom_site_fract_x
 _atom_site_fract_y
 _atom_site_fract_z
 _atom_site_occupancy
  Al  Al0  1  0.50000000  0.50000000  0.00000000  1
  Fe  Fe1  1  0.00000000  0.00000000  0.00000000  1
  F  F2  1  0.79203000  0.50000000  0.29203000  1
  F  F3  1  0.20797000  0.50000000  0.70797000  1
  F  F4  1  0.26105100  0.26105100  0.00000000  1
  F  F5  1  0.73894900  0.73894900  0.00000000  1
  F  F6  1  0.50000000  0.00000000  0.50000000  1
