# generated using pymatgen
data_SrC20
_symmetry_space_group_name_H-M   'P 1'
_cell_length_a   11.20754600
_cell_length_b   11.20754600
_cell_length_c   11.20754600
_cell_angle_alpha   90.00000000
_cell_angle_beta   90.00000000
_cell_angle_gamma   90.00000000
_symmetry_Int_Tables_number   1
_chemical_formula_structural   SrC20
_chemical_formula_sum   'Sr6 C120'
_cell_volume   1407.76962440
_cell_formula_units_Z   6
loop_
 _symmetry_equiv_pos_site_id
 _symmetry_equiv_pos_as_xyz
  1  'x, y, z'
loop_
 _atom_site_type_symbol
 _atom_site_label
 _atom_site_symmetry_multiplicity
 _atom_site_fract_x
 _atom_site_fract_y
 _atom_site_fract_z
 _atom_site_occupancy
  Sr  Sr0  1  0.00000000  0.24255900  0.50000000  1
  Sr  Sr1  1  0.50000000  0.00000000  0.24255900  1
  Sr  Sr2  1  0.24255900  0.50000000  0.00000000  1
  Sr  Sr3  1  0.75744100  0.50000000  0.00000000  1
  Sr  Sr4  1  0.50000000  0.00000000  0.75744100  1
  Sr  Sr5  1  0.00000000  0.75744100  0.50000000  1
  C  C6  1  0.06372100  0.00000000  0.31152800  1
  C  C7  1  0.31152800  0.06372100  0.00000000  1
  C  C8  1  0.00000000  0.31152800  0.06372100  1
  C  C9  1  0.00000000  0.68847200  0.06372100  1
  C  C10  1  0.31152800  0.93627900  0.00000000  1
  C  C11  1  0.00000000  0.31152800  0.93627900  1
  C  C12  1  0.68847200  0.93627900  0.00000000  1
  C  C13  1  0.68847200  0.06372100  0.00000000  1
  C  C14  1  0.00000000  0.68847200  0.93627900  1
  C  C15  1  0.06372100  0.00000000  0.68847200  1
  C  C16  1  0.93627900  0.00000000  0.68847200  1
  C  C17  1  0.93627900  0.00000000  0.31152800  1
  C  C18  1  0.12799600  0.10430200  0.27170800  1
  C  C19  1  0.27170800  0.12799600  0.10430200  1
  C  C20  1  0.10430200  0.27170800  0.12799600  1
  C  C21  1  0.89569800  0.72829200  0.12799600  1
  C  C22  1  0.27170800  0.87200400  0.89569800  1
  C  C23  1  0.89569800  0.27170800  0.87200400  1
  C  C24  1  0.72829200  0.87200400  0.10430200  1
  C  C25  1  0.72829200  0.12799600  0.89569800  1
  C  C26  1  0.10430200  0.72829200  0.87200400  1
  C  C27  1  0.12799600  0.89569800  0.72829200  1
  C  C28  1  0.87200400  0.10430200  0.72829200  1
  C  C29  1  0.87200400  0.89569800  0.27170800  1
  C  C30  1  0.87200400  0.89569800  0.72829200  1
  C  C31  1  0.72829200  0.87200400  0.89569800  1
  C  C32  1  0.89569800  0.72829200  0.87200400  1
  C  C33  1  0.10430200  0.27170800  0.87200400  1
  C  C34  1  0.72829200  0.12799600  0.10430200  1
  C  C35  1  0.10430200  0.72829200  0.12799600  1
  C  C36  1  0.27170800  0.12799600  0.89569800  1
  C  C37  1  0.27170800  0.87200400  0.10430200  1
  C  C38  1  0.89569800  0.27170800  0.12799600  1
  C  C39  1  0.87200400  0.10430200  0.27170800  1
  C  C40  1  0.12799600  0.89569800  0.27170800  1
  C  C41  1  0.12799600  0.10430200  0.72829200  1
  C  C42  1  0.06447600  0.20690000  0.23211700  1
  C  C43  1  0.23211700  0.06447600  0.20690000  1
  C  C44  1  0.20690000  0.23211700  0.06447600  1
  C  C45  1  0.79310000  0.76788300  0.06447600  1
  C  C46  1  0.23211700  0.93552400  0.79310000  1
  C  C47  1  0.79310000  0.23211700  0.93552400  1
  C  C48  1  0.76788300  0.93552400  0.20690000  1
  C  C49  1  0.76788300  0.06447600  0.79310000  1
  C  C50  1  0.20690000  0.76788300  0.93552400  1
  C  C51  1  0.06447600  0.79310000  0.76788300  1
  C  C52  1  0.93552400  0.20690000  0.76788300  1
  C  C53  1  0.93552400  0.79310000  0.23211700  1
  C  C54  1  0.93552400  0.79310000  0.76788300  1
  C  C55  1  0.76788300  0.93552400  0.79310000  1
  C  C56  1  0.79310000  0.76788300  0.93552400  1
  C  C57  1  0.20690000  0.23211700  0.93552400  1
  C  C58  1  0.76788300  0.06447600  0.20690000  1
  C  C59  1  0.20690000  0.76788300  0.06447600  1
  C  C60  1  0.23211700  0.06447600  0.79310000  1
  C  C61  1  0.23211700  0.93552400  0.20690000  1
  C  C62  1  0.79310000  0.23211700  0.06447600  1
  C  C63  1  0.93552400  0.20690000  0.23211700  1
  C  C64  1  0.06447600  0.79310000  0.23211700  1
  C  C65  1  0.06447600  0.20690000  0.76788300  1
  C  C66  1  0.56384200  0.50000000  0.81327900  1
  C  C67  1  0.81327900  0.56384200  0.50000000  1
  C  C68  1  0.50000000  0.81327900  0.56384200  1
  C  C69  1  0.50000000  0.18672100  0.56384200  1
  C  C70  1  0.81327900  0.43615800  0.50000000  1
  C  C71  1  0.50000000  0.81327900  0.43615800  1
  C  C72  1  0.18672100  0.43615800  0.50000000  1
  C  C73  1  0.18672100  0.56384200  0.50000000  1
  C  C74  1  0.50000000  0.18672100  0.43615800  1
  C  C75  1  0.56384200  0.50000000  0.18672100  1
  C  C76  1  0.43615800  0.50000000  0.18672100  1
  C  C77  1  0.43615800  0.50000000  0.81327900  1
  C  C78  1  0.62801600  0.60439500  0.77192200  1
  C  C79  1  0.77192200  0.62801600  0.60439500  1
  C  C80  1  0.60439500  0.77192200  0.62801600  1
  C  C81  1  0.39560500  0.22807800  0.62801600  1
  C  C82  1  0.77192200  0.37198400  0.39560500  1
  C  C83  1  0.39560500  0.77192200  0.37198400  1
  C  C84  1  0.22807800  0.37198400  0.60439500  1
  C  C85  1  0.22807800  0.62801600  0.39560500  1
  C  C86  1  0.60439500  0.22807800  0.37198400  1
  C  C87  1  0.62801600  0.39560500  0.22807800  1
  C  C88  1  0.37198400  0.60439500  0.22807800  1
  C  C89  1  0.37198400  0.39560500  0.77192200  1
  C  C90  1  0.37198400  0.39560500  0.22807800  1
  C  C91  1  0.22807800  0.37198400  0.39560500  1
  C  C92  1  0.39560500  0.22807800  0.37198400  1
  C  C93  1  0.60439500  0.77192200  0.37198400  1
  C  C94  1  0.22807800  0.62801600  0.60439500  1
  C  C95  1  0.60439500  0.22807800  0.62801600  1
  C  C96  1  0.77192200  0.62801600  0.39560500  1
  C  C97  1  0.77192200  0.37198400  0.60439500  1
  C  C98  1  0.39560500  0.77192200  0.62801600  1
  C  C99  1  0.37198400  0.60439500  0.77192200  1
  C  C100  1  0.62801600  0.39560500  0.77192200  1
  C  C101  1  0.62801600  0.60439500  0.22807800  1
  C  C102  1  0.56416400  0.70657900  0.73163700  1
  C  C103  1  0.73163700  0.56416400  0.70657900  1
  C  C104  1  0.70657900  0.73163700  0.56416400  1
  C  C105  1  0.29342100  0.26836300  0.56416400  1
  C  C106  1  0.73163700  0.43583600  0.29342100  1
  C  C107  1  0.29342100  0.73163700  0.43583600  1
  C  C108  1  0.26836300  0.43583600  0.70657900  1
  C  C109  1  0.26836300  0.56416400  0.29342100  1
  C  C110  1  0.70657900  0.26836300  0.43583600  1
  C  C111  1  0.56416400  0.29342100  0.26836300  1
  C  C112  1  0.43583600  0.70657900  0.26836300  1
  C  C113  1  0.43583600  0.29342100  0.73163700  1
  C  C114  1  0.43583600  0.29342100  0.26836300  1
  C  C115  1  0.26836300  0.43583600  0.29342100  1
  C  C116  1  0.29342100  0.26836300  0.43583600  1
  C  C117  1  0.70657900  0.73163700  0.43583600  1
  C  C118  1  0.26836300  0.56416400  0.70657900  1
  C  C119  1  0.70657900  0.26836300  0.56416400  1
  C  C120  1  0.73163700  0.56416400  0.29342100  1
  C  C121  1  0.73163700  0.43583600  0.70657900  1
  C  C122  1  0.29342100  0.73163700  0.56416400  1
  C  C123  1  0.43583600  0.70657900  0.73163700  1
  C  C124  1  0.56416400  0.29342100  0.73163700  1
  C  C125  1  0.56416400  0.70657900  0.26836300  1
