# generated using pymatgen
data_ThSiTe
_symmetry_space_group_name_H-M   'P 1'
_cell_length_a   9.75522376
_cell_length_b   9.75522376
_cell_length_c   9.75522376
_cell_angle_alpha   155.46394566
_cell_angle_beta   155.46394566
_cell_angle_gamma   34.97519593
_symmetry_Int_Tables_number   1
_chemical_formula_structural   ThSiTe
_chemical_formula_sum   'Th2 Si2 Te2'
_cell_volume   159.91084505
_cell_formula_units_Z   2
loop_
 _symmetry_equiv_pos_site_id
 _symmetry_equiv_pos_as_xyz
  1  'x, y, z'
loop_
 _atom_site_type_symbol
 _atom_site_label
 _atom_site_symmetry_multiplicity
 _atom_site_fract_x
 _atom_site_fract_y
 _atom_site_fract_z
 _atom_site_occupancy
  Th  Th0  1  0.87968300  0.87968300  0.00000000  1
  Th  Th1  1  0.12031700  0.12031700  0.00000000  1
  Si  Si2  1  0.00000000  0.50000000  0.50000000  1
  Si  Si3  1  0.50000000  0.00000000  0.50000000  1
  Te  Te4  1  0.68944700  0.68944700  0.00000000  1
  Te  Te5  1  0.31055300  0.31055300  0.00000000  1
