# generated using pymatgen
data_Ga(MoS2)4
_symmetry_space_group_name_H-M   'P 1'
_cell_length_a   6.95221165
_cell_length_b   6.95221165
_cell_length_c   6.95221165
_cell_angle_alpha   60.00000000
_cell_angle_beta   60.00000000
_cell_angle_gamma   60.00000000
_symmetry_Int_Tables_number   1
_chemical_formula_structural   Ga(MoS2)4
_chemical_formula_sum   'Ga1 Mo4 S8'
_cell_volume   237.60411455
_cell_formula_units_Z   1
loop_
 _symmetry_equiv_pos_site_id
 _symmetry_equiv_pos_as_xyz
  1  'x, y, z'
loop_
 _atom_site_type_symbol
 _atom_site_label
 _atom_site_symmetry_multiplicity
 _atom_site_fract_x
 _atom_site_fract_y
 _atom_site_fract_z
 _atom_site_occupancy
  Ga  Ga0  1  0.50000000  0.50000000  0.50000000  1
  Mo  Mo1  1  0.10352600  0.10352600  0.68942100  1
  Mo  Mo2  1  0.10352600  0.10352600  0.10352600  1
  Mo  Mo3  1  0.10352600  0.68942100  0.10352600  1
  Mo  Mo4  1  0.68942100  0.10352600  0.10352600  1
  S  S5  1  0.90642400  0.36452500  0.36452500  1
  S  S6  1  0.36452500  0.36452500  0.90642400  1
  S  S7  1  0.36452500  0.36452500  0.36452500  1
  S  S8  1  0.36452500  0.90642400  0.36452500  1
  S  S9  1  0.40064700  0.86645100  0.86645100  1
  S  S10  1  0.86645100  0.40064700  0.86645100  1
  S  S11  1  0.86645100  0.86645100  0.86645100  1
  S  S12  1  0.86645100  0.86645100  0.40064700  1
