# generated using pymatgen
data_TeCF2
_symmetry_space_group_name_H-M   'P 1'
_cell_length_a   12.00264700
_cell_length_b   7.21455200
_cell_length_c   7.53124158
_cell_angle_alpha   87.90695527
_cell_angle_beta   90.00000000
_cell_angle_gamma   90.00000000
_symmetry_Int_Tables_number   1
_chemical_formula_structural   TeCF2
_chemical_formula_sum   'Te8 C8 F16'
_cell_volume   651.72313447
_cell_formula_units_Z   8
loop_
 _symmetry_equiv_pos_site_id
 _symmetry_equiv_pos_as_xyz
  1  'x, y, z'
loop_
 _atom_site_type_symbol
 _atom_site_label
 _atom_site_symmetry_multiplicity
 _atom_site_fract_x
 _atom_site_fract_y
 _atom_site_fract_z
 _atom_site_occupancy
  Te  Te0  1  0.62507500  0.24856300  0.73674300  1
  Te  Te1  1  0.12507500  0.75143700  0.26325700  1
  Te  Te2  1  0.50769800  0.39115900  0.13018200  1
  Te  Te3  1  0.00769800  0.60884100  0.86981800  1
  Te  Te4  1  0.47325300  0.01587400  0.42364300  1
  Te  Te5  1  0.97325300  0.98412600  0.57635700  1
  Te  Te6  1  0.65133700  0.63607600  0.44512400  1
  Te  Te7  1  0.15133700  0.36392400  0.55487600  1
  C  C8  1  0.48931000  0.73071900  0.55213700  1
  C  C9  1  0.66876400  0.40045700  0.98214800  1
  C  C10  1  0.16876400  0.59954300  0.01785200  1
  C  C11  1  0.46493400  0.23726800  0.88558900  1
  C  C12  1  0.96493400  0.76273200  0.11441100  1
  C  C13  1  0.98931000  0.26928100  0.44786300  1
  C  C14  1  0.63426200  0.91906600  0.31404000  1
  C  C15  1  0.13426200  0.08093400  0.68596000  1
  F  F16  1  0.87980700  0.67907100  0.21059600  1
  F  F17  1  0.37980700  0.32092900  0.78940400  1
  F  F18  1  0.92946100  0.94020100  0.07845600  1
  F  F19  1  0.70236200  0.57997300  0.94478100  1
  F  F20  1  0.42946100  0.05979900  0.92154400  1
  F  F21  1  0.25458100  0.68062900  0.92440600  1
  F  F22  1  0.75458100  0.31937100  0.07559400  1
  F  F23  1  0.20236200  0.42002700  0.05521900  1
  F  F24  1  0.22127300  0.96658300  0.64061300  1
  F  F25  1  0.72127300  0.03341700  0.35938700  1
  F  F26  1  0.13463100  0.08132500  0.86702900  1
  F  F27  1  0.63463100  0.91867500  0.13297100  1
  F  F28  1  0.90211200  0.38186700  0.49718100  1
  F  F29  1  0.40211200  0.61813300  0.50281900  1
  F  F30  1  0.98743900  0.27213600  0.26684900  1
  F  F31  1  0.48743900  0.72786400  0.73315100  1
