# generated using pymatgen
data_CaThBr6
_symmetry_space_group_name_H-M   'P 1'
_cell_length_a   4.17980700
_cell_length_b   9.22087600
_cell_length_c   13.80782300
_cell_angle_alpha   90.00000000
_cell_angle_beta   90.00000000
_cell_angle_gamma   90.00000000
_symmetry_Int_Tables_number   1
_chemical_formula_structural   CaThBr6
_chemical_formula_sum   'Ca2 Th2 Br12'
_cell_volume   532.17396232
_cell_formula_units_Z   2
loop_
 _symmetry_equiv_pos_site_id
 _symmetry_equiv_pos_as_xyz
  1  'x, y, z'
loop_
 _atom_site_type_symbol
 _atom_site_label
 _atom_site_symmetry_multiplicity
 _atom_site_fract_x
 _atom_site_fract_y
 _atom_site_fract_z
 _atom_site_occupancy
  Ca  Ca0  1  0.50000000  0.25000000  0.26729900  1
  Ca  Ca1  1  0.50000000  0.75000000  0.73270100  1
  Th  Th2  1  0.00000000  0.25000000  0.75798500  1
  Th  Th3  1  0.00000000  0.75000000  0.24201500  1
  Br  Br4  1  0.00000000  0.25000000  0.40800700  1
  Br  Br5  1  0.50000000  0.07414900  0.65254600  1
  Br  Br6  1  0.50000000  0.25000000  0.90667000  1
  Br  Br7  1  0.50000000  0.75000000  0.09333000  1
  Br  Br8  1  0.00000000  0.05355900  0.15698200  1
  Br  Br9  1  0.00000000  0.75000000  0.59199300  1
  Br  Br10  1  0.00000000  0.94644100  0.84301800  1
  Br  Br11  1  0.50000000  0.57414900  0.34745400  1
  Br  Br12  1  0.00000000  0.55355900  0.84301800  1
  Br  Br13  1  0.00000000  0.44644100  0.15698200  1
  Br  Br14  1  0.50000000  0.42585100  0.65254600  1
  Br  Br15  1  0.50000000  0.92585100  0.34745400  1
