# generated using pymatgen
data_ZrSnCl6
_symmetry_space_group_name_H-M   'P 1'
_cell_length_a   6.68519600
_cell_length_b   11.97743900
_cell_length_c   18.83345114
_cell_angle_alpha   88.04966651
_cell_angle_beta   90.00000000
_cell_angle_gamma   90.00000000
_symmetry_Int_Tables_number   1
_chemical_formula_structural   ZrSnCl6
_chemical_formula_sum   'Zr6 Sn6 Cl36'
_cell_volume   1507.14960541
_cell_formula_units_Z   6
loop_
 _symmetry_equiv_pos_site_id
 _symmetry_equiv_pos_as_xyz
  1  'x, y, z'
loop_
 _atom_site_type_symbol
 _atom_site_label
 _atom_site_symmetry_multiplicity
 _atom_site_fract_x
 _atom_site_fract_y
 _atom_site_fract_z
 _atom_site_occupancy
  Zr  Zr0  1  0.48094600  0.50695800  0.00200300  1
  Zr  Zr1  1  0.51905400  0.50695800  0.50200300  1
  Zr  Zr2  1  0.99296000  0.66939100  0.16345700  1
  Zr  Zr3  1  0.00704000  0.66939100  0.66345700  1
  Zr  Zr4  1  0.99014600  0.99500200  0.49978000  1
  Zr  Zr5  1  0.00985400  0.99500200  0.99978000  1
  Sn  Sn6  1  0.98930800  0.32214000  0.32983900  1
  Sn  Sn7  1  0.01069200  0.32214000  0.82983900  1
  Sn  Sn8  1  0.49168000  0.84307900  0.83968100  1
  Sn  Sn9  1  0.50832000  0.84307900  0.33968100  1
  Sn  Sn10  1  0.48995600  0.16618700  0.17507000  1
  Sn  Sn11  1  0.51004400  0.16618700  0.67507000  1
  Cl  Cl12  1  0.15463500  0.16803100  0.25255100  1
  Cl  Cl13  1  0.84536500  0.16803100  0.75255100  1
  Cl  Cl14  1  0.69172600  0.68088600  0.23460500  1
  Cl  Cl15  1  0.30827400  0.68088600  0.73460500  1
  Cl  Cl16  1  0.30689700  0.98387300  0.07209900  1
  Cl  Cl17  1  0.69310300  0.98387300  0.57209900  1
  Cl  Cl18  1  0.34591300  0.36291500  0.44128900  1
  Cl  Cl19  1  0.65408700  0.36291500  0.94128900  1
  Cl  Cl20  1  0.85377400  0.84733400  0.41703400  1
  Cl  Cl21  1  0.14622600  0.84733400  0.91703400  1
  Cl  Cl22  1  0.14094600  0.82781800  0.57547600  1
  Cl  Cl23  1  0.85905400  0.82781800  0.07547600  1
  Cl  Cl24  1  0.34286500  0.32128000  0.75737600  1
  Cl  Cl25  1  0.65713500  0.32128000  0.25737600  1
  Cl  Cl26  1  0.83997700  0.81262900  0.72835400  1
  Cl  Cl27  1  0.16002300  0.81262900  0.22835400  1
  Cl  Cl28  1  0.84352100  0.14422500  0.42181800  1
  Cl  Cl29  1  0.15647900  0.14422500  0.92181800  1
  Cl  Cl30  1  0.35360700  0.66244900  0.43645600  1
  Cl  Cl31  1  0.64639300  0.66244900  0.93645600  1
  Cl  Cl32  1  0.80463200  0.51072200  0.42452300  1
  Cl  Cl33  1  0.19536800  0.51072200  0.92452300  1
  Cl  Cl34  1  0.30848800  0.99102400  0.42510500  1
  Cl  Cl35  1  0.69151200  0.99102400  0.92510500  1
  Cl  Cl36  1  0.85104200  0.13019700  0.07366600  1
  Cl  Cl37  1  0.14895800  0.13019700  0.57366600  1
  Cl  Cl38  1  0.29637800  0.65992800  0.07856600  1
  Cl  Cl39  1  0.70362200  0.65992800  0.57856600  1
  Cl  Cl40  1  0.65558400  0.00728500  0.25706900  1
  Cl  Cl41  1  0.34441600  0.00728500  0.75706900  1
  Cl  Cl42  1  0.86453100  0.51648400  0.73488800  1
  Cl  Cl43  1  0.13546900  0.51648400  0.23488800  1
  Cl  Cl44  1  0.34491400  0.37262900  0.08961900  1
  Cl  Cl45  1  0.65508600  0.37262900  0.58961900  1
  Cl  Cl46  1  0.80203600  0.52953100  0.08757700  1
  Cl  Cl47  1  0.19796400  0.52953100  0.58757700  1
