# generated using pymatgen
data_SnCl2
_symmetry_space_group_name_H-M   'P 1'
_cell_length_a   4.34286100
_cell_length_b   9.96278800
_cell_length_c   16.31371141
_cell_angle_alpha   89.91629552
_cell_angle_beta   90.00000000
_cell_angle_gamma   90.00000000
_symmetry_Int_Tables_number   1
_chemical_formula_structural   SnCl2
_chemical_formula_sum   'Sn8 Cl16'
_cell_volume   705.84465469
_cell_formula_units_Z   8
loop_
 _symmetry_equiv_pos_site_id
 _symmetry_equiv_pos_as_xyz
  1  'x, y, z'
loop_
 _atom_site_type_symbol
 _atom_site_label
 _atom_site_symmetry_multiplicity
 _atom_site_fract_x
 _atom_site_fract_y
 _atom_site_fract_z
 _atom_site_occupancy
  Sn  Sn0  1  0.72799500  0.55647000  0.61248300  1
  Sn  Sn1  1  0.22799500  0.44353000  0.88751700  1
  Sn  Sn2  1  0.27200500  0.44353000  0.38751700  1
  Sn  Sn3  1  0.77200500  0.55647000  0.11248300  1
  Sn  Sn4  1  0.23893600  0.05647400  0.63755600  1
  Sn  Sn5  1  0.73893600  0.94352600  0.86244400  1
  Sn  Sn6  1  0.76106400  0.94352600  0.36244400  1
  Sn  Sn7  1  0.26106400  0.05647400  0.13755600  1
  Cl  Cl8  1  0.25028800  0.85632300  0.24284100  1
  Cl  Cl9  1  0.75028800  0.14367700  0.25715900  1
  Cl  Cl10  1  0.74971200  0.14367700  0.75715900  1
  Cl  Cl11  1  0.24971200  0.85632300  0.74284100  1
  Cl  Cl12  1  0.74554600  0.35623700  0.50749600  1
  Cl  Cl13  1  0.24554600  0.64376300  0.99250400  1
  Cl  Cl14  1  0.25445400  0.64376300  0.49250400  1
  Cl  Cl15  1  0.75445400  0.35623700  0.00749600  1
  Cl  Cl16  1  0.25614100  0.41866000  0.17655900  1
  Cl  Cl17  1  0.75614100  0.58134000  0.32344100  1
  Cl  Cl18  1  0.74385900  0.58134000  0.82344100  1
  Cl  Cl19  1  0.24385900  0.41866000  0.67655900  1
  Cl  Cl20  1  0.75145800  0.91893400  0.07363600  1
  Cl  Cl21  1  0.25145800  0.08106600  0.42636400  1
  Cl  Cl22  1  0.24854200  0.08106600  0.92636400  1
  Cl  Cl23  1  0.74854200  0.91893400  0.57363600  1
