# generated using pymatgen
data_TaCl4
_symmetry_space_group_name_H-M   'P 1'
_cell_length_a   7.39873886
_cell_length_b   7.39873886
_cell_length_c   8.73671771
_cell_angle_alpha   55.01823047
_cell_angle_beta   55.01823047
_cell_angle_gamma   55.02590632
_symmetry_Int_Tables_number   1
_chemical_formula_structural   TaCl4
_chemical_formula_sum   'Ta2 Cl8'
_cell_volume   299.00529520
_cell_formula_units_Z   2
loop_
 _symmetry_equiv_pos_site_id
 _symmetry_equiv_pos_as_xyz
  1  'x, y, z'
loop_
 _atom_site_type_symbol
 _atom_site_label
 _atom_site_symmetry_multiplicity
 _atom_site_fract_x
 _atom_site_fract_y
 _atom_site_fract_z
 _atom_site_occupancy
  Ta  Ta0  1  0.28082000  0.71918000  0.00000000  1
  Ta  Ta1  1  0.71918000  0.28082000  0.00000000  1
  Cl  Cl2  1  0.27594000  0.76475500  0.71712300  1
  Cl  Cl3  1  0.23524500  0.72406000  0.28287700  1
  Cl  Cl4  1  0.16578700  0.16578700  0.85581700  1
  Cl  Cl5  1  0.83421300  0.83421300  0.14418300  1
  Cl  Cl6  1  0.30837900  0.30837900  0.16659500  1
  Cl  Cl7  1  0.69162100  0.69162100  0.83340500  1
  Cl  Cl8  1  0.76475500  0.27594000  0.71712300  1
  Cl  Cl9  1  0.72406000  0.23524500  0.28287700  1
