# generated using pymatgen
data_FePSe3
_symmetry_space_group_name_H-M   'P 1'
_cell_length_a   7.27644260
_cell_length_b   7.27644260
_cell_length_c   7.27644237
_cell_angle_alpha   50.13797486
_cell_angle_beta   50.13797486
_cell_angle_gamma   50.13798027
_symmetry_Int_Tables_number   1
_chemical_formula_structural   FePSe3
_chemical_formula_sum   'Fe2 P2 Se6'
_cell_volume   208.96315567
_cell_formula_units_Z   2
loop_
 _symmetry_equiv_pos_site_id
 _symmetry_equiv_pos_as_xyz
  1  'x, y, z'
loop_
 _atom_site_type_symbol
 _atom_site_label
 _atom_site_symmetry_multiplicity
 _atom_site_fract_x
 _atom_site_fract_y
 _atom_site_fract_z
 _atom_site_occupancy
  Fe  Fe0  1  0.16450800  0.16450800  0.16450800  1
  Fe  Fe1  1  0.83549200  0.83549200  0.83549200  1
  P  P2  1  0.44297600  0.44297600  0.44297600  1
  P  P3  1  0.55702400  0.55702400  0.55702400  1
  Se  Se4  1  0.79860000  0.04576300  0.43087000  1
  Se  Se5  1  0.04576300  0.43087000  0.79860000  1
  Se  Se6  1  0.43087000  0.79860000  0.04576300  1
  Se  Se7  1  0.20140000  0.95423700  0.56913000  1
  Se  Se8  1  0.95423700  0.56913000  0.20140000  1
  Se  Se9  1  0.56913000  0.20140000  0.95423700  1
