# generated using pymatgen
data_CsFeCl3
_symmetry_space_group_name_H-M   'P 1'
_cell_length_a   7.50008016
_cell_length_b   7.50008016
_cell_length_c   5.84859700
_cell_angle_alpha   90.00000000
_cell_angle_beta   90.00000000
_cell_angle_gamma   120.00000145
_symmetry_Int_Tables_number   1
_chemical_formula_structural   CsFeCl3
_chemical_formula_sum   'Cs2 Fe2 Cl6'
_cell_volume   284.91422518
_cell_formula_units_Z   2
loop_
 _symmetry_equiv_pos_site_id
 _symmetry_equiv_pos_as_xyz
  1  'x, y, z'
loop_
 _atom_site_type_symbol
 _atom_site_label
 _atom_site_symmetry_multiplicity
 _atom_site_fract_x
 _atom_site_fract_y
 _atom_site_fract_z
 _atom_site_occupancy
  Cs  Cs0  1  0.33333300  0.66666700  0.75000000  1
  Cs  Cs1  1  0.66666700  0.33333300  0.25000000  1
  Fe  Fe2  1  0.00000000  0.00000000  0.00000000  1
  Fe  Fe3  1  0.00000000  0.00000000  0.50000000  1
  Cl  Cl4  1  0.15458800  0.30917700  0.25000000  1
  Cl  Cl5  1  0.84541200  0.15458800  0.75000000  1
  Cl  Cl6  1  0.30917700  0.15458800  0.75000000  1
  Cl  Cl7  1  0.69082300  0.84541200  0.25000000  1
  Cl  Cl8  1  0.15458800  0.84541200  0.25000000  1
  Cl  Cl9  1  0.84541200  0.69082300  0.75000000  1
