# generated using pymatgen
data_K2WO8
_symmetry_space_group_name_H-M   'P 1'
_cell_length_a   11.16735065
_cell_length_b   11.16735065
_cell_length_c   11.16735026
_cell_angle_alpha   64.27701968
_cell_angle_beta   64.27701968
_cell_angle_gamma   64.27701611
_symmetry_Int_Tables_number   1
_chemical_formula_structural   K2WO8
_chemical_formula_sum   'K12 W6 O48'
_cell_volume   1077.31910313
_cell_formula_units_Z   6
loop_
 _symmetry_equiv_pos_site_id
 _symmetry_equiv_pos_as_xyz
  1  'x, y, z'
loop_
 _atom_site_type_symbol
 _atom_site_label
 _atom_site_symmetry_multiplicity
 _atom_site_fract_x
 _atom_site_fract_y
 _atom_site_fract_z
 _atom_site_occupancy
  K  K0  1  0.60649600  0.25000000  0.89350400  1
  K  K1  1  0.89350400  0.60649600  0.25000000  1
  K  K2  1  0.25000000  0.89350400  0.60649600  1
  K  K3  1  0.39350400  0.75000000  0.10649600  1
  K  K4  1  0.10649600  0.39350400  0.75000000  1
  K  K5  1  0.75000000  0.10649600  0.39350400  1
  K  K6  1  0.00000000  0.00000000  0.00000000  1
  K  K7  1  0.50000000  0.50000000  0.50000000  1
  K  K8  1  0.33257300  0.33257300  0.33257300  1
  K  K9  1  0.16742700  0.16742700  0.16742700  1
  K  K10  1  0.66742700  0.66742700  0.66742700  1
  K  K11  1  0.83257300  0.83257300  0.83257300  1
  W  W12  1  0.93255800  0.25000000  0.56744200  1
  W  W13  1  0.56744200  0.93255800  0.25000000  1
  W  W14  1  0.25000000  0.56744200  0.93255800  1
  W  W15  1  0.06744200  0.75000000  0.43255800  1
  W  W16  1  0.43255800  0.06744200  0.75000000  1
  W  W17  1  0.75000000  0.43255800  0.06744200  1
  O  O18  1  0.71801700  0.92340100  0.06946300  1
  O  O19  1  0.06946300  0.71801700  0.92340100  1
  O  O20  1  0.92340100  0.06946300  0.71801700  1
  O  O21  1  0.78198300  0.43053700  0.57659900  1
  O  O22  1  0.57659900  0.78198300  0.43053700  1
  O  O23  1  0.43053700  0.57659900  0.78198300  1
  O  O24  1  0.28198300  0.07659900  0.93053700  1
  O  O25  1  0.93053700  0.28198300  0.07659900  1
  O  O26  1  0.07659900  0.93053700  0.28198300  1
  O  O27  1  0.21801700  0.56946300  0.42340100  1
  O  O28  1  0.42340100  0.21801700  0.56946300  1
  O  O29  1  0.56946300  0.42340100  0.21801700  1
  O  O30  1  0.77548900  0.89826800  0.18088000  1
  O  O31  1  0.18088000  0.77548900  0.89826800  1
  O  O32  1  0.89826800  0.18088000  0.77548900  1
  O  O33  1  0.72451100  0.31912000  0.60173200  1
  O  O34  1  0.60173200  0.72451100  0.31912000  1
  O  O35  1  0.31912000  0.60173200  0.72451100  1
  O  O36  1  0.80638700  0.46566500  0.86131400  1
  O  O37  1  0.46566500  0.86131400  0.80638700  1
  O  O38  1  0.86131500  0.80638700  0.46566500  1
  O  O39  1  0.03433500  0.69361300  0.63868600  1
  O  O40  1  0.69361300  0.63868600  0.03433500  1
  O  O41  1  0.63868600  0.03433500  0.69361300  1
  O  O42  1  0.19361300  0.53433500  0.13868600  1
  O  O43  1  0.53433500  0.13868500  0.19361300  1
  O  O44  1  0.13868600  0.19361300  0.53433500  1
  O  O45  1  0.96566500  0.30638700  0.36131500  1
  O  O46  1  0.30638700  0.36131400  0.96566500  1
  O  O47  1  0.36131400  0.96566500  0.30638700  1
  O  O48  1  0.65789500  0.46245700  0.93382300  1
  O  O49  1  0.46245700  0.93382300  0.65789500  1
  O  O50  1  0.93382300  0.65789500  0.46245700  1
  O  O51  1  0.03754300  0.84210500  0.56617700  1
  O  O52  1  0.84210500  0.56617700  0.03754300  1
  O  O53  1  0.56617700  0.03754300  0.84210500  1
  O  O54  1  0.34210500  0.53754300  0.06617700  1
  O  O55  1  0.53754300  0.06617700  0.34210500  1
  O  O56  1  0.06617700  0.34210500  0.53754300  1
  O  O57  1  0.96245700  0.15789500  0.43382300  1
  O  O58  1  0.15789500  0.43382300  0.96245700  1
  O  O59  1  0.43382300  0.96245700  0.15789500  1
  O  O60  1  0.68088000  0.39826800  0.27548900  1
  O  O61  1  0.39826800  0.27548900  0.68088000  1
  O  O62  1  0.27548900  0.68088000  0.39826800  1
  O  O63  1  0.10173200  0.81912000  0.22451100  1
  O  O64  1  0.81912000  0.22451100  0.10173200  1
  O  O65  1  0.22451100  0.10173200  0.81912000  1
