# generated using pymatgen
data_Ge3Bi2O9
_symmetry_space_group_name_H-M   'P 1'
_cell_length_a   7.06166947
_cell_length_b   7.06166947
_cell_length_c   10.15684700
_cell_angle_alpha   90.00000000
_cell_angle_beta   90.00000000
_cell_angle_gamma   119.99999503
_symmetry_Int_Tables_number   1
_chemical_formula_structural   Ge3Bi2O9
_chemical_formula_sum   'Ge6 Bi4 O18'
_cell_volume   438.63606395
_cell_formula_units_Z   2
loop_
 _symmetry_equiv_pos_site_id
 _symmetry_equiv_pos_as_xyz
  1  'x, y, z'
loop_
 _atom_site_type_symbol
 _atom_site_label
 _atom_site_symmetry_multiplicity
 _atom_site_fract_x
 _atom_site_fract_y
 _atom_site_fract_z
 _atom_site_occupancy
  Ge  Ge0  1  0.70989000  0.92996000  0.75000000  1
  Ge  Ge1  1  0.77993000  0.70989000  0.25000000  1
  Ge  Ge2  1  0.92996000  0.22007000  0.25000000  1
  Ge  Ge3  1  0.07004000  0.77993000  0.75000000  1
  Ge  Ge4  1  0.22007000  0.29011000  0.75000000  1
  Ge  Ge5  1  0.29011000  0.07004000  0.25000000  1
  Bi  Bi6  1  0.33333300  0.66666700  0.47824200  1
  Bi  Bi7  1  0.66666700  0.33333300  0.97824200  1
  Bi  Bi8  1  0.66666700  0.33333300  0.52175800  1
  Bi  Bi9  1  0.33333300  0.66666700  0.02175800  1
  O  O10  1  0.42559100  0.07166400  0.39539700  1
  O  O11  1  0.35392700  0.42559100  0.89539700  1
  O  O12  1  0.07166400  0.64607300  0.89539700  1
  O  O13  1  0.92833600  0.35392700  0.39539700  1
  O  O14  1  0.64607300  0.57440900  0.39539700  1
  O  O15  1  0.57440900  0.92833600  0.89539700  1
  O  O16  1  0.57440900  0.92833600  0.60460300  1
  O  O17  1  0.64607300  0.57440900  0.10460300  1
  O  O18  1  0.92833600  0.35392700  0.10460300  1
  O  O19  1  0.07166400  0.64607300  0.60460300  1
  O  O20  1  0.20433000  0.26720100  0.25000000  1
  O  O21  1  0.93712900  0.20433000  0.75000000  1
  O  O22  1  0.26720100  0.06287100  0.75000000  1
  O  O23  1  0.73279900  0.93712900  0.25000000  1
  O  O24  1  0.06287100  0.79567000  0.25000000  1
  O  O25  1  0.79567000  0.73279900  0.75000000  1
  O  O26  1  0.42559100  0.07166400  0.10460300  1
  O  O27  1  0.35392700  0.42559100  0.60460300  1
