# generated using pymatgen
data_ReGe2
_symmetry_space_group_name_H-M   'P 1'
_cell_length_a   4.85885970
_cell_length_b   4.85885970
_cell_length_c   7.59472202
_cell_angle_alpha   63.65332617
_cell_angle_beta   63.65332617
_cell_angle_gamma   38.49836151
_symmetry_Int_Tables_number   1
_chemical_formula_structural   ReGe2
_chemical_formula_sum   'Re2 Ge4'
_cell_volume   98.51212965
_cell_formula_units_Z   2
loop_
 _symmetry_equiv_pos_site_id
 _symmetry_equiv_pos_as_xyz
  1  'x, y, z'
loop_
 _atom_site_type_symbol
 _atom_site_label
 _atom_site_symmetry_multiplicity
 _atom_site_fract_x
 _atom_site_fract_y
 _atom_site_fract_z
 _atom_site_occupancy
  Re  Re0  1  0.85003700  0.85003700  0.18961700  1
  Re  Re1  1  0.14996300  0.14996300  0.81038300  1
  Ge  Ge2  1  0.85215900  0.85215900  0.53794100  1
  Ge  Ge3  1  0.14784100  0.14784100  0.46205900  1
  Ge  Ge4  1  0.59987200  0.59987200  0.11403300  1
  Ge  Ge5  1  0.40012800  0.40012800  0.88596700  1
