# generated using pymatgen
data_SmCl2
_symmetry_space_group_name_H-M   'P 1'
_cell_length_a   3.53225800
_cell_length_b   8.63556000
_cell_length_c   10.27559100
_cell_angle_alpha   90.00000000
_cell_angle_beta   90.00000000
_cell_angle_gamma   90.00000000
_symmetry_Int_Tables_number   1
_chemical_formula_structural   SmCl2
_chemical_formula_sum   'Sm4 Cl8'
_cell_volume   313.43661835
_cell_formula_units_Z   4
loop_
 _symmetry_equiv_pos_site_id
 _symmetry_equiv_pos_as_xyz
  1  'x, y, z'
loop_
 _atom_site_type_symbol
 _atom_site_label
 _atom_site_symmetry_multiplicity
 _atom_site_fract_x
 _atom_site_fract_y
 _atom_site_fract_z
 _atom_site_occupancy
  Sm  Sm0  1  0.75000000  0.61810800  0.32423900  1
  Sm  Sm1  1  0.25000000  0.38189200  0.67576100  1
  Sm  Sm2  1  0.75000000  0.88189200  0.82423900  1
  Sm  Sm3  1  0.25000000  0.11810800  0.17576100  1
  Cl  Cl4  1  0.75000000  0.33001300  0.45691700  1
  Cl  Cl5  1  0.25000000  0.66998700  0.54308300  1
  Cl  Cl6  1  0.75000000  0.16998700  0.95691700  1
  Cl  Cl7  1  0.25000000  0.83001300  0.04308300  1
  Cl  Cl8  1  0.25000000  0.44388800  0.16391100  1
  Cl  Cl9  1  0.75000000  0.55611200  0.83608900  1
  Cl  Cl10  1  0.25000000  0.05611200  0.66391100  1
  Cl  Cl11  1  0.75000000  0.94388800  0.33608900  1
