# generated using pymatgen
data_NiP3W2
_symmetry_space_group_name_H-M   'P 1'
_cell_length_a   6.54227226
_cell_length_b   6.54227226
_cell_length_c   8.53993978
_cell_angle_alpha   75.45093922
_cell_angle_beta   75.45093922
_cell_angle_gamma   28.82237098
_symmetry_Int_Tables_number   1
_chemical_formula_structural   NiP3W2
_chemical_formula_sum   'Ni2 P6 W4'
_cell_volume   170.18555050
_cell_formula_units_Z   2
loop_
 _symmetry_equiv_pos_site_id
 _symmetry_equiv_pos_as_xyz
  1  'x, y, z'
loop_
 _atom_site_type_symbol
 _atom_site_label
 _atom_site_symmetry_multiplicity
 _atom_site_fract_x
 _atom_site_fract_y
 _atom_site_fract_z
 _atom_site_occupancy
  Ni  Ni0  1  0.00000000  0.00000000  0.50000000  1
  Ni  Ni1  1  0.50000000  0.50000000  0.00000000  1
  P  P2  1  0.37401700  0.37401700  0.56518100  1
  P  P3  1  0.62598300  0.62598300  0.43481900  1
  P  P4  1  0.68052700  0.68052700  0.84533200  1
  P  P5  1  0.01875500  0.01875500  0.19317700  1
  P  P6  1  0.98124500  0.98124500  0.80682300  1
  P  P7  1  0.31947300  0.31947300  0.15466800  1
  W  W8  1  0.82550600  0.82550600  0.37493600  1
  W  W9  1  0.17449400  0.17449400  0.62506400  1
  W  W10  1  0.67673200  0.67673200  0.13190300  1
  W  W11  1  0.32326800  0.32326800  0.86809700  1
