# generated using pymatgen
data_Ag(W3Br7)2
_symmetry_space_group_name_H-M   'P 1'
_cell_length_a   13.76100300
_cell_length_b   13.76100300
_cell_length_c   13.76100300
_cell_angle_alpha   90.00000000
_cell_angle_beta   90.00000000
_cell_angle_gamma   90.00000000
_symmetry_Int_Tables_number   1
_chemical_formula_structural   Ag(W3Br7)2
_chemical_formula_sum   'Ag4 W24 Br56'
_cell_volume   2605.85513437
_cell_formula_units_Z   4
loop_
 _symmetry_equiv_pos_site_id
 _symmetry_equiv_pos_as_xyz
  1  'x, y, z'
loop_
 _atom_site_type_symbol
 _atom_site_label
 _atom_site_symmetry_multiplicity
 _atom_site_fract_x
 _atom_site_fract_y
 _atom_site_fract_z
 _atom_site_occupancy
  Ag  Ag0  1  0.25000000  0.75000000  0.75000000  1
  Ag  Ag1  1  0.75000000  0.25000000  0.75000000  1
  Ag  Ag2  1  0.75000000  0.75000000  0.25000000  1
  Ag  Ag3  1  0.25000000  0.25000000  0.25000000  1
  W  W4  1  0.88171700  0.72709800  0.78083800  1
  W  W5  1  0.78083800  0.88171700  0.72709800  1
  W  W6  1  0.72709800  0.78083800  0.88171700  1
  W  W7  1  0.27290200  0.21916200  0.88171700  1
  W  W8  1  0.78083800  0.11828300  0.27290200  1
  W  W9  1  0.27290200  0.78083800  0.11828300  1
  W  W10  1  0.21916200  0.11828300  0.72709800  1
  W  W11  1  0.21916200  0.88171700  0.27290200  1
  W  W12  1  0.72709800  0.21916200  0.11828300  1
  W  W13  1  0.88171700  0.27290200  0.21916200  1
  W  W14  1  0.11828300  0.72709800  0.21916200  1
  W  W15  1  0.11828300  0.27290200  0.78083800  1
  W  W16  1  0.61828300  0.77290200  0.71916200  1
  W  W17  1  0.71916200  0.61828300  0.77290200  1
  W  W18  1  0.77290200  0.71916200  0.61828300  1
  W  W19  1  0.22709800  0.28083800  0.61828300  1
  W  W20  1  0.71916200  0.38171700  0.22709800  1
  W  W21  1  0.22709800  0.71916200  0.38171700  1
  W  W22  1  0.28083800  0.38171700  0.77290200  1
  W  W23  1  0.28083800  0.61828300  0.22709800  1
  W  W24  1  0.77290200  0.28083800  0.38171700  1
  W  W25  1  0.61828300  0.22709800  0.28083800  1
  W  W26  1  0.38171700  0.77290200  0.28083800  1
  W  W27  1  0.38171700  0.22709800  0.71916200  1
  Br  Br28  1  0.88736800  0.88736800  0.88736800  1
  Br  Br29  1  0.11263200  0.11263200  0.88736800  1
  Br  Br30  1  0.88736800  0.11263200  0.11263200  1
  Br  Br31  1  0.11263200  0.88736800  0.11263200  1
  Br  Br32  1  0.61263200  0.61263200  0.61263200  1
  Br  Br33  1  0.38736800  0.38736800  0.61263200  1
  Br  Br34  1  0.61263200  0.38736800  0.38736800  1
  Br  Br35  1  0.38736800  0.61263200  0.38736800  1
  Br  Br36  1  0.93328300  0.82474400  0.62320000  1
  Br  Br37  1  0.62320000  0.93328300  0.82474400  1
  Br  Br38  1  0.82474400  0.62320000  0.93328300  1
  Br  Br39  1  0.17525600  0.37680000  0.93328300  1
  Br  Br40  1  0.62320000  0.06671700  0.17525600  1
  Br  Br41  1  0.17525600  0.62320000  0.06671700  1
  Br  Br42  1  0.37680000  0.06671700  0.82474400  1
  Br  Br43  1  0.37680000  0.93328300  0.17525600  1
  Br  Br44  1  0.82474400  0.37680000  0.06671700  1
  Br  Br45  1  0.93328300  0.17525600  0.37680000  1
  Br  Br46  1  0.06671700  0.82474400  0.37680000  1
  Br  Br47  1  0.06671700  0.17525600  0.62320000  1
  Br  Br48  1  0.56671700  0.67525600  0.87680000  1
  Br  Br49  1  0.87680000  0.56671700  0.67525600  1
  Br  Br50  1  0.67525600  0.87680000  0.56671700  1
  Br  Br51  1  0.32474400  0.12320000  0.56671700  1
  Br  Br52  1  0.87680000  0.43328300  0.32474400  1
  Br  Br53  1  0.32474400  0.87680000  0.43328300  1
  Br  Br54  1  0.12320000  0.43328300  0.67525600  1
  Br  Br55  1  0.12320000  0.56671700  0.32474400  1
  Br  Br56  1  0.67525600  0.12320000  0.43328300  1
  Br  Br57  1  0.56671700  0.32474400  0.12320000  1
  Br  Br58  1  0.43328300  0.67525600  0.12320000  1
  Br  Br59  1  0.43328300  0.32474400  0.87680000  1
  Br  Br60  1  0.06189700  0.69250900  0.82789000  1
  Br  Br61  1  0.82789000  0.06189700  0.69250900  1
  Br  Br62  1  0.69250900  0.82789000  0.06189700  1
  Br  Br63  1  0.30749100  0.17211000  0.06189700  1
  Br  Br64  1  0.82789000  0.93810300  0.30749100  1
  Br  Br65  1  0.30749100  0.82789000  0.93810300  1
  Br  Br66  1  0.17211000  0.93810300  0.69250900  1
  Br  Br67  1  0.17211000  0.06189700  0.30749100  1
  Br  Br68  1  0.69250900  0.17211000  0.93810300  1
  Br  Br69  1  0.06189700  0.30749100  0.17211000  1
  Br  Br70  1  0.93810300  0.69250900  0.17211000  1
  Br  Br71  1  0.93810300  0.30749100  0.82789000  1
  Br  Br72  1  0.43810300  0.80749100  0.67211000  1
  Br  Br73  1  0.67211000  0.43810300  0.80749100  1
  Br  Br74  1  0.80749100  0.67211000  0.43810300  1
  Br  Br75  1  0.19250900  0.32789000  0.43810300  1
  Br  Br76  1  0.67211000  0.56189700  0.19250900  1
  Br  Br77  1  0.19250900  0.67211000  0.56189700  1
  Br  Br78  1  0.32789000  0.56189700  0.80749100  1
  Br  Br79  1  0.32789000  0.43810300  0.19250900  1
  Br  Br80  1  0.80749100  0.32789000  0.56189700  1
  Br  Br81  1  0.43810300  0.19250900  0.32789000  1
  Br  Br82  1  0.56189700  0.80749100  0.32789000  1
  Br  Br83  1  0.56189700  0.19250900  0.67211000  1
