# generated using pymatgen
data_H2WO4
_symmetry_space_group_name_H-M   'P 1'
_cell_length_a   5.24636800
_cell_length_b   5.45553000
_cell_length_c   10.97686800
_cell_angle_alpha   90.00000000
_cell_angle_beta   90.00000000
_cell_angle_gamma   90.00000000
_symmetry_Int_Tables_number   1
_chemical_formula_structural   H2WO4
_chemical_formula_sum   'H8 W4 O16'
_cell_volume   314.17682058
_cell_formula_units_Z   4
loop_
 _symmetry_equiv_pos_site_id
 _symmetry_equiv_pos_as_xyz
  1  'x, y, z'
loop_
 _atom_site_type_symbol
 _atom_site_label
 _atom_site_symmetry_multiplicity
 _atom_site_fract_x
 _atom_site_fract_y
 _atom_site_fract_z
 _atom_site_occupancy
  H  H0  1  0.08039800  0.75000000  0.50920600  1
  H  H1  1  0.58039800  0.25000000  0.99079400  1
  H  H2  1  0.91960200  0.25000000  0.49079400  1
  H  H3  1  0.41960200  0.75000000  0.00920600  1
  H  H4  1  0.22770100  0.25000000  0.47583400  1
  H  H5  1  0.72770100  0.75000000  0.02416600  1
  H  H6  1  0.77229900  0.75000000  0.52416600  1
  H  H7  1  0.27229900  0.25000000  0.97583400  1
  W  W8  1  0.01252500  0.75000000  0.77530100  1
  W  W9  1  0.51252500  0.25000000  0.72469900  1
  W  W10  1  0.98747500  0.25000000  0.22469900  1
  W  W11  1  0.48747500  0.75000000  0.27530100  1
  O  O12  1  0.41968500  0.75000000  0.43323400  1
  O  O13  1  0.91968500  0.25000000  0.06676600  1
  O  O14  1  0.58031500  0.25000000  0.56676600  1
  O  O15  1  0.93657000  0.75000000  0.56699600  1
  O  O16  1  0.74748700  0.99967000  0.27462700  1
  O  O17  1  0.24748700  0.00033000  0.22537300  1
  O  O18  1  0.43657000  0.25000000  0.93300400  1
  O  O19  1  0.75251300  0.50033000  0.77462700  1
  O  O20  1  0.25251300  0.00033000  0.72537300  1
  O  O21  1  0.75251300  0.99967000  0.77462700  1
  O  O22  1  0.74748700  0.50033000  0.27462700  1
  O  O23  1  0.24748700  0.49967000  0.22537300  1
  O  O24  1  0.06343000  0.25000000  0.43300400  1
  O  O25  1  0.56343000  0.75000000  0.06699600  1
  O  O26  1  0.08031500  0.75000000  0.93323400  1
  O  O27  1  0.25251300  0.49967000  0.72537300  1
