# generated using pymatgen
data_SrZnBi2
_symmetry_space_group_name_H-M   'P 1'
_cell_length_a   11.78260393
_cell_length_b   11.78260393
_cell_length_c   11.78260393
_cell_angle_alpha   157.31636558
_cell_angle_beta   157.31636558
_cell_angle_gamma   32.29627637
_symmetry_Int_Tables_number   1
_chemical_formula_structural   SrZnBi2
_chemical_formula_sum   'Sr2 Zn2 Bi4'
_cell_volume   243.07589878
_cell_formula_units_Z   2
loop_
 _symmetry_equiv_pos_site_id
 _symmetry_equiv_pos_as_xyz
  1  'x, y, z'
loop_
 _atom_site_type_symbol
 _atom_site_label
 _atom_site_symmetry_multiplicity
 _atom_site_fract_x
 _atom_site_fract_y
 _atom_site_fract_z
 _atom_site_occupancy
  Sr  Sr0  1  0.87884900  0.87884900  0.00000000  1
  Sr  Sr1  1  0.12115100  0.12115100  0.00000000  1
  Zn  Zn2  1  0.75000000  0.25000000  0.50000000  1
  Zn  Zn3  1  0.25000000  0.75000000  0.50000000  1
  Bi  Bi4  1  0.32823000  0.32823000  0.00000000  1
  Bi  Bi5  1  0.67177000  0.67177000  0.00000000  1
  Bi  Bi6  1  0.00000000  0.50000000  0.50000000  1
  Bi  Bi7  1  0.50000000  0.00000000  0.50000000  1
