# generated using pymatgen
data_TmAgSn
_symmetry_space_group_name_H-M   'P 1'
_cell_length_a   7.35866043
_cell_length_b   7.35866043
_cell_length_c   4.47632100
_cell_angle_alpha   90.00000000
_cell_angle_beta   90.00000000
_cell_angle_gamma   120.00000391
_symmetry_Int_Tables_number   1
_chemical_formula_structural   TmAgSn
_chemical_formula_sum   'Tm3 Ag3 Sn3'
_cell_volume   209.91784674
_cell_formula_units_Z   3
loop_
 _symmetry_equiv_pos_site_id
 _symmetry_equiv_pos_as_xyz
  1  'x, y, z'
loop_
 _atom_site_type_symbol
 _atom_site_label
 _atom_site_symmetry_multiplicity
 _atom_site_fract_x
 _atom_site_fract_y
 _atom_site_fract_z
 _atom_site_occupancy
  Tm  Tm0  1  0.00000000  0.43070900  0.00000000  1
  Tm  Tm1  1  0.56929100  0.56929100  0.00000000  1
  Tm  Tm2  1  0.43070900  0.00000000  0.00000000  1
  Ag  Ag3  1  0.24679800  0.24679800  0.50000000  1
  Ag  Ag4  1  0.75320200  0.00000000  0.50000000  1
  Ag  Ag5  1  0.00000000  0.75320200  0.50000000  1
  Sn  Sn6  1  0.33333300  0.66666700  0.50000000  1
  Sn  Sn7  1  0.00000000  0.00000000  0.00000000  1
  Sn  Sn8  1  0.66666700  0.33333300  0.50000000  1
