# generated using pymatgen
data_Pb7(BrF6)2
_symmetry_space_group_name_H-M   'P 1'
_cell_length_a   10.50597008
_cell_length_b   10.50597008
_cell_length_c   4.05551000
_cell_angle_alpha   90.00000000
_cell_angle_beta   90.00000000
_cell_angle_gamma   120.00000048
_symmetry_Int_Tables_number   1
_chemical_formula_structural   Pb7(BrF6)2
_chemical_formula_sum   'Pb7 Br2 F12'
_cell_volume   387.65770935
_cell_formula_units_Z   1
loop_
 _symmetry_equiv_pos_site_id
 _symmetry_equiv_pos_as_xyz
  1  'x, y, z'
loop_
 _atom_site_type_symbol
 _atom_site_label
 _atom_site_symmetry_multiplicity
 _atom_site_fract_x
 _atom_site_fract_y
 _atom_site_fract_z
 _atom_site_occupancy
  Pb  Pb0  1  0.58853800  0.68824800  0.00000000  1
  Pb  Pb1  1  0.71352300  0.10646900  0.50000000  1
  Pb  Pb2  1  0.89353100  0.60705400  0.50000000  1
  Pb  Pb3  1  0.39294600  0.28647700  0.50000000  1
  Pb  Pb4  1  0.09971000  0.41146200  0.00000000  1
  Pb  Pb5  1  0.31175200  0.90029000  0.00000000  1
  Pb  Pb6  1  0.00000000  0.00000000  0.00000000  1
  Br  Br7  1  0.66666700  0.33333300  0.00000000  1
  Br  Br8  1  0.33333300  0.66666700  0.50000000  1
  F  F9  1  0.42567300  0.03949600  0.50000000  1
  F  F10  1  0.61382300  0.57432700  0.50000000  1
  F  F11  1  0.96050400  0.38617700  0.50000000  1
  F  F12  1  0.12893100  0.20639500  0.50000000  1
  F  F13  1  0.07746400  0.87106900  0.50000000  1
  F  F14  1  0.79360500  0.92253600  0.50000000  1
  F  F15  1  0.56774400  0.95084300  0.00000000  1
  F  F16  1  0.04915700  0.61690100  0.00000000  1
  F  F17  1  0.38309900  0.43225600  0.00000000  1
  F  F18  1  0.27490200  0.11430700  0.00000000  1
  F  F19  1  0.83940500  0.72509800  0.00000000  1
  F  F20  1  0.88569300  0.16059500  0.00000000  1
