# generated using pymatgen
data_UCO5
_symmetry_space_group_name_H-M   'P 1'
_cell_length_a   5.82616276
_cell_length_b   5.82616276
_cell_length_c   5.82616276
_cell_angle_alpha   136.18127139
_cell_angle_beta   130.36472649
_cell_angle_gamma   68.33464386
_symmetry_Int_Tables_number   1
_chemical_formula_structural   UCO5
_chemical_formula_sum   'U1 C1 O5'
_cell_volume   102.51007987
_cell_formula_units_Z   1
loop_
 _symmetry_equiv_pos_site_id
 _symmetry_equiv_pos_as_xyz
  1  'x, y, z'
loop_
 _atom_site_type_symbol
 _atom_site_label
 _atom_site_symmetry_multiplicity
 _atom_site_fract_x
 _atom_site_fract_y
 _atom_site_fract_z
 _atom_site_occupancy
  U  U0  1  0.00000000  0.99392500  0.99392500  1
  C  C1  1  0.50000000  0.38084800  0.88084800  1
  O  O2  1  0.81443400  0.81119300  0.99675900  1
  O  O3  1  0.50000000  0.08052900  0.58052900  1
  O  O4  1  0.18556600  0.18232500  0.99675900  1
  O  O5  1  0.26419300  0.51024000  0.77443300  1
  O  O6  1  0.73580700  0.51024000  0.24604600  1
