# generated using pymatgen
data_Na2V3O7
_symmetry_space_group_name_H-M   'P 1'
_cell_length_a   11.10469031
_cell_length_b   11.10469031
_cell_length_c   9.69129600
_cell_angle_alpha   90.00000000
_cell_angle_beta   90.00000000
_cell_angle_gamma   120.00000185
_symmetry_Int_Tables_number   1
_chemical_formula_structural   Na2V3O7
_chemical_formula_sum   'Na12 V18 O42'
_cell_volume   1034.96433626
_cell_formula_units_Z   6
loop_
 _symmetry_equiv_pos_site_id
 _symmetry_equiv_pos_as_xyz
  1  'x, y, z'
loop_
 _atom_site_type_symbol
 _atom_site_label
 _atom_site_symmetry_multiplicity
 _atom_site_fract_x
 _atom_site_fract_y
 _atom_site_fract_z
 _atom_site_occupancy
  Na  Na0  1  0.50987900  0.02352100  0.84665900  1
  Na  Na1  1  0.97647900  0.48635800  0.84665900  1
  Na  Na2  1  0.51364200  0.49012100  0.84665900  1
  Na  Na3  1  0.02352100  0.50987900  0.34665900  1
  Na  Na4  1  0.48635800  0.97647900  0.34665900  1
  Na  Na5  1  0.49012100  0.51364200  0.34665900  1
  Na  Na6  1  0.66666700  0.33333300  0.16760800  1
  Na  Na7  1  0.33333300  0.66666700  0.66760800  1
  Na  Na8  1  0.66666700  0.33333300  0.53321000  1
  Na  Na9  1  0.33333300  0.66666700  0.03321000  1
  Na  Na10  1  0.00000000  0.00000000  0.60382000  1
  Na  Na11  1  0.00000000  0.00000000  0.10382000  1
  V  V12  1  0.68299600  0.88017700  0.20088600  1
  V  V13  1  0.11982300  0.80281800  0.20088600  1
  V  V14  1  0.19718200  0.31700400  0.20088600  1
  V  V15  1  0.88017700  0.68299600  0.70088600  1
  V  V16  1  0.80281800  0.11982300  0.70088600  1
  V  V17  1  0.31700400  0.19718200  0.70088600  1
  V  V18  1  0.68565100  0.84303000  0.85175500  1
  V  V19  1  0.15697000  0.84262100  0.85175500  1
  V  V20  1  0.15737900  0.31434900  0.85175500  1
  V  V21  1  0.84303000  0.68565100  0.35175500  1
  V  V22  1  0.84262100  0.15697000  0.35175500  1
  V  V23  1  0.31434900  0.15737900  0.35175500  1
  V  V24  1  0.68313300  0.80295900  0.50219300  1
  V  V25  1  0.19704100  0.88017400  0.50219300  1
  V  V26  1  0.11982600  0.31686700  0.50219300  1
  V  V27  1  0.80295900  0.68313300  0.00219300  1
  V  V28  1  0.88017400  0.19704100  0.00219300  1
  V  V29  1  0.31686700  0.11982600  0.00219300  1
  O  O30  1  0.74212800  0.04007200  0.89053800  1
  O  O31  1  0.95992800  0.70205600  0.89053800  1
  O  O32  1  0.29794400  0.25787200  0.89053800  1
  O  O33  1  0.04007200  0.74212800  0.39053800  1
  O  O34  1  0.70205600  0.95992800  0.39053800  1
  O  O35  1  0.25787200  0.29794400  0.39053800  1
  O  O36  1  0.75727400  0.92809300  0.66880500  1
  O  O37  1  0.07190700  0.82918000  0.66880500  1
  O  O38  1  0.17082000  0.24272600  0.66880500  1
  O  O39  1  0.92809300  0.75727400  0.16880500  1
  O  O40  1  0.82918000  0.07190700  0.16880500  1
  O  O41  1  0.24272600  0.17082000  0.16880500  1
  O  O42  1  0.75821900  0.83003700  0.03447300  1
  O  O43  1  0.16996300  0.92818200  0.03447300  1
  O  O44  1  0.07181800  0.24178100  0.03447300  1
  O  O45  1  0.83003700  0.75821900  0.53447300  1
  O  O46  1  0.92818200  0.16996300  0.53447300  1
  O  O47  1  0.51211300  0.75501700  0.85108200  1
  O  O48  1  0.24178100  0.07181800  0.53447300  1
  O  O49  1  0.25666400  0.96006800  0.31250000  1
  O  O50  1  0.03993200  0.29659600  0.31250000  1
  O  O51  1  0.74333600  0.70340400  0.81250000  1
  O  O52  1  0.96006800  0.25666400  0.81250000  1
  O  O53  1  0.29659600  0.03993200  0.81250000  1
  O  O54  1  0.52077500  0.84368200  0.16439600  1
  O  O55  1  0.15631800  0.67709300  0.16439600  1
  O  O56  1  0.32290700  0.47922500  0.16439600  1
  O  O57  1  0.84368200  0.52077500  0.66439600  1
  O  O58  1  0.67709300  0.15631800  0.66439600  1
  O  O59  1  0.47922500  0.32290700  0.66439600  1
  O  O60  1  0.47851000  0.15421700  0.03820400  1
  O  O61  1  0.84578300  0.32429300  0.03820400  1
  O  O62  1  0.67570700  0.52149000  0.03820400  1
  O  O63  1  0.15421700  0.47851000  0.53820400  1
  O  O64  1  0.32429300  0.84578300  0.53820400  1
  O  O65  1  0.52149000  0.67570700  0.53820400  1
  O  O66  1  0.48788700  0.24290400  0.35108200  1
  O  O67  1  0.75709600  0.24498300  0.35108200  1
  O  O68  1  0.75501700  0.51211300  0.35108200  1
  O  O69  1  0.24290400  0.48788700  0.85108200  1
  O  O70  1  0.24498300  0.75709600  0.85108200  1
  O  O71  1  0.70340400  0.74333600  0.31250000  1
