# generated using pymatgen
data_Cu7PSe6
_symmetry_space_group_name_H-M   'P 1'
_cell_length_a   7.16623700
_cell_length_b   10.12249100
_cell_length_c   14.44256300
_cell_angle_alpha   90.00000000
_cell_angle_beta   90.00000000
_cell_angle_gamma   90.00000000
_symmetry_Int_Tables_number   1
_chemical_formula_structural   Cu7PSe6
_chemical_formula_sum   'Cu28 P4 Se24'
_cell_volume   1047.66596856
_cell_formula_units_Z   4
loop_
 _symmetry_equiv_pos_site_id
 _symmetry_equiv_pos_as_xyz
  1  'x, y, z'
loop_
 _atom_site_type_symbol
 _atom_site_label
 _atom_site_symmetry_multiplicity
 _atom_site_fract_x
 _atom_site_fract_y
 _atom_site_fract_z
 _atom_site_occupancy
  Cu  Cu0  1  0.45900700  0.00384900  0.23296100  1
  Cu  Cu1  1  0.54099300  0.50384900  0.76703900  1
  Cu  Cu2  1  0.04099300  0.00384900  0.73296100  1
  Cu  Cu3  1  0.95900700  0.50384900  0.26703900  1
  Cu  Cu4  1  0.41418100  0.04500100  0.76711300  1
  Cu  Cu5  1  0.58581900  0.54500100  0.23288700  1
  Cu  Cu6  1  0.08581900  0.04500100  0.26711300  1
  Cu  Cu7  1  0.91418100  0.54500100  0.73288700  1
  Cu  Cu8  1  0.77832800  0.74485600  0.28729600  1
  Cu  Cu9  1  0.22167200  0.24485600  0.71270400  1
  Cu  Cu10  1  0.72167200  0.74485600  0.78729600  1
  Cu  Cu11  1  0.27832800  0.24485600  0.21270400  1
  Cu  Cu12  1  0.07388100  0.08538200  0.95905200  1
  Cu  Cu13  1  0.92611900  0.58538200  0.04094800  1
  Cu  Cu14  1  0.42611900  0.08538200  0.45905200  1
  Cu  Cu15  1  0.57388100  0.58538200  0.54094800  1
  Cu  Cu16  1  0.93900800  0.92620700  0.55597500  1
  Cu  Cu17  1  0.06099200  0.42620700  0.44402500  1
  Cu  Cu18  1  0.56099200  0.92620700  0.05597500  1
  Cu  Cu19  1  0.43900800  0.42620700  0.94402500  1
  Cu  Cu20  1  0.01936700  0.36060800  0.85046400  1
  Cu  Cu21  1  0.98063300  0.86060800  0.14953600  1
  Cu  Cu22  1  0.48063300  0.36060800  0.35046400  1
  Cu  Cu23  1  0.51936700  0.86060800  0.64953600  1
  Cu  Cu24  1  0.81381000  0.27224900  0.37866100  1
  Cu  Cu25  1  0.18619000  0.77224900  0.62133900  1
  Cu  Cu26  1  0.68619000  0.27224900  0.87866100  1
  Cu  Cu27  1  0.31381000  0.77224900  0.12133900  1
  P  P28  1  0.75203300  0.25323200  0.12574100  1
  P  P29  1  0.24796700  0.75323200  0.87425900  1
  P  P30  1  0.74796700  0.25323200  0.62574100  1
  P  P31  1  0.25203300  0.75323200  0.37425900  1
  Se  Se32  1  0.75121600  0.11624700  0.00342400  1
  Se  Se33  1  0.24878400  0.61624700  0.99657600  1
  Se  Se34  1  0.74878400  0.11624700  0.50342400  1
  Se  Se35  1  0.25121600  0.61624700  0.49657600  1
  Se  Se36  1  0.25403000  0.62365500  0.24832100  1
  Se  Se37  1  0.74597000  0.12365500  0.75167900  1
  Se  Se38  1  0.24597000  0.62365500  0.74832100  1
  Se  Se39  1  0.75403000  0.12365500  0.25167900  1
  Se  Se40  1  0.50843100  0.87834000  0.37253200  1
  Se  Se41  1  0.49156900  0.37834000  0.62746800  1
  Se  Se42  1  0.99156900  0.87834000  0.87253200  1
  Se  Se43  1  0.00843100  0.37834000  0.12746800  1
  Se  Se44  1  0.50972300  0.87619500  0.88034600  1
  Se  Se45  1  0.49027700  0.37619500  0.11965400  1
  Se  Se46  1  0.99027700  0.87619500  0.38034600  1
  Se  Se47  1  0.00972300  0.37619500  0.61965400  1
  Se  Se48  1  0.71580000  0.73068000  0.12232900  1
  Se  Se49  1  0.28420000  0.23068000  0.87767100  1
  Se  Se50  1  0.78420000  0.73068000  0.62232900  1
  Se  Se51  1  0.21580000  0.23068000  0.37767100  1
  Se  Se52  1  0.73314700  0.50749900  0.38963600  1
  Se  Se53  1  0.26685300  0.00749900  0.61036400  1
  Se  Se54  1  0.76685300  0.50749900  0.88963600  1
  Se  Se55  1  0.23314700  0.00749900  0.11036400  1
