# generated using pymatgen
data_W2CCl8
_symmetry_space_group_name_H-M   'P 1'
_cell_length_a   12.26985100
_cell_length_b   13.40849000
_cell_length_c   17.02186600
_cell_angle_alpha   90.00000000
_cell_angle_beta   90.00000000
_cell_angle_gamma   90.00000000
_symmetry_Int_Tables_number   1
_chemical_formula_structural   W2CCl8
_chemical_formula_sum   'W16 C8 Cl64'
_cell_volume   2800.44036353
_cell_formula_units_Z   8
loop_
 _symmetry_equiv_pos_site_id
 _symmetry_equiv_pos_as_xyz
  1  'x, y, z'
loop_
 _atom_site_type_symbol
 _atom_site_label
 _atom_site_symmetry_multiplicity
 _atom_site_fract_x
 _atom_site_fract_y
 _atom_site_fract_z
 _atom_site_occupancy
  W  W0  1  0.12762900  0.71127600  0.17866900  1
  W  W1  1  0.62762900  0.78872400  0.82133100  1
  W  W2  1  0.87237100  0.21127600  0.32133100  1
  W  W3  1  0.37237100  0.28872400  0.67866900  1
  W  W4  1  0.87237100  0.28872400  0.82133100  1
  W  W5  1  0.37237100  0.21127600  0.17866900  1
  W  W6  1  0.12762900  0.78872400  0.67866900  1
  W  W7  1  0.62762900  0.71127600  0.32133100  1
  W  W8  1  0.92299500  0.70796800  0.14000300  1
  W  W9  1  0.42299500  0.79203200  0.85999700  1
  W  W10  1  0.07700500  0.20796800  0.35999700  1
  W  W11  1  0.57700500  0.29203200  0.64000300  1
  W  W12  1  0.07700500  0.29203200  0.85999700  1
  W  W13  1  0.57700500  0.20796800  0.14000300  1
  W  W14  1  0.92299500  0.79203200  0.64000300  1
  W  W15  1  0.42299500  0.70796800  0.35999700  1
  C  C16  1  0.05187100  0.75874400  0.08328000  1
  C  C17  1  0.55187100  0.74125600  0.91672000  1
  C  C18  1  0.94812900  0.25874400  0.41672000  1
  C  C19  1  0.44812900  0.24125600  0.58328000  1
  C  C20  1  0.94812900  0.24125600  0.91672000  1
  C  C21  1  0.44812900  0.25874400  0.08328000  1
  C  C22  1  0.05187100  0.74125600  0.58328000  1
  C  C23  1  0.55187100  0.75874400  0.41672000  1
  Cl  Cl24  1  0.73758000  0.64723200  0.19954900  1
  Cl  Cl25  1  0.23758000  0.85276800  0.80045100  1
  Cl  Cl26  1  0.26242000  0.14723200  0.30045100  1
  Cl  Cl27  1  0.76242000  0.35276800  0.69954900  1
  Cl  Cl28  1  0.26242000  0.35276800  0.80045100  1
  Cl  Cl29  1  0.76242000  0.14723200  0.19954900  1
  Cl  Cl30  1  0.73758000  0.85276800  0.69954900  1
  Cl  Cl31  1  0.23758000  0.64723200  0.30045100  1
  Cl  Cl32  1  0.98155800  0.76295700  0.27179000  1
  Cl  Cl33  1  0.48155800  0.73704300  0.72821000  1
  Cl  Cl34  1  0.01844200  0.26295700  0.22821000  1
  Cl  Cl35  1  0.51844200  0.23704300  0.77179000  1
  Cl  Cl36  1  0.01844200  0.23704300  0.72821000  1
  Cl  Cl37  1  0.51844200  0.26295700  0.27179000  1
  Cl  Cl38  1  0.98155800  0.73704300  0.77179000  1
  Cl  Cl39  1  0.48155800  0.76295700  0.22821000  1
  Cl  Cl40  1  0.01626700  0.55890800  0.19654000  1
  Cl  Cl41  1  0.51626700  0.94109200  0.80346000  1
  Cl  Cl42  1  0.98373300  0.05890800  0.30346000  1
  Cl  Cl43  1  0.48373300  0.44109200  0.69654000  1
  Cl  Cl44  1  0.98373300  0.44109200  0.80346000  1
  Cl  Cl45  1  0.48373300  0.05890800  0.19654000  1
  Cl  Cl46  1  0.01626700  0.94109200  0.69654000  1
  Cl  Cl47  1  0.51626700  0.55890800  0.30346000  1
  Cl  Cl48  1  0.20915000  0.86269700  0.19351300  1
  Cl  Cl49  1  0.70915000  0.63730300  0.80648700  1
  Cl  Cl50  1  0.79085000  0.36269700  0.30648700  1
  Cl  Cl51  1  0.29085000  0.13730300  0.69351300  1
  Cl  Cl52  1  0.79085000  0.13730300  0.80648700  1
  Cl  Cl53  1  0.29085000  0.36269700  0.19351300  1
  Cl  Cl54  1  0.20915000  0.63730300  0.69351300  1
  Cl  Cl55  1  0.70915000  0.86269700  0.30648700  1
  Cl  Cl56  1  0.25016400  0.62691800  0.10322800  1
  Cl  Cl57  1  0.75016400  0.87308200  0.89677200  1
  Cl  Cl58  1  0.74983600  0.12691800  0.39677200  1
  Cl  Cl59  1  0.24983600  0.37308200  0.60322800  1
  Cl  Cl60  1  0.74983600  0.37308200  0.89677200  1
  Cl  Cl61  1  0.24983600  0.12691800  0.10322800  1
  Cl  Cl62  1  0.25016400  0.87308200  0.60322800  1
  Cl  Cl63  1  0.75016400  0.62691800  0.39677200  1
  Cl  Cl64  1  0.83651300  0.85526400  0.11673400  1
  Cl  Cl65  1  0.33651300  0.64473600  0.88326600  1
  Cl  Cl66  1  0.16348700  0.35526400  0.38326600  1
  Cl  Cl67  1  0.66348700  0.14473600  0.61673400  1
  Cl  Cl68  1  0.16348700  0.14473600  0.88326600  1
  Cl  Cl69  1  0.66348700  0.35526400  0.11673400  1
  Cl  Cl70  1  0.83651300  0.64473600  0.61673400  1
  Cl  Cl71  1  0.33651300  0.85526400  0.38326600  1
  Cl  Cl72  1  0.87340200  0.61384600  0.03433800  1
  Cl  Cl73  1  0.37340200  0.88615400  0.96566200  1
  Cl  Cl74  1  0.12659800  0.11384600  0.46566200  1
  Cl  Cl75  1  0.62659800  0.38615400  0.53433800  1
  Cl  Cl76  1  0.12659800  0.38615400  0.96566200  1
  Cl  Cl77  1  0.62659800  0.11384600  0.03433800  1
  Cl  Cl78  1  0.87340200  0.88615400  0.53433800  1
  Cl  Cl79  1  0.37340200  0.61384600  0.46566200  1
  Cl  Cl80  1  0.08075600  0.81508300  0.99873200  1
  Cl  Cl81  1  0.58075600  0.68491700  0.00126800  1
  Cl  Cl82  1  0.91924400  0.31508300  0.50126800  1
  Cl  Cl83  1  0.41924400  0.18491700  0.49873200  1
  Cl  Cl84  1  0.91924400  0.18491700  0.00126800  1
  Cl  Cl85  1  0.41924400  0.31508300  0.99873200  1
  Cl  Cl86  1  0.08075600  0.68491700  0.49873200  1
  Cl  Cl87  1  0.58075600  0.81508300  0.50126800  1
