# generated using pymatgen
data_Rb3B7O12
_symmetry_space_group_name_H-M   'P 1'
_cell_length_a   6.68190300
_cell_length_b   6.71587826
_cell_length_c   30.62288031
_cell_angle_alpha   91.10223997
_cell_angle_beta   91.75308443
_cell_angle_gamma   119.06726492
_symmetry_Int_Tables_number   1
_chemical_formula_structural   Rb3B7O12
_chemical_formula_sum   'Rb12 B28 O48'
_cell_volume   1199.63984256
_cell_formula_units_Z   4
loop_
 _symmetry_equiv_pos_site_id
 _symmetry_equiv_pos_as_xyz
  1  'x, y, z'
loop_
 _atom_site_type_symbol
 _atom_site_label
 _atom_site_symmetry_multiplicity
 _atom_site_fract_x
 _atom_site_fract_y
 _atom_site_fract_z
 _atom_site_occupancy
  Rb  Rb0  1  0.60745300  0.87427000  0.84992200  1
  Rb  Rb1  1  0.39254700  0.12573000  0.15007800  1
  Rb  Rb2  1  0.02812500  0.63770300  0.80705700  1
  Rb  Rb3  1  0.97187500  0.36229700  0.19294300  1
  Rb  Rb4  1  0.31587200  0.23891300  0.64122400  1
  Rb  Rb5  1  0.68412800  0.76108700  0.35877600  1
  Rb  Rb6  1  0.03786800  0.65496200  0.69244600  1
  Rb  Rb7  1  0.96213200  0.34503800  0.30755400  1
  Rb  Rb8  1  0.41083300  0.21377400  0.52290400  1
  Rb  Rb9  1  0.58916700  0.78622600  0.47709600  1
  Rb  Rb10  1  0.66488500  0.79481400  0.97407500  1
  Rb  Rb11  1  0.33511500  0.20518600  0.02592500  1
  B  B12  1  0.61182500  0.79839500  0.65282900  1
  B  B13  1  0.38817500  0.20160500  0.34717100  1
  B  B14  1  0.94966100  0.15441800  0.74842500  1
  B  B15  1  0.05033900  0.84558200  0.25157500  1
  B  B16  1  0.63079700  0.75068400  0.73912300  1
  B  B17  1  0.36920300  0.24931600  0.26087700  1
  B  B18  1  0.55176600  0.08059200  0.73871300  1
  B  B19  1  0.44823400  0.91940800  0.26128700  1
  B  B20  1  0.22897000  0.06493000  0.41913100  1
  B  B21  1  0.77103000  0.93507000  0.58086900  1
  B  B22  1  0.82463200  0.61919600  0.09448500  1
  B  B23  1  0.17536800  0.38080400  0.90551500  1
  B  B24  1  0.05591700  0.32771200  0.42856000  1
  B  B25  1  0.94408300  0.67228800  0.57144000  1
  B  B26  1  0.35005000  0.75219000  0.58751500  1
  B  B27  1  0.64995000  0.24781000  0.41248500  1
  B  B28  1  0.78243300  0.30166100  0.92992300  1
  B  B29  1  0.21756700  0.69833900  0.07007700  1
  B  B30  1  0.30603300  0.22518500  0.84500700  1
  B  B31  1  0.69396700  0.77481500  0.15499300  1
  B  B32  1  0.38488600  0.32492100  0.76222400  1
  B  B33  1  0.61511400  0.67507900  0.23777600  1
  B  B34  1  0.03080800  0.36209900  0.56601400  1
  B  B35  1  0.96919200  0.63790100  0.43398600  1
  B  B36  1  0.66159600  0.87871000  0.07796300  1
  B  B37  1  0.33840400  0.12129000  0.92203700  1
  B  B38  1  0.09551700  0.69472700  0.93223100  1
  B  B39  1  0.90448300  0.30527300  0.06776900  1
  O  O40  1  0.63413800  0.70669300  0.69143100  1
  O  O41  1  0.36586200  0.29330700  0.30856900  1
  O  O42  1  0.39314700  0.73025100  0.63531700  1
  O  O43  1  0.60685300  0.26974900  0.36468300  1
  O  O44  1  0.37652000  0.21483900  0.80403400  1
  O  O45  1  0.62348000  0.78516100  0.19596600  1
  O  O46  1  0.32349400  0.07716600  0.87379500  1
  O  O47  1  0.67650600  0.92283400  0.12620500  1
  O  O48  1  0.96870100  0.13695300  0.56400900  1
  O  O49  1  0.03129900  0.86304700  0.43599100  1
  O  O50  1  0.57606500  0.55659500  0.76485600  1
  O  O51  1  0.42393500  0.44340500  0.23514400  1
  O  O52  1  0.16945000  0.32737700  0.75027500  1
  O  O53  1  0.83055000  0.67262300  0.24972500  1
  O  O54  1  0.78925900  0.23095000  0.73970200  1
  O  O55  1  0.21074100  0.76905000  0.26029800  1
  O  O56  1  0.86747000  0.53353900  0.94032000  1
  O  O57  1  0.13253000  0.46646100  0.05968000  1
  O  O58  1  0.87412500  0.92859200  0.75467700  1
  O  O59  1  0.12587500  0.07140800  0.24532300  1
  O  O60  1  0.56285400  0.14658700  0.93912700  1
  O  O61  1  0.43714600  0.85341300  0.06087300  1
  O  O62  1  0.47390600  0.85328000  0.74557200  1
  O  O63  1  0.52609400  0.14672000  0.25442800  1
  O  O64  1  0.19681800  0.06376600  0.36997600  1
  O  O65  1  0.80318200  0.93623400  0.63002400  1
  O  O66  1  0.13096400  0.56341000  0.43280000  1
  O  O67  1  0.86903600  0.43659000  0.56720000  1
  O  O68  1  0.26019200  0.51786700  0.56674500  1
  O  O69  1  0.73980800  0.48213300  0.43325500  1
  O  O70  1  0.84649700  0.08482000  0.05779500  1
  O  O71  1  0.15350300  0.91518000  0.94220500  1
  O  O72  1  0.22030700  0.36713300  0.85774600  1
  O  O73  1  0.77969300  0.63286700  0.14225400  1
  O  O74  1  0.16836000  0.82181600  0.58374700  1
  O  O75  1  0.83164000  0.17818400  0.41625300  1
  O  O76  1  0.44665700  0.08088600  0.43228900  1
  O  O77  1  0.55334300  0.91911400  0.56771100  1
  O  O78  1  0.23892500  0.62471100  0.91495800  1
  O  O79  1  0.76107500  0.37528900  0.08504200  1
  O  O80  1  0.22173000  0.27075000  0.43707400  1
  O  O81  1  0.77827000  0.72925000  0.56292600  1
  O  O82  1  0.92188300  0.22944900  0.91136100  1
  O  O83  1  0.07811700  0.77055100  0.08863900  1
  O  O84  1  0.40734600  0.16570700  0.72881000  1
  O  O85  1  0.59265400  0.83429300  0.27119000  1
  O  O86  1  0.68511500  0.67992400  0.06685600  1
  O  O87  1  0.31488500  0.32007600  0.93314400  1
