# generated using pymatgen
data_H34C19
_symmetry_space_group_name_H-M   'P 1'
_cell_length_a   7.76520100
_cell_length_b   11.06337900
_cell_length_c   11.34637962
_cell_angle_alpha   75.23649271
_cell_angle_beta   90.00000000
_cell_angle_gamma   90.00000000
_symmetry_Int_Tables_number   1
_chemical_formula_structural   H34C19
_chemical_formula_sum   'H68 C38'
_cell_volume   942.57938941
_cell_formula_units_Z   2
loop_
 _symmetry_equiv_pos_site_id
 _symmetry_equiv_pos_as_xyz
  1  'x, y, z'
loop_
 _atom_site_type_symbol
 _atom_site_label
 _atom_site_symmetry_multiplicity
 _atom_site_fract_x
 _atom_site_fract_y
 _atom_site_fract_z
 _atom_site_occupancy
  H  H0  1  0.76406500  0.22035700  0.66375300  1
  H  H1  1  0.26406500  0.77964300  0.33624700  1
  H  H2  1  0.37250400  0.68506200  0.85656100  1
  H  H3  1  0.87250400  0.31493800  0.14343900  1
  H  H4  1  0.21716800  0.59345900  0.95406900  1
  H  H5  1  0.71716800  0.40654100  0.04593100  1
  H  H6  1  0.17747000  0.75265700  0.88783800  1
  H  H7  1  0.67747000  0.24734300  0.11216200  1
  H  H8  1  0.09745800  0.04517100  0.64490400  1
  H  H9  1  0.59745800  0.95482900  0.35509600  1
  H  H10  1  0.29548000  0.96339300  0.66611100  1
  H  H11  1  0.79548000  0.03660700  0.33388900  1
  H  H12  1  0.13515700  0.92853300  0.78111400  1
  H  H13  1  0.63515700  0.07146700  0.21888600  1
  H  H14  1  0.79877800  0.23103100  0.81575700  1
  H  H15  1  0.29877800  0.76896900  0.18424300  1
  H  H16  1  0.80497400  0.08410100  0.78078100  1
  H  H17  1  0.30497400  0.91589900  0.21921900  1
  H  H18  1  0.57064700  0.06747700  0.98255600  1
  H  H19  1  0.07064700  0.93252300  0.01744400  1
  H  H20  1  0.58088800  0.96363700  0.88672200  1
  H  H21  1  0.08088800  0.03636300  0.11327800  1
  H  H22  1  0.37964600  0.02432400  0.91696100  1
  H  H23  1  0.87964600  0.97567600  0.08303900  1
  H  H24  1  0.98267300  0.86794300  0.29121400  1
  H  H25  1  0.48267300  0.13205700  0.70878600  1
  H  H26  1  0.41576800  0.36630100  0.60957100  1
  H  H27  1  0.91576800  0.63369900  0.39042900  1
  H  H28  1  0.61831200  0.40224600  0.66203900  1
  H  H29  1  0.11831200  0.59775400  0.33796100  1
  H  H30  1  0.02767200  0.69550400  0.12225000  1
  H  H31  1  0.52767200  0.30449600  0.87775000  1
  H  H32  1  0.74380500  0.80476200  0.08393800  1
  H  H33  1  0.24380500  0.19523800  0.91606200  1
  H  H34  1  0.19493300  0.24514100  0.75911200  1
  H  H35  1  0.69493300  0.75485900  0.24088800  1
  H  H36  1  0.05892700  0.37998300  0.87785700  1
  H  H37  1  0.55892700  0.62001700  0.12214300  1
  H  H38  1  0.39076100  0.42457000  0.28132700  1
  H  H39  1  0.89076100  0.57543000  0.71867300  1
  H  H40  1  0.92516500  0.55879700  0.87623300  1
  H  H41  1  0.42516500  0.44120300  0.12376700  1
  H  H42  1  0.71912300  0.72832000  0.79127400  1
  H  H43  1  0.21912300  0.27168000  0.20872600  1
  H  H44  1  0.40125800  0.21191600  0.15242700  1
  H  H45  1  0.90125800  0.78808400  0.84757300  1
  H  H46  1  0.82550200  0.79500600  0.57992600  1
  H  H47  1  0.32550200  0.20499400  0.42007400  1
  H  H48  1  0.81948200  0.92411100  0.64389900  1
  H  H49  1  0.31948200  0.07588900  0.35610100  1
  H  H50  1  0.08583400  0.90196300  0.52063500  1
  H  H51  1  0.58583400  0.09803700  0.47936500  1
  H  H52  1  0.61037800  0.31089400  0.43115600  1
  H  H53  1  0.11037800  0.68910600  0.56884400  1
  H  H54  1  0.87756000  0.18517300  0.48820200  1
  H  H55  1  0.37756000  0.81482700  0.51179800  1
  H  H56  1  0.44000600  0.77889400  0.66580200  1
  H  H57  1  0.94000600  0.22110600  0.33419800  1
  H  H58  1  0.37490500  0.59355700  0.51002500  1
  H  H59  1  0.87490500  0.40644300  0.48997500  1
  H  H60  1  0.57541000  0.62957400  0.56462800  1
  H  H61  1  0.07541000  0.37042600  0.43537200  1
  H  H62  1  0.48832300  0.53769600  0.77710200  1
  H  H63  1  0.98832300  0.46230400  0.22289800  1
  H  H64  1  0.64628200  0.51473400  0.33191500  1
  H  H65  1  0.14628200  0.48526600  0.66808500  1
  H  H66  1  0.26039300  0.40955100  0.93558300  1
  H  H67  1  0.76039300  0.59044900  0.06441700  1
  C  C68  1  0.23362200  0.66815100  0.86979800  1
  C  C69  1  0.73362200  0.33184900  0.13020200  1
  C  C70  1  0.15610800  0.95273600  0.68218500  1
  C  C71  1  0.65610800  0.04726400  0.31781500  1
  C  C72  1  0.51613400  0.04780500  0.89955400  1
  C  C73  1  0.01613400  0.95219500  0.10044600  1
  C  C74  1  0.73793200  0.17465000  0.75984600  1
  C  C75  1  0.23793200  0.82535000  0.24015400  1
  C  C76  1  0.54371900  0.15755000  0.78703100  1
  C  C77  1  0.04371900  0.84245000  0.21296900  1
  C  C78  1  0.48173300  0.38981600  0.68742600  1
  C  C79  1  0.98173300  0.61018400  0.31257400  1
  C  C80  1  0.45949200  0.28041900  0.80106700  1
  C  C81  1  0.95949200  0.71958100  0.19893300  1
  C  C82  1  0.26714500  0.27020300  0.83346900  1
  C  C83  1  0.76714500  0.72979700  0.16653100  1
  C  C84  1  0.19608000  0.39268400  0.85453000  1
  C  C85  1  0.69608000  0.60731600  0.14547000  1
  C  C86  1  0.14654400  0.63251000  0.76105900  1
  C  C87  1  0.64654400  0.36749000  0.23894100  1
  C  C88  1  0.22071200  0.50529300  0.74429300  1
  C  C89  1  0.72071200  0.49470700  0.25570700  1
  C  C90  1  0.41133900  0.51472300  0.70379400  1
  C  C91  1  0.91133900  0.48527700  0.29620600  1
  C  C92  1  0.43753700  0.61962300  0.58755200  1
  C  C93  1  0.93753700  0.38037700  0.41244800  1
  C  C94  1  0.36373200  0.74439400  0.59932400  1
  C  C95  1  0.86373200  0.25560600  0.40067600  1
  C  C96  1  0.17353100  0.73113100  0.63658100  1
  C  C97  1  0.67353100  0.26886900  0.36341900  1
  C  C98  1  0.07827700  0.85797800  0.61930500  1
  C  C99  1  0.57827700  0.14202200  0.38069500  1
  C  C100  1  0.88587900  0.83486400  0.64974200  1
  C  C101  1  0.38587900  0.16513600  0.35025800  1
  C  C102  1  0.85781200  0.74530100  0.77508100  1
  C  C103  1  0.35781200  0.25469900  0.22491900  1
  C  C104  1  0.94996700  0.62040400  0.78529800  1
  C  C105  1  0.44996700  0.37959600  0.21470200  1
