# generated using pymatgen
data_NaCN
_symmetry_space_group_name_H-M   'P 1'
_cell_length_a   3.65426600
_cell_length_b   4.89181900
_cell_length_c   5.56937200
_cell_angle_alpha   90.00000000
_cell_angle_beta   90.00000000
_cell_angle_gamma   90.00000000
_symmetry_Int_Tables_number   1
_chemical_formula_structural   NaCN
_chemical_formula_sum   'Na2 C2 N2'
_cell_volume   99.55813759
_cell_formula_units_Z   2
loop_
 _symmetry_equiv_pos_site_id
 _symmetry_equiv_pos_as_xyz
  1  'x, y, z'
loop_
 _atom_site_type_symbol
 _atom_site_label
 _atom_site_symmetry_multiplicity
 _atom_site_fract_x
 _atom_site_fract_y
 _atom_site_fract_z
 _atom_site_occupancy
  Na  Na0  1  0.00000000  0.72741800  0.00000000  1
  Na  Na1  1  0.50000000  0.27258200  0.50000000  1
  C  C2  1  0.00000000  0.86574600  0.50000000  1
  C  C3  1  0.50000000  0.13425400  0.00000000  1
  N  N4  1  0.50000000  0.37540500  0.00000000  1
  N  N5  1  0.00000000  0.62459500  0.50000000  1
