# generated using pymatgen
data_La2W2O9
_symmetry_space_group_name_H-M   'P 1'
_cell_length_a   7.16875600
_cell_length_b   7.44036909
_cell_length_c   7.45236561
_cell_angle_alpha   70.86102128
_cell_angle_beta   84.78950934
_cell_angle_gamma   83.47546674
_symmetry_Int_Tables_number   1
_chemical_formula_structural   La2W2O9
_chemical_formula_sum   'La4 W4 O18'
_cell_volume   372.48444861
_cell_formula_units_Z   2
loop_
 _symmetry_equiv_pos_site_id
 _symmetry_equiv_pos_as_xyz
  1  'x, y, z'
loop_
 _atom_site_type_symbol
 _atom_site_label
 _atom_site_symmetry_multiplicity
 _atom_site_fract_x
 _atom_site_fract_y
 _atom_site_fract_z
 _atom_site_occupancy
  La  La0  1  0.84201900  0.74360000  0.84907200  1
  La  La1  1  0.15798100  0.25640000  0.15092800  1
  La  La2  1  0.37587300  0.72738100  0.58963600  1
  La  La3  1  0.62412700  0.27261900  0.41036400  1
  W  W4  1  0.15625900  0.20083400  0.64441500  1
  W  W5  1  0.84374100  0.79916600  0.35558500  1
  W  W6  1  0.72412200  0.27068300  0.94077100  1
  W  W7  1  0.27587800  0.72931700  0.05922900  1
  O  O8  1  0.34306300  0.35154700  0.64021400  1
  O  O9  1  0.65693700  0.64845300  0.35978600  1
  O  O10  1  0.01575300  0.27057400  0.84623900  1
  O  O11  1  0.98424700  0.72942600  0.15376100  1
  O  O12  1  0.49002900  0.76648800  0.90600500  1
  O  O13  1  0.50997100  0.23351200  0.09399500  1
  O  O14  1  0.66019700  0.48564600  0.74929600  1
  O  O15  1  0.33980300  0.51435400  0.25070400  1
  O  O16  1  0.27225900  0.91454600  0.17322800  1
  O  O17  1  0.72774100  0.08545400  0.82677200  1
  O  O18  1  0.81766100  0.41399700  0.08902600  1
  O  O19  1  0.18233900  0.58600300  0.91097400  1
  O  O20  1  0.97710500  0.28732000  0.46934900  1
  O  O21  1  0.02289500  0.71268000  0.53065100  1
  O  O22  1  0.85311800  0.05559500  0.20373400  1
  O  O23  1  0.14688200  0.94440500  0.79626600  1
  O  O24  1  0.31725200  0.09713600  0.46874400  1
  O  O25  1  0.68274800  0.90286400  0.53125700  1
