# generated using pymatgen
data_CsH3O2
_symmetry_space_group_name_H-M   'P 1'
_cell_length_a   7.82996411
_cell_length_b   7.82996411
_cell_length_c   7.82996411
_cell_angle_alpha   147.45001382
_cell_angle_beta   147.45001382
_cell_angle_gamma   46.69792223
_symmetry_Int_Tables_number   1
_chemical_formula_structural   CsH3O2
_chemical_formula_sum   'Cs2 H6 O4'
_cell_volume   138.45780248
_cell_formula_units_Z   2
loop_
 _symmetry_equiv_pos_site_id
 _symmetry_equiv_pos_as_xyz
  1  'x, y, z'
loop_
 _atom_site_type_symbol
 _atom_site_label
 _atom_site_symmetry_multiplicity
 _atom_site_fract_x
 _atom_site_fract_y
 _atom_site_fract_z
 _atom_site_occupancy
  Cs  Cs0  1  0.75000000  0.25000000  0.50000000  1
  Cs  Cs1  1  0.00000000  0.00000000  0.00000000  1
  H  H2  1  0.37500000  0.62500000  0.25000000  1
  H  H3  1  0.37500000  0.62500000  0.75000000  1
  H  H4  1  0.87500000  0.62500000  0.25000000  1
  H  H5  1  0.37500000  0.12500000  0.75000000  1
  H  H6  1  0.25000000  0.75000000  0.50000000  1
  H  H7  1  0.50000000  0.50000000  0.00000000  1
  O  O8  1  0.33558400  0.83558400  0.50000000  1
  O  O9  1  0.41441600  0.41441600  0.00000000  1
  O  O10  1  0.58558400  0.58558400  0.00000000  1
  O  O11  1  0.16441600  0.66441600  0.50000000  1
