# generated using pymatgen
data_BeI2
_symmetry_space_group_name_H-M   'P 1'
_cell_length_a   14.09856386
_cell_length_b   14.09856386
_cell_length_c   14.09856386
_cell_angle_alpha   125.11772811
_cell_angle_beta   125.11772811
_cell_angle_gamma   81.34312626
_symmetry_Int_Tables_number   1
_chemical_formula_structural   BeI2
_chemical_formula_sum   'Be16 I32'
_cell_volume   1805.55584087
_cell_formula_units_Z   16
loop_
 _symmetry_equiv_pos_site_id
 _symmetry_equiv_pos_as_xyz
  1  'x, y, z'
loop_
 _atom_site_type_symbol
 _atom_site_label
 _atom_site_symmetry_multiplicity
 _atom_site_fract_x
 _atom_site_fract_y
 _atom_site_fract_z
 _atom_site_occupancy
  Be  Be0  1  0.43721100  0.73295800  0.54357600  1
  Be  Be1  1  0.48295800  0.43938200  0.79574600  1
  Be  Be2  1  0.64363500  0.68721100  0.20425400  1
  Be  Be3  1  0.81278900  0.85636500  0.79574600  1
  Be  Be4  1  0.06061800  0.01704200  0.20425400  1
  Be  Be5  1  0.60636500  0.31061800  0.54357600  1
  Be  Be6  1  0.76704200  0.06278900  0.45642400  1
  Be  Be7  1  0.18938200  0.89363500  0.45642400  1
  Be  Be8  1  0.31278900  0.51704200  0.95642400  1
  Be  Be9  1  0.26704200  0.81061800  0.70425400  1
  Be  Be10  1  0.10636500  0.56278900  0.29574600  1
  Be  Be11  1  0.93721100  0.39363500  0.70425400  1
  Be  Be12  1  0.68938200  0.23295800  0.29574600  1
  Be  Be13  1  0.14363500  0.93938200  0.95642400  1
  Be  Be14  1  0.98295800  0.18721100  0.04357600  1
  Be  Be15  1  0.56061800  0.35636500  0.04357600  1
  I  I16  1  0.46342300  0.79171200  0.75710500  1
  I  I17  1  0.54171200  0.28460700  0.82828900  1
  I  I18  1  0.45631800  0.71342300  0.17171100  1
  I  I19  1  0.78657700  0.04368200  0.82828900  1
  I  I20  1  0.21539300  0.95828800  0.17171100  1
  I  I21  1  0.79368200  0.46539300  0.75710500  1
  I  I22  1  0.70828800  0.03657700  0.24289500  1
  I  I23  1  0.03460700  0.70631800  0.24289500  1
  I  I24  1  0.28657700  0.45828800  0.74289500  1
  I  I25  1  0.20828800  0.96539300  0.67171100  1
  I  I26  1  0.29368200  0.53657700  0.32828900  1
  I  I27  1  0.96342300  0.20631800  0.67171100  1
  I  I28  1  0.53460700  0.29171200  0.32828900  1
  I  I29  1  0.95631800  0.78460700  0.74289500  1
  I  I30  1  0.04171200  0.21342300  0.25710500  1
  I  I31  1  0.71539300  0.54368200  0.25710500  1
  I  I32  1  0.38273000  0.88273000  0.50000000  1
  I  I33  1  0.63273000  0.63273000  0.00000000  1
  I  I34  1  0.86727000  0.86727000  0.00000000  1
  I  I35  1  0.61727000  0.11727000  0.50000000  1
  I  I36  1  0.36727000  0.36727000  0.00000000  1
  I  I37  1  0.11727000  0.61727000  0.50000000  1
  I  I38  1  0.88273000  0.38273000  0.50000000  1
  I  I39  1  0.13273000  0.13273000  0.00000000  1
  I  I40  1  0.62500000  0.69778800  0.57278800  1
  I  I41  1  0.44778800  0.37500000  0.57278800  1
  I  I42  1  0.80221200  0.87500000  0.42721200  1
  I  I43  1  0.12500000  0.05221200  0.42721200  1
  I  I44  1  0.12500000  0.55221200  0.92721200  1
  I  I45  1  0.30221200  0.87500000  0.92721200  1
  I  I46  1  0.94778800  0.37500000  0.07278800  1
  I  I47  1  0.62500000  0.19778800  0.07278800  1
