# generated using pymatgen
data_Sr2AuN
_symmetry_space_group_name_H-M   'P 1'
_cell_length_a   9.79152057
_cell_length_b   9.79152057
_cell_length_c   5.30453800
_cell_angle_alpha   90.00000000
_cell_angle_beta   90.00000000
_cell_angle_gamma   157.66972448
_symmetry_Int_Tables_number   1
_chemical_formula_structural   Sr2AuN
_chemical_formula_sum   'Sr4 Au2 N2'
_cell_volume   193.22733887
_cell_formula_units_Z   2
loop_
 _symmetry_equiv_pos_site_id
 _symmetry_equiv_pos_as_xyz
  1  'x, y, z'
loop_
 _atom_site_type_symbol
 _atom_site_label
 _atom_site_symmetry_multiplicity
 _atom_site_fract_x
 _atom_site_fract_y
 _atom_site_fract_z
 _atom_site_occupancy
  Sr  Sr0  1  0.21427300  0.78572700  0.75000000  1
  Sr  Sr1  1  0.78572700  0.21427300  0.25000000  1
  Sr  Sr2  1  0.60096400  0.39903600  0.25000000  1
  Sr  Sr3  1  0.39903600  0.60096400  0.75000000  1
  Au  Au4  1  0.03985800  0.96014200  0.75000000  1
  Au  Au5  1  0.96014200  0.03985800  0.25000000  1
  N  N6  1  0.19292400  0.80707600  0.25000000  1
  N  N7  1  0.80707600  0.19292400  0.75000000  1
