# generated using pymatgen
data_Cs2PdCl4
_symmetry_space_group_name_H-M   'P 1'
_cell_length_a   7.63552097
_cell_length_b   7.63552097
_cell_length_c   9.48393600
_cell_angle_alpha   90.00000000
_cell_angle_beta   90.00000000
_cell_angle_gamma   90.02734723
_symmetry_Int_Tables_number   1
_chemical_formula_structural   Cs2PdCl4
_chemical_formula_sum   'Cs4 Pd2 Cl8'
_cell_volume   552.92460103
_cell_formula_units_Z   2
loop_
 _symmetry_equiv_pos_site_id
 _symmetry_equiv_pos_as_xyz
  1  'x, y, z'
loop_
 _atom_site_type_symbol
 _atom_site_label
 _atom_site_symmetry_multiplicity
 _atom_site_fract_x
 _atom_site_fract_y
 _atom_site_fract_z
 _atom_site_occupancy
  Cs  Cs0  1  0.49679900  0.00591500  0.75000000  1
  Cs  Cs1  1  0.50320100  0.99408500  0.25000000  1
  Cs  Cs2  1  0.00591500  0.49679900  0.75000000  1
  Cs  Cs3  1  0.99408500  0.50320100  0.25000000  1
  Pd  Pd4  1  0.00000000  0.00000000  0.50000000  1
  Pd  Pd5  1  0.00000000  0.00000000  0.00000000  1
  Cl  Cl6  1  0.78367700  0.78367700  0.99372600  1
  Cl  Cl7  1  0.21632300  0.21632300  0.49372600  1
  Cl  Cl8  1  0.78367700  0.78367700  0.50627400  1
  Cl  Cl9  1  0.21632300  0.21632300  0.00627400  1
  Cl  Cl10  1  0.78371900  0.21628100  0.50000000  1
  Cl  Cl11  1  0.21628100  0.78371900  0.00000000  1
  Cl  Cl12  1  0.78371900  0.21628100  0.00000000  1
  Cl  Cl13  1  0.21628100  0.78371900  0.50000000  1
