# generated using pymatgen
data_Ca3Au
_symmetry_space_group_name_H-M   'P 1'
_cell_length_a   6.81694400
_cell_length_b   7.86182200
_cell_length_c   9.91693500
_cell_angle_alpha   90.00000000
_cell_angle_beta   90.00000000
_cell_angle_gamma   90.00000000
_symmetry_Int_Tables_number   1
_chemical_formula_structural   Ca3Au
_chemical_formula_sum   'Ca12 Au4'
_cell_volume   531.48425071
_cell_formula_units_Z   4
loop_
 _symmetry_equiv_pos_site_id
 _symmetry_equiv_pos_as_xyz
  1  'x, y, z'
loop_
 _atom_site_type_symbol
 _atom_site_label
 _atom_site_symmetry_multiplicity
 _atom_site_fract_x
 _atom_site_fract_y
 _atom_site_fract_z
 _atom_site_occupancy
  Ca  Ca0  1  0.66272300  0.17493300  0.43628300  1
  Ca  Ca1  1  0.16272300  0.32506700  0.56371700  1
  Ca  Ca2  1  0.83727700  0.67493300  0.06371700  1
  Ca  Ca3  1  0.33727700  0.82506700  0.93628300  1
  Ca  Ca4  1  0.14352700  0.03649700  0.25000000  1
  Ca  Ca5  1  0.64352700  0.46350300  0.75000000  1
  Ca  Ca6  1  0.35647300  0.53649700  0.25000000  1
  Ca  Ca7  1  0.85647300  0.96350300  0.75000000  1
  Ca  Ca8  1  0.66272300  0.17493300  0.06371700  1
  Ca  Ca9  1  0.16272300  0.32506700  0.93628300  1
  Ca  Ca10  1  0.83727700  0.67493300  0.43628300  1
  Ca  Ca11  1  0.33727700  0.82506700  0.56371700  1
  Au  Au12  1  0.04990100  0.62199600  0.75000000  1
  Au  Au13  1  0.54990100  0.87800400  0.25000000  1
  Au  Au14  1  0.45009900  0.12199600  0.75000000  1
  Au  Au15  1  0.95009900  0.37800400  0.25000000  1
