# generated using pymatgen
data_La2Cd17
_symmetry_space_group_name_H-M   'P 1'
_cell_length_a   10.20251956
_cell_length_b   10.20251956
_cell_length_c   10.03542600
_cell_angle_alpha   90.00000000
_cell_angle_beta   90.00000000
_cell_angle_gamma   119.99999718
_symmetry_Int_Tables_number   1
_chemical_formula_structural   La2Cd17
_chemical_formula_sum   'La4 Cd34'
_cell_volume   904.65154541
_cell_formula_units_Z   2
loop_
 _symmetry_equiv_pos_site_id
 _symmetry_equiv_pos_as_xyz
  1  'x, y, z'
loop_
 _atom_site_type_symbol
 _atom_site_label
 _atom_site_symmetry_multiplicity
 _atom_site_fract_x
 _atom_site_fract_y
 _atom_site_fract_z
 _atom_site_occupancy
  La  La0  1  0.00000000  0.00000000  0.25000000  1
  La  La1  1  0.00000000  0.00000000  0.75000000  1
  La  La2  1  0.33333300  0.66666700  0.75000000  1
  La  La3  1  0.66666700  0.33333300  0.25000000  1
  Cd  Cd4  1  0.33333300  0.66666700  0.09854200  1
  Cd  Cd5  1  0.66666700  0.33333300  0.59854200  1
  Cd  Cd6  1  0.66666700  0.33333300  0.90145800  1
  Cd  Cd7  1  0.33333300  0.66666700  0.40145800  1
  Cd  Cd8  1  0.50000000  0.00000000  0.00000000  1
  Cd  Cd9  1  0.50000000  0.50000000  0.50000000  1
  Cd  Cd10  1  0.00000000  0.50000000  0.50000000  1
  Cd  Cd11  1  0.00000000  0.50000000  0.00000000  1
  Cd  Cd12  1  0.50000000  0.50000000  0.00000000  1
  Cd  Cd13  1  0.50000000  0.00000000  0.50000000  1
  Cd  Cd14  1  0.03863900  0.67270000  0.25000000  1
  Cd  Cd15  1  0.36593900  0.03863900  0.75000000  1
  Cd  Cd16  1  0.67270000  0.63406100  0.75000000  1
  Cd  Cd17  1  0.32730000  0.36593900  0.25000000  1
  Cd  Cd18  1  0.63406100  0.96136100  0.25000000  1
  Cd  Cd19  1  0.36593900  0.32730000  0.75000000  1
  Cd  Cd20  1  0.96136100  0.63406100  0.75000000  1
  Cd  Cd21  1  0.96136100  0.32730000  0.75000000  1
  Cd  Cd22  1  0.67270000  0.03863900  0.75000000  1
  Cd  Cd23  1  0.32730000  0.96136100  0.25000000  1
  Cd  Cd24  1  0.63406100  0.67270000  0.25000000  1
  Cd  Cd25  1  0.03863900  0.36593900  0.25000000  1
  Cd  Cd26  1  0.16019200  0.32038500  0.97133000  1
  Cd  Cd27  1  0.83980800  0.16019200  0.47133000  1
  Cd  Cd28  1  0.32038500  0.16019200  0.47133000  1
  Cd  Cd29  1  0.67961500  0.83980800  0.97133000  1
  Cd  Cd30  1  0.16019200  0.83980800  0.97133000  1
  Cd  Cd31  1  0.83980800  0.67961500  0.02867000  1
  Cd  Cd32  1  0.83980800  0.16019200  0.02867000  1
  Cd  Cd33  1  0.83980800  0.67961500  0.47133000  1
  Cd  Cd34  1  0.32038500  0.16019200  0.02867000  1
  Cd  Cd35  1  0.67961500  0.83980800  0.52867000  1
  Cd  Cd36  1  0.16019200  0.32038500  0.52867000  1
  Cd  Cd37  1  0.16019200  0.83980800  0.52867000  1
