# generated using pymatgen
data_Li4TiFe3Sn2(PO4)6
_symmetry_space_group_name_H-M   'P 1'
_cell_length_a   9.32138892
_cell_length_b   9.29250062
_cell_length_c   9.46620144
_cell_angle_alpha   54.92604672
_cell_angle_beta   54.00555718
_cell_angle_gamma   55.73772639
_symmetry_Int_Tables_number   1
_chemical_formula_structural   Li4TiFe3Sn2(PO4)6
_chemical_formula_sum   'Li4 Ti1 Fe3 Sn2 P6 O24'
_cell_volume   510.55132810
_cell_formula_units_Z   1
loop_
 _symmetry_equiv_pos_site_id
 _symmetry_equiv_pos_as_xyz
  1  'x, y, z'
loop_
 _atom_site_type_symbol
 _atom_site_label
 _atom_site_symmetry_multiplicity
 _atom_site_fract_x
 _atom_site_fract_y
 _atom_site_fract_z
 _atom_site_occupancy
  Li  Li0  1  0.79627600  0.13047000  0.40169600  1
  Li  Li1  1  0.29327300  0.91432700  0.62691500  1
  Li  Li2  1  0.64479800  0.29384600  0.89719200  1
  Li  Li3  1  0.88982900  0.64232100  0.30420600  1
  Ti  Ti4  1  0.85069200  0.83922500  0.85651900  1
  Fe  Fe5  1  0.16913700  0.15248100  0.15491700  1
  Fe  Fe6  1  0.33112200  0.35206100  0.31341100  1
  Fe  Fe7  1  0.64552900  0.65381300  0.66256600  1
  Sn  Sn8  1  0.04108800  0.02132300  0.01397400  1
  Sn  Sn9  1  0.45509200  0.50226000  0.46976300  1
  P  P10  1  0.03551800  0.74928400  0.45592500  1
  P  P11  1  0.46252200  0.03734500  0.75254000  1
  P  P12  1  0.23106400  0.55275900  0.95397900  1
  P  P13  1  0.54607200  0.95222800  0.23714000  1
  P  P14  1  0.94943600  0.23642400  0.54361000  1
  P  P15  1  0.74938700  0.44749700  0.04232900  1
  O  O16  1  0.15415200  0.18910600  0.51237100  1
  O  O17  1  0.16790800  0.55492100  0.14700300  1
  O  O18  1  0.09647300  0.90795000  0.26335000  1
  O  O19  1  0.53757300  0.15294400  0.17199400  1
  O  O20  1  0.98592800  0.80333300  0.61003200  1
  O  O21  1  0.20049600  0.55612000  0.46084600  1
  O  O22  1  0.26691700  0.12244100  0.89072300  1
  O  O23  1  0.51387700  0.19581900  0.55403000  1
  O  O24  1  0.20248000  0.39686500  0.97255400  1
  O  O25  1  0.54815800  0.46649500  0.20731600  1
  O  O26  1  0.10801300  0.74757600  0.84735200  1
  O  O27  1  0.38734300  0.95205000  0.22917300  1
  O  O28  1  0.61681800  0.95661500  0.82221400  1
  O  O29  1  0.88573000  0.24988400  0.12390900  1
  O  O30  1  0.43927900  0.53786400  0.83092100  1
  O  O31  1  0.81452200  0.59874500  0.98931300  1
  O  O32  1  0.54617000  0.82772300  0.43480000  1
  O  O33  1  0.74288500  0.85539300  0.09989900  1
  O  O34  1  0.82088800  0.43486000  0.54364300  1
  O  O35  1  0.95075300  0.21048900  0.39599000  1
  O  O36  1  0.44416200  0.89175500  0.73993400  1
  O  O37  1  0.86018000  0.09616500  0.74377200  1
  O  O38  1  0.74926100  0.45023800  0.88011700  1
  O  O39  1  0.86919900  0.74398400  0.46506300  1
