# generated using pymatgen
data_Ti6O11
_symmetry_space_group_name_H-M   'P 1'
_cell_length_a   5.60365700
_cell_length_b   7.18983541
_cell_length_c   9.80329320
_cell_angle_alpha   90.00746586
_cell_angle_beta   100.42972942
_cell_angle_gamma   108.69092557
_symmetry_Int_Tables_number   1
_chemical_formula_structural   Ti6O11
_chemical_formula_sum   'Ti12 O22'
_cell_volume   367.23931902
_cell_formula_units_Z   2
loop_
 _symmetry_equiv_pos_site_id
 _symmetry_equiv_pos_as_xyz
  1  'x, y, z'
loop_
 _atom_site_type_symbol
 _atom_site_label
 _atom_site_symmetry_multiplicity
 _atom_site_fract_x
 _atom_site_fract_y
 _atom_site_fract_z
 _atom_site_occupancy
  Ti  Ti0  1  0.22911000  0.63821900  0.08572700  1
  Ti  Ti1  1  0.77089000  0.36178100  0.91427300  1
  Ti  Ti2  1  0.22584000  0.13876700  0.08306900  1
  Ti  Ti3  1  0.77416000  0.86123300  0.91693100  1
  Ti  Ti4  1  0.68900800  0.42787900  0.25669000  1
  Ti  Ti5  1  0.31099200  0.57212100  0.74331000  1
  Ti  Ti6  1  0.68637000  0.92468300  0.25697600  1
  Ti  Ti7  1  0.31363000  0.07531700  0.74302400  1
  Ti  Ti8  1  0.18152100  0.69625100  0.43912100  1
  Ti  Ti9  1  0.81847900  0.30374900  0.56087900  1
  Ti  Ti10  1  0.17886600  0.19336100  0.43465000  1
  Ti  Ti11  1  0.82113400  0.80663900  0.56535000  1
  O  O12  1  0.09644700  0.35777600  0.02616400  1
  O  O13  1  0.90355300  0.64222400  0.97383600  1
  O  O14  1  0.59358900  0.30296900  0.07533600  1
  O  O15  1  0.40641100  0.69703100  0.92466400  1
  O  O16  1  0.87809200  0.98225200  0.10983100  1
  O  O17  1  0.12190800  0.01774800  0.89016900  1
  O  O18  1  0.36413200  0.92219300  0.15122200  1
  O  O19  1  0.63586800  0.07780700  0.84877800  1
  O  O20  1  0.56583900  0.64203900  0.20494300  1
  O  O21  1  0.43416100  0.35796100  0.79505700  1
  O  O22  1  0.05428300  0.57440800  0.25738700  1
  O  O23  1  0.94571700  0.42559200  0.74261300  1
  O  O24  1  0.33943700  0.26184200  0.28384100  1
  O  O25  1  0.66056300  0.73815800  0.71615900  1
  O  O26  1  0.81543500  0.20090600  0.35409100  1
  O  O27  1  0.18456500  0.79909400  0.64590900  1
  O  O28  1  0.47327400  0.17215100  0.56491700  1
  O  O29  1  0.01429900  0.90601200  0.39139200  1
  O  O30  1  0.52672600  0.82784900  0.43508300  1
  O  O31  1  0.78968400  0.54454200  0.46725600  1
  O  O32  1  0.21031600  0.45545800  0.53274400  1
  O  O33  1  0.98570100  0.09398800  0.60860800  1
