# generated using pymatgen
data_Li4NbCr(TeO6)2
_symmetry_space_group_name_H-M   'P 1'
_cell_length_a   7.50125561
_cell_length_b   8.97363922
_cell_length_c   7.50379729
_cell_angle_alpha   113.50245972
_cell_angle_beta   92.92139223
_cell_angle_gamma   66.61039268
_symmetry_Int_Tables_number   1
_chemical_formula_structural   Li4NbCr(TeO6)2
_chemical_formula_sum   'Li8 Nb2 Cr2 Te4 O24'
_cell_volume   421.67022992
_cell_formula_units_Z   2
loop_
 _symmetry_equiv_pos_site_id
 _symmetry_equiv_pos_as_xyz
  1  'x, y, z'
loop_
 _atom_site_type_symbol
 _atom_site_label
 _atom_site_symmetry_multiplicity
 _atom_site_fract_x
 _atom_site_fract_y
 _atom_site_fract_z
 _atom_site_occupancy
  Li  Li0  1  0.08054800  0.26609100  0.91852800  1
  Li  Li1  1  0.58065800  0.26620400  0.41849200  1
  Li  Li2  1  0.31918900  0.80096900  0.17968300  1
  Li  Li3  1  0.81953600  0.80110100  0.68041700  1
  Li  Li4  1  0.30024300  0.80601700  0.69572900  1
  Li  Li5  1  0.80036700  0.80591200  0.19544100  1
  Li  Li6  1  0.61819500  0.24888800  0.88517700  1
  Li  Li7  1  0.11780100  0.24888300  0.38470900  1
  Nb  Nb8  1  0.24753400  0.50620900  0.25405600  1
  Nb  Nb9  1  0.74753400  0.50625900  0.75404600  1
  Cr  Cr10  1  0.99571400  0.00031300  0.00396200  1
  Cr  Cr11  1  0.49561000  0.00042500  0.50419500  1
  Te  Te12  1  0.24836100  0.50020200  0.75272700  1
  Te  Te13  1  0.74841000  0.50019100  0.25277100  1
  Te  Te14  1  0.99955400  0.00267400  0.50215600  1
  Te  Te15  1  0.49965500  0.00272400  0.00217100  1
  O  O16  1  0.53258100  0.43070400  0.77293100  1
  O  O17  1  0.03268700  0.43075100  0.27297800  1
  O  O18  1  0.19945700  0.74035300  0.92599900  1
  O  O19  1  0.70002400  0.74003000  0.42621200  1
  O  O20  1  0.04412600  0.04998200  0.28110400  1
  O  O21  1  0.54558500  0.04970200  0.78174900  1
  O  O22  1  0.22197400  0.43017400  0.96033300  1
  O  O23  1  0.72191100  0.43020300  0.46036800  1
  O  O24  1  0.27846200  0.92698200  0.51602200  1
  O  O25  1  0.77911400  0.92715800  0.01645500  1
  O  O26  1  0.06576300  0.74999200  0.30707100  1
  O  O27  1  0.56579000  0.74997200  0.80707000  1
  O  O28  1  0.94228600  0.24897200  0.68153600  1
  O  O29  1  0.44231900  0.24906200  0.18166000  1
  O  O30  1  0.73042900  0.05206900  0.46089500  1
  O  O31  1  0.23032200  0.05213400  0.96068900  1
  O  O32  1  0.79032800  0.55736600  0.03135800  1
  O  O33  1  0.29031900  0.55749100  0.53139000  1
  O  O34  1  0.98194700  0.93310100  0.71076500  1
  O  O35  1  0.48153300  0.93282100  0.21005100  1
  O  O36  1  0.82148500  0.25946000  0.05662600  1
  O  O37  1  0.32092800  0.25989200  0.55626300  1
  O  O38  1  0.47414500  0.56046400  0.20988400  1
  O  O39  1  0.97398400  0.56049900  0.70992200  1
