# generated using pymatgen
data_KAu2
_symmetry_space_group_name_H-M   'P 1'
_cell_length_a   5.76264751
_cell_length_b   5.76264751
_cell_length_c   9.98497300
_cell_angle_alpha   90.00000000
_cell_angle_beta   90.00000000
_cell_angle_gamma   119.99999442
_symmetry_Int_Tables_number   1
_chemical_formula_structural   KAu2
_chemical_formula_sum   'K4 Au8'
_cell_volume   287.15849099
_cell_formula_units_Z   4
loop_
 _symmetry_equiv_pos_site_id
 _symmetry_equiv_pos_as_xyz
  1  'x, y, z'
loop_
 _atom_site_type_symbol
 _atom_site_label
 _atom_site_symmetry_multiplicity
 _atom_site_fract_x
 _atom_site_fract_y
 _atom_site_fract_z
 _atom_site_occupancy
  K  K0  1  0.33333300  0.66666700  0.56107100  1
  K  K1  1  0.66666700  0.33333300  0.06107100  1
  K  K2  1  0.66666700  0.33333300  0.43892900  1
  K  K3  1  0.33333300  0.66666700  0.93892900  1
  Au  Au4  1  0.33391400  0.16695700  0.75000000  1
  Au  Au5  1  0.66608600  0.83304300  0.25000000  1
  Au  Au6  1  0.16695700  0.83304300  0.25000000  1
  Au  Au7  1  0.83304300  0.66608600  0.75000000  1
  Au  Au8  1  0.83304300  0.16695700  0.75000000  1
  Au  Au9  1  0.16695700  0.33391400  0.25000000  1
  Au  Au10  1  0.00000000  0.00000000  0.50000000  1
  Au  Au11  1  0.00000000  0.00000000  0.00000000  1
