# generated using pymatgen
data_Ta3As
_symmetry_space_group_name_H-M   'P 1'
_cell_length_a   7.83808892
_cell_length_b   7.83808892
_cell_length_c   14.65893373
_cell_angle_alpha   89.39495415
_cell_angle_beta   89.39495415
_cell_angle_gamma   38.27015568
_symmetry_Int_Tables_number   1
_chemical_formula_structural   Ta3As
_chemical_formula_sum   'Ta24 As8'
_cell_volume   557.75812986
_cell_formula_units_Z   8
loop_
 _symmetry_equiv_pos_site_id
 _symmetry_equiv_pos_as_xyz
  1  'x, y, z'
loop_
 _atom_site_type_symbol
 _atom_site_label
 _atom_site_symmetry_multiplicity
 _atom_site_fract_x
 _atom_site_fract_y
 _atom_site_fract_z
 _atom_site_occupancy
  Ta  Ta0  1  0.56754700  0.56606600  0.17072600  1
  Ta  Ta1  1  0.43393400  0.43245300  0.32927400  1
  Ta  Ta2  1  0.43245300  0.43393400  0.82927400  1
  Ta  Ta3  1  0.56606600  0.56754700  0.67072600  1
  Ta  Ta4  1  0.06311900  0.08544100  0.32285000  1
  Ta  Ta5  1  0.91455900  0.93688100  0.17715000  1
  Ta  Ta6  1  0.93688100  0.91455900  0.67715000  1
  Ta  Ta7  1  0.08544100  0.06311900  0.82285000  1
  Ta  Ta8  1  0.50034300  0.98429400  0.20208200  1
  Ta  Ta9  1  0.01570600  0.49965700  0.29791800  1
  Ta  Ta10  1  0.49965700  0.01570600  0.79791800  1
  Ta  Ta11  1  0.98429400  0.50034300  0.70208200  1
  Ta  Ta12  1  0.79894700  0.29802800  0.99418900  1
  Ta  Ta13  1  0.70197200  0.20105300  0.50581100  1
  Ta  Ta14  1  0.20105300  0.70197200  0.00581100  1
  Ta  Ta15  1  0.29802800  0.79894700  0.49418900  1
  Ta  Ta16  1  0.90512000  0.41219600  0.49569700  1
  Ta  Ta17  1  0.58780400  0.09488000  0.00430300  1
  Ta  Ta18  1  0.09488000  0.58780400  0.50430300  1
  Ta  Ta19  1  0.41219600  0.90512000  0.99569700  1
  Ta  Ta20  1  0.02384700  0.48181700  0.90913400  1
  Ta  Ta21  1  0.51818300  0.97615300  0.59086600  1
  Ta  Ta22  1  0.97615300  0.51818300  0.09086600  1
  Ta  Ta23  1  0.48181700  0.02384700  0.40913400  1
  As  As24  1  0.10184700  0.09920300  0.64103500  1
  As  As25  1  0.90079700  0.89815300  0.85896500  1
  As  As26  1  0.89815300  0.90079700  0.35896500  1
  As  As27  1  0.09920300  0.10184700  0.14103500  1
  As  As28  1  0.40057900  0.37217000  0.65586500  1
  As  As29  1  0.62783000  0.59942100  0.84413500  1
  As  As30  1  0.59942100  0.62783000  0.34413500  1
  As  As31  1  0.37217000  0.40057900  0.15586500  1
