# generated using pymatgen
data_V(NiP4)4
_symmetry_space_group_name_H-M   'P 1'
_cell_length_a   10.18163926
_cell_length_b   10.18163926
_cell_length_c   11.09703145
_cell_angle_alpha   79.54599082
_cell_angle_beta   79.54599082
_cell_angle_gamma   32.30817443
_symmetry_Int_Tables_number   1
_chemical_formula_structural   V(NiP4)4
_chemical_formula_sum   'V2 Ni8 P32'
_cell_volume   603.77817299
_cell_formula_units_Z   2
loop_
 _symmetry_equiv_pos_site_id
 _symmetry_equiv_pos_as_xyz
  1  'x, y, z'
loop_
 _atom_site_type_symbol
 _atom_site_label
 _atom_site_symmetry_multiplicity
 _atom_site_fract_x
 _atom_site_fract_y
 _atom_site_fract_z
 _atom_site_occupancy
  V  V0  1  0.60708700  0.39291300  0.25000000  1
  V  V1  1  0.39291300  0.60708700  0.75000000  1
  Ni  Ni2  1  0.80566900  0.69324100  0.37098600  1
  Ni  Ni3  1  0.30675900  0.19433100  0.12901400  1
  Ni  Ni4  1  0.98785300  0.79983400  0.07379800  1
  Ni  Ni5  1  0.20016600  0.01214700  0.42620200  1
  Ni  Ni6  1  0.01214700  0.20016600  0.92620200  1
  Ni  Ni7  1  0.79983400  0.98785300  0.57379800  1
  Ni  Ni8  1  0.69324100  0.80566900  0.87098600  1
  Ni  Ni9  1  0.19433100  0.30675900  0.62901400  1
  P  P10  1  0.72812800  0.26346400  0.60870500  1
  P  P11  1  0.73653600  0.27187200  0.89129500  1
  P  P12  1  0.27187200  0.73653600  0.39129500  1
  P  P13  1  0.26346400  0.72812800  0.10870500  1
  P  P14  1  0.61879800  0.61832800  0.66346800  1
  P  P15  1  0.38167200  0.38120200  0.83653200  1
  P  P16  1  0.38120200  0.38167200  0.33653200  1
  P  P17  1  0.61832800  0.61879800  0.16346800  1
  P  P18  1  0.01151200  0.26928600  0.71966800  1
  P  P19  1  0.73071400  0.98848800  0.78033200  1
  P  P20  1  0.88563300  0.99448900  0.36603600  1
  P  P21  1  0.00551100  0.11436700  0.13396400  1
  P  P22  1  0.11436700  0.00551100  0.63396400  1
  P  P23  1  0.99448900  0.88563300  0.86603600  1
  P  P24  1  0.65751000  0.22136000  0.08223300  1
  P  P25  1  0.77864000  0.34249000  0.41776700  1
  P  P26  1  0.34249000  0.77864000  0.91776700  1
  P  P27  1  0.22136000  0.65751000  0.58223300  1
  P  P28  1  0.32189500  0.39629900  0.04155900  1
  P  P29  1  0.60370100  0.67810500  0.45844100  1
  P  P30  1  0.67810500  0.60370100  0.95844100  1
  P  P31  1  0.39629900  0.32189500  0.54155900  1
  P  P32  1  0.72198000  0.85294100  0.05382600  1
  P  P33  1  0.14705900  0.27802000  0.44617400  1
  P  P34  1  0.27802000  0.14705900  0.94617400  1
  P  P35  1  0.85294100  0.72198000  0.55382600  1
  P  P36  1  0.44393100  0.11442700  0.31221400  1
  P  P37  1  0.88557300  0.55606900  0.18778600  1
  P  P38  1  0.55606900  0.88557300  0.68778600  1
  P  P39  1  0.11442700  0.44393100  0.81221400  1
  P  P40  1  0.26928600  0.01151200  0.21966800  1
  P  P41  1  0.98848800  0.73071400  0.28033200  1
