# generated using pymatgen
data_LaCu4
_symmetry_space_group_name_H-M   'P 1'
_cell_length_a   11.46436082
_cell_length_b   11.46436082
_cell_length_c   11.46436082
_cell_angle_alpha   134.37375413
_cell_angle_beta   134.37375413
_cell_angle_gamma   66.50481703
_symmetry_Int_Tables_number   1
_chemical_formula_structural   LaCu4
_chemical_formula_sum   'La9 Cu36'
_cell_volume   757.71158383
_cell_formula_units_Z   9
loop_
 _symmetry_equiv_pos_site_id
 _symmetry_equiv_pos_as_xyz
  1  'x, y, z'
loop_
 _atom_site_type_symbol
 _atom_site_label
 _atom_site_symmetry_multiplicity
 _atom_site_fract_x
 _atom_site_fract_y
 _atom_site_fract_z
 _atom_site_occupancy
  La  La0  1  0.00000000  0.00000000  0.00000000  1
  La  La1  1  0.20675600  0.20675600  0.00000000  1
  La  La2  1  0.79324400  0.79324400  0.00000000  1
  La  La3  1  0.05182000  0.55182000  0.50000000  1
  La  La4  1  0.44818000  0.94818000  0.50000000  1
  La  La5  1  0.61841400  0.37413100  0.24428200  1
  La  La6  1  0.62586900  0.87015100  0.24428200  1
  La  La7  1  0.62586900  0.38158600  0.75571800  1
  La  La8  1  0.12984900  0.37413100  0.75571800  1
  Cu  Cu9  1  0.24593900  0.75406100  0.00000000  1
  Cu  Cu10  1  0.24593900  0.24593900  0.49187700  1
  Cu  Cu11  1  0.75406100  0.75406100  0.50812300  1
  Cu  Cu12  1  0.75406100  0.24593900  0.00000000  1
  Cu  Cu13  1  0.55295600  0.20904700  0.34390900  1
  Cu  Cu14  1  0.79095300  0.13486200  0.34390900  1
  Cu  Cu15  1  0.79095300  0.44704400  0.65609100  1
  Cu  Cu16  1  0.86513800  0.20904700  0.65609100  1
  Cu  Cu17  1  0.15124100  0.79419100  0.35705100  1
  Cu  Cu18  1  0.20580900  0.56286000  0.35705100  1
  Cu  Cu19  1  0.20580900  0.84875900  0.64294900  1
  Cu  Cu20  1  0.43714000  0.79419100  0.64294900  1
  Cu  Cu21  1  0.92296900  0.66878500  0.25418400  1
  Cu  Cu22  1  0.33121500  0.58539900  0.25418400  1
  Cu  Cu23  1  0.33121500  0.07703100  0.74581600  1
  Cu  Cu24  1  0.41460100  0.66878500  0.74581600  1
  Cu  Cu25  1  0.69780800  0.54144500  0.15636300  1
  Cu  Cu26  1  0.45855500  0.61491700  0.15636300  1
  Cu  Cu27  1  0.45855500  0.30219200  0.84363700  1
  Cu  Cu28  1  0.38508300  0.54144500  0.84363700  1
  Cu  Cu29  1  0.36536400  0.07926100  0.28610200  1
  Cu  Cu30  1  0.92073900  0.20684100  0.28610200  1
  Cu  Cu31  1  0.92073900  0.63463600  0.71389800  1
  Cu  Cu32  1  0.79315900  0.07926100  0.71389800  1
  Cu  Cu33  1  0.00438600  0.99561400  0.50000000  1
  Cu  Cu34  1  0.00438600  0.50438600  0.00877100  1
  Cu  Cu35  1  0.49561400  0.99561400  0.99122900  1
  Cu  Cu36  1  0.49561400  0.50438600  0.50000000  1
  Cu  Cu37  1  0.28226800  0.88727800  0.92736700  1
  Cu  Cu38  1  0.11272200  0.04008900  0.39499000  1
  Cu  Cu39  1  0.64509900  0.71773200  0.60501000  1
  Cu  Cu40  1  0.11272200  0.71773200  0.07263300  1
  Cu  Cu41  1  0.64509900  0.04008900  0.92736700  1
  Cu  Cu42  1  0.95991100  0.35490100  0.07263300  1
  Cu  Cu43  1  0.95991100  0.88727800  0.60501000  1
  Cu  Cu44  1  0.28226800  0.35490100  0.39499000  1
