# generated using pymatgen
data_Mo5O14
_symmetry_space_group_name_H-M   'P 1'
_cell_length_a   5.56933800
_cell_length_b   6.85483700
_cell_length_c   32.12448517
_cell_angle_alpha   78.73335328
_cell_angle_beta   90.00000000
_cell_angle_gamma   90.00000000
_symmetry_Int_Tables_number   1
_chemical_formula_structural   Mo5O14
_chemical_formula_sum   'Mo20 O56'
_cell_volume   1202.77863720
_cell_formula_units_Z   4
loop_
 _symmetry_equiv_pos_site_id
 _symmetry_equiv_pos_as_xyz
  1  'x, y, z'
loop_
 _atom_site_type_symbol
 _atom_site_label
 _atom_site_symmetry_multiplicity
 _atom_site_fract_x
 _atom_site_fract_y
 _atom_site_fract_z
 _atom_site_occupancy
  Mo  Mo0  1  0.26822400  0.17700300  0.72637600  1
  Mo  Mo1  1  0.76822400  0.82299700  0.77362400  1
  Mo  Mo2  1  0.73177600  0.82299700  0.27362400  1
  Mo  Mo3  1  0.23177600  0.17700300  0.22637600  1
  Mo  Mo4  1  0.76594800  0.54450600  0.68053900  1
  Mo  Mo5  1  0.26594800  0.45549400  0.81946100  1
  Mo  Mo6  1  0.23405200  0.45549400  0.31946100  1
  Mo  Mo7  1  0.73405200  0.54450600  0.18053900  1
  Mo  Mo8  1  0.26943900  0.91537000  0.63036000  1
  Mo  Mo9  1  0.76943900  0.08463000  0.86964000  1
  Mo  Mo10  1  0.73056100  0.08463000  0.36964000  1
  Mo  Mo11  1  0.23056100  0.91537000  0.13036000  1
  Mo  Mo12  1  0.76179500  0.29151800  0.58169200  1
  Mo  Mo13  1  0.26179500  0.70848200  0.91830800  1
  Mo  Mo14  1  0.23820500  0.70848200  0.41830800  1
  Mo  Mo15  1  0.73820500  0.29151800  0.08169200  1
  Mo  Mo16  1  0.27597400  0.66384000  0.53503100  1
  Mo  Mo17  1  0.77597400  0.33616000  0.96496900  1
  Mo  Mo18  1  0.72402600  0.33616000  0.46496900  1
  Mo  Mo19  1  0.22402600  0.66384000  0.03503100  1
  O  O20  1  0.53109100  0.01010300  0.74822700  1
  O  O21  1  0.03109100  0.98989700  0.75177300  1
  O  O22  1  0.46890900  0.98989700  0.25177300  1
  O  O23  1  0.96890900  0.01010300  0.24822700  1
  O  O24  1  0.76904100  0.69019600  0.72182200  1
  O  O25  1  0.26904100  0.30980400  0.77817800  1
  O  O26  1  0.23095900  0.30980400  0.27817800  1
  O  O27  1  0.73095900  0.69019600  0.22182200  1
  O  O28  1  0.99977600  0.36773900  0.70062500  1
  O  O29  1  0.49977600  0.63226100  0.79937500  1
  O  O30  1  0.00022400  0.63226100  0.29937500  1
  O  O31  1  0.50022400  0.36773900  0.20062500  1
  O  O32  1  0.50716500  0.38931000  0.69752200  1
  O  O33  1  0.00716500  0.61069000  0.80247800  1
  O  O34  1  0.49283500  0.61069000  0.30247800  1
  O  O35  1  0.99283500  0.38931000  0.19752200  1
  O  O36  1  0.26526800  0.05053400  0.67274400  1
  O  O37  1  0.76526800  0.94946600  0.82725600  1
  O  O38  1  0.53012300  0.76183300  0.64397900  1
  O  O39  1  0.73473200  0.94946600  0.32725600  1
  O  O40  1  0.74526600  0.21553900  0.02004800  1
  O  O41  1  0.24526600  0.78446100  0.47995200  1
  O  O42  1  0.25473400  0.78446100  0.97995200  1
  O  O43  1  0.75473400  0.21553900  0.52004800  1
  O  O44  1  0.45919700  0.48826400  0.04935700  1
  O  O45  1  0.95919700  0.51173600  0.45064300  1
  O  O46  1  0.54080300  0.51173600  0.95064300  1
  O  O47  1  0.04080300  0.48826400  0.54935700  1
  O  O48  1  0.94303000  0.53505400  0.04423000  1
  O  O49  1  0.44303000  0.46494600  0.45577000  1
  O  O50  1  0.05697000  0.46494600  0.95577000  1
  O  O51  1  0.55697000  0.53505400  0.54423000  1
  O  O52  1  0.23759600  0.84645300  0.06796600  1
  O  O53  1  0.73759600  0.15354700  0.43203400  1
  O  O54  1  0.76240400  0.15354700  0.93203400  1
  O  O55  1  0.26240400  0.84645300  0.56796600  1
  O  O56  1  0.50918900  0.11295400  0.09919500  1
  O  O57  1  0.00918900  0.88704600  0.40080500  1
  O  O58  1  0.49081100  0.88704600  0.90080500  1
  O  O59  1  0.99081100  0.11295400  0.59919500  1
  O  O60  1  0.00468000  0.14707300  0.09574200  1
  O  O61  1  0.50468000  0.85292700  0.40425800  1
  O  O62  1  0.99532000  0.85292700  0.90425800  1
  O  O63  1  0.49532000  0.14707300  0.59574200  1
  O  O64  1  0.73212700  0.43300200  0.12317900  1
  O  O65  1  0.23212700  0.56699800  0.37682100  1
  O  O66  1  0.26787300  0.56699800  0.87682100  1
  O  O67  1  0.76787300  0.43300200  0.62317900  1
  O  O68  1  0.46273100  0.73600000  0.14729900  1
  O  O69  1  0.96273100  0.26400000  0.35270100  1
  O  O70  1  0.53726900  0.26400000  0.85270100  1
  O  O71  1  0.03726900  0.73600000  0.64729900  1
  O  O72  1  0.96987700  0.76183300  0.14397900  1
  O  O73  1  0.46987700  0.23816700  0.35602100  1
  O  O74  1  0.03012300  0.23816700  0.85602100  1
  O  O75  1  0.23473200  0.05053400  0.17274400  1
