# generated using pymatgen
data_PrMg12
_symmetry_space_group_name_H-M   'P 1'
_cell_length_a   7.88801324
_cell_length_b   7.88801324
_cell_length_c   7.88801324
_cell_angle_alpha   97.92466361
_cell_angle_beta   97.92466361
_cell_angle_gamma   136.40717222
_symmetry_Int_Tables_number   1
_chemical_formula_structural   PrMg12
_chemical_formula_sum   'Pr1 Mg12'
_cell_volume   314.22555972
_cell_formula_units_Z   1
loop_
 _symmetry_equiv_pos_site_id
 _symmetry_equiv_pos_as_xyz
  1  'x, y, z'
loop_
 _atom_site_type_symbol
 _atom_site_label
 _atom_site_symmetry_multiplicity
 _atom_site_fract_x
 _atom_site_fract_y
 _atom_site_fract_z
 _atom_site_occupancy
  Pr  Pr0  1  0.00000000  0.00000000  0.00000000  1
  Mg  Mg1  1  0.50000000  0.00000000  0.00000000  1
  Mg  Mg2  1  0.00000000  0.00000000  0.50000000  1
  Mg  Mg3  1  0.50000000  0.50000000  0.50000000  1
  Mg  Mg4  1  0.00000000  0.50000000  0.00000000  1
  Mg  Mg5  1  0.64751700  0.00000000  0.64751700  1
  Mg  Mg6  1  0.00000000  0.35248300  0.35248300  1
  Mg  Mg7  1  0.00000000  0.64751700  0.64751700  1
  Mg  Mg8  1  0.35248300  0.00000000  0.35248300  1
  Mg  Mg9  1  0.71267900  0.50000000  0.21267900  1
  Mg  Mg10  1  0.50000000  0.28732100  0.78732100  1
  Mg  Mg11  1  0.50000000  0.71267900  0.21267900  1
  Mg  Mg12  1  0.28732100  0.50000000  0.78732100  1
