# generated using pymatgen
data_Sc3(Ga3Fe)2
_symmetry_space_group_name_H-M   'P 1'
_cell_length_a   8.15447900
_cell_length_b   8.42243900
_cell_length_c   10.42789000
_cell_angle_alpha   90.00000000
_cell_angle_beta   90.00000000
_cell_angle_gamma   90.00000000
_symmetry_Int_Tables_number   1
_chemical_formula_structural   Sc3(Ga3Fe)2
_chemical_formula_sum   'Sc12 Ga24 Fe8'
_cell_volume   716.19376231
_cell_formula_units_Z   4
loop_
 _symmetry_equiv_pos_site_id
 _symmetry_equiv_pos_as_xyz
  1  'x, y, z'
loop_
 _atom_site_type_symbol
 _atom_site_label
 _atom_site_symmetry_multiplicity
 _atom_site_fract_x
 _atom_site_fract_y
 _atom_site_fract_z
 _atom_site_occupancy
  Sc  Sc0  1  0.56742300  0.94768300  0.13988500  1
  Sc  Sc1  1  0.53987100  0.25000000  0.56416700  1
  Sc  Sc2  1  0.03987100  0.25000000  0.93583300  1
  Sc  Sc3  1  0.46012900  0.75000000  0.43583300  1
  Sc  Sc4  1  0.96012900  0.75000000  0.06416700  1
  Sc  Sc5  1  0.06742300  0.94768300  0.36011500  1
  Sc  Sc6  1  0.56742300  0.55231700  0.13988500  1
  Sc  Sc7  1  0.93257700  0.44768300  0.63988500  1
  Sc  Sc8  1  0.06742300  0.55231700  0.36011500  1
  Sc  Sc9  1  0.43257700  0.05231700  0.86011500  1
  Sc  Sc10  1  0.43257700  0.44768300  0.86011500  1
  Sc  Sc11  1  0.93257700  0.05231700  0.63988500  1
  Ga  Ga12  1  0.11597800  0.58879200  0.84355600  1
  Ga  Ga13  1  0.11597800  0.91120800  0.84355600  1
  Ga  Ga14  1  0.61597800  0.58879200  0.65644400  1
  Ga  Ga15  1  0.88402200  0.41120800  0.15644400  1
  Ga  Ga16  1  0.29547600  0.50571800  0.58716800  1
  Ga  Ga17  1  0.79547600  0.99428200  0.91283200  1
  Ga  Ga18  1  0.70452400  0.00571800  0.41283200  1
  Ga  Ga19  1  0.20452400  0.49428200  0.08716800  1
  Ga  Ga20  1  0.70452400  0.49428200  0.41283200  1
  Ga  Ga21  1  0.20452400  0.00571800  0.08716800  1
  Ga  Ga22  1  0.29547600  0.99428200  0.58716800  1
  Ga  Ga23  1  0.79547600  0.50571800  0.91283200  1
  Ga  Ga24  1  0.61597800  0.91120800  0.65644400  1
  Ga  Ga25  1  0.88402200  0.08879200  0.15644400  1
  Ga  Ga26  1  0.38402200  0.41120800  0.34355600  1
  Ga  Ga27  1  0.09843000  0.75000000  0.59080900  1
  Ga  Ga28  1  0.59843000  0.75000000  0.90919100  1
  Ga  Ga29  1  0.90157000  0.25000000  0.40919100  1
  Ga  Ga30  1  0.40157000  0.25000000  0.09080900  1
  Ga  Ga31  1  0.77983200  0.75000000  0.28431800  1
  Ga  Ga32  1  0.27983200  0.75000000  0.21568200  1
  Ga  Ga33  1  0.22016800  0.25000000  0.71568200  1
  Ga  Ga34  1  0.72016800  0.25000000  0.78431800  1
  Ga  Ga35  1  0.38402200  0.08879200  0.34355600  1
  Fe  Fe36  1  0.31764800  0.75000000  0.97770000  1
  Fe  Fe37  1  0.81764800  0.75000000  0.52230000  1
  Fe  Fe38  1  0.68235200  0.25000000  0.02230000  1
  Fe  Fe39  1  0.18235200  0.25000000  0.47770000  1
  Fe  Fe40  1  0.36289900  0.75000000  0.73592300  1
  Fe  Fe41  1  0.86289900  0.75000000  0.76407700  1
  Fe  Fe42  1  0.63710100  0.25000000  0.26407700  1
  Fe  Fe43  1  0.13710100  0.25000000  0.23592300  1
