# generated using pymatgen
data_ZrNi4Sn
_symmetry_space_group_name_H-M   'P 1'
_cell_length_a   4.89850061
_cell_length_b   4.89850061
_cell_length_c   4.89850061
_cell_angle_alpha   60.00000000
_cell_angle_beta   60.00000000
_cell_angle_gamma   60.00000000
_symmetry_Int_Tables_number   1
_chemical_formula_structural   ZrNi4Sn
_chemical_formula_sum   'Zr1 Ni4 Sn1'
_cell_volume   83.11406086
_cell_formula_units_Z   1
loop_
 _symmetry_equiv_pos_site_id
 _symmetry_equiv_pos_as_xyz
  1  'x, y, z'
loop_
 _atom_site_type_symbol
 _atom_site_label
 _atom_site_symmetry_multiplicity
 _atom_site_fract_x
 _atom_site_fract_y
 _atom_site_fract_z
 _atom_site_occupancy
  Zr  Zr0  1  0.00000000  0.00000000  0.00000000  1
  Ni  Ni1  1  0.62536700  0.62536700  0.62536700  1
  Ni  Ni2  1  0.12390000  0.62536700  0.62536700  1
  Ni  Ni3  1  0.62536700  0.12390000  0.62536700  1
  Ni  Ni4  1  0.62536700  0.62536700  0.12390000  1
  Sn  Sn5  1  0.25000000  0.25000000  0.25000000  1
