# generated using pymatgen
data_CaSO4
_symmetry_space_group_name_H-M   'P 1'
_cell_length_a   7.05078258
_cell_length_b   7.05078258
_cell_length_c   6.36066200
_cell_angle_alpha   90.00000000
_cell_angle_beta   90.00000000
_cell_angle_gamma   120.00000546
_symmetry_Int_Tables_number   1
_chemical_formula_structural   CaSO4
_chemical_formula_sum   'Ca3 S3 O12'
_cell_volume   273.84673787
_cell_formula_units_Z   3
loop_
 _symmetry_equiv_pos_site_id
 _symmetry_equiv_pos_as_xyz
  1  'x, y, z'
loop_
 _atom_site_type_symbol
 _atom_site_label
 _atom_site_symmetry_multiplicity
 _atom_site_fract_x
 _atom_site_fract_y
 _atom_site_fract_z
 _atom_site_occupancy
  Ca  Ca0  1  0.00000000  0.50000000  0.66666700  1
  Ca  Ca1  1  0.50000000  0.50000000  0.33333300  1
  Ca  Ca2  1  0.50000000  0.00000000  0.00000000  1
  S  S3  1  0.00000000  0.50000000  0.16666700  1
  S  S4  1  0.50000000  0.50000000  0.83333300  1
  S  S5  1  0.50000000  0.00000000  0.50000000  1
  O  O6  1  0.44703200  0.31120400  0.97435100  1
  O  O7  1  0.68879600  0.13582800  0.64101800  1
  O  O8  1  0.86417200  0.55296800  0.30768500  1
  O  O9  1  0.13582800  0.44703200  0.30768500  1
  O  O10  1  0.55296800  0.86417200  0.35898200  1
  O  O11  1  0.55296800  0.68879600  0.97435100  1
  O  O12  1  0.44703200  0.13582800  0.35898200  1
  O  O13  1  0.31120400  0.44703200  0.69231500  1
  O  O14  1  0.13582800  0.68879600  0.02564900  1
  O  O15  1  0.86417200  0.31120400  0.02564900  1
  O  O16  1  0.68879600  0.55296800  0.69231500  1
  O  O17  1  0.31120400  0.86417200  0.64101800  1
