# generated using pymatgen
data_Ho3GaO6
_symmetry_space_group_name_H-M   'P 1'
_cell_length_a   7.10795124
_cell_length_b   7.10795124
_cell_length_c   5.41991400
_cell_angle_alpha   90.00000000
_cell_angle_beta   90.00000000
_cell_angle_gamma   102.85827920
_symmetry_Int_Tables_number   1
_chemical_formula_structural   Ho3GaO6
_chemical_formula_sum   'Ho6 Ga2 O12'
_cell_volume   266.96345442
_cell_formula_units_Z   2
loop_
 _symmetry_equiv_pos_site_id
 _symmetry_equiv_pos_as_xyz
  1  'x, y, z'
loop_
 _atom_site_type_symbol
 _atom_site_label
 _atom_site_symmetry_multiplicity
 _atom_site_fract_x
 _atom_site_fract_y
 _atom_site_fract_z
 _atom_site_occupancy
  Ho  Ho0  1  0.39839500  0.60160500  0.92755300  1
  Ho  Ho1  1  0.60160500  0.39839500  0.42755300  1
  Ho  Ho2  1  0.29876200  0.08829600  0.97595600  1
  Ho  Ho3  1  0.70123800  0.91170400  0.47595600  1
  Ho  Ho4  1  0.91170400  0.70123800  0.97595600  1
  Ho  Ho5  1  0.08829600  0.29876200  0.47595600  1
  Ga  Ga6  1  0.19339700  0.80660300  0.50648300  1
  Ga  Ga7  1  0.80660300  0.19339700  0.00648300  1
  O  O8  1  0.21537000  0.78463000  0.16743900  1
  O  O9  1  0.78463000  0.21537000  0.66743900  1
  O  O10  1  0.03889100  0.96110900  0.65243700  1
  O  O11  1  0.96110900  0.03889100  0.15243700  1
  O  O12  1  0.35660900  0.32282500  0.70238400  1
  O  O13  1  0.64339100  0.67717500  0.20238400  1
  O  O14  1  0.67717500  0.64339100  0.70238400  1
  O  O15  1  0.32282500  0.35660900  0.20238400  1
  O  O16  1  0.89401800  0.42336500  0.18657500  1
  O  O17  1  0.10598200  0.57663500  0.68657500  1
  O  O18  1  0.57663500  0.10598200  0.18657500  1
  O  O19  1  0.42336500  0.89401800  0.68657500  1
