# generated using pymatgen
data_P2O9
_symmetry_space_group_name_H-M   'P 1'
_cell_length_a   8.67442300
_cell_length_b   9.41524200
_cell_length_c   14.73750300
_cell_angle_alpha   90.00000000
_cell_angle_beta   90.00000000
_cell_angle_gamma   90.00000000
_symmetry_Int_Tables_number   1
_chemical_formula_structural   P2O9
_chemical_formula_sum   'P16 O72'
_cell_volume   1203.63827601
_cell_formula_units_Z   8
loop_
 _symmetry_equiv_pos_site_id
 _symmetry_equiv_pos_as_xyz
  1  'x, y, z'
loop_
 _atom_site_type_symbol
 _atom_site_label
 _atom_site_symmetry_multiplicity
 _atom_site_fract_x
 _atom_site_fract_y
 _atom_site_fract_z
 _atom_site_occupancy
  P  P0  1  0.23844600  0.44957500  0.06353300  1
  P  P1  1  0.73844600  0.05042500  0.93646700  1
  P  P2  1  0.76155400  0.94957500  0.43646700  1
  P  P3  1  0.26155400  0.55042500  0.56353300  1
  P  P4  1  0.20657800  0.75357700  0.07127500  1
  P  P5  1  0.70657800  0.74642300  0.92872500  1
  P  P6  1  0.79342200  0.25357700  0.42872500  1
  P  P7  1  0.29342200  0.24642300  0.57127500  1
  P  P8  1  0.00108100  0.58114500  0.18346000  1
  P  P9  1  0.50108100  0.91885500  0.81654000  1
  P  P10  1  0.99891900  0.08114500  0.31654000  1
  P  P11  1  0.49891900  0.41885500  0.68346000  1
  P  P12  1  0.32051700  0.59326200  0.23254300  1
  P  P13  1  0.82051700  0.90673800  0.76745700  1
  P  P14  1  0.67948300  0.09326200  0.26745700  1
  P  P15  1  0.17948300  0.40673800  0.73254300  1
  O  O16  1  0.24035100  0.60915500  0.01615700  1
  O  O17  1  0.74035100  0.89084500  0.98384300  1
  O  O18  1  0.75964900  0.10915500  0.48384300  1
  O  O19  1  0.25964900  0.39084500  0.51615700  1
  O  O20  1  0.06351800  0.46630800  0.10781500  1
  O  O21  1  0.56351800  0.03369200  0.89218500  1
  O  O22  1  0.93648200  0.96630800  0.39218500  1
  O  O23  1  0.43648200  0.53369200  0.60781500  1
  O  O24  1  0.34363400  0.47040300  0.15288900  1
  O  O25  1  0.84363400  0.02959700  0.84711100  1
  O  O26  1  0.65636600  0.97040300  0.34711100  1
  O  O27  1  0.15636600  0.52959700  0.65288900  1
  O  O28  1  0.04293600  0.72349400  0.12269400  1
  O  O29  1  0.54293600  0.77650600  0.87730600  1
  O  O30  1  0.95706400  0.22349400  0.37730600  1
  O  O31  1  0.45706400  0.27650600  0.62269400  1
  O  O32  1  0.31557200  0.72771400  0.16215200  1
  O  O33  1  0.81557200  0.77228600  0.83784800  1
  O  O34  1  0.68442800  0.22771400  0.33784800  1
  O  O35  1  0.18442800  0.27228600  0.66215200  1
  O  O36  1  0.13899600  0.57692400  0.25801100  1
  O  O37  1  0.63899600  0.92307600  0.74198900  1
  O  O38  1  0.86100400  0.07692400  0.24198900  1
  O  O39  1  0.36100400  0.42307600  0.75801100  1
  O  O40  1  0.19799800  0.27806100  0.05536800  1
  O  O41  1  0.69799800  0.22193900  0.94463200  1
  O  O42  1  0.80200200  0.77806100  0.44463200  1
  O  O43  1  0.30200200  0.72193900  0.55536800  1
  O  O44  1  0.32862600  0.24981800  0.99435100  1
  O  O45  1  0.82862600  0.25018200  0.00564900  1
  O  O46  1  0.67137400  0.74981800  0.50564900  1
  O  O47  1  0.17137400  0.75018200  0.49435100  1
  O  O48  1  0.36483300  0.40129200  0.98432200  1
  O  O49  1  0.86483300  0.09870800  0.01567800  1
  O  O50  1  0.63516700  0.90129200  0.51567800  1
  O  O51  1  0.13516700  0.59870800  0.48432200  1
  O  O52  1  0.33529700  0.87701100  0.04460100  1
  O  O53  1  0.83529700  0.62298900  0.95539900  1
  O  O54  1  0.66470300  0.37701100  0.45539900  1
  O  O55  1  0.16470300  0.12298900  0.54460100  1
  O  O56  1  0.24076400  0.93760800  0.97159700  1
  O  O57  1  0.74076400  0.56239200  0.02840300  1
  O  O58  1  0.75923600  0.43760800  0.52840300  1
  O  O59  1  0.25923600  0.06239200  0.47159700  1
  O  O60  1  0.10806900  0.84801300  0.99399200  1
  O  O61  1  0.60806900  0.65198700  0.00600800  1
  O  O62  1  0.89193100  0.34801300  0.50600800  1
  O  O63  1  0.39193100  0.15198700  0.49399200  1
  O  O64  1  0.86516500  0.68035800  0.23221400  1
  O  O65  1  0.36516500  0.81964200  0.76778600  1
  O  O66  1  0.13483500  0.18035800  0.26778600  1
  O  O67  1  0.63483500  0.31964200  0.73221400  1
  O  O68  1  0.77950700  0.55671400  0.26572200  1
  O  O69  1  0.27950700  0.94328600  0.73427800  1
  O  O70  1  0.22049300  0.05671400  0.23427800  1
  O  O71  1  0.72049300  0.44328600  0.76572200  1
  O  O72  1  0.87730100  0.45613900  0.21538100  1
  O  O73  1  0.37730100  0.04386100  0.78461900  1
  O  O74  1  0.12269900  0.95613900  0.28461900  1
  O  O75  1  0.62269900  0.54386100  0.71538100  1
  O  O76  1  0.39595400  0.70518700  0.30742800  1
  O  O77  1  0.89595400  0.79481300  0.69257200  1
  O  O78  1  0.60404600  0.20518700  0.19257200  1
  O  O79  1  0.10404600  0.29481300  0.80742800  1
  O  O80  1  0.45100700  0.59092300  0.36703600  1
  O  O81  1  0.95100700  0.90907700  0.63296400  1
  O  O82  1  0.54899300  0.09092300  0.13296400  1
  O  O83  1  0.04899300  0.40907700  0.86703600  1
  O  O84  1  0.40860100  0.47963300  0.30189900  1
  O  O85  1  0.90860100  0.02036700  0.69810100  1
  O  O86  1  0.59139900  0.97963300  0.19810100  1
  O  O87  1  0.09139900  0.52036700  0.80189900  1
