# generated using pymatgen
data_Fe4(PO4)3
_symmetry_space_group_name_H-M   'P 1'
_cell_length_a   8.85325023
_cell_length_b   8.85325023
_cell_length_c   6.56250998
_cell_angle_alpha   73.13316058
_cell_angle_beta   73.13316058
_cell_angle_gamma   92.76611410
_symmetry_Int_Tables_number   1
_chemical_formula_structural   Fe4(PO4)3
_chemical_formula_sum   'Fe8 P6 O24'
_cell_volume   466.11480620
_cell_formula_units_Z   2
loop_
 _symmetry_equiv_pos_site_id
 _symmetry_equiv_pos_as_xyz
  1  'x, y, z'
loop_
 _atom_site_type_symbol
 _atom_site_label
 _atom_site_symmetry_multiplicity
 _atom_site_fract_x
 _atom_site_fract_y
 _atom_site_fract_z
 _atom_site_occupancy
  Fe  Fe0  1  0.64695300  0.93446500  0.61682000  1
  Fe  Fe1  1  0.24683500  0.75585700  0.24714100  1
  Fe  Fe2  1  0.50804200  0.50163300  0.74017300  1
  Fe  Fe3  1  0.93446500  0.64695300  0.11682000  1
  Fe  Fe4  1  0.06040600  0.36912300  0.88243600  1
  Fe  Fe5  1  0.50163300  0.50804200  0.24017300  1
  Fe  Fe6  1  0.75585700  0.24683500  0.74714100  1
  Fe  Fe7  1  0.36912300  0.06040600  0.38243600  1
  P  P8  1  0.34535900  0.13149900  0.87085200  1
  P  P9  1  0.71007500  0.28904900  0.24815400  1
  P  P10  1  0.13149900  0.34535900  0.37085200  1
  P  P11  1  0.88026800  0.64169100  0.63137800  1
  P  P12  1  0.28904900  0.71007500  0.74815400  1
  P  P13  1  0.64169100  0.88026800  0.13137800  1
  O  O14  1  0.26917700  0.48365700  0.31265100  1
  O  O15  1  0.26196100  0.82350700  0.53566300  1
  O  O16  1  0.80921800  0.78940700  0.65989300  1
  O  O17  1  0.46853400  0.72638000  0.73806900  1
  O  O18  1  0.78940700  0.80921800  0.15989300  1
  O  O19  1  0.50421600  0.74279300  0.17205200  1
  O  O20  1  0.67277700  0.00362500  0.89552600  1
  O  O21  1  0.57849800  0.96451500  0.31271400  1
  O  O22  1  0.33031400  0.01042900  0.10545600  1
  O  O23  1  0.39100700  0.04661400  0.68929700  1
  O  O24  1  0.82350700  0.26196100  0.03566300  1
  O  O25  1  0.73451600  0.18247100  0.46275200  1
  O  O26  1  0.19835400  0.18760400  0.38067500  1
  O  O27  1  0.53123500  0.26791500  0.24829800  1
  O  O28  1  0.96451500  0.57849800  0.81271400  1
  O  O29  1  0.48365700  0.26917700  0.81265100  1
  O  O30  1  0.04661400  0.39100700  0.18929700  1
  O  O31  1  0.01042900  0.33031400  0.60545600  1
  O  O32  1  0.72638000  0.46853400  0.23806900  1
  O  O33  1  0.18247100  0.73451600  0.96275200  1
  O  O34  1  0.74279300  0.50421600  0.67205200  1
  O  O35  1  0.26791500  0.53123500  0.74829800  1
  O  O36  1  0.00362500  0.67277700  0.39552600  1
  O  O37  1  0.18760400  0.19835400  0.88067500  1
