# generated using pymatgen
data_NbI5
_symmetry_space_group_name_H-M   'P 1'
_cell_length_a   6.59140400
_cell_length_b   11.06023700
_cell_length_c   15.28047965
_cell_angle_alpha   70.33547501
_cell_angle_beta   90.00000000
_cell_angle_gamma   90.00000000
_symmetry_Int_Tables_number   1
_chemical_formula_structural   NbI5
_chemical_formula_sum   'Nb4 I20'
_cell_volume   1049.01638837
_cell_formula_units_Z   4
loop_
 _symmetry_equiv_pos_site_id
 _symmetry_equiv_pos_as_xyz
  1  'x, y, z'
loop_
 _atom_site_type_symbol
 _atom_site_label
 _atom_site_symmetry_multiplicity
 _atom_site_fract_x
 _atom_site_fract_y
 _atom_site_fract_z
 _atom_site_occupancy
  Nb  Nb0  1  0.49961300  0.21239200  0.69695300  1
  Nb  Nb1  1  0.99961300  0.78760800  0.80304700  1
  Nb  Nb2  1  0.50038700  0.78760800  0.30304700  1
  Nb  Nb3  1  0.00038700  0.21239200  0.19695300  1
  I  I4  1  0.74905400  0.99954300  0.67154500  1
  I  I5  1  0.24905400  0.00045700  0.82845500  1
  I  I6  1  0.25094600  0.00045700  0.32845500  1
  I  I7  1  0.75094600  0.99954300  0.17154500  1
  I  I8  1  0.72839100  0.18665600  0.84964900  1
  I  I9  1  0.22839100  0.81334400  0.65035100  1
  I  I10  1  0.27160900  0.81334400  0.15035100  1
  I  I11  1  0.77160900  0.18665600  0.34964900  1
  I  I12  1  0.75055100  0.38194600  0.58044800  1
  I  I13  1  0.25055100  0.61805400  0.91955200  1
  I  I14  1  0.24944900  0.61805400  0.41955200  1
  I  I15  1  0.74944900  0.38194600  0.08044800  1
  I  I16  1  0.74653200  0.61775200  0.77036300  1
  I  I17  1  0.24653200  0.38224800  0.72963700  1
  I  I18  1  0.25346800  0.38224800  0.22963700  1
  I  I19  1  0.75346800  0.61775200  0.27036300  1
  I  I20  1  0.77002800  0.81627100  0.94207000  1
  I  I21  1  0.27002800  0.18372900  0.55793000  1
  I  I22  1  0.22997200  0.18372900  0.05793000  1
  I  I23  1  0.72997200  0.81627100  0.44207000  1
