# generated using pymatgen
data_BaTi4O9
_symmetry_space_group_name_H-M   'P 1'
_cell_length_a   3.81953800
_cell_length_b   6.39679200
_cell_length_c   14.71614300
_cell_angle_alpha   90.00000000
_cell_angle_beta   90.00000000
_cell_angle_gamma   90.00000000
_symmetry_Int_Tables_number   1
_chemical_formula_structural   BaTi4O9
_chemical_formula_sum   'Ba2 Ti8 O18'
_cell_volume   359.55643333
_cell_formula_units_Z   2
loop_
 _symmetry_equiv_pos_site_id
 _symmetry_equiv_pos_as_xyz
  1  'x, y, z'
loop_
 _atom_site_type_symbol
 _atom_site_label
 _atom_site_symmetry_multiplicity
 _atom_site_fract_x
 _atom_site_fract_y
 _atom_site_fract_z
 _atom_site_occupancy
  Ba  Ba0  1  0.00000000  0.71451600  0.50000000  1
  Ba  Ba1  1  0.50000000  0.28548400  0.00000000  1
  Ti  Ti2  1  0.50000000  0.25213300  0.37809200  1
  Ti  Ti3  1  0.00000000  0.74786700  0.12190800  1
  Ti  Ti4  1  0.50000000  0.25213300  0.62190800  1
  Ti  Ti5  1  0.00000000  0.74786700  0.87809200  1
  Ti  Ti6  1  0.50000000  0.80493200  0.28829600  1
  Ti  Ti7  1  0.00000000  0.19506800  0.21170400  1
  Ti  Ti8  1  0.50000000  0.80493200  0.71170400  1
  Ti  Ti9  1  0.00000000  0.19506800  0.78829600  1
  O  O10  1  0.50000000  0.33667200  0.50000000  1
  O  O11  1  0.00000000  0.66332800  0.00000000  1
  O  O12  1  0.50000000  0.56304100  0.34632600  1
  O  O13  1  0.00000000  0.43695900  0.15367400  1
  O  O14  1  0.50000000  0.56304100  0.65367400  1
  O  O15  1  0.00000000  0.43695900  0.84632600  1
  O  O16  1  0.50000000  0.95764300  0.40096700  1
  O  O17  1  0.00000000  0.04235700  0.09903300  1
  O  O18  1  0.50000000  0.95764300  0.59903300  1
  O  O19  1  0.00000000  0.04235700  0.90096700  1
  O  O20  1  0.00000000  0.84745400  0.26058300  1
  O  O21  1  0.50000000  0.15254600  0.23941700  1
  O  O22  1  0.00000000  0.84745400  0.73941700  1
  O  O23  1  0.50000000  0.15254600  0.76058300  1
  O  O24  1  0.00000000  0.25953800  0.34913600  1
  O  O25  1  0.50000000  0.74046200  0.15086400  1
  O  O26  1  0.00000000  0.25953800  0.65086400  1
  O  O27  1  0.50000000  0.74046200  0.84913600  1
