# generated using pymatgen
data_Mg32Al36Ag13
_symmetry_space_group_name_H-M   'P 1'
_cell_length_a   12.58802219
_cell_length_b   12.58802219
_cell_length_c   12.58802219
_cell_angle_alpha   109.47122063
_cell_angle_beta   109.47122063
_cell_angle_gamma   109.47122063
_symmetry_Int_Tables_number   1
_chemical_formula_structural   Mg32Al36Ag13
_chemical_formula_sum   'Mg32 Al36 Ag13'
_cell_volume   1535.50278574
_cell_formula_units_Z   1
loop_
 _symmetry_equiv_pos_site_id
 _symmetry_equiv_pos_as_xyz
  1  'x, y, z'
loop_
 _atom_site_type_symbol
 _atom_site_label
 _atom_site_symmetry_multiplicity
 _atom_site_fract_x
 _atom_site_fract_y
 _atom_site_fract_z
 _atom_site_occupancy
  Mg  Mg0  1  0.00000000  0.00000000  0.62417900  1
  Mg  Mg1  1  0.90282700  0.40282700  0.50000000  1
  Mg  Mg2  1  0.59717300  0.50000000  0.09717300  1
  Mg  Mg3  1  0.50000000  0.09717300  0.59717300  1
  Mg  Mg4  1  0.40282700  0.50000000  0.90282700  1
  Mg  Mg5  1  0.50000000  0.90282700  0.40282700  1
  Mg  Mg6  1  0.09717300  0.59717300  0.50000000  1
  Mg  Mg7  1  0.69733200  0.19733200  0.50000000  1
  Mg  Mg8  1  0.80266800  0.50000000  0.30266800  1
  Mg  Mg9  1  0.50000000  0.30266800  0.80266800  1
  Mg  Mg10  1  0.19733200  0.50000000  0.69733200  1
  Mg  Mg11  1  0.50000000  0.69733200  0.19733200  1
  Mg  Mg12  1  0.30266800  0.80266800  0.50000000  1
  Mg  Mg13  1  0.37582100  0.37582100  0.37582100  1
  Mg  Mg14  1  0.62417900  0.00000000  0.00000000  1
  Mg  Mg15  1  0.00000000  0.62417900  0.00000000  1
  Mg  Mg16  1  0.88359900  0.69489500  0.57849400  1
  Mg  Mg17  1  0.62417900  0.62417900  0.62417900  1
  Mg  Mg18  1  0.37582100  0.00000000  0.00000000  1
  Mg  Mg19  1  0.00000000  0.37582100  0.00000000  1
  Mg  Mg20  1  0.00000000  0.00000000  0.37582100  1
  Mg  Mg21  1  0.88359900  0.30510500  0.18870500  1
  Mg  Mg22  1  0.11640100  0.69489500  0.81129500  1
  Mg  Mg23  1  0.30510500  0.42150600  0.11640100  1
  Mg  Mg24  1  0.42150600  0.11640100  0.30510500  1
  Mg  Mg25  1  0.57849400  0.88359900  0.69489500  1
  Mg  Mg26  1  0.30510500  0.18870500  0.88359900  1
  Mg  Mg27  1  0.81129500  0.11640100  0.69489500  1
  Mg  Mg28  1  0.69489500  0.57849400  0.88359900  1
  Mg  Mg29  1  0.18870500  0.88359900  0.30510500  1
  Mg  Mg30  1  0.69489500  0.81129500  0.11640100  1
  Mg  Mg31  1  0.11640100  0.30510500  0.42150600  1
  Al  Al32  1  0.24362900  0.02944800  0.59386800  1
  Al  Al33  1  0.56442100  0.97055200  0.21418100  1
  Al  Al34  1  0.75637100  0.35024000  0.78581900  1
  Al  Al35  1  0.64976000  0.40613200  0.43557900  1
  Al  Al36  1  0.40613200  0.43557900  0.64976000  1
  Al  Al37  1  0.59386800  0.24362900  0.02944800  1
  Al  Al38  1  0.97055200  0.21418100  0.56442100  1
  Al  Al39  1  0.78581900  0.75637100  0.35024000  1
  Al  Al40  1  0.02944800  0.59386800  0.24362900  1
  Al  Al41  1  0.21418100  0.56442100  0.97055200  1
  Al  Al42  1  0.35024000  0.78581900  0.75637100  1
  Al  Al43  1  0.43557900  0.64976000  0.40613200  1
  Al  Al44  1  0.75637100  0.97055200  0.40613200  1
  Al  Al45  1  0.84211900  0.09850200  0.94062100  1
  Al  Al46  1  0.15788100  0.90149800  0.05937900  1
  Al  Al47  1  0.09850200  0.25638300  0.15788100  1
  Al  Al48  1  0.25638300  0.15788100  0.09850200  1
  Al  Al49  1  0.74361700  0.84211900  0.90149800  1
  Al  Al50  1  0.09850200  0.94062100  0.84211900  1
  Al  Al51  1  0.05937900  0.15788100  0.90149800  1
  Al  Al52  1  0.90149800  0.74361700  0.84211900  1
  Al  Al53  1  0.94062100  0.84211900  0.09850200  1
  Al  Al54  1  0.90149800  0.05937900  0.15788100  1
  Al  Al55  1  0.15788100  0.09850200  0.25638300  1
  Al  Al56  1  0.84211900  0.90149800  0.74361700  1
  Al  Al57  1  0.56442100  0.35024000  0.59386800  1
  Al  Al58  1  0.64976000  0.21418100  0.24362900  1
  Al  Al59  1  0.78581900  0.43557900  0.02944800  1
  Al  Al60  1  0.43557900  0.02944800  0.78581900  1
  Al  Al61  1  0.21418100  0.24362900  0.64976000  1
  Al  Al62  1  0.02944800  0.78581900  0.43557900  1
  Al  Al63  1  0.40613200  0.75637100  0.97055200  1
  Al  Al64  1  0.59386800  0.56442100  0.35024000  1
  Al  Al65  1  0.35024000  0.59386800  0.56442100  1
  Al  Al66  1  0.24362900  0.64976000  0.21418100  1
  Al  Al67  1  0.97055200  0.40613200  0.75637100  1
  Ag  Ag68  1  0.68526600  0.82374700  0.50901300  1
  Ag  Ag69  1  0.68526600  0.17625300  0.86151800  1
  Ag  Ag70  1  0.31473400  0.82374700  0.13848200  1
  Ag  Ag71  1  0.17625300  0.49098700  0.31473400  1
  Ag  Ag72  1  0.49098700  0.31473400  0.17625300  1
  Ag  Ag73  1  0.50901300  0.68526600  0.82374700  1
  Ag  Ag74  1  0.17625300  0.86151800  0.68526600  1
  Ag  Ag75  1  0.13848200  0.31473400  0.82374700  1
  Ag  Ag76  1  0.82374700  0.50901300  0.68526600  1
  Ag  Ag77  1  0.86151800  0.68526600  0.17625300  1
  Ag  Ag78  1  0.82374700  0.13848200  0.31473400  1
  Ag  Ag79  1  0.31473400  0.17625300  0.49098700  1
  Ag  Ag80  1  0.00000000  0.00000000  0.00000000  1
