# generated using pymatgen
data_Al39Fe7Cu24
_symmetry_space_group_name_H-M   'P 1'
_cell_length_a   12.58571553
_cell_length_b   12.58571553
_cell_length_c   12.58571553
_cell_angle_alpha   90.00000000
_cell_angle_beta   90.00000000
_cell_angle_gamma   90.00000000
_symmetry_Int_Tables_number   1
_chemical_formula_structural   Al39Fe7Cu24
_chemical_formula_sum   'Al78 Fe14 Cu48'
_cell_volume   1993.58030266
_cell_formula_units_Z   2
loop_
 _symmetry_equiv_pos_site_id
 _symmetry_equiv_pos_as_xyz
  1  'x, y, z'
loop_
 _atom_site_type_symbol
 _atom_site_label
 _atom_site_symmetry_multiplicity
 _atom_site_fract_x
 _atom_site_fract_y
 _atom_site_fract_z
 _atom_site_occupancy
  Al  Al0  1  0.00000000  0.17022892  0.29089776  1
  Al  Al1  1  0.29089776  0.00000000  0.17022892  1
  Al  Al2  1  0.17022892  0.29089776  0.00000000  1
  Al  Al3  1  0.82977108  0.70910224  0.00000000  1
  Al  Al4  1  0.29089776  0.00000000  0.82977108  1
  Al  Al5  1  0.82977108  0.29089776  0.00000000  1
  Al  Al6  1  0.70910224  0.00000000  0.17022892  1
  Al  Al7  1  0.70910224  0.00000000  0.82977108  1
  Al  Al8  1  0.17022892  0.70910224  0.00000000  1
  Al  Al9  1  0.00000000  0.82977108  0.70910224  1
  Al  Al10  1  0.00000000  0.17022892  0.70910224  1
  Al  Al11  1  0.00000000  0.82977108  0.29089776  1
  Al  Al12  1  0.60645043  0.50000000  0.32530496  1
  Al  Al13  1  0.32530496  0.60645043  0.50000000  1
  Al  Al14  1  0.50000000  0.32530496  0.60645043  1
  Al  Al15  1  0.50000000  0.67469504  0.60645043  1
  Al  Al16  1  0.32530496  0.39354957  0.50000000  1
  Al  Al17  1  0.50000000  0.32530496  0.39354957  1
  Al  Al18  1  0.67469504  0.39354957  0.50000000  1
  Al  Al19  1  0.67469504  0.60645043  0.50000000  1
  Al  Al20  1  0.50000000  0.67469504  0.39354957  1
  Al  Al21  1  0.60645043  0.50000000  0.67469504  1
  Al  Al22  1  0.39354957  0.50000000  0.67469504  1
  Al  Al23  1  0.39354957  0.50000000  0.32530496  1
  Al  Al24  1  0.17638522  0.30204851  0.38668743  1
  Al  Al25  1  0.38668743  0.17638522  0.30204851  1
  Al  Al26  1  0.30204851  0.38668743  0.17638522  1
  Al  Al27  1  0.69795149  0.61331257  0.17638522  1
  Al  Al28  1  0.38668743  0.82361478  0.69795149  1
  Al  Al29  1  0.69795149  0.38668743  0.82361478  1
  Al  Al30  1  0.61331257  0.82361478  0.30204851  1
  Al  Al31  1  0.61331257  0.17638522  0.69795149  1
  Al  Al32  1  0.30204851  0.61331257  0.82361478  1
  Al  Al33  1  0.17638522  0.69795149  0.61331257  1
  Al  Al34  1  0.82361478  0.30204851  0.61331257  1
  Al  Al35  1  0.82361478  0.69795149  0.38668743  1
  Al  Al36  1  0.82361478  0.69795149  0.61331257  1
  Al  Al37  1  0.61331257  0.82361478  0.69795149  1
  Al  Al38  1  0.69795149  0.61331257  0.82361478  1
  Al  Al39  1  0.30204851  0.38668743  0.82361478  1
  Al  Al40  1  0.61331257  0.17638522  0.30204851  1
  Al  Al41  1  0.30204851  0.61331257  0.17638522  1
  Al  Al42  1  0.38668743  0.17638522  0.69795149  1
  Al  Al43  1  0.38668743  0.82361478  0.30204851  1
  Al  Al44  1  0.69795149  0.38668743  0.17638522  1
  Al  Al45  1  0.82361478  0.30204851  0.38668743  1
  Al  Al46  1  0.17638522  0.69795149  0.38668743  1
  Al  Al47  1  0.17638522  0.30204851  0.61331257  1
  Al  Al48  1  0.10987047  0.50000000  0.50000000  1
  Al  Al49  1  0.50000000  0.10987047  0.50000000  1
  Al  Al50  1  0.50000000  0.50000000  0.10987047  1
  Al  Al51  1  0.50000000  0.89012953  0.50000000  1
  Al  Al52  1  0.50000000  0.50000000  0.89012953  1
  Al  Al53  1  0.89012953  0.50000000  0.50000000  1
  Al  Al54  1  0.00000000  0.60034077  0.31796192  1
  Al  Al55  1  0.31796192  0.00000000  0.60034077  1
  Al  Al56  1  0.60034077  0.31796192  0.00000000  1
  Al  Al57  1  0.39965923  0.68203808  0.00000000  1
  Al  Al58  1  0.31796192  0.00000000  0.39965923  1
  Al  Al59  1  0.39965923  0.31796192  0.00000000  1
  Al  Al60  1  0.68203808  0.00000000  0.60034077  1
  Al  Al61  1  0.68203808  0.00000000  0.39965923  1
  Al  Al62  1  0.60034077  0.68203808  0.00000000  1
  Al  Al63  1  0.00000000  0.39965923  0.68203808  1
  Al  Al64  1  0.00000000  0.60034077  0.68203808  1
  Al  Al65  1  0.00000000  0.39965923  0.31796192  1
  Al  Al66  1  0.11439793  0.12168433  0.50000000  1
  Al  Al67  1  0.50000000  0.11439793  0.12168433  1
  Al  Al68  1  0.12168433  0.50000000  0.11439793  1
  Al  Al69  1  0.87831567  0.50000000  0.11439793  1
  Al  Al70  1  0.50000000  0.88560207  0.87831567  1
  Al  Al71  1  0.87831567  0.50000000  0.88560207  1
  Al  Al72  1  0.50000000  0.88560207  0.12168433  1
  Al  Al73  1  0.50000000  0.11439793  0.87831567  1
  Al  Al74  1  0.12168433  0.50000000  0.88560207  1
  Al  Al75  1  0.11439793  0.87831567  0.50000000  1
  Al  Al76  1  0.88560207  0.12168433  0.50000000  1
  Al  Al77  1  0.88560207  0.87831567  0.50000000  1
  Fe  Fe78  1  0.00000000  0.00000000  0.00000000  1
  Fe  Fe79  1  0.09015896  0.00000000  0.17354685  1
  Fe  Fe80  1  0.17354685  0.09015896  0.00000000  1
  Fe  Fe81  1  0.00000000  0.17354685  0.09015896  1
  Fe  Fe82  1  0.00000000  0.82645315  0.09015896  1
  Fe  Fe83  1  0.17354685  0.90984104  0.00000000  1
  Fe  Fe84  1  0.00000000  0.17354685  0.90984104  1
  Fe  Fe85  1  0.82645315  0.90984104  0.00000000  1
  Fe  Fe86  1  0.82645315  0.09015896  0.00000000  1
  Fe  Fe87  1  0.00000000  0.82645315  0.90984104  1
  Fe  Fe88  1  0.09015896  0.00000000  0.82645315  1
  Fe  Fe89  1  0.90984104  0.00000000  0.82645315  1
  Fe  Fe90  1  0.90984104  0.00000000  0.17354685  1
  Fe  Fe91  1  0.50000000  0.50000000  0.50000000  1
  Cu  Cu92  1  0.19413566  0.12160710  0.30427889  1
  Cu  Cu93  1  0.30427889  0.19413566  0.12160710  1
  Cu  Cu94  1  0.12160710  0.30427889  0.19413566  1
  Cu  Cu95  1  0.87839290  0.69572111  0.19413566  1
  Cu  Cu96  1  0.30427889  0.80586434  0.87839290  1
  Cu  Cu97  1  0.87839290  0.30427889  0.80586434  1
  Cu  Cu98  1  0.69572111  0.80586434  0.12160710  1
  Cu  Cu99  1  0.69572111  0.19413566  0.87839290  1
  Cu  Cu100  1  0.12160710  0.69572111  0.80586434  1
  Cu  Cu101  1  0.19413566  0.87839290  0.69572111  1
  Cu  Cu102  1  0.80586434  0.12160710  0.69572111  1
  Cu  Cu103  1  0.80586434  0.87839290  0.30427889  1
  Cu  Cu104  1  0.80586434  0.87839290  0.69572111  1
  Cu  Cu105  1  0.69572111  0.80586434  0.87839290  1
  Cu  Cu106  1  0.87839290  0.69572111  0.80586434  1
  Cu  Cu107  1  0.12160710  0.30427889  0.80586434  1
  Cu  Cu108  1  0.69572111  0.19413566  0.12160710  1
  Cu  Cu109  1  0.12160710  0.69572111  0.19413566  1
  Cu  Cu110  1  0.30427889  0.19413566  0.87839290  1
  Cu  Cu111  1  0.30427889  0.80586434  0.12160710  1
  Cu  Cu112  1  0.87839290  0.30427889  0.19413566  1
  Cu  Cu113  1  0.80586434  0.12160710  0.30427889  1
  Cu  Cu114  1  0.19413566  0.87839290  0.30427889  1
  Cu  Cu115  1  0.19413566  0.12160710  0.69572111  1
  Cu  Cu116  1  0.00000000  0.00000000  0.38796622  1
  Cu  Cu117  1  0.38796622  0.00000000  0.00000000  1
  Cu  Cu118  1  0.00000000  0.38796622  0.00000000  1
  Cu  Cu119  1  0.00000000  0.61203378  0.00000000  1
  Cu  Cu120  1  0.61203378  0.00000000  0.00000000  1
  Cu  Cu121  1  0.00000000  0.00000000  0.61203378  1
  Cu  Cu122  1  0.18667299  0.50000000  0.30761376  1
  Cu  Cu123  1  0.30761376  0.18667299  0.50000000  1
  Cu  Cu124  1  0.50000000  0.30761376  0.18667299  1
  Cu  Cu125  1  0.50000000  0.69238624  0.18667299  1
  Cu  Cu126  1  0.30761376  0.81332701  0.50000000  1
  Cu  Cu127  1  0.50000000  0.30761376  0.81332701  1
  Cu  Cu128  1  0.69238624  0.81332701  0.50000000  1
  Cu  Cu129  1  0.69238624  0.18667299  0.50000000  1
  Cu  Cu130  1  0.50000000  0.69238624  0.81332701  1
  Cu  Cu131  1  0.18667299  0.50000000  0.69238624  1
  Cu  Cu132  1  0.81332701  0.50000000  0.69238624  1
  Cu  Cu133  1  0.81332701  0.50000000  0.30761376  1
  Cu  Cu134  1  0.00000000  0.30690955  0.50000000  1
  Cu  Cu135  1  0.50000000  0.00000000  0.30690955  1
  Cu  Cu136  1  0.30690955  0.50000000  0.00000000  1
  Cu  Cu137  1  0.69309045  0.50000000  0.00000000  1
  Cu  Cu138  1  0.50000000  0.00000000  0.69309045  1
  Cu  Cu139  1  0.00000000  0.69309045  0.50000000  1
