# generated using pymatgen
data_Mg5Si6
_symmetry_space_group_name_H-M   'P 1'
_cell_length_a   8.18693497
_cell_length_b   8.18693497
_cell_length_c   6.57095862
_cell_angle_alpha   77.05640166
_cell_angle_beta   77.05640166
_cell_angle_gamma   27.83643335
_symmetry_Int_Tables_number   1
_chemical_formula_structural   Mg5Si6
_chemical_formula_sum   'Mg5 Si6'
_cell_volume   200.10491759
_cell_formula_units_Z   1
loop_
 _symmetry_equiv_pos_site_id
 _symmetry_equiv_pos_as_xyz
  1  'x, y, z'
loop_
 _atom_site_type_symbol
 _atom_site_label
 _atom_site_symmetry_multiplicity
 _atom_site_fract_x
 _atom_site_fract_y
 _atom_site_fract_z
 _atom_site_occupancy
  Mg  Mg0  1  0.50000000  0.50000000  0.00000000  1
  Mg  Mg1  1  0.67266300  0.67266300  0.04919300  1
  Mg  Mg2  1  0.32733700  0.32733700  0.95080700  1
  Mg  Mg3  1  0.59322900  0.59322900  0.56639400  1
  Mg  Mg4  1  0.40677100  0.40677100  0.43360600  1
  Si  Si5  1  0.95561200  0.95561200  0.69738300  1
  Si  Si6  1  0.04438800  0.04438800  0.30261700  1
  Si  Si7  1  0.80590400  0.80590400  0.27212600  1
  Si  Si8  1  0.19409600  0.19409600  0.72787400  1
  Si  Si9  1  0.79860700  0.79860700  0.65988300  1
  Si  Si10  1  0.20139300  0.20139300  0.34011700  1
