# generated using pymatgen
data_Al2O3
_symmetry_space_group_name_H-M   'P 1'
_cell_length_a   5.63864550
_cell_length_b   5.63864550
_cell_length_c   27.54087063
_cell_angle_alpha   89.44901735
_cell_angle_beta   89.44901735
_cell_angle_gamma   60.44738262
_symmetry_Int_Tables_number   1
_chemical_formula_structural   Al2O3
_chemical_formula_sum   'Al32 O48'
_cell_volume   761.67769245
_cell_formula_units_Z   16
loop_
 _symmetry_equiv_pos_site_id
 _symmetry_equiv_pos_as_xyz
  1  'x, y, z'
loop_
 _atom_site_type_symbol
 _atom_site_label
 _atom_site_symmetry_multiplicity
 _atom_site_fract_x
 _atom_site_fract_y
 _atom_site_fract_z
 _atom_site_occupancy
  Al  Al0  1  0.83541400  0.83541400  0.08329900  1
  Al  Al1  1  0.99996800  0.99996800  0.00658500  1
  Al  Al2  1  0.00469400  0.00469400  0.19069200  1
  Al  Al3  1  0.32424800  0.83620000  0.08277000  1
  Al  Al4  1  0.65256200  0.65256200  0.17097100  1
  Al  Al5  1  0.67471900  0.67471900  0.35354200  1
  Al  Al6  1  0.83620000  0.32424800  0.08277000  1
  Al  Al7  1  0.00034900  0.50086200  0.25039700  1
  Al  Al8  1  0.16484900  0.16484900  0.41955200  1
  Al  Al9  1  0.34698700  0.34698700  0.33038600  1
  Al  Al10  1  0.50086200  0.00034900  0.25039700  1
  Al  Al11  1  0.32564900  0.32564900  0.14621000  1
  Al  Al12  1  0.33438300  0.33438300  0.52316700  1
  Al  Al13  1  0.67494700  0.16400700  0.41972000  1
  Al  Al14  1  0.83505600  0.83505600  0.57969100  1
  Al  Al15  1  0.16400700  0.67494700  0.41972000  1
  Al  Al16  1  0.99655700  0.99655700  0.31154000  1
  Al  Al17  1  0.00501300  0.00501300  0.68730300  1
  Al  Al18  1  0.32534700  0.83593100  0.57939200  1
  Al  Al19  1  0.65329700  0.65329700  0.66858900  1
  Al  Al20  1  0.50091600  0.00063700  0.74812900  1
  Al  Al21  1  0.83593100  0.32534700  0.57939200  1
  Al  Al22  1  0.67358400  0.67358400  0.84944300  1
  Al  Al23  1  0.66573200  0.66573200  0.47561800  1
  Al  Al24  1  0.00063700  0.50091600  0.74812900  1
  Al  Al25  1  0.34657000  0.34657000  0.82842700  1
  Al  Al26  1  0.32553300  0.32553300  0.64555800  1
  Al  Al27  1  0.66233200  0.16913300  0.91797800  1
  Al  Al28  1  0.16913300  0.66233200  0.91797800  1
  Al  Al29  1  0.99663800  0.99663800  0.81069300  1
  Al  Al30  1  0.17071600  0.17071600  0.91737800  1
  Al  Al31  1  0.66472900  0.66472900  0.98189600  1
  O  O32  1  0.70002500  0.14861700  0.04597100  1
  O  O33  1  0.99757000  0.99757000  0.12519400  1
  O  O34  1  0.14861700  0.70002500  0.04597100  1
  O  O35  1  0.15009800  0.15009800  0.04573800  1
  O  O36  1  0.34893000  0.84400000  0.20842800  1
  O  O37  1  0.50639400  0.50639400  0.12477400  1
  O  O38  1  0.51128300  0.97067400  0.12384300  1
  O  O39  1  0.84400000  0.34893000  0.20842800  1
  O  O40  1  0.67899200  0.67899200  0.29030100  1
  O  O41  1  0.66480100  0.66480100  0.04625100  1
  O  O42  1  0.82419500  0.82419500  0.20989800  1
  O  O43  1  0.97067400  0.51128300  0.12384300  1
  O  O44  1  0.03028600  0.48785900  0.37776800  1
  O  O45  1  0.17672200  0.17672200  0.29232000  1
  O  O46  1  0.15574500  0.65302600  0.29397800  1
  O  O47  1  0.32129000  0.32129000  0.21060200  1
  O  O48  1  0.48785900  0.03028600  0.37776800  1
  O  O49  1  0.33485700  0.33485700  0.45656100  1
  O  O50  1  0.49334100  0.49334100  0.37666800  1
  O  O51  1  0.65302600  0.15574500  0.29397800  1
  O  O52  1  0.66816400  0.16537700  0.54700700  1
  O  O53  1  0.83528200  0.83528200  0.45316600  1
  O  O54  1  0.00247100  0.00247100  0.37941000  1
  O  O55  1  0.83537700  0.32993200  0.45326400  1
  O  O56  1  0.16537700  0.66816400  0.54700700  1
  O  O57  1  0.99783900  0.99783900  0.62025700  1
  O  O58  1  0.16577200  0.16577200  0.54707200  1
  O  O59  1  0.32993200  0.83537700  0.45326400  1
  O  O60  1  0.34761800  0.84598200  0.70578400  1
  O  O61  1  0.50661600  0.50661600  0.62349600  1
  O  O62  1  0.66512900  0.66512900  0.54331100  1
  O  O63  1  0.84598200  0.34761800  0.70578400  1
  O  O64  1  0.51257400  0.96905000  0.62244700  1
  O  O65  1  0.67831100  0.67831100  0.78640500  1
  O  O66  1  0.82563500  0.82563500  0.70737700  1
  O  O67  1  0.96905000  0.51257400  0.62244700  1
  O  O68  1  0.01823000  0.49207400  0.87512000  1
  O  O69  1  0.17643300  0.17643300  0.79080500  1
  O  O70  1  0.32255500  0.32255500  0.70961300  1
  O  O71  1  0.33449500  0.33449500  0.94757000  1
  O  O72  1  0.15436300  0.65388300  0.79260300  1
  O  O73  1  0.49207400  0.01823000  0.87512000  1
  O  O74  1  0.49670300  0.49670300  0.87383100  1
  O  O75  1  0.65388300  0.15436300  0.79260300  1
  O  O76  1  0.84155600  0.84155600  0.95650500  1
  O  O77  1  0.84237900  0.31499300  0.95638900  1
  O  O78  1  0.00153100  0.00153100  0.87952800  1
  O  O79  1  0.31499300  0.84237900  0.95638900  1
