# generated using pymatgen
data_Er2Se3
_symmetry_space_group_name_H-M   'P 1'
_cell_length_a   14.31734534
_cell_length_b   14.31734534
_cell_length_c   14.31734534
_cell_angle_alpha   144.89224436
_cell_angle_beta   144.89224436
_cell_angle_gamma   50.49513381
_symmetry_Int_Tables_number   1
_chemical_formula_structural   Er2Se3
_chemical_formula_sum   'Er16 Se24'
_cell_volume   965.85752657
_cell_formula_units_Z   8
loop_
 _symmetry_equiv_pos_site_id
 _symmetry_equiv_pos_as_xyz
  1  'x, y, z'
loop_
 _atom_site_type_symbol
 _atom_site_label
 _atom_site_symmetry_multiplicity
 _atom_site_fract_x
 _atom_site_fract_y
 _atom_site_fract_z
 _atom_site_occupancy
  Er  Er0  1  0.57666000  0.47060600  0.62576300  1
  Er  Er1  1  0.16665600  0.16665600  0.00000000  1
  Er  Er2  1  0.87500000  0.50817300  0.13317300  1
  Er  Er3  1  0.17334000  0.29910200  0.39394500  1
  Er  Er4  1  0.58334400  0.08334400  0.50000000  1
  Er  Er5  1  0.90515700  0.77939400  0.60605500  1
  Er  Er6  1  0.37500000  0.74182700  0.86682700  1
  Er  Er7  1  0.22060600  0.82666000  0.12576300  1
  Er  Er8  1  0.49182700  0.62500000  0.36682700  1
  Er  Er9  1  0.91665600  0.41665600  0.50000000  1
  Er  Er10  1  0.25817300  0.12500000  0.63317300  1
  Er  Er11  1  0.70089800  0.09484300  0.87423700  1
  Er  Er12  1  0.83334400  0.83334400  0.00000000  1
  Er  Er13  1  0.52939400  0.15515700  0.10605500  1
  Er  Er14  1  0.84484300  0.95089800  0.37423700  1
  Er  Er15  1  0.04910200  0.42334000  0.89394500  1
  Se  Se16  1  0.07527900  0.82805300  0.61402600  1
  Se  Se17  1  0.86453300  0.24964600  0.74507200  1
  Se  Se18  1  0.50457400  0.11946000  0.25492800  1
  Se  Se19  1  0.88546700  0.13054000  0.88511400  1
  Se  Se20  1  0.24542600  0.00035400  0.11488600  1
  Se  Se21  1  0.21402700  0.46125400  0.38597400  1
  Se  Se22  1  0.53597300  0.42194700  0.74722700  1
  Se  Se23  1  0.40361700  0.15990400  0.59846800  1
  Se  Se24  1  0.19485100  0.59638300  0.75628800  1
  Se  Se25  1  0.67472100  0.78874600  0.25277300  1
  Se  Se26  1  0.84009600  0.43856300  0.24371200  1
  Se  Se27  1  0.21125400  0.46402700  0.88597400  1
  Se  Se28  1  0.57805300  0.32527900  0.11402600  1
  Se  Se29  1  0.56143700  0.80514900  0.40153200  1
  Se  Se30  1  0.86946000  0.75457400  0.75492800  1
  Se  Se31  1  0.75035400  0.49542600  0.61488600  1
  Se  Se32  1  0.53874600  0.92472100  0.75277300  1
  Se  Se33  1  0.99964600  0.11453300  0.24507200  1
  Se  Se34  1  0.55514900  0.81143700  0.90153200  1
  Se  Se35  1  0.17194700  0.78597300  0.24722700  1
  Se  Se36  1  0.90990400  0.65361700  0.09846800  1
  Se  Se37  1  0.88054000  0.13546700  0.38511400  1
  Se  Se38  1  0.18856300  0.09009600  0.74371200  1
  Se  Se39  1  0.34638300  0.44485100  0.25628800  1
