# generated using pymatgen
data_Nb10C7
_symmetry_space_group_name_H-M   'P 1'
_cell_length_a   8.34786863
_cell_length_b   8.34786863
_cell_length_c   5.51650587
_cell_angle_alpha   83.60980312
_cell_angle_beta   83.60980312
_cell_angle_gamma   141.51023884
_symmetry_Int_Tables_number   1
_chemical_formula_structural   Nb10C7
_chemical_formula_sum   'Nb10 C7'
_cell_volume   225.20530220
_cell_formula_units_Z   1
loop_
 _symmetry_equiv_pos_site_id
 _symmetry_equiv_pos_as_xyz
  1  'x, y, z'
loop_
 _atom_site_type_symbol
 _atom_site_label
 _atom_site_symmetry_multiplicity
 _atom_site_fract_x
 _atom_site_fract_y
 _atom_site_fract_z
 _atom_site_occupancy
  Nb  Nb0  1  0.43916700  0.04771200  0.73154400  1
  Nb  Nb1  1  0.04771200  0.43916700  0.73154400  1
  Nb  Nb2  1  0.95228800  0.56083300  0.26845600  1
  Nb  Nb3  1  0.64718300  0.85155900  0.75860300  1
  Nb  Nb4  1  0.56083300  0.95228800  0.26845600  1
  Nb  Nb5  1  0.26377900  0.26377900  0.76397900  1
  Nb  Nb6  1  0.14844100  0.35281700  0.24139700  1
  Nb  Nb7  1  0.85155900  0.64718300  0.75860300  1
  Nb  Nb8  1  0.73622100  0.73622100  0.23602100  1
  Nb  Nb9  1  0.35281700  0.14844100  0.24139700  1
  C  C10  1  0.19964600  0.80035400  0.50000000  1
  C  C11  1  0.80035400  0.19964600  0.50000000  1
  C  C12  1  0.39889900  0.60110100  0.50000000  1
  C  C13  1  0.89927800  0.10072200  0.00000000  1
  C  C14  1  0.60110100  0.39889900  0.50000000  1
  C  C15  1  0.50000000  0.50000000  0.00000000  1
  C  C16  1  0.10072200  0.89927800  0.00000000  1
