# generated using pymatgen
data_La2S3
_symmetry_space_group_name_H-M   'P 1'
_cell_length_a   14.47662522
_cell_length_b   14.47662522
_cell_length_c   14.47662522
_cell_angle_alpha   144.75349753
_cell_angle_beta   144.75349753
_cell_angle_gamma   50.70202154
_symmetry_Int_Tables_number   1
_chemical_formula_structural   La2S3
_chemical_formula_sum   'La16 S24'
_cell_volume   1005.25110864
_cell_formula_units_Z   8
loop_
 _symmetry_equiv_pos_site_id
 _symmetry_equiv_pos_as_xyz
  1  'x, y, z'
loop_
 _atom_site_type_symbol
 _atom_site_label
 _atom_site_symmetry_multiplicity
 _atom_site_fract_x
 _atom_site_fract_y
 _atom_site_fract_z
 _atom_site_occupancy
  La  La0  1  0.16500700  0.16500700  0.00000000  1
  La  La1  1  0.87500000  0.50435900  0.12935900  1
  La  La2  1  0.17907200  0.29739700  0.39896000  1
  La  La3  1  0.58499300  0.08499300  0.50000000  1
  La  La4  1  0.89843600  0.78011200  0.60104000  1
  La  La5  1  0.37500000  0.74564100  0.87064100  1
  La  La6  1  0.21988800  0.82092800  0.11832500  1
  La  La7  1  0.49564100  0.62500000  0.37064100  1
  La  La8  1  0.91500700  0.41500700  0.50000000  1
  La  La9  1  0.25435900  0.12500000  0.62935900  1
  La  La10  1  0.70260300  0.10156400  0.88167500  1
  La  La11  1  0.83499300  0.83499300  0.00000000  1
  La  La12  1  0.53011200  0.14843600  0.10104000  1
  La  La13  1  0.85156400  0.95260300  0.38167500  1
  La  La14  1  0.57092800  0.46988800  0.61832500  1
  La  La15  1  0.04739700  0.42907200  0.89896000  1
  S  S16  1  0.07183100  0.82702300  0.60957100  1
  S  S17  1  0.85966200  0.25423100  0.74752900  1
  S  S18  1  0.89033800  0.13786700  0.89456900  1
  S  S19  1  0.50670300  0.11213300  0.25247100  1
  S  S20  1  0.24329700  0.99576900  0.10543100  1
  S  S21  1  0.67816900  0.78774000  0.25519200  1
  S  S22  1  0.21745200  0.46226000  0.39042900  1
  S  S23  1  0.53254800  0.42297700  0.74480800  1
  S  S24  1  0.40261100  0.15048900  0.58632000  1
  S  S25  1  0.18370900  0.59738900  0.74787800  1
  S  S26  1  0.21226000  0.46745200  0.89042900  1
  S  S27  1  0.84951100  0.43583100  0.25212200  1
  S  S28  1  0.57702300  0.32183100  0.10957100  1
  S  S29  1  0.56416900  0.81629100  0.41368000  1
  S  S30  1  0.00423100  0.10966200  0.24752900  1
  S  S31  1  0.86213300  0.75670300  0.75247100  1
  S  S32  1  0.74576900  0.49329700  0.60543100  1
  S  S33  1  0.53774000  0.92816900  0.75519200  1
  S  S34  1  0.17297700  0.78254800  0.24480800  1
  S  S35  1  0.56629100  0.81416900  0.91368000  1
  S  S36  1  0.90048900  0.65261100  0.08632000  1
  S  S37  1  0.88786700  0.14033800  0.39456900  1
  S  S38  1  0.34738900  0.43370900  0.24787800  1
  S  S39  1  0.18583100  0.09951100  0.75212200  1
