# generated using pymatgen
data_NaTh2F9
_symmetry_space_group_name_H-M   'P 1'
_cell_length_a   7.63024660
_cell_length_b   7.63024660
_cell_length_c   7.63024660
_cell_angle_alpha   108.96256197
_cell_angle_beta   108.96256197
_cell_angle_gamma   110.49339899
_symmetry_Int_Tables_number   1
_chemical_formula_structural   NaTh2F9
_chemical_formula_sum   'Na2 Th4 F18'
_cell_volume   341.89278613
_cell_formula_units_Z   2
loop_
 _symmetry_equiv_pos_site_id
 _symmetry_equiv_pos_as_xyz
  1  'x, y, z'
loop_
 _atom_site_type_symbol
 _atom_site_label
 _atom_site_symmetry_multiplicity
 _atom_site_fract_x
 _atom_site_fract_y
 _atom_site_fract_z
 _atom_site_occupancy
  Na  Na0  1  0.50000000  0.00000000  0.50000000  1
  Na  Na1  1  0.00000000  0.50000000  0.50000000  1
  Th  Th2  1  0.00860500  0.37863200  0.00000000  1
  Th  Th3  1  0.62136800  0.62136800  0.62997300  1
  Th  Th4  1  0.99139500  0.99139500  0.37002700  1
  Th  Th5  1  0.37863200  0.00860500  0.00000000  1
  F  F6  1  0.23892800  0.66246300  0.00000000  1
  F  F7  1  0.33753700  0.33753700  0.57646500  1
  F  F8  1  0.76107200  0.76107200  0.42353500  1
  F  F9  1  0.66246300  0.23892800  0.00000000  1
  F  F10  1  0.00105200  0.64688000  0.25133200  1
  F  F11  1  0.39554800  0.74972000  0.74866800  1
  F  F12  1  0.23907700  0.00000000  0.23907700  1
  F  F13  1  0.00000000  0.23907700  0.23907700  1
  F  F14  1  0.00000000  0.76092300  0.76092300  1
  F  F15  1  0.76092300  0.00000000  0.76092300  1
  F  F16  1  0.77486700  0.77486700  0.00000000  1
  F  F17  1  0.22513300  0.22513300  0.00000000  1
  F  F18  1  0.64688000  0.00105200  0.25133200  1
  F  F19  1  0.99894800  0.25028000  0.64582800  1
  F  F20  1  0.60445200  0.35312000  0.35417200  1
  F  F21  1  0.74972000  0.39554800  0.74866800  1
  F  F22  1  0.35312000  0.60445200  0.35417200  1
  F  F23  1  0.25028000  0.99894800  0.64582800  1
