# generated using pymatgen
data_SrBr2
_symmetry_space_group_name_H-M   'P 1'
_cell_length_a   11.75127100
_cell_length_b   11.75127100
_cell_length_c   7.26381300
_cell_angle_alpha   90.00000000
_cell_angle_beta   90.00000000
_cell_angle_gamma   90.00000000
_symmetry_Int_Tables_number   1
_chemical_formula_structural   SrBr2
_chemical_formula_sum   'Sr10 Br20'
_cell_volume   1003.07715325
_cell_formula_units_Z   10
loop_
 _symmetry_equiv_pos_site_id
 _symmetry_equiv_pos_as_xyz
  1  'x, y, z'
loop_
 _atom_site_type_symbol
 _atom_site_label
 _atom_site_symmetry_multiplicity
 _atom_site_fract_x
 _atom_site_fract_y
 _atom_site_fract_z
 _atom_site_occupancy
  Sr  Sr0  1  0.33505700  0.35414700  0.24787300  1
  Sr  Sr1  1  0.14585300  0.83505700  0.24787300  1
  Sr  Sr2  1  0.64585300  0.33505700  0.75212700  1
  Sr  Sr3  1  0.83505700  0.85414700  0.75212700  1
  Sr  Sr4  1  0.16494300  0.14585300  0.75212700  1
  Sr  Sr5  1  0.50000000  0.00000000  0.15055600  1
  Sr  Sr6  1  0.35414700  0.66494300  0.75212700  1
  Sr  Sr7  1  0.66494300  0.64585300  0.24787300  1
  Sr  Sr8  1  0.00000000  0.50000000  0.84944400  1
  Sr  Sr9  1  0.85414700  0.16494300  0.24787300  1
  Br  Br10  1  0.58909600  0.79270400  0.90350900  1
  Br  Br11  1  0.00000000  0.00000000  0.00000000  1
  Br  Br12  1  0.70968400  0.90211000  0.37624000  1
  Br  Br13  1  0.20729600  0.58909600  0.09649100  1
  Br  Br14  1  0.41090400  0.20729600  0.90350900  1
  Br  Br15  1  0.59789000  0.20968400  0.37624000  1
  Br  Br16  1  0.90211000  0.29031600  0.62376000  1
  Br  Br17  1  0.29031600  0.09789000  0.37624000  1
  Br  Br18  1  0.70729600  0.08909600  0.90350900  1
  Br  Br19  1  0.29270400  0.91090400  0.90350900  1
  Br  Br20  1  0.09789000  0.70968400  0.62376000  1
  Br  Br21  1  0.40211000  0.79031600  0.37624000  1
  Br  Br22  1  0.00000000  0.00000000  0.50000000  1
  Br  Br23  1  0.50000000  0.50000000  0.00000000  1
  Br  Br24  1  0.79270400  0.41090400  0.09649100  1
  Br  Br25  1  0.79031600  0.59789000  0.62376000  1
  Br  Br26  1  0.50000000  0.50000000  0.50000000  1
  Br  Br27  1  0.91090400  0.70729600  0.09649100  1
  Br  Br28  1  0.20968400  0.40211000  0.62376000  1
  Br  Br29  1  0.08909600  0.29270400  0.09649100  1
