# generated using pymatgen
data_Y2S3
_symmetry_space_group_name_H-M   'P 1'
_cell_length_a   13.80739017
_cell_length_b   13.80739017
_cell_length_c   13.80739017
_cell_angle_alpha   144.78567745
_cell_angle_beta   144.78567745
_cell_angle_gamma   50.65402887
_symmetry_Int_Tables_number   1
_chemical_formula_structural   Y2S3
_chemical_formula_sum   'Y16 S24'
_cell_volume   870.81372391
_cell_formula_units_Z   8
loop_
 _symmetry_equiv_pos_site_id
 _symmetry_equiv_pos_as_xyz
  1  'x, y, z'
loop_
 _atom_site_type_symbol
 _atom_site_label
 _atom_site_symmetry_multiplicity
 _atom_site_fract_x
 _atom_site_fract_y
 _atom_site_fract_z
 _atom_site_occupancy
  Y  Y0  1  0.35092200  0.45108600  0.37924200  1
  Y  Y1  1  0.07184300  0.97168000  0.62075800  1
  Y  Y2  1  0.66488800  0.66488800  0.00000000  1
  Y  Y3  1  0.37500000  0.00660300  0.13160300  1
  Y  Y4  1  0.67815700  0.79891400  0.39983700  1
  Y  Y5  1  0.08511200  0.58511200  0.50000000  1
  Y  Y6  1  0.87500000  0.24339700  0.86839700  1
  Y  Y7  1  0.39907800  0.27832000  0.60016300  1
  Y  Y8  1  0.72168000  0.32184300  0.12075800  1
  Y  Y9  1  0.41488800  0.91488800  0.50000000  1
  Y  Y10  1  0.99339700  0.12500000  0.36839700  1
  Y  Y11  1  0.75660300  0.62500000  0.63160300  1
  Y  Y12  1  0.20108600  0.60092200  0.87924200  1
  Y  Y13  1  0.33511200  0.33511200  0.00000000  1
  Y  Y14  1  0.02832000  0.64907800  0.10016300  1
  Y  Y15  1  0.54891400  0.92815700  0.89983700  1
  S  S16  1  0.00371400  0.61891500  0.25390900  1
  S  S17  1  0.57363600  0.32753600  0.61357000  1
  S  S18  1  0.36500600  0.74980500  0.74609100  1
  S  S19  1  0.38499400  0.63108500  0.88479900  1
  S  S20  1  0.74628600  0.50019500  0.11520100  1
  S  S21  1  0.71396600  0.96006600  0.38643000  1
  S  S22  1  0.34350400  0.93812600  0.24697800  1
  S  S23  1  0.03603400  0.92246400  0.74610000  1
  S  S24  1  0.90347400  0.65649600  0.59462200  1
  S  S25  1  0.69114800  0.09652600  0.75302200  1
  S  S26  1  0.17636400  0.28993400  0.25390000  1
  S  S27  1  0.71006600  0.96396600  0.88643000  1
  S  S28  1  0.07753600  0.82363600  0.11357000  1
  S  S29  1  0.06187400  0.30885200  0.40537800  1
  S  S30  1  0.67246400  0.28603400  0.24610000  1
  S  S31  1  0.36891500  0.25371400  0.75390900  1
  S  S32  1  0.25019500  0.99628600  0.61520100  1
  S  S33  1  0.03993400  0.42636400  0.75390000  1
  S  S34  1  0.49980500  0.61500600  0.24609100  1
  S  S35  1  0.05885200  0.31187400  0.90537800  1
  S  S36  1  0.40649600  0.15347400  0.09462200  1
  S  S37  1  0.38108500  0.63499400  0.38479900  1
  S  S38  1  0.68812600  0.59350400  0.74697800  1
  S  S39  1  0.84652600  0.94114800  0.25302200  1
