# generated using pymatgen
data_Ce2S3
_symmetry_space_group_name_H-M   'P 1'
_cell_length_a   14.11942993
_cell_length_b   14.11942993
_cell_length_c   14.11942993
_cell_angle_alpha   144.84740087
_cell_angle_beta   144.84740087
_cell_angle_gamma   50.56199007
_symmetry_Int_Tables_number   1
_chemical_formula_structural   Ce2S3
_chemical_formula_sum   'Ce16 S24'
_cell_volume   928.39174553
_cell_formula_units_Z   8
loop_
 _symmetry_equiv_pos_site_id
 _symmetry_equiv_pos_as_xyz
  1  'x, y, z'
loop_
 _atom_site_type_symbol
 _atom_site_label
 _atom_site_symmetry_multiplicity
 _atom_site_fract_x
 _atom_site_fract_y
 _atom_site_fract_z
 _atom_site_occupancy
  Ce  Ce0  1  0.84817300  0.95463200  0.38132300  1
  Ce  Ce1  1  0.16553100  0.16553100  0.00000000  1
  Ce  Ce2  1  0.87500000  0.50534500  0.13034500  1
  Ce  Ce3  1  0.58446900  0.08446900  0.50000000  1
  Ce  Ce4  1  0.17669100  0.29536800  0.39354100  1
  Ce  Ce5  1  0.90182700  0.78315000  0.60645900  1
  Ce  Ce6  1  0.37500000  0.74465500  0.86965500  1
  Ce  Ce7  1  0.21685000  0.82330900  0.11867700  1
  Ce  Ce8  1  0.91553100  0.41553100  0.50000000  1
  Ce  Ce9  1  0.49465500  0.62500000  0.36965500  1
  Ce  Ce10  1  0.25534500  0.12500000  0.63034500  1
  Ce  Ce11  1  0.70463200  0.09817300  0.88132300  1
  Ce  Ce12  1  0.83446900  0.83446900  0.00000000  1
  Ce  Ce13  1  0.53315000  0.15182700  0.10645900  1
  Ce  Ce14  1  0.57330900  0.46685000  0.61867700  1
  Ce  Ce15  1  0.04536800  0.42669100  0.89354100  1
  S  S16  1  0.50839500  0.10967500  0.25192000  1
  S  S17  1  0.07150900  0.82641400  0.60659100  1
  S  S18  1  0.85775500  0.25647500  0.74808000  1
  S  S19  1  0.89224500  0.14032500  0.89872100  1
  S  S20  1  0.24160500  0.99352500  0.10127900  1
  S  S21  1  0.67849100  0.78508200  0.25490600  1
  S  S22  1  0.21982300  0.46491800  0.39340900  1
  S  S23  1  0.84759000  0.43703300  0.25223800  1
  S  S24  1  0.53017700  0.42358600  0.74509400  1
  S  S25  1  0.40464800  0.15241000  0.58944300  1
  S  S26  1  0.18479400  0.59535200  0.74776200  1
  S  S27  1  0.21491800  0.46982300  0.89340900  1
  S  S28  1  0.57641400  0.32150900  0.10659100  1
  S  S29  1  0.00647500  0.10775500  0.24808000  1
  S  S30  1  0.56296700  0.81520600  0.41055700  1
  S  S31  1  0.17358600  0.78017700  0.24509400  1
  S  S32  1  0.85967500  0.75839500  0.75192000  1
  S  S33  1  0.74352500  0.49160500  0.60127900  1
  S  S34  1  0.53508200  0.92849100  0.75490600  1
  S  S35  1  0.56520600  0.81296700  0.91055700  1
  S  S36  1  0.90241000  0.65464800  0.08944300  1
  S  S37  1  0.34535200  0.43479400  0.24776200  1
  S  S38  1  0.89032500  0.14224500  0.39872100  1
  S  S39  1  0.18703300  0.09759000  0.75223800  1
