# generated using pymatgen
data_Ag2S
_symmetry_space_group_name_H-M   'P 1'
_cell_length_a   4.31567257
_cell_length_b   4.31567257
_cell_length_c   6.77848000
_cell_angle_alpha   90.00000000
_cell_angle_beta   90.00000000
_cell_angle_gamma   111.29006778
_symmetry_Int_Tables_number   1
_chemical_formula_structural   Ag2S
_chemical_formula_sum   'Ag4 S2'
_cell_volume   117.63339860
_cell_formula_units_Z   2
loop_
 _symmetry_equiv_pos_site_id
 _symmetry_equiv_pos_as_xyz
  1  'x, y, z'
loop_
 _atom_site_type_symbol
 _atom_site_label
 _atom_site_symmetry_multiplicity
 _atom_site_fract_x
 _atom_site_fract_y
 _atom_site_fract_z
 _atom_site_occupancy
  Ag  Ag0  1  0.34226100  0.65773900  0.86354900  1
  Ag  Ag1  1  0.15773900  0.84226100  0.36354900  1
  Ag  Ag2  1  0.84226100  0.15773900  0.63645100  1
  Ag  Ag3  1  0.65773900  0.34226100  0.13645100  1
  S  S4  1  0.00000000  0.00000000  0.00000000  1
  S  S5  1  0.50000000  0.50000000  0.50000000  1
