# generated using pymatgen
data_Te8Ir3
_symmetry_space_group_name_H-M   'P 1'
_cell_length_a   9.14986300
_cell_length_b   9.21498706
_cell_length_c   11.33145809
_cell_angle_alpha   90.51780055
_cell_angle_beta   89.97025857
_cell_angle_gamma   119.76549413
_symmetry_Int_Tables_number   1
_chemical_formula_structural   Te8Ir3
_chemical_formula_sum   'Te24 Ir9'
_cell_volume   829.32525168
_cell_formula_units_Z   3
loop_
 _symmetry_equiv_pos_site_id
 _symmetry_equiv_pos_as_xyz
  1  'x, y, z'
loop_
 _atom_site_type_symbol
 _atom_site_label
 _atom_site_symmetry_multiplicity
 _atom_site_fract_x
 _atom_site_fract_y
 _atom_site_fract_z
 _atom_site_occupancy
  Te  Te0  1  0.83047200  0.66509000  0.20577400  1
  Te  Te1  1  0.41592300  0.34698600  0.29225100  1
  Te  Te2  1  0.73858400  0.25566800  0.37859400  1
  Te  Te3  1  0.16387900  0.58399300  0.29158500  1
  Te  Te4  1  0.51518400  0.75378700  0.37534500  1
  Te  Te5  1  0.91423800  0.08485100  0.29200500  1
  Te  Te6  1  0.17250400  0.33148900  0.53759900  1
  Te  Te7  1  0.74719100  0.99301700  0.62592200  1
  Te  Te8  1  0.25280900  0.00698300  0.37407800  1
  Te  Te9  1  0.82749600  0.66851100  0.46240100  1
  Te  Te10  1  0.08576200  0.91514900  0.70799500  1
  Te  Te11  1  0.48481600  0.24621300  0.62465500  1
  Te  Te12  1  0.83612100  0.41600700  0.70841500  1
  Te  Te13  1  0.26141600  0.74433200  0.62140600  1
  Te  Te14  1  0.49753400  0.99907400  0.87153300  1
  Te  Te15  1  0.09051600  0.67178800  0.95971100  1
  Te  Te16  1  0.58407700  0.65301400  0.70774900  1
  Te  Te17  1  0.16952800  0.33491000  0.79422600  1
  Te  Te18  1  0.41048700  0.58316800  0.04287100  1
  Te  Te19  1  0.82639500  0.91275100  0.95516600  1
  Te  Te20  1  0.17360500  0.08724900  0.04483400  1
  Te  Te21  1  0.58951300  0.41683200  0.95712900  1
  Te  Te22  1  0.90948400  0.32821200  0.04028900  1
  Te  Te23  1  0.50246600  0.00092600  0.12846700  1
  Ir  Ir24  1  0.16305200  0.83186400  0.16746300  1
  Ir  Ir25  1  0.00000000  0.50000000  0.50000000  1
  Ir  Ir26  1  0.50000000  0.00000000  0.50000000  1
  Ir  Ir27  1  0.83694800  0.16813600  0.83253700  1
  Ir  Ir28  1  0.00000000  0.00000000  0.50000000  1
  Ir  Ir29  1  0.33313700  0.16637900  0.83423300  1
  Ir  Ir30  1  0.83654200  0.66656300  0.83394800  1
  Ir  Ir31  1  0.66686300  0.83362100  0.16576700  1
  Ir  Ir32  1  0.16345800  0.33343700  0.16605200  1
