# generated using pymatgen
data_Li3MnV(PO4)3
_symmetry_space_group_name_H-M   'P 1'
_cell_length_a   8.63591182
_cell_length_b   8.70622846
_cell_length_c   6.32178028
_cell_angle_alpha   74.64057702
_cell_angle_beta   106.13103979
_cell_angle_gamma   84.42503399
_symmetry_Int_Tables_number   1
_chemical_formula_structural   Li3MnV(PO4)3
_chemical_formula_sum   'Li6 Mn2 V2 P6 O24'
_cell_volume   432.74522674
_cell_formula_units_Z   2
loop_
 _symmetry_equiv_pos_site_id
 _symmetry_equiv_pos_as_xyz
  1  'x, y, z'
loop_
 _atom_site_type_symbol
 _atom_site_label
 _atom_site_symmetry_multiplicity
 _atom_site_fract_x
 _atom_site_fract_y
 _atom_site_fract_z
 _atom_site_occupancy
  Li  Li0  1  0.00558500  0.00315300  0.74741800  1
  Li  Li1  1  0.28690200  0.29014500  0.24803400  1
  Li  Li2  1  0.50000000  0.50000000  0.50000000  1
  Li  Li3  1  0.50000000  0.50000000  0.00000000  1
  Li  Li4  1  0.71309800  0.70985500  0.75196600  1
  Li  Li5  1  0.99441500  0.99684700  0.25258200  1
  Mn  Mn6  1  0.05903200  0.62945400  0.63165300  1
  Mn  Mn7  1  0.94096800  0.37054600  0.36834700  1
  V  V8  1  0.37973400  0.94374400  0.13854500  1
  V  V9  1  0.62026600  0.05625600  0.86145500  1
  P  P10  1  0.28324600  0.28949800  0.74948500  1
  P  P11  1  0.14075200  0.66439200  0.13616000  1
  P  P12  1  0.33783400  0.86736200  0.63485700  1
  P  P13  1  0.66216600  0.13263800  0.36514300  1
  P  P14  1  0.85924800  0.33560800  0.86384000  1
  P  P15  1  0.71675400  0.71050200  0.25051500  1
  O  O16  1  0.01509000  0.66108900  0.90523500  1
  O  O17  1  0.05339200  0.61240500  0.32574300  1
  O  O18  1  0.25713700  0.17427800  0.96496400  1
  O  O19  1  0.17163300  0.26549500  0.52360500  1
  O  O20  1  0.15395200  0.85687900  0.60545900  1
  O  O21  1  0.25895200  0.46341900  0.77175200  1
  O  O22  1  0.15940000  0.84659600  0.10158400  1
  O  O23  1  0.30021900  0.54553200  0.20570700  1
  O  O24  1  0.40259800  0.95244700  0.82657100  1
  O  O25  1  0.34111300  0.98923000  0.40711600  1
  O  O26  1  0.45957200  0.26354000  0.73178200  1
  O  O27  1  0.45275400  0.70578800  0.70318300  1
  O  O28  1  0.54724600  0.29421200  0.29681700  1
  O  O29  1  0.54042800  0.73646000  0.26821800  1
  O  O30  1  0.65888700  0.01077000  0.59288400  1
  O  O31  1  0.59740200  0.04755300  0.17342900  1
  O  O32  1  0.69978100  0.45446800  0.79429300  1
  O  O33  1  0.84060000  0.15340400  0.89841600  1
  O  O34  1  0.74104800  0.53658100  0.22824800  1
  O  O35  1  0.84604800  0.14312100  0.39454100  1
  O  O36  1  0.82836700  0.73450500  0.47639500  1
  O  O37  1  0.74286300  0.82572200  0.03503600  1
  O  O38  1  0.94660800  0.38759500  0.67425700  1
  O  O39  1  0.98491000  0.33891100  0.09476500  1
