# generated using pymatgen
data_Rh3Se8
_symmetry_space_group_name_H-M   'P 1'
_cell_length_a   6.05644900
_cell_length_b   6.05396500
_cell_length_c   13.48963950
_cell_angle_alpha   64.15378454
_cell_angle_beta   90.00000000
_cell_angle_gamma   90.00000000
_symmetry_Int_Tables_number   1
_chemical_formula_structural   Rh3Se8
_chemical_formula_sum   'Rh6 Se16'
_cell_volume   445.12819055
_cell_formula_units_Z   2
loop_
 _symmetry_equiv_pos_site_id
 _symmetry_equiv_pos_as_xyz
  1  'x, y, z'
loop_
 _atom_site_type_symbol
 _atom_site_label
 _atom_site_symmetry_multiplicity
 _atom_site_fract_x
 _atom_site_fract_y
 _atom_site_fract_z
 _atom_site_occupancy
  Rh  Rh0  1  0.49319000  0.75720000  0.74919600  1
  Rh  Rh1  1  0.50681000  0.24280000  0.25080400  1
  Rh  Rh2  1  0.50000000  0.00000000  0.00000000  1
  Rh  Rh3  1  0.99319000  0.24280000  0.75080400  1
  Rh  Rh4  1  0.00681000  0.75720000  0.24919600  1
  Rh  Rh5  1  0.00000000  0.00000000  0.50000000  1
  Se  Se6  1  0.61684500  0.69195500  0.19186000  1
  Se  Se7  1  0.61631200  0.18928100  0.68961900  1
  Se  Se8  1  0.61484600  0.67304300  0.94147800  1
  Se  Se9  1  0.61743000  0.17383500  0.44312900  1
  Se  Se10  1  0.88257000  0.17383500  0.94312900  1
  Se  Se11  1  0.88368800  0.18928100  0.18961900  1
  Se  Se12  1  0.88515400  0.67304300  0.44147800  1
  Se  Se13  1  0.88315500  0.69195500  0.69186000  1
  Se  Se14  1  0.11631200  0.81071900  0.81038100  1
  Se  Se15  1  0.11743000  0.82616500  0.05687100  1
  Se  Se16  1  0.11484600  0.32695700  0.55852200  1
  Se  Se17  1  0.11684500  0.30804500  0.30814000  1
  Se  Se18  1  0.38515400  0.32695700  0.05852200  1
  Se  Se19  1  0.38315500  0.30804500  0.80814000  1
  Se  Se20  1  0.38368800  0.81071900  0.31038100  1
  Se  Se21  1  0.38257000  0.82616500  0.55687100  1
