# generated using pymatgen
data_Y10H21
_symmetry_space_group_name_H-M   'P 1'
_cell_length_a   6.37861600
_cell_length_b   7.36390716
_cell_length_c   8.23140515
_cell_angle_alpha   102.84996407
_cell_angle_beta   97.49580887
_cell_angle_gamma   106.65507410
_symmetry_Int_Tables_number   1
_chemical_formula_structural   Y10H21
_chemical_formula_sum   'Y10 H21'
_cell_volume   353.25283961
_cell_formula_units_Z   1
loop_
 _symmetry_equiv_pos_site_id
 _symmetry_equiv_pos_as_xyz
  1  'x, y, z'
loop_
 _atom_site_type_symbol
 _atom_site_label
 _atom_site_symmetry_multiplicity
 _atom_site_fract_x
 _atom_site_fract_y
 _atom_site_fract_z
 _atom_site_occupancy
  Y  Y0  1  0.70125100  0.65306900  0.90019100  1
  Y  Y1  1  0.50046600  0.25000100  0.50007900  1
  Y  Y2  1  0.29735100  0.85160200  0.09932400  1
  Y  Y3  1  0.70264900  0.14839800  0.90067600  1
  Y  Y4  1  0.10047700  0.44928000  0.69977800  1
  Y  Y5  1  0.49953400  0.74999900  0.49992100  1
  Y  Y6  1  0.90001900  0.04959000  0.29733400  1
  Y  Y7  1  0.29874900  0.34693100  0.09980900  1
  Y  Y8  1  0.09998100  0.95041000  0.70266600  1
  Y  Y9  1  0.89952300  0.55072000  0.30022200  1
  H  H10  1  0.55071700  0.97505800  0.34956200  1
  H  H11  1  0.35086800  0.57528900  0.95081900  1
  H  H12  1  0.14914700  0.17384900  0.54946900  1
  H  H13  1  0.64913200  0.42471100  0.04918100  1
  H  H14  1  0.54907200  0.47506000  0.34866300  1
  H  H15  1  0.44928300  0.02494200  0.65043800  1
  H  H16  1  0.94948600  0.76947700  0.15312800  1
  H  H17  1  0.35944900  0.07714800  0.94867600  1
  H  H18  1  0.64055100  0.92285200  0.05132400  1
  H  H19  1  0.14969000  0.67656800  0.55011700  1
  H  H20  1  0.25000900  0.62434800  0.24909800  1
  H  H21  1  0.74999100  0.37565200  0.75090200  1
  H  H22  1  0.94882600  0.28202700  0.15303900  1
  H  H23  1  0.05051400  0.23052300  0.84687200  1
  H  H24  1  0.45092800  0.52494000  0.65133700  1
  H  H25  1  0.85085300  0.82615100  0.45053100  1
  H  H26  1  0.25566800  0.12761900  0.25596200  1
  H  H27  1  0.74433200  0.87238100  0.74403800  1
  H  H28  1  0.00000000  0.00000000  0.00000000  1
  H  H29  1  0.05117400  0.71797300  0.84696100  1
  H  H30  1  0.85031000  0.32343200  0.44988300  1
