# generated using pymatgen
data_Sm2Se3
_symmetry_space_group_name_H-M   'P 1'
_cell_length_a   14.66898256
_cell_length_b   14.66898256
_cell_length_c   14.66898256
_cell_angle_alpha   144.89605968
_cell_angle_beta   144.89605968
_cell_angle_gamma   50.48944610
_symmetry_Int_Tables_number   1
_chemical_formula_structural   Sm2Se3
_chemical_formula_sum   'Sm16 Se24'
_cell_volume   1038.59034778
_cell_formula_units_Z   8
loop_
 _symmetry_equiv_pos_site_id
 _symmetry_equiv_pos_as_xyz
  1  'x, y, z'
loop_
 _atom_site_type_symbol
 _atom_site_label
 _atom_site_symmetry_multiplicity
 _atom_site_fract_x
 _atom_site_fract_y
 _atom_site_fract_z
 _atom_site_occupancy
  Sm  Sm0  1  0.84356100  0.95232200  0.37542500  1
  Sm  Sm1  1  0.57689700  0.46813600  0.62457500  1
  Sm  Sm2  1  0.16687100  0.16687100  0.00000000  1
  Sm  Sm3  1  0.87500000  0.50600200  0.13100200  1
  Sm  Sm4  1  0.17310300  0.29767800  0.39123900  1
  Sm  Sm5  1  0.58312900  0.08312900  0.50000000  1
  Sm  Sm6  1  0.90643900  0.78186400  0.60876100  1
  Sm  Sm7  1  0.37500000  0.74399800  0.86899800  1
  Sm  Sm8  1  0.21813600  0.82689700  0.12457500  1
  Sm  Sm9  1  0.91687100  0.41687100  0.50000000  1
  Sm  Sm10  1  0.49399800  0.62500000  0.36899800  1
  Sm  Sm11  1  0.25600200  0.12500000  0.63100200  1
  Sm  Sm12  1  0.70232200  0.09356100  0.87542500  1
  Sm  Sm13  1  0.83312900  0.83312900  0.00000000  1
  Sm  Sm14  1  0.53186400  0.15643900  0.10876100  1
  Sm  Sm15  1  0.04767800  0.42310300  0.89123900  1
  Se  Se16  1  0.50766400  0.11234400  0.25339000  1
  Se  Se17  1  0.07333700  0.82645900  0.60774300  1
  Se  Se18  1  0.85895400  0.25427400  0.74661000  1
  Se  Se19  1  0.89104600  0.13765600  0.89532000  1
  Se  Se20  1  0.24233600  0.99572600  0.10468000  1
  Se  Se21  1  0.67666300  0.78440600  0.25312300  1
  Se  Se22  1  0.21871600  0.46559400  0.39225700  1
  Se  Se23  1  0.84260000  0.43628400  0.24632700  1
  Se  Se24  1  0.53128400  0.42354100  0.74687700  1
  Se  Se25  1  0.40372700  0.15740000  0.59368300  1
  Se  Se26  1  0.18995700  0.59627300  0.75367300  1
  Se  Se27  1  0.21559400  0.46871600  0.89225700  1
  Se  Se28  1  0.57645900  0.32333700  0.10774300  1
  Se  Se29  1  0.00427400  0.10895400  0.24661000  1
  Se  Se30  1  0.56371600  0.81004300  0.40631700  1
  Se  Se31  1  0.17354100  0.78128400  0.24687700  1
  Se  Se32  1  0.86234400  0.75766400  0.75339000  1
  Se  Se33  1  0.74572600  0.49233600  0.60468000  1
  Se  Se34  1  0.53440600  0.92666300  0.75312300  1
  Se  Se35  1  0.56004300  0.81371600  0.90631700  1
  Se  Se36  1  0.90740000  0.65372700  0.09368300  1
  Se  Se37  1  0.34627300  0.43995700  0.25367300  1
  Se  Se38  1  0.88765600  0.14104600  0.39532000  1
  Se  Se39  1  0.18628400  0.09260000  0.74632700  1
