# generated using pymatgen
data_Bi13O20
_symmetry_space_group_name_H-M   'P 1'
_cell_length_a   9.05434929
_cell_length_b   9.05434929
_cell_length_c   9.05434929
_cell_angle_alpha   109.47122063
_cell_angle_beta   109.47122063
_cell_angle_gamma   109.47122063
_symmetry_Int_Tables_number   1
_chemical_formula_structural   Bi13O20
_chemical_formula_sum   'Bi13 O20'
_cell_volume   571.41263880
_cell_formula_units_Z   1
loop_
 _symmetry_equiv_pos_site_id
 _symmetry_equiv_pos_as_xyz
  1  'x, y, z'
loop_
 _atom_site_type_symbol
 _atom_site_label
 _atom_site_symmetry_multiplicity
 _atom_site_fract_x
 _atom_site_fract_y
 _atom_site_fract_z
 _atom_site_occupancy
  Bi  Bi0  1  0.19391200  0.33714000  0.49907400  1
  Bi  Bi1  1  0.33714000  0.49907400  0.19391200  1
  Bi  Bi2  1  0.49907400  0.19391200  0.33714000  1
  Bi  Bi3  1  0.00000000  0.00000000  0.00000000  1
  Bi  Bi4  1  0.50092600  0.83806600  0.69483900  1
  Bi  Bi5  1  0.83806600  0.69483900  0.50092600  1
  Bi  Bi6  1  0.69483900  0.50092600  0.83806600  1
  Bi  Bi7  1  0.66286000  0.85677200  0.16193400  1
  Bi  Bi8  1  0.85677200  0.16193400  0.66286000  1
  Bi  Bi9  1  0.16193400  0.66286000  0.85677200  1
  Bi  Bi10  1  0.14322800  0.80608800  0.30516100  1
  Bi  Bi11  1  0.80608800  0.30516100  0.14322800  1
  Bi  Bi12  1  0.30516100  0.14322800  0.80608800  1
  O  O13  1  0.25422300  0.62919900  0.36326900  1
  O  O14  1  0.00000000  0.23893600  0.00000000  1
  O  O15  1  0.00000000  0.00000000  0.23893600  1
  O  O16  1  0.10904600  0.37497600  0.74577700  1
  O  O17  1  0.00000000  0.00000000  0.62593700  1
  O  O18  1  0.00000000  0.62593700  0.00000000  1
  O  O19  1  0.37080100  0.62502400  0.73406900  1
  O  O20  1  0.26593100  0.89095400  0.63673100  1
  O  O21  1  0.36326900  0.25422300  0.62919900  1
  O  O22  1  0.23893600  0.00000000  0.00000000  1
  O  O23  1  0.37497600  0.74577700  0.10904600  1
  O  O24  1  0.62593700  0.00000000  0.00000000  1
  O  O25  1  0.62502400  0.73406900  0.37080100  1
  O  O26  1  0.63673100  0.26593100  0.89095400  1
  O  O27  1  0.62919900  0.36326900  0.25422300  1
  O  O28  1  0.74577700  0.10904600  0.37497600  1
  O  O29  1  0.73406900  0.37080100  0.62502400  1
  O  O30  1  0.89095400  0.63673100  0.26593100  1
  O  O31  1  0.37406300  0.37406300  0.37406300  1
  O  O32  1  0.76106400  0.76106400  0.76106400  1
