# generated using pymatgen
data_MgAl2O4
_symmetry_space_group_name_H-M   'P 1'
_cell_length_a   5.76342348
_cell_length_b   5.76342348
_cell_length_c   14.18451400
_cell_angle_alpha   90.00000000
_cell_angle_beta   90.00000000
_cell_angle_gamma   119.99999407
_symmetry_Int_Tables_number   1
_chemical_formula_structural   MgAl2O4
_chemical_formula_sum   'Mg6 Al12 O24'
_cell_volume   408.04323438
_cell_formula_units_Z   6
loop_
 _symmetry_equiv_pos_site_id
 _symmetry_equiv_pos_as_xyz
  1  'x, y, z'
loop_
 _atom_site_type_symbol
 _atom_site_label
 _atom_site_symmetry_multiplicity
 _atom_site_fract_x
 _atom_site_fract_y
 _atom_site_fract_z
 _atom_site_occupancy
  Mg  Mg0  1  0.33333300  0.66666700  0.95499500  1
  Mg  Mg1  1  0.00000000  0.00000000  0.99852900  1
  Mg  Mg2  1  0.00000000  0.00000000  0.62118300  1
  Mg  Mg3  1  0.66666700  0.33333300  0.66408100  1
  Mg  Mg4  1  0.66666700  0.33333300  0.29054000  1
  Mg  Mg5  1  0.00000000  0.00000000  0.37790700  1
  Al  Al6  1  0.83808100  0.16191900  0.83415400  1
  Al  Al7  1  0.50284700  0.00569300  0.49964300  1
  Al  Al8  1  0.32383900  0.16191900  0.83415400  1
  Al  Al9  1  0.50284700  0.49715300  0.49964300  1
  Al  Al10  1  0.99430700  0.49715300  0.49964300  1
  Al  Al11  1  0.83808100  0.67616100  0.83415400  1
  Al  Al12  1  0.33333300  0.66666700  0.33546200  1
  Al  Al13  1  0.16921400  0.83078600  0.16806000  1
  Al  Al14  1  0.33333300  0.66666700  0.71431900  1
  Al  Al15  1  0.66157200  0.83078600  0.16806000  1
  Al  Al16  1  0.16921400  0.33842800  0.16806000  1
  Al  Al17  1  0.66666700  0.33333300  0.04348900  1
  O  O18  1  0.69399600  0.84699800  0.90648700  1
  O  O19  1  0.00000000  0.00000000  0.76003700  1
  O  O20  1  0.15300200  0.84699800  0.90648700  1
  O  O21  1  0.15300200  0.30600400  0.90648700  1
  O  O22  1  0.50689700  0.01379500  0.75798700  1
  O  O23  1  0.35886600  0.17943300  0.57039500  1
  O  O24  1  0.66666700  0.33333300  0.91188100  1
  O  O25  1  0.50689700  0.49310300  0.75798700  1
  O  O26  1  0.66666700  0.33333300  0.42655300  1
  O  O27  1  0.82056700  0.17943300  0.57039500  1
  O  O28  1  0.98620500  0.49310300  0.75798700  1
  O  O29  1  0.82056700  0.64113400  0.57039500  1
  O  O30  1  0.03836700  0.51918300  0.24640600  1
  O  O31  1  0.18712700  0.37425400  0.42187100  1
  O  O32  1  0.33333300  0.66666700  0.58313100  1
  O  O33  1  0.48081700  0.51918300  0.24640600  1
  O  O34  1  0.18712700  0.81287300  0.42187100  1
  O  O35  1  0.33333300  0.66666700  0.09617300  1
  O  O36  1  0.48081700  0.96163300  0.24640600  1
  O  O37  1  0.62574600  0.81287300  0.42187100  1
  O  O38  1  0.83640900  0.67281900  0.09120900  1
  O  O39  1  0.00000000  0.00000000  0.23305500  1
  O  O40  1  0.83640900  0.16359100  0.09120900  1
  O  O41  1  0.32718100  0.16359100  0.09120900  1
