# generated using pymatgen
data_Li3MnV(PO4)3
_symmetry_space_group_name_H-M   'P 1'
_cell_length_a   8.92070946
_cell_length_b   8.42093348
_cell_length_c   14.77209028
_cell_angle_alpha   89.64367789
_cell_angle_beta   74.69287881
_cell_angle_gamma   62.91701432
_symmetry_Int_Tables_number   1
_chemical_formula_structural   Li3MnV(PO4)3
_chemical_formula_sum   'Li12 Mn4 V4 P12 O48'
_cell_volume   944.53024449
_cell_formula_units_Z   4
loop_
 _symmetry_equiv_pos_site_id
 _symmetry_equiv_pos_as_xyz
  1  'x, y, z'
loop_
 _atom_site_type_symbol
 _atom_site_label
 _atom_site_symmetry_multiplicity
 _atom_site_fract_x
 _atom_site_fract_y
 _atom_site_fract_z
 _atom_site_occupancy
  Li  Li0  1  0.14805500  0.25425900  0.33132300  1
  Li  Li1  1  0.14719500  0.79829600  0.13552600  1
  Li  Li2  1  0.15118000  0.29484500  0.63265000  1
  Li  Li3  1  0.14937100  0.72703300  0.46274500  1
  Li  Li4  1  0.14702200  0.22458200  0.96181200  1
  Li  Li5  1  0.15004600  0.75658800  0.83350900  1
  Li  Li6  1  0.84706000  0.24890300  0.16910900  1
  Li  Li7  1  0.85514900  0.77474700  0.03877600  1
  Li  Li8  1  0.85069000  0.27704600  0.53768200  1
  Li  Li9  1  0.85215100  0.69807000  0.36434000  1
  Li  Li10  1  0.85290900  0.20185300  0.86776600  1
  Li  Li11  1  0.85171300  0.74150200  0.66523600  1
  Mn  Mn12  1  0.56012800  0.21835800  0.07793200  1
  Mn  Mn13  1  0.43718700  0.28344500  0.42406200  1
  Mn  Mn14  1  0.56051600  0.71977800  0.57439900  1
  Mn  Mn15  1  0.95645500  0.52064700  0.17428100  1
  V  V16  1  0.04318100  0.97779700  0.32517200  1
  V  V17  1  0.05046200  0.47603300  0.82554300  1
  V  V18  1  0.44284200  0.77944400  0.92514900  1
  V  V19  1  0.95235500  0.02395500  0.67382300  1
  P  P20  1  0.25095100  0.08317700  0.12309800  1
  P  P21  1  0.24998300  0.02386600  0.47975100  1
  P  P22  1  0.24924300  0.52316000  0.27476300  1
  P  P23  1  0.25221800  0.02050900  0.77022500  1
  P  P24  1  0.24861200  0.58838600  0.62769600  1
  P  P25  1  0.25589800  0.51963700  0.98037800  1
  P  P26  1  0.74868700  0.47915100  0.01772000  1
  P  P27  1  0.74768400  0.41218400  0.37523000  1
  P  P28  1  0.74820400  0.97888000  0.22853400  1
  P  P29  1  0.75066400  0.47733900  0.73126900  1
  P  P30  1  0.74469300  0.98031600  0.51884900  1
  P  P31  1  0.75571100  0.91238600  0.87181200  1
  O  O32  1  0.09851900  0.25149900  0.10102300  1
  O  O33  1  0.19678300  0.06407300  0.22970300  1
  O  O34  1  0.10241500  0.62551900  0.07154200  1
  O  O35  1  0.09732000  0.11832900  0.57682800  1
  O  O36  1  0.09473800  0.48049300  0.27672300  1
  O  O37  1  0.42473200  0.09109900  0.09621800  1
  O  O38  1  0.26545000  0.18452500  0.43249300  1
  O  O39  1  0.18926700  0.72428600  0.25813600  1
  O  O40  1  0.19328000  0.22108800  0.75578100  1
  O  O41  1  0.26720400  0.50301300  0.37725300  1
  O  O42  1  0.41642600  0.40113900  0.19944600  1
  O  O43  1  0.09779400  0.76525400  0.60623400  1
  O  O44  1  0.27519000  0.92040300  0.05880300  1
  O  O45  1  0.25809600  0.43251700  0.56980100  1
  O  O46  1  0.58023400  0.10513600  0.30181100  1
  O  O47  1  0.19556300  0.57430600  0.73568100  1
  O  O48  1  0.18758100  0.93265200  0.41770800  1
  O  O49  1  0.19665800  0.42593300  0.91698600  1
  O  O50  1  0.73507100  0.00456700  0.12463000  1
  O  O51  1  0.57681900  0.61202000  0.99668800  1
  O  O52  1  0.57466400  0.11697600  0.50273900  1
  O  O53  1  0.09646600  0.97836700  0.76919300  1
  O  O54  1  0.72788900  0.32325700  0.06635200  1
  O  O55  1  0.57191700  0.40757500  0.40812000  1
  O  O56  1  0.42345700  0.59499900  0.59872800  1
  O  O57  1  0.28413100  0.67225800  0.92772500  1
  O  O58  1  0.90481300  0.02177300  0.22865200  1
  O  O59  1  0.41965900  0.88780800  0.49595200  1
  O  O60  1  0.42442900  0.38206800  0.99861700  1
  O  O61  1  0.26834000  0.99388500  0.87306700  1
  O  O62  1  0.79952600  0.58047700  0.07876300  1
  O  O63  1  0.80560000  0.07112900  0.58298900  1
  O  O64  1  0.79771400  0.42680900  0.26937100  1
  O  O65  1  0.42009500  0.89621400  0.69637100  1
  O  O66  1  0.73670900  0.56732200  0.43674300  1
  O  O67  1  0.74021300  0.06894100  0.93130700  1
  O  O68  1  0.90019100  0.23488200  0.39596500  1
  O  O69  1  0.58202500  0.60944000  0.80646800  1
  O  O70  1  0.73534000  0.49876600  0.62988600  1
  O  O71  1  0.80565700  0.78215100  0.24420800  1
  O  O72  1  0.80481300  0.27912700  0.74902600  1
  O  O73  1  0.72604100  0.82148400  0.56787700  1
  O  O74  1  0.58098100  0.89890900  0.90064800  1
  O  O75  1  0.90417500  0.52175500  0.73332400  1
  O  O76  1  0.89773800  0.88363000  0.42397500  1
  O  O77  1  0.90148900  0.38279400  0.92184900  1
  O  O78  1  0.80419200  0.92654300  0.76452900  1
  O  O79  1  0.90438300  0.73663600  0.89390600  1
