# generated using pymatgen
data_Li3MnV(PO4)3
_symmetry_space_group_name_H-M   'P 1'
_cell_length_a   9.00003529
_cell_length_b   8.46741965
_cell_length_c   14.67370820
_cell_angle_alpha   91.01609244
_cell_angle_beta   73.41608283
_cell_angle_gamma   63.33593472
_symmetry_Int_Tables_number   1
_chemical_formula_structural   Li3MnV(PO4)3
_chemical_formula_sum   'Li12 Mn4 V4 P12 O48'
_cell_volume   943.76728855
_cell_formula_units_Z   4
loop_
 _symmetry_equiv_pos_site_id
 _symmetry_equiv_pos_as_xyz
  1  'x, y, z'
loop_
 _atom_site_type_symbol
 _atom_site_label
 _atom_site_symmetry_multiplicity
 _atom_site_fract_x
 _atom_site_fract_y
 _atom_site_fract_z
 _atom_site_occupancy
  Li  Li0  1  0.14310300  0.25942200  0.33352300  1
  Li  Li1  1  0.15497400  0.79467800  0.13270900  1
  Li  Li2  1  0.14561600  0.29877000  0.63073600  1
  Li  Li3  1  0.14748000  0.72662900  0.45833800  1
  Li  Li4  1  0.14788200  0.22956200  0.95991500  1
  Li  Li5  1  0.14689000  0.76185100  0.83334400  1
  Li  Li6  1  0.85261600  0.24009500  0.16803700  1
  Li  Li7  1  0.85461300  0.76902900  0.04030100  1
  Li  Li8  1  0.85259000  0.27269400  0.54039900  1
  Li  Li9  1  0.85274300  0.70125500  0.36866500  1
  Li  Li10  1  0.84974100  0.20188600  0.86914100  1
  Li  Li11  1  0.85026900  0.74072800  0.66701300  1
  Mn  Mn12  1  0.04322700  0.97930600  0.32576800  1
  Mn  Mn13  1  0.56343600  0.22257700  0.07239800  1
  Mn  Mn14  1  0.55748400  0.72770100  0.57322900  1
  Mn  Mn15  1  0.43822400  0.77515300  0.92680900  1
  V  V16  1  0.04602100  0.47726000  0.82525900  1
  V  V17  1  0.43621000  0.28221600  0.42700800  1
  V  V18  1  0.95632800  0.52086600  0.17490200  1
  V  V19  1  0.95062800  0.02439300  0.67477300  1
  P  P20  1  0.25469800  0.08520300  0.12279100  1
  P  P21  1  0.24521400  0.02391000  0.47583900  1
  P  P22  1  0.25352900  0.51737100  0.26834100  1
  P  P23  1  0.24639700  0.02633100  0.76889200  1
  P  P24  1  0.24935100  0.58934600  0.62451800  1
  P  P25  1  0.25148500  0.52267600  0.97779800  1
  P  P26  1  0.74982500  0.47695800  0.02241700  1
  P  P27  1  0.74827600  0.41946100  0.37823900  1
  P  P28  1  0.75714300  0.97070700  0.23143800  1
  P  P29  1  0.75079500  0.47566400  0.73107400  1
  P  P30  1  0.74513200  0.98134300  0.52128600  1
  P  P31  1  0.74637000  0.91305300  0.87733900  1
  O  O32  1  0.10275500  0.25621100  0.10315200  1
  O  O33  1  0.19721500  0.06766400  0.23053700  1
  O  O34  1  0.09706300  0.61784600  0.07760000  1
  O  O35  1  0.09043100  0.11952200  0.57577200  1
  O  O36  1  0.09953500  0.47407300  0.26726600  1
  O  O37  1  0.42702800  0.09373800  0.09558000  1
  O  O38  1  0.26136200  0.18220900  0.43056800  1
  O  O39  1  0.20306800  0.70985300  0.24965200  1
  O  O40  1  0.19490800  0.22081500  0.74861200  1
  O  O41  1  0.26667200  0.49629300  0.37102500  1
  O  O42  1  0.42768700  0.38142700  0.19367900  1
  O  O43  1  0.09814000  0.75961500  0.60369200  1
  O  O44  1  0.27202900  0.92440100  0.05905200  1
  O  O45  1  0.26596700  0.42878900  0.56181000  1
  O  O46  1  0.58652600  0.10417200  0.30709100  1
  O  O47  1  0.19085600  0.57363500  0.73264800  1
  O  O48  1  0.18579200  0.92933200  0.41139800  1
  O  O49  1  0.18878500  0.43242000  0.91436700  1
  O  O50  1  0.75297200  0.98971100  0.12841600  1
  O  O51  1  0.58277300  0.61068700  0.00848700  1
  O  O52  1  0.57968400  0.11387200  0.50368900  1
  O  O53  1  0.09481600  0.98026700  0.76588100  1
  O  O54  1  0.73632600  0.31605300  0.06842800  1
  O  O55  1  0.57887400  0.40662800  0.40321500  1
  O  O56  1  0.42163900  0.59757400  0.59737900  1
  O  O57  1  0.26448500  0.68395200  0.93177900  1
  O  O58  1  0.91387400  0.01336000  0.23336500  1
  O  O59  1  0.41011900  0.88640200  0.49058800  1
  O  O60  1  0.41879500  0.38914600  0.99142200  1
  O  O61  1  0.25594800  0.00956000  0.87107600  1
  O  O62  1  0.81255100  0.56728900  0.08574200  1
  O  O63  1  0.80417000  0.07382800  0.58543500  1
  O  O64  1  0.80730700  0.43324900  0.26953900  1
  O  O65  1  0.42065900  0.89277800  0.69336500  1
  O  O66  1  0.72526000  0.58446700  0.44110000  1
  O  O67  1  0.72808500  0.07479300  0.94075000  1
  O  O68  1  0.90085700  0.25358100  0.39864300  1
  O  O69  1  0.57655000  0.60760000  0.80697400  1
  O  O70  1  0.74202300  0.49348300  0.62874400  1
  O  O71  1  0.80841400  0.77630600  0.25057400  1
  O  O72  1  0.80378300  0.28035200  0.75042200  1
  O  O73  1  0.72727500  0.82441600  0.56938800  1
  O  O74  1  0.57523700  0.90312400  0.90300300  1
  O  O75  1  0.90235400  0.52176500  0.73426100  1
  O  O76  1  0.90312000  0.88027800  0.42341100  1
  O  O77  1  0.90473300  0.38093900  0.92258200  1
  O  O78  1  0.80501900  0.93127100  0.76947800  1
  O  O79  1  0.89818900  0.74315500  0.89712500  1
