# generated using pymatgen
data_TiZn2O4
_symmetry_space_group_name_H-M   'P 1'
_cell_length_a   6.09000532
_cell_length_b   6.09000532
_cell_length_c   6.09000532
_cell_angle_alpha   121.27945305
_cell_angle_beta   120.71817339
_cell_angle_gamma   88.27924738
_symmetry_Int_Tables_number   1
_chemical_formula_structural   TiZn2O4
_chemical_formula_sum   'Ti2 Zn4 O8'
_cell_volume   157.21913000
_cell_formula_units_Z   2
loop_
 _symmetry_equiv_pos_site_id
 _symmetry_equiv_pos_as_xyz
  1  'x, y, z'
loop_
 _atom_site_type_symbol
 _atom_site_label
 _atom_site_symmetry_multiplicity
 _atom_site_fract_x
 _atom_site_fract_y
 _atom_site_fract_z
 _atom_site_occupancy
  Ti  Ti0  1  0.50000000  0.50000000  0.00000000  1
  Ti  Ti1  1  0.00000000  0.50000000  0.50000000  1
  Zn  Zn2  1  0.88895500  0.13895500  0.75000000  1
  Zn  Zn3  1  0.50000000  0.50000000  0.50000000  1
  Zn  Zn4  1  0.50000000  0.00000000  0.00000000  1
  Zn  Zn5  1  0.11104500  0.86104500  0.25000000  1
  O  O6  1  0.28896100  0.27527700  0.01368400  1
  O  O7  1  0.76159300  0.27527700  0.48631600  1
  O  O8  1  0.75409000  0.28105400  0.02696400  1
  O  O9  1  0.75409000  0.72712500  0.47303600  1
  O  O10  1  0.24591000  0.27287500  0.52696400  1
  O  O11  1  0.24591000  0.71894600  0.97303600  1
  O  O12  1  0.23840700  0.72472300  0.51368400  1
  O  O13  1  0.71103900  0.72472300  0.98631600  1
