# generated using pymatgen
data_Na7Zr6F31
_symmetry_space_group_name_H-M   'P 1'
_cell_length_a   8.70102783
_cell_length_b   8.70102783
_cell_length_c   8.70102741
_cell_angle_alpha   107.27714793
_cell_angle_beta   107.27714793
_cell_angle_gamma   107.27714937
_symmetry_Int_Tables_number   1
_chemical_formula_structural   Na7Zr6F31
_chemical_formula_sum   'Na7 Zr6 F31'
_cell_volume   544.40112177
_cell_formula_units_Z   1
loop_
 _symmetry_equiv_pos_site_id
 _symmetry_equiv_pos_as_xyz
  1  'x, y, z'
loop_
 _atom_site_type_symbol
 _atom_site_label
 _atom_site_symmetry_multiplicity
 _atom_site_fract_x
 _atom_site_fract_y
 _atom_site_fract_z
 _atom_site_occupancy
  Na  Na0  1  0.57597200  0.19196600  0.71865100  1
  Na  Na1  1  0.81280700  0.28519600  0.43654700  1
  Na  Na2  1  0.28519600  0.43654700  0.81280700  1
  Na  Na3  1  0.50264000  0.50264000  0.50264000  1
  Na  Na4  1  0.71865100  0.57597200  0.19196600  1
  Na  Na5  1  0.19196600  0.71865100  0.57597200  1
  Na  Na6  1  0.43654700  0.81280700  0.28519600  1
  Zr  Zr7  1  0.12837000  0.04133900  0.37633200  1
  Zr  Zr8  1  0.37633200  0.12837000  0.04133900  1
  Zr  Zr9  1  0.95711700  0.64167700  0.87358400  1
  Zr  Zr10  1  0.04133900  0.37633200  0.12837000  1
  Zr  Zr11  1  0.64167700  0.87358400  0.95711700  1
  Zr  Zr12  1  0.87358400  0.95711700  0.64167700  1
  F  F13  1  0.94900900  0.21053800  0.84578800  1
  F  F14  1  0.70285400  0.05534800  0.52385700  1
  F  F15  1  0.15772200  0.04621300  0.79141600  1
  F  F16  1  0.55726200  0.02301100  0.15395400  1
  F  F17  1  0.48012400  0.30748900  0.94793700  1
  F  F18  1  0.84865700  0.45217100  0.98456900  1
  F  F19  1  0.79141600  0.15772200  0.04621300  1
  F  F20  1  0.30300700  0.09507600  0.24949900  1
  F  F21  1  0.02301100  0.15395400  0.55726200  1
  F  F22  1  0.34159800  0.26996600  0.57756700  1
  F  F23  1  0.73578100  0.42020400  0.66263500  1
  F  F24  1  0.57756700  0.34159800  0.26996600  1
  F  F25  1  0.94793700  0.48012400  0.30748900  1
  F  F26  1  0.09507600  0.24949900  0.30300700  1
  F  F27  1  0.72013700  0.66070500  0.89082100  1
  F  F28  1  0.24949900  0.30300700  0.09507600  1
  F  F29  1  0.89082100  0.72013700  0.66070500  1
  F  F30  1  0.05534800  0.52385700  0.70285400  1
  F  F31  1  0.42020400  0.66263500  0.73578100  1
  F  F32  1  0.94028500  0.94028500  0.94028500  1
  F  F33  1  0.26996600  0.57756700  0.34159800  1
  F  F34  1  0.66263500  0.73578100  0.42020400  1
  F  F35  1  0.98456900  0.84865700  0.45217100  1
  F  F36  1  0.66070500  0.89082100  0.72013700  1
  F  F37  1  0.21053800  0.84578800  0.94900900  1
  F  F38  1  0.15395400  0.55726200  0.02301100  1
  F  F39  1  0.52385700  0.70285400  0.05534800  1
  F  F40  1  0.45217100  0.98456900  0.84865700  1
  F  F41  1  0.84578800  0.94900900  0.21053800  1
  F  F42  1  0.30748900  0.94793700  0.48012400  1
  F  F43  1  0.04621300  0.79141600  0.15772200  1
