# generated using pymatgen
data_CuCN
_symmetry_space_group_name_H-M   'P 1'
_cell_length_a   3.90247333
_cell_length_b   3.90247333
_cell_length_c   3.90247318
_cell_angle_alpha   104.27309490
_cell_angle_beta   104.27309490
_cell_angle_gamma   104.27309006
_symmetry_Int_Tables_number   1
_chemical_formula_structural   CuCN
_chemical_formula_sum   'Cu1 C1 N1'
_cell_volume   52.74651271
_cell_formula_units_Z   1
loop_
 _symmetry_equiv_pos_site_id
 _symmetry_equiv_pos_as_xyz
  1  'x, y, z'
loop_
 _atom_site_type_symbol
 _atom_site_label
 _atom_site_symmetry_multiplicity
 _atom_site_fract_x
 _atom_site_fract_y
 _atom_site_fract_z
 _atom_site_occupancy
  Cu  Cu0  1  0.00023100  0.00023100  0.00023100  1
  C  C1  1  0.37788500  0.37788500  0.37788500  1
  N  N2  1  0.62188400  0.62188400  0.62188400  1
