# generated using pymatgen
data_Mg(FeO2)2
_symmetry_space_group_name_H-M   'P 1'
_cell_length_a   5.98258102
_cell_length_b   5.98258102
_cell_length_c   14.63079430
_cell_angle_alpha   89.97910153
_cell_angle_beta   89.97910153
_cell_angle_gamma   60.22144083
_symmetry_Int_Tables_number   1
_chemical_formula_structural   Mg(FeO2)2
_chemical_formula_sum   'Mg6 Fe12 O24'
_cell_volume   454.50685257
_cell_formula_units_Z   6
loop_
 _symmetry_equiv_pos_site_id
 _symmetry_equiv_pos_as_xyz
  1  'x, y, z'
loop_
 _atom_site_type_symbol
 _atom_site_label
 _atom_site_symmetry_multiplicity
 _atom_site_fract_x
 _atom_site_fract_y
 _atom_site_fract_z
 _atom_site_occupancy
  Mg  Mg0  1  0.16268500  0.16268500  0.95821300  1
  Mg  Mg1  1  0.66611600  0.66611600  0.83188800  1
  Mg  Mg2  1  0.00008100  0.00008100  0.50031900  1
  Mg  Mg3  1  0.83075400  0.83075400  0.66474700  1
  Mg  Mg4  1  0.33294900  0.33294900  0.16824000  1
  Mg  Mg5  1  0.16942500  0.16942500  0.33629900  1
  Fe  Fe6  1  0.49478200  0.49478200  0.61844500  1
  Fe  Fe7  1  0.50051400  0.50051400  0.99572000  1
  Fe  Fe8  1  0.66673700  0.16986600  0.83167400  1
  Fe  Fe9  1  0.82722700  0.82722700  0.29362500  1
  Fe  Fe10  1  0.16986600  0.66673700  0.83167400  1
  Fe  Fe11  1  0.99990100  0.49997200  0.50022200  1
  Fe  Fe12  1  0.49997200  0.99990100  0.50022200  1
  Fe  Fe13  1  0.17284900  0.17284900  0.70835000  1
  Fe  Fe14  1  0.33092600  0.83754300  0.16873100  1
  Fe  Fe15  1  0.83754300  0.33092600  0.16873100  1
  Fe  Fe16  1  0.50502600  0.50502600  0.38017500  1
  Fe  Fe17  1  0.83803600  0.83803600  0.04148700  1
  O  O18  1  0.34178500  0.80396900  0.91325500  1
  O  O19  1  0.80396900  0.34178500  0.91325500  1
  O  O20  1  0.49745900  0.49745900  0.75175500  1
  O  O21  1  0.34503500  0.34503500  0.91234100  1
  O  O22  1  0.66470800  0.14533900  0.57722900  1
  O  O23  1  0.99368200  0.99368200  0.75187600  1
  O  O24  1  0.83569300  0.83569300  0.91031300  1
  O  O25  1  0.51708200  0.99605600  0.75297600  1
  O  O26  1  0.14533900  0.66470800  0.57722900  1
  O  O27  1  0.82607100  0.82607100  0.42660800  1
  O  O28  1  0.67423900  0.67423900  0.57449000  1
  O  O29  1  0.99605600  0.51708200  0.75297600  1
  O  O30  1  0.32627900  0.32627900  0.42524100  1
  O  O31  1  0.00399000  0.48425600  0.24822900  1
  O  O32  1  0.17395300  0.17395300  0.57410000  1
  O  O33  1  0.85348600  0.33549500  0.42248000  1
  O  O34  1  0.48425600  0.00399000  0.24822900  1
  O  O35  1  0.16187700  0.16187700  0.09527300  1
  O  O36  1  0.33549500  0.85348600  0.42248000  1
  O  O37  1  0.00587300  0.00587300  0.24927500  1
  O  O38  1  0.65795000  0.65795000  0.08577100  1
  O  O39  1  0.50322100  0.50322100  0.24534500  1
  O  O40  1  0.18768100  0.65945200  0.08525500  1
  O  O41  1  0.65945200  0.18768100  0.08525500  1
