# generated using pymatgen
data_PHN2
_symmetry_space_group_name_H-M   'P 1'
_cell_length_a   4.90313996
_cell_length_b   4.90313996
_cell_length_c   4.90313996
_cell_angle_alpha   121.71820214
_cell_angle_beta   121.17421360
_cell_angle_gamma   87.51350464
_symmetry_Int_Tables_number   1
_chemical_formula_structural   PHN2
_chemical_formula_sum   'P2 H2 N4'
_cell_volume   81.44267925
_cell_formula_units_Z   2
loop_
 _symmetry_equiv_pos_site_id
 _symmetry_equiv_pos_as_xyz
  1  'x, y, z'
loop_
 _atom_site_type_symbol
 _atom_site_label
 _atom_site_symmetry_multiplicity
 _atom_site_fract_x
 _atom_site_fract_y
 _atom_site_fract_z
 _atom_site_occupancy
  P  P0  1  0.86464600  0.61464600  0.25000000  1
  P  P1  1  0.63535400  0.88535400  0.75000000  1
  H  H2  1  0.25000000  0.10598400  0.85598400  1
  H  H3  1  0.75000000  0.39401600  0.64401600  1
  N  N4  1  0.60863800  0.75000000  0.35863800  1
  N  N5  1  0.25000000  0.89091900  0.64091900  1
  N  N6  1  0.89136200  0.25000000  0.14136200  1
  N  N7  1  0.75000000  0.60908100  0.85908100  1
