# generated using pymatgen
data_Sr(SmS2)2
_symmetry_space_group_name_H-M   'P 1'
_cell_length_a   7.47120904
_cell_length_b   7.47120904
_cell_length_c   7.47120904
_cell_angle_alpha   109.40500091
_cell_angle_beta   109.40500091
_cell_angle_gamma   109.60374141
_symmetry_Int_Tables_number   1
_chemical_formula_structural   Sr(SmS2)2
_chemical_formula_sum   'Sr2 Sm4 S8'
_cell_volume   321.03252169
_cell_formula_units_Z   2
loop_
 _symmetry_equiv_pos_site_id
 _symmetry_equiv_pos_as_xyz
  1  'x, y, z'
loop_
 _atom_site_type_symbol
 _atom_site_label
 _atom_site_symmetry_multiplicity
 _atom_site_fract_x
 _atom_site_fract_y
 _atom_site_fract_z
 _atom_site_occupancy
  Sr  Sr0  1  0.75000000  0.25000000  0.50000000  1
  Sr  Sr1  1  0.50000000  0.50000000  0.00000000  1
  Sm  Sm2  1  0.99899600  0.37500000  0.12399600  1
  Sm  Sm3  1  0.62500000  0.74899600  0.62399600  1
  Sm  Sm4  1  0.25100400  0.87500000  0.87600400  1
  Sm  Sm5  1  0.12500000  0.00100400  0.37600400  1
  S  S6  1  0.51518600  0.11234700  0.74804300  1
  S  S7  1  0.01714300  0.11430500  0.75195700  1
  S  S8  1  0.36234700  0.26518600  0.24804300  1
  S  S9  1  0.23285700  0.48481400  0.59716100  1
  S  S10  1  0.88569500  0.63765300  0.90283900  1
  S  S11  1  0.36430500  0.76714300  0.25195700  1
  S  S12  1  0.88765300  0.63569500  0.40283900  1
  S  S13  1  0.73481400  0.98285700  0.09716100  1
