# generated using pymatgen
data_S3(NO)2
_symmetry_space_group_name_H-M   'P 1'
_cell_length_a   8.84892774
_cell_length_b   8.84892774
_cell_length_c   7.34236661
_cell_angle_alpha   84.00067707
_cell_angle_beta   84.00067707
_cell_angle_gamma   31.68751187
_symmetry_Int_Tables_number   1
_chemical_formula_structural   S3(NO)2
_chemical_formula_sum   'S6 N4 O4'
_cell_volume   300.21680401
_cell_formula_units_Z   2
loop_
 _symmetry_equiv_pos_site_id
 _symmetry_equiv_pos_as_xyz
  1  'x, y, z'
loop_
 _atom_site_type_symbol
 _atom_site_label
 _atom_site_symmetry_multiplicity
 _atom_site_fract_x
 _atom_site_fract_y
 _atom_site_fract_z
 _atom_site_occupancy
  S  S0  1  0.63714600  0.06055400  0.14581700  1
  S  S1  1  0.93944600  0.36285400  0.35418300  1
  S  S2  1  0.36285400  0.93944600  0.85418300  1
  S  S3  1  0.06055400  0.63714600  0.64581700  1
  S  S4  1  0.63600800  0.36399200  0.25000000  1
  S  S5  1  0.36399200  0.63600800  0.75000000  1
  N  N6  1  0.21227700  0.92513900  0.79496300  1
  N  N7  1  0.92513900  0.21227700  0.29496300  1
  N  N8  1  0.78772300  0.07486100  0.20503700  1
  N  N9  1  0.07486100  0.78772300  0.70503700  1
  O  O10  1  0.33353800  0.32260900  0.62304300  1
  O  O11  1  0.32260900  0.33353800  0.12304300  1
  O  O12  1  0.67739100  0.66646200  0.87695700  1
  O  O13  1  0.66646200  0.67739100  0.37695700  1
