# generated using pymatgen
data_Li2Mn15O32
_symmetry_space_group_name_H-M   'P 1'
_cell_length_a   19.51927628
_cell_length_b   19.51927628
_cell_length_c   19.51927659
_cell_angle_alpha   17.15727002
_cell_angle_beta   17.15727002
_cell_angle_gamma   17.15727130
_symmetry_Int_Tables_number   1
_chemical_formula_structural   Li2Mn15O32
_chemical_formula_sum   'Li2 Mn15 O32'
_cell_volume   564.65795148
_cell_formula_units_Z   1
loop_
 _symmetry_equiv_pos_site_id
 _symmetry_equiv_pos_as_xyz
  1  'x, y, z'
loop_
 _atom_site_type_symbol
 _atom_site_label
 _atom_site_symmetry_multiplicity
 _atom_site_fract_x
 _atom_site_fract_y
 _atom_site_fract_z
 _atom_site_occupancy
  Li  Li0  1  0.15651000  0.15651000  0.15651000  1
  Li  Li1  1  0.84471100  0.84471100  0.84471100  1
  Mn  Mn2  1  0.62318900  0.13246900  0.62318900  1
  Mn  Mn3  1  0.13246900  0.62318900  0.62318900  1
  Mn  Mn4  1  0.87114800  0.37988600  0.87114800  1
  Mn  Mn5  1  0.62318900  0.62318900  0.13246900  1
  Mn  Mn6  1  0.37988600  0.87114800  0.87114800  1
  Mn  Mn7  1  0.12496000  0.62429400  0.12496000  1
  Mn  Mn8  1  0.99952200  0.99952200  0.99952200  1
  Mn  Mn9  1  0.09476600  0.09476600  0.09476600  1
  Mn  Mn10  1  0.87114800  0.87114800  0.37988600  1
  Mn  Mn11  1  0.62429400  0.12496000  0.12496000  1
  Mn  Mn12  1  0.37719400  0.87021200  0.37719400  1
  Mn  Mn13  1  0.12496000  0.12496000  0.62429400  1
  Mn  Mn14  1  0.24969800  0.24969800  0.24969800  1
  Mn  Mn15  1  0.87021200  0.37719400  0.37719400  1
  Mn  Mn16  1  0.37719400  0.37719400  0.87021200  1
  O  O17  1  0.79007700  0.31906100  0.31906100  1
  O  O18  1  0.44193000  0.44193000  0.44193000  1
  O  O19  1  0.31906100  0.31906100  0.79007700  1
  O  O20  1  0.31906100  0.79007700  0.31906100  1
  O  O21  1  0.02574100  0.57458200  0.57458200  1
  O  O22  1  0.92885000  0.46442900  0.92885000  1
  O  O23  1  0.68992700  0.68992700  0.68992700  1
  O  O24  1  0.57458200  0.57458200  0.02574100  1
  O  O25  1  0.80986100  0.80986100  0.80986100  1
  O  O26  1  0.92885000  0.92885000  0.46442900  1
  O  O27  1  0.57458200  0.02574100  0.57458200  1
  O  O28  1  0.46442900  0.92885000  0.92885000  1
  O  O29  1  0.27099600  0.83100200  0.83100200  1
  O  O30  1  0.16798300  0.72903800  0.16798300  1
  O  O31  1  0.94118500  0.94118500  0.94118500  1
  O  O32  1  0.83100200  0.83100200  0.27099600  1
  O  O33  1  0.05927900  0.05927900  0.05927900  1
  O  O34  1  0.16798300  0.16798300  0.72903800  1
  O  O35  1  0.83100200  0.27099600  0.83100200  1
  O  O36  1  0.72903800  0.16798300  0.16798300  1
  O  O37  1  0.51909500  0.08228200  0.08228200  1
  O  O38  1  0.41883200  0.97840200  0.41883200  1
  O  O39  1  0.19074000  0.19074000  0.19074000  1
  O  O40  1  0.30839100  0.30839100  0.30839100  1
  O  O41  1  0.08228200  0.08228200  0.51909500  1
  O  O42  1  0.41883200  0.41883200  0.97840200  1
  O  O43  1  0.08228100  0.51909500  0.08228200  1
  O  O44  1  0.97840200  0.41883200  0.41883200  1
  O  O45  1  0.68395500  0.20763300  0.68395500  1
  O  O46  1  0.55888600  0.55888600  0.55888600  1
  O  O47  1  0.68395500  0.68395500  0.20763300  1
  O  O48  1  0.20763300  0.68395500  0.68395500  1
