# generated using pymatgen
data_NbO2F
_symmetry_space_group_name_H-M   'P 1'
_cell_length_a   5.50526920
_cell_length_b   5.50526920
_cell_length_c   5.51052299
_cell_angle_alpha   61.49384495
_cell_angle_beta   61.49384495
_cell_angle_gamma   57.76178105
_symmetry_Int_Tables_number   1
_chemical_formula_structural   NbO2F
_chemical_formula_sum   'Nb2 O4 F2'
_cell_volume   118.43839961
_cell_formula_units_Z   2
loop_
 _symmetry_equiv_pos_site_id
 _symmetry_equiv_pos_as_xyz
  1  'x, y, z'
loop_
 _atom_site_type_symbol
 _atom_site_label
 _atom_site_symmetry_multiplicity
 _atom_site_fract_x
 _atom_site_fract_y
 _atom_site_fract_z
 _atom_site_occupancy
  Nb  Nb0  1  0.00000000  0.50000000  0.00000000  1
  Nb  Nb1  1  0.50000000  0.00000000  0.50000000  1
  O  O2  1  0.76182000  0.82138100  0.73850900  1
  O  O3  1  0.17861800  0.23818000  0.76149100  1
  O  O4  1  0.82138100  0.76182000  0.23850900  1
  O  O5  1  0.23818000  0.17861900  0.26149100  1
  F  F6  1  0.34730700  0.65269300  0.75000000  1
  F  F7  1  0.65269300  0.34730700  0.25000000  1
