# generated using pymatgen
data_NaAsSe2
_symmetry_space_group_name_H-M   'P 1'
_cell_length_a   7.08581883
_cell_length_b   7.08581883
_cell_length_c   7.08581883
_cell_angle_alpha   133.51030452
_cell_angle_beta   133.51030452
_cell_angle_gamma   67.85387403
_symmetry_Int_Tables_number   1
_chemical_formula_structural   NaAsSe2
_chemical_formula_sum   'Na2 As2 Se4'
_cell_volume   183.91887840
_cell_formula_units_Z   2
loop_
 _symmetry_equiv_pos_site_id
 _symmetry_equiv_pos_as_xyz
  1  'x, y, z'
loop_
 _atom_site_type_symbol
 _atom_site_label
 _atom_site_symmetry_multiplicity
 _atom_site_fract_x
 _atom_site_fract_y
 _atom_site_fract_z
 _atom_site_occupancy
  Na  Na0  1  0.00000000  0.00000000  0.00000000  1
  Na  Na1  1  0.75000000  0.25000000  0.50000000  1
  As  As2  1  0.25000000  0.75000000  0.50000000  1
  As  As3  1  0.50000000  0.50000000  0.00000000  1
  Se  Se4  1  0.48064200  0.98064200  0.50000000  1
  Se  Se5  1  0.01935800  0.51935800  0.50000000  1
  Se  Se6  1  0.73064200  0.73064200  0.00000000  1
  Se  Se7  1  0.26935800  0.26935800  0.00000000  1
