# generated using pymatgen
data_Mn2TcO4
_symmetry_space_group_name_H-M   'P 1'
_cell_length_a   6.29845975
_cell_length_b   6.16183410
_cell_length_c   6.29845939
_cell_angle_alpha   60.71499420
_cell_angle_beta   59.66584375
_cell_angle_gamma   60.71500105
_symmetry_Int_Tables_number   1
_chemical_formula_structural   Mn2TcO4
_chemical_formula_sum   'Mn4 Tc2 O8'
_cell_volume   174.23762937
_cell_formula_units_Z   2
loop_
 _symmetry_equiv_pos_site_id
 _symmetry_equiv_pos_as_xyz
  1  'x, y, z'
loop_
 _atom_site_type_symbol
 _atom_site_label
 _atom_site_symmetry_multiplicity
 _atom_site_fract_x
 _atom_site_fract_y
 _atom_site_fract_z
 _atom_site_occupancy
  Mn  Mn0  1  0.01307000  0.98693000  0.01307000  1
  Mn  Mn1  1  0.23693000  0.26307000  0.23693000  1
  Mn  Mn2  1  0.62500000  0.12500000  0.62500000  1
  Mn  Mn3  1  0.62500000  0.62500000  0.62500000  1
  Tc  Tc4  1  0.12500000  0.62500000  0.62500000  1
  Tc  Tc5  1  0.62500000  0.62500000  0.12500000  1
  O  O6  1  0.37428200  0.40350000  0.37428200  1
  O  O7  1  0.37428200  0.84793600  0.37428200  1
  O  O8  1  0.36418000  0.39969000  0.83644000  1
  O  O9  1  0.83644000  0.39969000  0.36418000  1
  O  O10  1  0.41356000  0.85031000  0.88582000  1
  O  O11  1  0.88582000  0.85031000  0.41356000  1
  O  O12  1  0.87571800  0.40206400  0.87571800  1
  O  O13  1  0.87571800  0.84650000  0.87571800  1
