# generated using pymatgen
data_KCN
_symmetry_space_group_name_H-M   'P 1'
_cell_length_a   4.48959736
_cell_length_b   4.48959736
_cell_length_c   4.48959736
_cell_angle_alpha   121.39324380
_cell_angle_beta   107.93752409
_cell_angle_gamma   99.85243586
_symmetry_Int_Tables_number   1
_chemical_formula_structural   KCN
_chemical_formula_sum   'K1 C1 N1'
_cell_volume   67.08937010
_cell_formula_units_Z   1
loop_
 _symmetry_equiv_pos_site_id
 _symmetry_equiv_pos_as_xyz
  1  'x, y, z'
loop_
 _atom_site_type_symbol
 _atom_site_label
 _atom_site_symmetry_multiplicity
 _atom_site_fract_x
 _atom_site_fract_y
 _atom_site_fract_z
 _atom_site_occupancy
  K  K0  1  0.99039600  0.00000000  0.99039600  1
  C  C1  1  0.39297400  0.50000000  0.89297400  1
  N  N2  1  0.61662900  0.50000000  0.11662900  1
