# generated using pymatgen
data_Al2NiO4
_symmetry_space_group_name_H-M   'P 1'
_cell_length_a   5.75969324
_cell_length_b   5.75969324
_cell_length_c   13.99505714
_cell_angle_alpha   89.89882164
_cell_angle_beta   89.89882164
_cell_angle_gamma   60.13863189
_symmetry_Int_Tables_number   1
_chemical_formula_structural   Al2NiO4
_chemical_formula_sum   'Al12 Ni6 O24'
_cell_volume   402.63182854
_cell_formula_units_Z   6
loop_
 _symmetry_equiv_pos_site_id
 _symmetry_equiv_pos_as_xyz
  1  'x, y, z'
loop_
 _atom_site_type_symbol
 _atom_site_label
 _atom_site_symmetry_multiplicity
 _atom_site_fract_x
 _atom_site_fract_y
 _atom_site_fract_z
 _atom_site_occupancy
  Al  Al0  1  0.83305600  0.32880900  0.16744200  1
  Al  Al1  1  0.99927300  0.99927300  0.00402000  1
  Al  Al2  1  0.00490200  0.00490200  0.37893600  1
  Al  Al3  1  0.32880900  0.83305600  0.16744200  1
  Al  Al4  1  0.50043000  0.00014200  0.49933900  1
  Al  Al5  1  0.67420100  0.67420100  0.70838900  1
  Al  Al6  1  0.00014200  0.50043000  0.49933900  1
  Al  Al7  1  0.32677000  0.32677000  0.28792700  1
  Al  Al8  1  0.17024400  0.66586700  0.83182400  1
  Al  Al9  1  0.66586700  0.17024400  0.83182400  1
  Al  Al10  1  0.99531300  0.99531300  0.62206600  1
  Al  Al11  1  0.66046000  0.66046000  0.95985100  1
  Ni  Ni12  1  0.33465300  0.33465300  0.04166800  1
  Ni  Ni13  1  0.66595300  0.66595300  0.33264400  1
  Ni  Ni14  1  0.83294000  0.83294000  0.16753000  1
  Ni  Ni15  1  0.33441900  0.33441900  0.66662200  1
  Ni  Ni16  1  0.50006100  0.50006100  0.49972100  1
  Ni  Ni17  1  0.16903000  0.16903000  0.83229000  1
  O  O18  1  0.70375200  0.16287300  0.08499300  1
  O  O19  1  0.00614500  0.00614500  0.25015400  1
  O  O20  1  0.16287300  0.70375200  0.08499300  1
  O  O21  1  0.14629700  0.14629700  0.08985800  1
  O  O22  1  0.49957000  0.49957000  0.24199300  1
  O  O23  1  0.34284100  0.84526000  0.42251200  1
  O  O24  1  0.48536400  0.99075400  0.24412500  1
  O  O25  1  0.65731400  0.65731400  0.08874100  1
  O  O26  1  0.84526000  0.34284100  0.42251200  1
  O  O27  1  0.67562600  0.67562600  0.57831900  1
  O  O28  1  0.99075400  0.48536400  0.24412500  1
  O  O29  1  0.83086000  0.83086000  0.42358600  1
  O  O30  1  0.00684400  0.51607800  0.75459400  1
  O  O31  1  0.16914500  0.16914500  0.57743800  1
  O  O32  1  0.15465800  0.65800300  0.57831800  1
  O  O33  1  0.34714700  0.34714700  0.90018400  1
  O  O34  1  0.32493700  0.32493700  0.42025300  1
  O  O35  1  0.51607800  0.00684400  0.75459400  1
  O  O36  1  0.50375800  0.50375800  0.75514800  1
  O  O37  1  0.65800300  0.15465800  0.57831800  1
  O  O38  1  0.84173700  0.84173700  0.91633900  1
  O  O39  1  0.83279100  0.31187200  0.91771100  1
  O  O40  1  0.99247200  0.99247200  0.75458200  1
  O  O41  1  0.31187200  0.83279100  0.91771100  1
