# generated using pymatgen
data_Fe2CoO4
_symmetry_space_group_name_H-M   'P 1'
_cell_length_a   6.03930700
_cell_length_b   6.03930700
_cell_length_c   14.72946400
_cell_angle_alpha   90.00000000
_cell_angle_beta   90.00000000
_cell_angle_gamma   119.99998910
_symmetry_Int_Tables_number   1
_chemical_formula_structural   Fe2CoO4
_chemical_formula_sum   'Fe12 Co6 O24'
_cell_volume   465.25584437
_cell_formula_units_Z   6
loop_
 _symmetry_equiv_pos_site_id
 _symmetry_equiv_pos_as_xyz
  1  'x, y, z'
loop_
 _atom_site_type_symbol
 _atom_site_label
 _atom_site_symmetry_multiplicity
 _atom_site_fract_x
 _atom_site_fract_y
 _atom_site_fract_z
 _atom_site_occupancy
  Fe  Fe0  1  0.66627600  0.66374600  0.87643700  1
  Fe  Fe1  1  0.16632300  0.66730800  0.99928200  1
  Fe  Fe2  1  0.33625400  0.00253000  0.20977000  1
  Fe  Fe3  1  0.66730800  0.16632300  0.00071800  1
  Fe  Fe4  1  0.83367700  0.50098400  0.33405200  1
  Fe  Fe5  1  0.99747000  0.33372400  0.54310400  1
  Fe  Fe6  1  0.33269200  0.49901600  0.33261500  1
  Fe  Fe7  1  0.66374600  0.66627600  0.12356300  1
  Fe  Fe8  1  0.49901600  0.33269200  0.66738500  1
  Fe  Fe9  1  0.33372400  0.99747000  0.45689600  1
  Fe  Fe10  1  0.50098400  0.83367700  0.66594800  1
  Fe  Fe11  1  0.00253000  0.33625400  0.79023000  1
  Co  Co12  1  0.32995100  0.00000000  0.83333300  1
  Co  Co13  1  0.00000000  0.32995100  0.16666700  1
  Co  Co14  1  0.83340000  0.00000000  0.33333300  1
  Co  Co15  1  0.16660000  0.16660000  0.00000000  1
  Co  Co16  1  0.67004900  0.67004900  0.50000000  1
  Co  Co17  1  0.00000000  0.83340000  0.66666700  1
  O  O18  1  0.01216800  0.83298600  0.92020500  1
  O  O19  1  0.49869300  0.31705300  0.91986500  1
  O  O20  1  0.33815000  0.99478100  0.07742400  1
  O  O21  1  0.49264400  0.84032600  0.92225000  1
  O  O22  1  0.84032600  0.49264400  0.07775000  1
  O  O23  1  0.68294700  0.18164000  0.25319800  1
  O  O24  1  0.99478100  0.33815000  0.92257600  1
  O  O25  1  0.83298600  0.01216800  0.07979500  1
  O  O26  1  0.15967400  0.65231800  0.25558400  1
  O  O27  1  0.00521900  0.34336900  0.41075700  1
  O  O28  1  0.31705300  0.49869300  0.08013500  1
  O  O29  1  0.16701400  0.17918300  0.25353800  1
  O  O30  1  0.50130700  0.81836000  0.41346900  1
  O  O31  1  0.34768200  0.50735600  0.58891700  1
  O  O32  1  0.50735600  0.34768200  0.41108300  1
  O  O33  1  0.66185000  0.65663100  0.25591000  1
  O  O34  1  0.82081700  0.98783200  0.58687200  1
  O  O35  1  0.65663100  0.66185000  0.74409000  1
  O  O36  1  0.98783200  0.82081700  0.41312800  1
  O  O37  1  0.81836000  0.50130700  0.58653100  1
  O  O38  1  0.17918300  0.16701400  0.74646200  1
  O  O39  1  0.34336900  0.00521900  0.58924300  1
  O  O40  1  0.18164000  0.68294700  0.74680200  1
  O  O41  1  0.65231800  0.15967400  0.74441600  1
