# generated using pymatgen
data_HgTe
_symmetry_space_group_name_H-M   'P 1'
_cell_length_a   4.71525645
_cell_length_b   4.71525645
_cell_length_c   10.41373900
_cell_angle_alpha   90.00000000
_cell_angle_beta   90.00000000
_cell_angle_gamma   120.00000630
_symmetry_Int_Tables_number   1
_chemical_formula_structural   HgTe
_chemical_formula_sum   'Hg3 Te3'
_cell_volume   200.51549020
_cell_formula_units_Z   3
loop_
 _symmetry_equiv_pos_site_id
 _symmetry_equiv_pos_as_xyz
  1  'x, y, z'
loop_
 _atom_site_type_symbol
 _atom_site_label
 _atom_site_symmetry_multiplicity
 _atom_site_fract_x
 _atom_site_fract_y
 _atom_site_fract_z
 _atom_site_occupancy
  Hg  Hg0  1  0.32917100  0.32917100  0.00000000  1
  Hg  Hg1  1  0.00000000  0.67082900  0.66666700  1
  Hg  Hg2  1  0.67082900  0.00000000  0.33333300  1
  Te  Te3  1  0.48208700  0.48208700  0.50000000  1
  Te  Te4  1  0.00000000  0.51791300  0.16666700  1
  Te  Te5  1  0.51791300  0.00000000  0.83333300  1
