# generated using pymatgen
data_Li3Fe5(PO4)6
_symmetry_space_group_name_H-M   'P 1'
_cell_length_a   6.37265810
_cell_length_b   15.86144459
_cell_length_c   10.92357249
_cell_angle_alpha   89.76097742
_cell_angle_beta   91.18992910
_cell_angle_gamma   101.58872264
_symmetry_Int_Tables_number   1
_chemical_formula_structural   Li3Fe5(PO4)6
_chemical_formula_sum   'Li6 Fe10 P12 O48'
_cell_volume   1081.40837157
_cell_formula_units_Z   2
loop_
 _symmetry_equiv_pos_site_id
 _symmetry_equiv_pos_as_xyz
  1  'x, y, z'
loop_
 _atom_site_type_symbol
 _atom_site_label
 _atom_site_symmetry_multiplicity
 _atom_site_fract_x
 _atom_site_fract_y
 _atom_site_fract_z
 _atom_site_occupancy
  Li  Li0  1  0.20790900  0.72769300  0.43427500  1
  Li  Li1  1  0.03003100  0.06006200  0.25000000  1
  Li  Li2  1  0.51978300  0.72769300  0.06572500  1
  Li  Li3  1  0.48021700  0.27230700  0.93427500  1
  Li  Li4  1  0.96996900  0.93993800  0.75000000  1
  Li  Li5  1  0.79209100  0.27230700  0.56572500  1
  Fe  Fe6  1  0.19642800  0.89908000  0.07691600  1
  Fe  Fe7  1  0.00000000  0.50000000  0.00000000  1
  Fe  Fe8  1  0.19172100  0.38344300  0.75000000  1
  Fe  Fe9  1  0.18630500  0.37261000  0.25000000  1
  Fe  Fe10  1  0.29734800  0.10092000  0.57691600  1
  Fe  Fe11  1  0.50000000  0.50000000  0.50000000  1
  Fe  Fe12  1  0.70265200  0.89908000  0.42308400  1
  Fe  Fe13  1  0.81369500  0.62739000  0.75000000  1
  Fe  Fe14  1  0.80827900  0.61655700  0.25000000  1
  Fe  Fe15  1  0.80357200  0.10092000  0.92308400  1
  P  P16  1  0.21359200  0.94406200  0.37059700  1
  P  P17  1  0.00493400  0.29660100  0.99614300  1
  P  P18  1  0.28147000  0.56294000  0.75000000  1
  P  P19  1  0.27941900  0.55883700  0.25000000  1
  P  P20  1  0.29166700  0.29660100  0.50385700  1
  P  P21  1  0.26952900  0.05593800  0.87059700  1
  P  P22  1  0.73047100  0.94406200  0.12940300  1
  P  P23  1  0.70833300  0.70339900  0.49614300  1
  P  P24  1  0.72058100  0.44116300  0.75000000  1
  P  P25  1  0.71853000  0.43706000  0.25000000  1
  P  P26  1  0.99506600  0.70339900  0.00385700  1
  P  P27  1  0.78640800  0.05593800  0.62940300  1
  O  O28  1  0.00536600  0.88681400  0.41677600  1
  O  O29  1  0.20419700  0.96539100  0.23048200  1
  O  O30  1  0.21107400  0.96390200  0.92665000  1
  O  O31  1  0.18520200  0.77980100  0.03144200  1
  O  O32  1  0.10079700  0.62396400  0.00318800  1
  O  O33  1  0.11674900  0.61878200  0.72342500  1
  O  O34  1  0.12320100  0.61893600  0.27578500  1
  O  O35  1  0.39174400  0.89482500  0.40134900  1
  O  O36  1  0.21381000  0.49544200  0.85791800  1
  O  O37  1  0.21064600  0.49261800  0.14184100  1
  O  O38  1  0.11850300  0.28528500  0.11942700  1
  O  O39  1  0.17532400  0.30400900  0.89406700  1
  O  O40  1  0.12868500  0.30400900  0.60593300  1
  O  O41  1  0.16678200  0.28528500  0.38057300  1
  O  O42  1  0.28163200  0.49544200  0.64208200  1
  O  O43  1  0.28197100  0.49261800  0.35815900  1
  O  O44  1  0.50308100  0.89482500  0.09865100  1
  O  O45  1  0.11855300  0.11318600  0.91677600  1
  O  O46  1  0.50203300  0.61878200  0.77657500  1
  O  O47  1  0.49573500  0.61893600  0.22421500  1
  O  O48  1  0.52316700  0.62396400  0.49681200  1
  O  O49  1  0.23880700  0.03460900  0.73048200  1
  O  O50  1  0.59459900  0.77980100  0.46855800  1
  O  O51  1  0.24717200  0.03609900  0.42665000  1
  O  O52  1  0.75282800  0.96390200  0.57335000  1
  O  O53  1  0.40540100  0.22019900  0.53144200  1
  O  O54  1  0.76119300  0.96539100  0.26951800  1
  O  O55  1  0.47683300  0.37603600  0.50318800  1
  O  O56  1  0.50426600  0.38106400  0.77578500  1
  O  O57  1  0.49796700  0.38121800  0.22342500  1
  O  O58  1  0.88144700  0.88681400  0.08322400  1
  O  O59  1  0.49691900  0.10517500  0.90134900  1
  O  O60  1  0.71802900  0.50738200  0.64184100  1
  O  O61  1  0.71836800  0.50455800  0.35791800  1
  O  O62  1  0.83321800  0.71471500  0.61942700  1
  O  O63  1  0.87131500  0.69599100  0.39406700  1
  O  O64  1  0.82467600  0.69599100  0.10593300  1
  O  O65  1  0.88149700  0.71471500  0.88057300  1
  O  O66  1  0.78935400  0.50738200  0.85815900  1
  O  O67  1  0.78619000  0.50455800  0.14208200  1
  O  O68  1  0.60825600  0.10517500  0.59865100  1
  O  O69  1  0.87679900  0.38106400  0.72421500  1
  O  O70  1  0.88325100  0.38121800  0.27657500  1
  O  O71  1  0.89920300  0.37603600  0.99681200  1
  O  O72  1  0.81479800  0.22019900  0.96855800  1
  O  O73  1  0.78892600  0.03609900  0.07335000  1
  O  O74  1  0.79580300  0.03460900  0.76951800  1
  O  O75  1  0.99463400  0.11318600  0.58322400  1
