# generated using pymatgen
data_Lu10Ti6O27
_symmetry_space_group_name_H-M   'P 1'
_cell_length_a   7.31527833
_cell_length_b   7.31527833
_cell_length_c   12.28016729
_cell_angle_alpha   72.43770214
_cell_angle_beta   72.43770214
_cell_angle_gamma   58.53260001
_symmetry_Int_Tables_number   1
_chemical_formula_structural   Lu10Ti6O27
_chemical_formula_sum   'Lu10 Ti6 O27'
_cell_volume   525.91152594
_cell_formula_units_Z   1
loop_
 _symmetry_equiv_pos_site_id
 _symmetry_equiv_pos_as_xyz
  1  'x, y, z'
loop_
 _atom_site_type_symbol
 _atom_site_label
 _atom_site_symmetry_multiplicity
 _atom_site_fract_x
 _atom_site_fract_y
 _atom_site_fract_z
 _atom_site_occupancy
  Lu  Lu0  1  0.25946800  0.25946800  0.26957800  1
  Lu  Lu1  1  0.51725000  0.51725000  0.99487400  1
  Lu  Lu2  1  0.74379900  0.74379900  0.23834800  1
  Lu  Lu3  1  0.98438400  0.98438400  0.99031000  1
  Lu  Lu4  1  0.74784200  0.26182900  0.25129800  1
  Lu  Lu5  1  0.24962400  0.24962400  0.76821400  1
  Lu  Lu6  1  0.26182900  0.74784200  0.25129800  1
  Lu  Lu7  1  0.27838600  0.77096500  0.73407400  1
  Lu  Lu8  1  0.51470900  0.51470900  0.50468700  1
  Lu  Lu9  1  0.77096500  0.27838600  0.73407400  1
  Ti  Ti10  1  0.01842500  0.49756300  0.00563400  1
  Ti  Ti11  1  0.51821800  0.00761100  0.49148600  1
  Ti  Ti12  1  0.74766300  0.74766300  0.75350800  1
  Ti  Ti13  1  0.00262000  0.00262000  0.50608800  1
  Ti  Ti14  1  0.49756300  0.01842500  0.00563400  1
  Ti  Ti15  1  0.00761100  0.51821800  0.49148600  1
  O  O16  1  0.79759000  0.79759000  0.04813500  1
  O  O17  1  0.61435600  0.02910700  0.31270400  1
  O  O18  1  0.83405600  0.27944500  0.06391800  1
  O  O19  1  0.02910700  0.61435600  0.31270400  1
  O  O20  1  0.43512900  0.43512900  0.18374300  1
  O  O21  1  0.15261300  0.67089800  0.47785400  1
  O  O22  1  0.91729700  0.55518100  0.86548100  1
  O  O23  1  0.26089800  0.26089800  0.44959000  1
  O  O24  1  0.05680800  0.05680800  0.33956300  1
  O  O25  1  0.27944500  0.83405600  0.06391800  1
  O  O26  1  0.28573900  0.87418200  0.54189900  1
  O  O27  1  0.42071800  0.99239800  0.16924000  1
  O  O28  1  0.43007500  0.43007500  0.69048600  1
  O  O29  1  0.56849800  0.56849800  0.31668900  1
  O  O30  1  0.55518100  0.91729700  0.86548100  1
  O  O31  1  0.67089800  0.15261300  0.47785400  1
  O  O32  1  0.63224100  0.19940200  0.93995100  1
  O  O33  1  0.90791800  0.90791800  0.67768100  1
  O  O34  1  0.58408200  0.58408200  0.79608400  1
  O  O35  1  0.69605500  0.69605500  0.49274900  1
  O  O36  1  0.99239800  0.42071800  0.16924000  1
  O  O37  1  0.87418200  0.28573900  0.54189900  1
  O  O38  1  0.97319900  0.46668300  0.66183800  1
  O  O39  1  0.19940200  0.63224100  0.93995100  1
  O  O40  1  0.06687100  0.06687100  0.81058300  1
  O  O41  1  0.24070500  0.24070500  0.95083700  1
  O  O42  1  0.46668300  0.97319900  0.66183800  1
