# generated using pymatgen
data_Sr(YS2)2
_symmetry_space_group_name_H-M   'P 1'
_cell_length_a   7.39651015
_cell_length_b   7.39651015
_cell_length_c   7.39651015
_cell_angle_alpha   109.40191320
_cell_angle_beta   109.40191320
_cell_angle_gamma   109.60992460
_symmetry_Int_Tables_number   1
_chemical_formula_structural   Sr(YS2)2
_chemical_formula_sum   'Sr2 Y4 S8'
_cell_volume   311.49908346
_cell_formula_units_Z   2
loop_
 _symmetry_equiv_pos_site_id
 _symmetry_equiv_pos_as_xyz
  1  'x, y, z'
loop_
 _atom_site_type_symbol
 _atom_site_label
 _atom_site_symmetry_multiplicity
 _atom_site_fract_x
 _atom_site_fract_y
 _atom_site_fract_z
 _atom_site_occupancy
  Sr  Sr0  1  0.50000000  0.50000000  0.00000000  1
  Sr  Sr1  1  0.75000000  0.25000000  0.50000000  1
  Y  Y2  1  0.62500000  0.99518700  0.87018700  1
  Y  Y3  1  0.00481300  0.87500000  0.62981300  1
  Y  Y4  1  0.12500000  0.75481300  0.12981300  1
  Y  Y5  1  0.24518700  0.37500000  0.37018700  1
  S  S6  1  0.23908400  0.63810200  0.74607900  1
  S  S7  1  0.88810200  0.98908400  0.24607900  1
  S  S8  1  0.50699500  0.76091600  0.39901800  1
  S  S9  1  0.89202300  0.49300500  0.25392100  1
  S  S10  1  0.74300500  0.64202300  0.75392100  1
  S  S11  1  0.35797700  0.11189800  0.10098200  1
  S  S12  1  0.01091600  0.25699500  0.89901800  1
  S  S13  1  0.36189800  0.10797700  0.60098200  1
