# generated using pymatgen
data_Na10Mn4O9
_symmetry_space_group_name_H-M   'P 1'
_cell_length_a   8.87587422
_cell_length_b   8.87587422
_cell_length_c   8.90709323
_cell_angle_alpha   77.81298692
_cell_angle_beta   77.81298692
_cell_angle_gamma   78.93892194
_symmetry_Int_Tables_number   1
_chemical_formula_structural   Na10Mn4O9
_chemical_formula_sum   'Na20 Mn8 O18'
_cell_volume   662.42494018
_cell_formula_units_Z   2
loop_
 _symmetry_equiv_pos_site_id
 _symmetry_equiv_pos_as_xyz
  1  'x, y, z'
loop_
 _atom_site_type_symbol
 _atom_site_label
 _atom_site_symmetry_multiplicity
 _atom_site_fract_x
 _atom_site_fract_y
 _atom_site_fract_z
 _atom_site_occupancy
  Na  Na0  1  0.73755000  0.26892600  0.01985900  1
  Na  Na1  1  0.43800200  0.12292200  0.11124700  1
  Na  Na2  1  0.12292200  0.43800200  0.11124700  1
  Na  Na3  1  0.73046300  0.99094300  0.26908300  1
  Na  Na4  1  0.99094300  0.73046300  0.26908300  1
  Na  Na5  1  0.54014200  0.79863900  0.18679900  1
  Na  Na6  1  0.79863900  0.54014200  0.18679900  1
  Na  Na7  1  0.13903300  0.13903300  0.44624500  1
  Na  Na8  1  0.83661000  0.21922500  0.38869400  1
  Na  Na9  1  0.21922500  0.83661000  0.38869400  1
  Na  Na10  1  0.49932300  0.49932300  0.50055900  1
  Na  Na11  1  0.99573300  0.26074400  0.73515400  1
  Na  Na12  1  0.14494100  0.69949900  0.74676300  1
  Na  Na13  1  0.69949900  0.14494100  0.74676300  1
  Na  Na14  1  0.88393000  0.88393000  0.56429200  1
  Na  Na15  1  0.28179900  0.28179900  0.84747600  1
  Na  Na16  1  0.26074400  0.99573300  0.73515400  1
  Na  Na17  1  0.87781700  0.55024100  0.86476100  1
  Na  Na18  1  0.55024100  0.87781700  0.86476100  1
  Na  Na19  1  0.26892600  0.73755000  0.01985900  1
  Mn  Mn20  1  0.08757100  0.08757100  0.09247400  1
  Mn  Mn21  1  0.46822500  0.46822500  0.17432000  1
  Mn  Mn22  1  0.47421500  0.16706900  0.46581200  1
  Mn  Mn23  1  0.16706900  0.47421500  0.46581200  1
  Mn  Mn24  1  0.53412400  0.82833700  0.53073800  1
  Mn  Mn25  1  0.82833700  0.53412400  0.53073800  1
  Mn  Mn26  1  0.53010300  0.53010300  0.83951800  1
  Mn  Mn27  1  0.90044500  0.90044500  0.92867900  1
  O  O28  1  0.01231900  0.69218400  0.01257700  1
  O  O29  1  0.69218400  0.01231900  0.01257700  1
  O  O30  1  0.61538500  0.61538500  0.00777600  1
  O  O31  1  0.30289400  0.61500600  0.29596900  1
  O  O32  1  0.61500600  0.30289400  0.29596900  1
  O  O33  1  0.99310800  0.40175700  0.37753300  1
  O  O34  1  0.40175700  0.99310800  0.37753300  1
  O  O35  1  0.69710000  0.69710000  0.38407400  1
  O  O36  1  0.00144000  0.00144000  0.71054400  1
  O  O37  1  0.99069700  0.99069700  0.30695200  1
  O  O38  1  0.27680100  0.27680100  0.59313200  1
  O  O39  1  0.62452900  0.00283900  0.59650900  1
  O  O40  1  0.00283900  0.62452900  0.59650900  1
  O  O41  1  0.71713900  0.39829000  0.72024600  1
  O  O42  1  0.39829000  0.71713900  0.72024600  1
  O  O43  1  0.38833800  0.38833800  0.00657600  1
  O  O44  1  0.99949300  0.29971200  0.98474900  1
  O  O45  1  0.29971200  0.99949300  0.98474900  1
