# generated using pymatgen
data_Sm5AgS8
_symmetry_space_group_name_H-M   'P 1'
_cell_length_a   7.35542128
_cell_length_b   7.35542128
_cell_length_c   7.35542128
_cell_angle_alpha   109.68137985
_cell_angle_beta   109.68137985
_cell_angle_gamma   109.05171490
_symmetry_Int_Tables_number   1
_chemical_formula_structural   Sm5AgS8
_chemical_formula_sum   'Sm5 Ag1 S8'
_cell_volume   306.32561830
_cell_formula_units_Z   1
loop_
 _symmetry_equiv_pos_site_id
 _symmetry_equiv_pos_as_xyz
  1  'x, y, z'
loop_
 _atom_site_type_symbol
 _atom_site_label
 _atom_site_symmetry_multiplicity
 _atom_site_fract_x
 _atom_site_fract_y
 _atom_site_fract_z
 _atom_site_occupancy
  Sm  Sm0  1  0.63295700  0.74706100  0.61801900  1
  Sm  Sm1  1  0.98506200  0.36704300  0.11410400  1
  Sm  Sm2  1  0.12904300  0.01493800  0.38198100  1
  Sm  Sm3  1  0.50000000  0.50000000  0.00000000  1
  Sm  Sm4  1  0.25293900  0.87095700  0.88589600  1
  Ag  Ag5  1  0.75000000  0.25000000  0.50000000  1
  S  S6  1  0.38011600  0.27096700  0.24875800  1
  S  S7  1  0.35845900  0.74949100  0.24041100  1
  S  S8  1  0.86864200  0.61988400  0.89085000  1
  S  S9  1  0.50908000  0.11804800  0.75958900  1
  S  S10  1  0.25050900  0.49092000  0.60896800  1
  S  S11  1  0.88195200  0.64154100  0.39103200  1
  S  S12  1  0.72903300  0.97779100  0.10915000  1
  S  S13  1  0.02220900  0.13135800  0.75124200  1
