# generated using pymatgen
data_Ba3Pt2O7
_symmetry_space_group_name_H-M   'P 1'
_cell_length_a   10.24064459
_cell_length_b   10.24064459
_cell_length_c   8.85755253
_cell_angle_alpha   89.76704718
_cell_angle_beta   89.76704718
_cell_angle_gamma   119.85102088
_symmetry_Int_Tables_number   1
_chemical_formula_structural   Ba3Pt2O7
_chemical_formula_sum   'Ba12 Pt8 O28'
_cell_volume   805.62822689
_cell_formula_units_Z   4
loop_
 _symmetry_equiv_pos_site_id
 _symmetry_equiv_pos_as_xyz
  1  'x, y, z'
loop_
 _atom_site_type_symbol
 _atom_site_label
 _atom_site_symmetry_multiplicity
 _atom_site_fract_x
 _atom_site_fract_y
 _atom_site_fract_z
 _atom_site_occupancy
  Ba  Ba0  1  0.65933700  0.99415200  0.00599900  1
  Ba  Ba1  1  0.67443400  0.00641100  0.50382200  1
  Ba  Ba2  1  0.99797100  0.33069700  0.25334200  1
  Ba  Ba3  1  0.33026200  0.02355800  0.23679300  1
  Ba  Ba4  1  0.33381600  0.32738000  0.00617800  1
  Ba  Ba5  1  0.32738000  0.33381600  0.50617800  1
  Ba  Ba6  1  0.70354600  0.68331500  0.23658600  1
  Ba  Ba7  1  0.02355800  0.33026200  0.73679300  1
  Ba  Ba8  1  0.68331500  0.70354600  0.73658600  1
  Ba  Ba9  1  0.99415200  0.65933700  0.50599900  1
  Ba  Ba10  1  0.00641100  0.67443400  0.00382200  1
  Ba  Ba11  1  0.33069700  0.99797100  0.75334200  1
  Pt  Pt12  1  0.65399900  0.32726000  0.41004600  1
  Pt  Pt13  1  0.98834700  0.00442700  0.36301700  1
  Pt  Pt14  1  0.00442700  0.98834700  0.86301700  1
  Pt  Pt15  1  0.72610200  0.39230700  0.74949800  1
  Pt  Pt16  1  0.66393800  0.33011000  0.08770300  1
  Pt  Pt17  1  0.32726000  0.65399900  0.91004600  1
  Pt  Pt18  1  0.33011000  0.66393800  0.58770300  1
  Pt  Pt19  1  0.39230700  0.72610200  0.24949800  1
  O  O20  1  0.82785400  0.01809500  0.25067300  1
  O  O21  1  0.65812200  0.18431800  0.25031000  1
  O  O22  1  0.47330700  0.16152800  0.51654000  1
  O  O23  1  0.49594000  0.16150600  0.97555500  1
  O  O24  1  0.16156400  0.98236600  0.98649500  1
  O  O25  1  0.80338300  0.32148700  0.92814200  1
  O  O26  1  0.79060600  0.31639200  0.57002700  1
  O  O27  1  0.17226200  0.17538400  0.26385600  1
  O  O28  1  0.82302400  0.48265200  0.25263300  1
  O  O29  1  0.52397200  0.34697000  0.24568200  1
  O  O30  1  0.17538400  0.17226200  0.76385600  1
  O  O31  1  0.66011800  0.47294800  0.57066400  1
  O  O32  1  0.66575500  0.47397500  0.92760300  1
  O  O33  1  0.98236600  0.16156400  0.48649500  1
  O  O34  1  0.03149800  0.85087400  0.28798300  1
  O  O35  1  0.34697000  0.52397200  0.74568200  1
  O  O36  1  0.47294800  0.66011800  0.07066400  1
  O  O37  1  0.47397500  0.66575500  0.42760300  1
  O  O38  1  0.82045400  0.83627700  0.48155300  1
  O  O39  1  0.83627700  0.82045400  0.98155300  1
  O  O40  1  0.16150600  0.49594000  0.47555500  1
  O  O41  1  0.16152800  0.47330700  0.01654000  1
  O  O42  1  0.85087400  0.03149800  0.78798300  1
  O  O43  1  0.18431800  0.65812200  0.75031000  1
  O  O44  1  0.48265200  0.82302400  0.75263300  1
  O  O45  1  0.31639200  0.79060600  0.07002700  1
  O  O46  1  0.32148700  0.80338300  0.42814200  1
  O  O47  1  0.01809500  0.82785400  0.75067300  1
