# generated using pymatgen
data_Sm2CdSe4
_symmetry_space_group_name_H-M   'P 1'
_cell_length_a   7.71403788
_cell_length_b   7.71403788
_cell_length_c   7.71403788
_cell_angle_alpha   110.67624624
_cell_angle_beta   110.67624624
_cell_angle_gamma   107.08715305
_symmetry_Int_Tables_number   1
_chemical_formula_structural   Sm2CdSe4
_chemical_formula_sum   'Sm4 Cd2 Se8'
_cell_volume   352.90843566
_cell_formula_units_Z   2
loop_
 _symmetry_equiv_pos_site_id
 _symmetry_equiv_pos_as_xyz
  1  'x, y, z'
loop_
 _atom_site_type_symbol
 _atom_site_label
 _atom_site_symmetry_multiplicity
 _atom_site_fract_x
 _atom_site_fract_y
 _atom_site_fract_z
 _atom_site_occupancy
  Sm  Sm0  1  0.37500000  0.76031500  0.88531500  1
  Sm  Sm1  1  0.23968500  0.12500000  0.61468500  1
  Sm  Sm2  1  0.87500000  0.48968500  0.11468500  1
  Sm  Sm3  1  0.51031500  0.62500000  0.38531500  1
  Cd  Cd4  1  0.00000000  0.00000000  0.00000000  1
  Cd  Cd5  1  0.75000000  0.25000000  0.50000000  1
  Se  Se6  1  0.50569600  0.24454900  0.12409100  1
  Se  Se7  1  0.99454900  0.75569600  0.62409100  1
  Se  Se8  1  0.75545100  0.87954200  0.26114700  1
  Se  Se9  1  0.13160500  0.37045800  0.37590900  1
  Se  Se10  1  0.24430400  0.86839500  0.23885300  1
  Se  Se11  1  0.62954200  0.00545100  0.76114700  1
  Se  Se12  1  0.61839500  0.49430400  0.73885300  1
  Se  Se13  1  0.12045800  0.38160500  0.87590900  1
