# generated using pymatgen
data_Mg3(HO3)2
_symmetry_space_group_name_H-M   'P 1'
_cell_length_a   5.42071039
_cell_length_b   5.42071039
_cell_length_c   8.11484784
_cell_angle_alpha   83.00356456
_cell_angle_beta   83.00356456
_cell_angle_gamma   33.70842370
_symmetry_Int_Tables_number   1
_chemical_formula_structural   Mg3(HO3)2
_chemical_formula_sum   'Mg3 H2 O6'
_cell_volume   131.25426172
_cell_formula_units_Z   1
loop_
 _symmetry_equiv_pos_site_id
 _symmetry_equiv_pos_as_xyz
  1  'x, y, z'
loop_
 _atom_site_type_symbol
 _atom_site_label
 _atom_site_symmetry_multiplicity
 _atom_site_fract_x
 _atom_site_fract_y
 _atom_site_fract_z
 _atom_site_occupancy
  Mg  Mg0  1  0.65944100  0.65944100  0.13333100  1
  Mg  Mg1  1  0.00000000  0.00000000  0.50000000  1
  Mg  Mg2  1  0.34055900  0.34055900  0.86666900  1
  H  H3  1  0.08004100  0.08004100  0.89803100  1
  H  H4  1  0.91995900  0.91995900  0.10196900  1
  O  O5  1  0.84916300  0.84916300  0.03209400  1
  O  O6  1  0.15083700  0.15083700  0.96790600  1
  O  O7  1  0.14642300  0.14642300  0.31552900  1
  O  O8  1  0.99576300  0.99576300  0.73245600  1
  O  O9  1  0.85357700  0.85357700  0.68447100  1
  O  O10  1  0.00423700  0.00423700  0.26754400  1
