# generated using pymatgen
data_Al2CdO4
_symmetry_space_group_name_H-M   'P 1'
_cell_length_a   5.99439591
_cell_length_b   5.99439591
_cell_length_c   5.99439591
_cell_angle_alpha   60.00000000
_cell_angle_beta   60.00000000
_cell_angle_gamma   60.00000000
_symmetry_Int_Tables_number   1
_chemical_formula_structural   Al2CdO4
_chemical_formula_sum   'Al4 Cd2 O8'
_cell_volume   152.30749413
_cell_formula_units_Z   2
loop_
 _symmetry_equiv_pos_site_id
 _symmetry_equiv_pos_as_xyz
  1  'x, y, z'
loop_
 _atom_site_type_symbol
 _atom_site_label
 _atom_site_symmetry_multiplicity
 _atom_site_fract_x
 _atom_site_fract_y
 _atom_site_fract_z
 _atom_site_occupancy
  Al  Al0  1  0.62500000  0.12500000  0.12500000  1
  Al  Al1  1  0.12500000  0.62500000  0.12500000  1
  Al  Al2  1  0.12500000  0.12500000  0.62500000  1
  Al  Al3  1  0.12500000  0.12500000  0.12500000  1
  Cd  Cd4  1  0.50000000  0.50000000  0.50000000  1
  Cd  Cd5  1  0.75000000  0.75000000  0.75000000  1
  O  O6  1  0.93635300  0.35454900  0.35454900  1
  O  O7  1  0.35454900  0.93635300  0.35454900  1
  O  O8  1  0.35454900  0.35454900  0.93635300  1
  O  O9  1  0.35454900  0.35454900  0.35454900  1
  O  O10  1  0.31364700  0.89545100  0.89545100  1
  O  O11  1  0.89545100  0.31364700  0.89545100  1
  O  O12  1  0.89545100  0.89545100  0.31364700  1
  O  O13  1  0.89545100  0.89545100  0.89545100  1
