# generated using pymatgen
data_Ag2HgI4
_symmetry_space_group_name_H-M   'P 1'
_cell_length_a   4.71436000
_cell_length_b   4.71436041
_cell_length_c   76.79696940
_cell_angle_alpha   60.58718802
_cell_angle_beta   60.58718688
_cell_angle_gamma   60.00000290
_symmetry_Int_Tables_number   1
_chemical_formula_structural   Ag2HgI4
_chemical_formula_sum   'Ag2 Hg1 I4'
_cell_volume   1217.51029578
_cell_formula_units_Z   1
loop_
 _symmetry_equiv_pos_site_id
 _symmetry_equiv_pos_as_xyz
  1  'x, y, z'
loop_
 _atom_site_type_symbol
 _atom_site_label
 _atom_site_symmetry_multiplicity
 _atom_site_fract_x
 _atom_site_fract_y
 _atom_site_fract_z
 _atom_site_occupancy
  Ag  Ag0  1  0.27392000  0.27392000  0.51114000  1
  Ag  Ag1  1  0.27248200  0.27248200  0.82391000  1
  Hg  Hg2  1  0.22276600  0.22276600  0.89573100  1
  I  I3  1  0.97573200  0.97573200  0.50455000  1
  I  I4  1  0.99452100  0.99452100  0.81352700  1
  I  I5  1  0.01131100  0.01131100  0.87287900  1
  I  I6  1  0.99926900  0.99926900  0.93763700  1
