# generated using pymatgen
data_Na2PtO3
_symmetry_space_group_name_H-M   'P 1'
_cell_length_a   5.55475873
_cell_length_b   5.55475873
_cell_length_c   5.46909899
_cell_angle_alpha   79.20642354
_cell_angle_beta   79.20642354
_cell_angle_gamma   117.69476026
_symmetry_Int_Tables_number   1
_chemical_formula_structural   Na2PtO3
_chemical_formula_sum   'Na4 Pt2 O6'
_cell_volume   139.28417752
_cell_formula_units_Z   2
loop_
 _symmetry_equiv_pos_site_id
 _symmetry_equiv_pos_as_xyz
  1  'x, y, z'
loop_
 _atom_site_type_symbol
 _atom_site_label
 _atom_site_symmetry_multiplicity
 _atom_site_fract_x
 _atom_site_fract_y
 _atom_site_fract_z
 _atom_site_occupancy
  Na  Na0  1  0.91450300  0.08549700  0.75000000  1
  Na  Na1  1  0.24051300  0.75948700  0.75000000  1
  Na  Na2  1  0.08549700  0.91450300  0.25000000  1
  Na  Na3  1  0.75948700  0.24051300  0.25000000  1
  Pt  Pt4  1  0.58488200  0.41511800  0.75000000  1
  Pt  Pt5  1  0.41511800  0.58488200  0.25000000  1
  O  O6  1  0.23278100  0.37107700  0.00207500  1
  O  O7  1  0.76721900  0.62892300  0.99792500  1
  O  O8  1  0.62892300  0.76721900  0.49792500  1
  O  O9  1  0.50000000  0.00000000  0.00000000  1
  O  O10  1  0.37107700  0.23278100  0.50207500  1
  O  O11  1  0.00000000  0.50000000  0.50000000  1
