# generated using pymatgen
data_Na4S2O5
_symmetry_space_group_name_H-M   'P 1'
_cell_length_a   5.26730100
_cell_length_b   5.48309004
_cell_length_c   6.34578434
_cell_angle_alpha   88.21200185
_cell_angle_beta   94.74026026
_cell_angle_gamma   117.01500333
_symmetry_Int_Tables_number   1
_chemical_formula_structural   Na4S2O5
_chemical_formula_sum   'Na4 S2 O5'
_cell_volume   162.71315465
_cell_formula_units_Z   1
loop_
 _symmetry_equiv_pos_site_id
 _symmetry_equiv_pos_as_xyz
  1  'x, y, z'
loop_
 _atom_site_type_symbol
 _atom_site_label
 _atom_site_symmetry_multiplicity
 _atom_site_fract_x
 _atom_site_fract_y
 _atom_site_fract_z
 _atom_site_occupancy
  Na  Na0  1  0.64168600  0.31956800  0.25581400  1
  Na  Na1  1  0.01740500  0.00288200  0.03274500  1
  Na  Na2  1  0.01384300  0.00950400  0.53569300  1
  Na  Na3  1  0.34932500  0.70089200  0.75478700  1
  S  S4  1  0.71632700  0.35356400  0.72881700  1
  S  S5  1  0.32266100  0.66378400  0.21837900  1
  O  O6  1  0.44090800  0.16496700  0.85693700  1
  O  O7  1  0.79382200  0.66704600  0.77809900  1
  O  O8  1  0.25637000  0.82066200  0.38336800  1
  O  O9  1  0.18079700  0.36094900  0.28889100  1
  O  O10  1  0.64685500  0.76318100  0.25247000  1
