# generated using pymatgen
data_Al2CoO4
_symmetry_space_group_name_H-M   'P 1'
_cell_length_a   5.78268933
_cell_length_b   5.78268933
_cell_length_c   14.15898761
_cell_angle_alpha   89.65203420
_cell_angle_beta   89.65203420
_cell_angle_gamma   59.84643796
_symmetry_Int_Tables_number   1
_chemical_formula_structural   Al2CoO4
_chemical_formula_sum   'Al12 Co6 O24'
_cell_volume   409.39052429
_cell_formula_units_Z   6
loop_
 _symmetry_equiv_pos_site_id
 _symmetry_equiv_pos_as_xyz
  1  'x, y, z'
loop_
 _atom_site_type_symbol
 _atom_site_label
 _atom_site_symmetry_multiplicity
 _atom_site_fract_x
 _atom_site_fract_y
 _atom_site_fract_z
 _atom_site_occupancy
  Al  Al0  1  0.33166700  0.33166700  0.91472200  1
  Al  Al1  1  0.83250300  0.32954400  0.79201400  1
  Al  Al2  1  0.83401600  0.83401600  0.79217600  1
  Al  Al3  1  0.32954400  0.83250300  0.79201400  1
  Al  Al4  1  0.16677800  0.66604100  0.45782700  1
  Al  Al5  1  0.99972300  0.99972300  0.62428200  1
  Al  Al6  1  0.16663200  0.16663200  0.45783600  1
  Al  Al7  1  0.66604100  0.16677800  0.45782700  1
  Al  Al8  1  0.50421600  0.99615500  0.12510300  1
  Al  Al9  1  0.33330300  0.33330300  0.29112600  1
  Al  Al10  1  0.50253400  0.50253400  0.12502300  1
  Al  Al11  1  0.99615500  0.50421600  0.12510300  1
  Co  Co12  1  0.00110800  0.00110800  0.00234000  1
  Co  Co13  1  0.33311900  0.33311900  0.66659800  1
  Co  Co14  1  0.66666300  0.66666300  0.96049700  1
  Co  Co15  1  0.66648400  0.66648400  0.58490800  1
  Co  Co16  1  0.66644000  0.66644000  0.33402000  1
  Co  Co17  1  0.99978800  0.99978800  0.24723000  1
  O  O18  1  0.99130800  0.50145700  0.86790400  1
  O  O19  1  0.66693900  0.66693900  0.72761200  1
  O  O20  1  0.49796100  0.49796100  0.86411300  1
  O  O21  1  0.50145700  0.99130800  0.86790400  1
  O  O22  1  0.14606500  0.70623700  0.71205600  1
  O  O23  1  0.29577900  0.85110900  0.53678000  1
  O  O24  1  0.14623400  0.14623400  0.71242900  1
  O  O25  1  0.00038000  0.00038000  0.38862200  1
  O  O26  1  0.85208900  0.85208900  0.53700400  1
  O  O27  1  0.99865000  0.99865000  0.86125800  1
  O  O28  1  0.85110900  0.29577900  0.53678000  1
  O  O29  1  0.70623700  0.14606500  0.71205600  1
  O  O30  1  0.62399800  0.18859900  0.20250100  1
  O  O31  1  0.48119400  0.03853400  0.37992900  1
  O  O32  1  0.48023300  0.48023300  0.37977000  1
  O  O33  1  0.33407300  0.33407300  0.04391400  1
  O  O34  1  0.33257100  0.33257100  0.52736100  1
  O  O35  1  0.18801600  0.18801600  0.20192200  1
  O  O36  1  0.18859900  0.62399800  0.20250100  1
  O  O37  1  0.03853400  0.48119400  0.37992900  1
  O  O38  1  0.81933500  0.36585500  0.05174000  1
  O  O39  1  0.82419200  0.82419200  0.05654900  1
  O  O40  1  0.66559400  0.66559400  0.19614200  1
  O  O41  1  0.36585500  0.81933500  0.05174000  1
