# generated using pymatgen
data_Li3Mn7O12
_symmetry_space_group_name_H-M   'P 1'
_cell_length_a   5.23821494
_cell_length_b   5.23972312
_cell_length_c   30.38903810
_cell_angle_alpha   84.27205084
_cell_angle_beta   95.76461083
_cell_angle_gamma   58.25519333
_symmetry_Int_Tables_number   1
_chemical_formula_structural   Li3Mn7O12
_chemical_formula_sum   'Li9 Mn21 O36'
_cell_volume   694.13530920
_cell_formula_units_Z   3
loop_
 _symmetry_equiv_pos_site_id
 _symmetry_equiv_pos_as_xyz
  1  'x, y, z'
loop_
 _atom_site_type_symbol
 _atom_site_label
 _atom_site_symmetry_multiplicity
 _atom_site_fract_x
 _atom_site_fract_y
 _atom_site_fract_z
 _atom_site_occupancy
  Li  Li0  1  0.32949400  0.84078900  0.99787700  1
  Li  Li1  1  0.32974700  0.84043000  0.66470900  1
  Li  Li2  1  0.66576500  0.16995800  0.33239900  1
  Li  Li3  1  0.84036100  0.32972800  0.83529200  1
  Li  Li4  1  0.84394600  0.32345900  0.50185800  1
  Li  Li5  1  0.84142500  0.32947000  0.16860300  1
  Li  Li6  1  0.91706000  0.91724500  0.91666000  1
  Li  Li7  1  0.91680900  0.91778000  0.58350000  1
  Li  Li8  1  0.92475100  0.91347300  0.25065600  1
  Mn  Mn9  1  0.08075300  0.08077300  0.75003700  1
  Mn  Mn10  1  0.08131800  0.07807200  0.41657600  1
  Mn  Mn11  1  0.25309000  0.25318800  0.91663200  1
  Mn  Mn12  1  0.08072000  0.08129800  0.08334500  1
  Mn  Mn13  1  0.25360500  0.25438800  0.58336500  1
  Mn  Mn14  1  0.25259400  0.24564900  0.25012300  1
  Mn  Mn15  1  0.42063600  0.42063500  0.75006500  1
  Mn  Mn16  1  0.57460300  0.57493600  0.91659100  1
  Mn  Mn17  1  0.42176000  0.42281000  0.41683900  1
  Mn  Mn18  1  0.57548900  0.57497600  0.58356200  1
  Mn  Mn19  1  0.42060000  0.42093800  0.08333100  1
  Mn  Mn20  1  0.50950500  0.00600700  0.83530000  1
  Mn  Mn21  1  0.57419400  0.57905800  0.24954700  1
  Mn  Mn22  1  0.75260000  0.75297600  0.74997100  1
  Mn  Mn23  1  0.50908000  0.00914000  0.50262800  1
  Mn  Mn24  1  0.00583900  0.50906400  0.99792600  1
  Mn  Mn25  1  0.75052800  0.74893500  0.41681600  1
  Mn  Mn26  1  0.50962800  0.00741900  0.16887300  1
  Mn  Mn27  1  0.00663900  0.50828600  0.66478100  1
  Mn  Mn28  1  0.75223800  0.75361600  0.08325400  1
  Mn  Mn29  1  0.00148400  0.50684200  0.33098000  1
  O  O30  1  0.11647800  0.37589100  0.78806400  1
  O  O31  1  0.10797400  0.35308300  0.45487500  1
  O  O32  1  0.07120700  0.76334100  0.71119400  1
  O  O33  1  0.28915700  0.53359000  0.95105800  1
  O  O34  1  0.37564900  0.11560200  0.71177900  1
  O  O35  1  0.11712800  0.37907400  0.12109500  1
  O  O36  1  0.03577800  0.78446100  0.38170500  1
  O  O37  1  0.53328900  0.28876400  0.88214800  1
  O  O38  1  0.28837200  0.53476800  0.61789300  1
  O  O39  1  0.39531300  0.14866800  0.37936600  1
  O  O40  1  0.23897600  0.97082100  0.88020600  1
  O  O41  1  0.06980800  0.76252500  0.04439200  1
  O  O42  1  0.53310400  0.29256300  0.54906500  1
  O  O43  1  0.30177100  0.50938800  0.28558100  1
  O  O44  1  0.76340700  0.07183900  0.78903800  1
  O  O45  1  0.37419700  0.11382400  0.04510400  1
  O  O46  1  0.44701300  0.73429100  0.78749600  1
  O  O47  1  0.24264800  0.97022100  0.54652100  1
  O  O48  1  0.52628100  0.28950600  0.21457100  1
  O  O49  1  0.75438900  0.07473500  0.45843600  1
  O  O50  1  0.60367900  0.84957400  0.95436900  1
  O  O51  1  0.46219600  0.71487100  0.45088400  1
  O  O52  1  0.73310400  0.44582800  0.71265500  1
  O  O53  1  0.23417400  0.96980200  0.21353800  1
  O  O54  1  0.97060700  0.23915400  0.95303300  1
  O  O55  1  0.76448800  0.07354800  0.12220600  1
  O  O56  1  0.60571600  0.84642800  0.62130000  1
  O  O57  1  0.44821200  0.73761900  0.12103600  1
  O  O58  1  0.84914800  0.60360100  0.87892100  1
  O  O59  1  0.75031500  0.42321200  0.37617400  1
  O  O60  1  0.97115300  0.23840800  0.61957400  1
  O  O61  1  0.61822900  0.86500400  0.28696400  1
  O  O62  1  0.84682100  0.60704300  0.54526300  1
  O  O63  1  0.73083600  0.44561000  0.04603300  1
  O  O64  1  0.95124900  0.24317300  0.28566500  1
  O  O65  1  0.85008900  0.60129800  0.21213600  1
