# generated using pymatgen
data_Pr2CdS4
_symmetry_space_group_name_H-M   'P 1'
_cell_length_a   7.49654631
_cell_length_b   7.49654631
_cell_length_c   7.49654631
_cell_angle_alpha   110.79182760
_cell_angle_beta   110.79182760
_cell_angle_gamma   106.86111475
_symmetry_Int_Tables_number   1
_chemical_formula_structural   Pr2CdS4
_chemical_formula_sum   'Pr4 Cd2 S8'
_cell_volume   323.80920984
_cell_formula_units_Z   2
loop_
 _symmetry_equiv_pos_site_id
 _symmetry_equiv_pos_as_xyz
  1  'x, y, z'
loop_
 _atom_site_type_symbol
 _atom_site_label
 _atom_site_symmetry_multiplicity
 _atom_site_fract_x
 _atom_site_fract_y
 _atom_site_fract_z
 _atom_site_occupancy
  Pr  Pr0  1  0.37500000  0.98655700  0.11155700  1
  Pr  Pr1  1  0.73655700  0.62500000  0.61155700  1
  Pr  Pr2  1  0.87500000  0.26344300  0.88844300  1
  Pr  Pr3  1  0.01344300  0.12500000  0.38844300  1
  Cd  Cd4  1  0.25000000  0.75000000  0.50000000  1
  Cd  Cd5  1  0.50000000  0.50000000  0.00000000  1
  S  S6  1  0.11783200  0.99276200  0.73473100  1
  S  S7  1  0.49197000  0.25723800  0.62507100  1
  S  S8  1  0.63216800  0.86689900  0.37492900  1
  S  S9  1  0.25803000  0.38310100  0.26526900  1
  S  S10  1  0.00723800  0.74197000  0.12507100  1
  S  S11  1  0.61689900  0.88216800  0.87492900  1
  S  S12  1  0.13310100  0.50803000  0.76526900  1
  S  S13  1  0.74276200  0.36783200  0.23473100  1
