# generated using pymatgen
data_MgCr2O4
_symmetry_space_group_name_H-M   'P 1'
_cell_length_a   5.93288233
_cell_length_b   5.93288233
_cell_length_c   5.93288233
_cell_angle_alpha   119.16689469
_cell_angle_beta   116.66646871
_cell_angle_gamma   93.66075124
_symmetry_Int_Tables_number   1
_chemical_formula_structural   MgCr2O4
_chemical_formula_sum   'Mg2 Cr4 O8'
_cell_volume   151.89715638
_cell_formula_units_Z   2
loop_
 _symmetry_equiv_pos_site_id
 _symmetry_equiv_pos_as_xyz
  1  'x, y, z'
loop_
 _atom_site_type_symbol
 _atom_site_label
 _atom_site_symmetry_multiplicity
 _atom_site_fract_x
 _atom_site_fract_y
 _atom_site_fract_z
 _atom_site_occupancy
  Mg  Mg0  1  0.00000000  0.50000000  0.50000000  1
  Mg  Mg1  1  0.50000000  0.50000000  0.00000000  1
  Cr  Cr2  1  0.62449000  0.87449000  0.75000000  1
  Cr  Cr3  1  0.37551000  0.12551000  0.25000000  1
  Cr  Cr4  1  0.00000000  0.50000000  0.00000000  1
  Cr  Cr5  1  0.00000000  0.00000000  0.50000000  1
  O  O6  1  0.24897600  0.73229400  0.98331800  1
  O  O7  1  0.77441000  0.24406100  0.53034900  1
  O  O8  1  0.24897600  0.26565800  0.51668200  1
  O  O9  1  0.21371200  0.24406100  0.96965100  1
  O  O10  1  0.78628800  0.75593900  0.03034900  1
  O  O11  1  0.22559000  0.75593900  0.46965100  1
  O  O12  1  0.75102400  0.73434200  0.48331800  1
  O  O13  1  0.75102400  0.26770600  0.01668200  1
