# generated using pymatgen
data_Na6Al4Fe(Si4O13)2
_symmetry_space_group_name_H-M   'P 1'
_cell_length_a   8.60414738
_cell_length_b   8.60414738
_cell_length_c   10.59008016
_cell_angle_alpha   68.95860384
_cell_angle_beta   68.95860384
_cell_angle_gamma   56.18613096
_symmetry_Int_Tables_number   1
_chemical_formula_structural   Na6Al4Fe(Si4O13)2
_chemical_formula_sum   'Na6 Al4 Fe1 Si8 O26'
_cell_volume   594.99510152
_cell_formula_units_Z   1
loop_
 _symmetry_equiv_pos_site_id
 _symmetry_equiv_pos_as_xyz
  1  'x, y, z'
loop_
 _atom_site_type_symbol
 _atom_site_label
 _atom_site_symmetry_multiplicity
 _atom_site_fract_x
 _atom_site_fract_y
 _atom_site_fract_z
 _atom_site_occupancy
  Na  Na0  1  0.84816100  0.84816100  0.88520500  1
  Na  Na1  1  0.73038500  0.73038500  0.56140100  1
  Na  Na2  1  0.53299400  0.53299400  0.16334000  1
  Na  Na3  1  0.46700600  0.46700600  0.83666000  1
  Na  Na4  1  0.26961500  0.26961500  0.43859900  1
  Na  Na5  1  0.15183900  0.15183900  0.11479500  1
  Al  Al6  1  0.25563500  0.86122300  0.65722700  1
  Al  Al7  1  0.13877700  0.74436500  0.34277300  1
  Al  Al8  1  0.86122300  0.25563500  0.65722700  1
  Al  Al9  1  0.74436500  0.13877700  0.34277300  1
  Fe  Fe10  1  0.00000000  0.00000000  0.00000000  1
  Si  Si11  1  0.45259600  0.83804400  0.34586100  1
  Si  Si12  1  0.45964700  0.84622100  0.86650600  1
  Si  Si13  1  0.84622100  0.45964700  0.86650600  1
  Si  Si14  1  0.83804400  0.45259600  0.34586100  1
  Si  Si15  1  0.16195600  0.54740400  0.65413900  1
  Si  Si16  1  0.15377900  0.54035300  0.13349400  1
  Si  Si17  1  0.54035300  0.15377900  0.13349400  1
  Si  Si18  1  0.54740400  0.16195600  0.65413900  1
  O  O19  1  0.27801700  0.92178100  0.98802900  1
  O  O20  1  0.34775500  0.93573800  0.48088400  1
  O  O21  1  0.55154400  0.99251400  0.79236500  1
  O  O22  1  0.35418600  0.73925700  0.32253800  1
  O  O23  1  0.43168600  0.79570000  0.74397200  1
  O  O24  1  0.96824000  0.96824000  0.27493000  1
  O  O25  1  0.67804100  0.67804100  0.36012000  1
  O  O26  1  0.64265700  0.64265700  0.93283100  1
  O  O27  1  0.07821900  0.72198300  0.01197100  1
  O  O28  1  0.06426200  0.65224500  0.51911600  1
  O  O29  1  0.79570000  0.43168600  0.74397200  1
  O  O30  1  0.99251400  0.55154400  0.79236500  1
  O  O31  1  0.73925700  0.35418600  0.32253800  1
  O  O32  1  0.26074300  0.64581400  0.67746200  1
  O  O33  1  0.00748600  0.44845600  0.20763500  1
  O  O34  1  0.20430000  0.56831400  0.25602800  1
  O  O35  1  0.93573800  0.34775500  0.48088400  1
  O  O36  1  0.92178100  0.27801700  0.98802900  1
  O  O37  1  0.35734300  0.35734300  0.06716900  1
  O  O38  1  0.32195900  0.32195900  0.63988000  1
  O  O39  1  0.03176000  0.03176000  0.72507000  1
  O  O40  1  0.56831400  0.20430000  0.25602800  1
  O  O41  1  0.64581400  0.26074300  0.67746200  1
  O  O42  1  0.44845600  0.00748600  0.20763500  1
  O  O43  1  0.65224500  0.06426200  0.51911600  1
  O  O44  1  0.72198300  0.07821900  0.01197100  1
