# generated using pymatgen
data_Na2CaPO4F
_symmetry_space_group_name_H-M   'P 1'
_cell_length_a   7.14897468
_cell_length_b   7.14897468
_cell_length_c   14.29540937
_cell_angle_alpha   74.71110898
_cell_angle_beta   74.71110898
_cell_angle_gamma   59.31313205
_symmetry_Int_Tables_number   1
_chemical_formula_structural   Na2CaPO4F
_chemical_formula_sum   'Na10 Ca5 P5 O20 F5'
_cell_volume   598.67722268
_cell_formula_units_Z   5
loop_
 _symmetry_equiv_pos_site_id
 _symmetry_equiv_pos_as_xyz
  1  'x, y, z'
loop_
 _atom_site_type_symbol
 _atom_site_label
 _atom_site_symmetry_multiplicity
 _atom_site_fract_x
 _atom_site_fract_y
 _atom_site_fract_z
 _atom_site_occupancy
  Na  Na0  1  0.58139600  0.04718400  0.79533400  1
  Na  Na1  1  0.04718400  0.58139600  0.79533400  1
  Na  Na2  1  0.80137500  0.28982800  0.59401400  1
  Na  Na3  1  0.28982800  0.80137500  0.59401400  1
  Na  Na4  1  0.70596100  0.21239400  0.38758800  1
  Na  Na5  1  0.21239400  0.70596100  0.38758800  1
  Na  Na6  1  0.92886000  0.43301200  0.19046100  1
  Na  Na7  1  0.43301200  0.92886000  0.19046100  1
  Na  Na8  1  0.84271100  0.34500600  0.99343000  1
  Na  Na9  1  0.34500600  0.84271100  0.99343000  1
  Ca  Ca10  1  0.58189000  0.58189000  0.79413200  1
  Ca  Ca11  1  0.30853100  0.30853100  0.59636400  1
  Ca  Ca12  1  0.68556400  0.68556400  0.39149100  1
  Ca  Ca13  1  0.45011500  0.45011500  0.19087600  1
  Ca  Ca14  1  0.82553600  0.82553600  0.99105900  1
  P  P15  1  0.06513800  0.06513800  0.79795400  1
  P  P16  1  0.20424800  0.20424800  0.40187400  1
  P  P17  1  0.33864200  0.33864200  0.00219600  1
  P  P18  1  0.79950500  0.79950500  0.58771900  1
  P  P19  1  0.92768000  0.92768000  0.19982700  1
  O  O20  1  0.02772500  0.02772500  0.91300700  1
  O  O21  1  0.17300800  0.17300800  0.51713200  1
  O  O22  1  0.30507800  0.30507800  0.11704900  1
  O  O23  1  0.47082500  0.10994900  0.96672200  1
  O  O24  1  0.47020300  0.47020300  0.95938500  1
  O  O25  1  0.10994900  0.47082500  0.96672200  1
  O  O26  1  0.68821200  0.05285200  0.55226000  1
  O  O27  1  0.69261700  0.69261700  0.55238400  1
  O  O28  1  0.05285200  0.68821200  0.55226000  1
  O  O29  1  0.97421600  0.33353600  0.36812000  1
  O  O30  1  0.33529000  0.33529000  0.35710700  1
  O  O31  1  0.33353600  0.97421600  0.36812000  1
  O  O32  1  0.82127600  0.18149800  0.16531200  1
  O  O33  1  0.18149800  0.82127600  0.16531200  1
  O  O34  1  0.82737300  0.82737300  0.15545000  1
  O  O35  1  0.96211300  0.31723700  0.75574200  1
  O  O36  1  0.31723700  0.96211300  0.75574200  1
  O  O37  1  0.95938600  0.95938600  0.76246200  1
  O  O38  1  0.76423100  0.76423100  0.70036100  1
  O  O39  1  0.88084800  0.88084800  0.31455700  1
  F  F40  1  0.42752300  0.42752300  0.71798100  1
  F  F41  1  0.49686400  0.49686400  0.49846100  1
  F  F42  1  0.57208700  0.57208700  0.28870100  1
  F  F43  1  0.63655900  0.63655900  0.08833800  1
  F  F44  1  0.70291900  0.70291900  0.89217000  1
