# generated using pymatgen
data_Ca(Ce2Se3)4
_symmetry_space_group_name_H-M   'P 1'
_cell_length_a   8.91255366
_cell_length_b   8.91255366
_cell_length_c   14.74649882
_cell_angle_alpha   72.41673179
_cell_angle_beta   72.41673179
_cell_angle_gamma   89.94862394
_symmetry_Int_Tables_number   1
_chemical_formula_structural   Ca(Ce2Se3)4
_chemical_formula_sum   'Ca2 Ce16 Se24'
_cell_volume   1059.19381880
_cell_formula_units_Z   2
loop_
 _symmetry_equiv_pos_site_id
 _symmetry_equiv_pos_as_xyz
  1  'x, y, z'
loop_
 _atom_site_type_symbol
 _atom_site_label
 _atom_site_symmetry_multiplicity
 _atom_site_fract_x
 _atom_site_fract_y
 _atom_site_fract_z
 _atom_site_occupancy
  Ca  Ca0  1  0.58331300  0.45843100  0.83325900  1
  Ca  Ca1  1  0.45843100  0.58331300  0.33325900  1
  Ce  Ce2  1  0.12527800  0.25001800  0.99996600  1
  Ce  Ce3  1  0.79158100  0.04180700  0.91634000  1
  Ce  Ce4  1  0.04147500  0.41585500  0.66668400  1
  Ce  Ce5  1  0.37504300  0.12548800  0.75010700  1
  Ce  Ce6  1  0.08336000  0.70847400  0.83344100  1
  Ce  Ce7  1  0.79106100  0.91638500  0.66692400  1
  Ce  Ce8  1  0.45860600  0.70893500  0.58337200  1
  Ce  Ce9  1  0.25001800  0.12527800  0.49996600  1
  Ce  Ce10  1  0.70847400  0.08336000  0.33344100  1
  Ce  Ce11  1  0.04180700  0.79158100  0.41634000  1
  Ce  Ce12  1  0.74966900  0.37482700  0.50011400  1
  Ce  Ce13  1  0.12548800  0.37504300  0.25010700  1
  Ce  Ce14  1  0.91638500  0.79106100  0.16692400  1
  Ce  Ce15  1  0.37482700  0.74966900  0.00011400  1
  Ce  Ce16  1  0.70893500  0.45860600  0.08337200  1
  Ce  Ce17  1  0.41585500  0.04147500  0.16668400  1
  Se  Se18  1  0.73458700  0.73462900  0.88339500  1
  Se  Se19  1  0.44882500  0.09799000  0.95076800  1
  Se  Se20  1  0.71755400  0.21528600  0.71566800  1
  Se  Se21  1  0.10047400  0.94981000  0.94984700  1
  Se  Se22  1  0.06668000  0.06631400  0.71677400  1
  Se  Se23  1  0.88330500  0.38465300  0.88316900  1
  Se  Se24  1  0.43209500  0.78503700  0.78304800  1
  Se  Se25  1  0.28336300  0.43390100  0.78361200  1
  Se  Se26  1  0.39944700  0.40006400  0.54988900  1
  Se  Se27  1  0.11639800  0.76701000  0.61674100  1
  Se  Se28  1  0.76642900  0.61564000  0.61705400  1
  Se  Se29  1  0.38465300  0.88330500  0.38316900  1
  Se  Se30  1  0.73462900  0.73458700  0.38339500  1
  Se  Se31  1  0.55041900  0.05048100  0.54982800  1
  Se  Se32  1  0.09799000  0.44882500  0.45076800  1
  Se  Se33  1  0.94981000  0.10047400  0.44984700  1
  Se  Se34  1  0.06631400  0.06668000  0.21677400  1
  Se  Se35  1  0.78503700  0.43209500  0.28304800  1
  Se  Se36  1  0.43390100  0.28336300  0.28361200  1
  Se  Se37  1  0.05048100  0.55041900  0.04982800  1
  Se  Se38  1  0.40006400  0.39944700  0.04988900  1
  Se  Se39  1  0.76701000  0.11639800  0.11674100  1
  Se  Se40  1  0.21528600  0.71755400  0.21566800  1
  Se  Se41  1  0.61564000  0.76642900  0.11705400  1
