# generated using pymatgen
data_CaLaMn2O6
_symmetry_space_group_name_H-M   'P 1'
_cell_length_a   5.52886738
_cell_length_b   5.47910438
_cell_length_c   7.70067900
_cell_angle_alpha   89.99999977
_cell_angle_beta   90.00121116
_cell_angle_gamma   90.04247286
_symmetry_Int_Tables_number   1
_chemical_formula_structural   CaLaMn2O6
_chemical_formula_sum   'Ca2 La2 Mn4 O12'
_cell_volume   233.27846421
_cell_formula_units_Z   2
loop_
 _symmetry_equiv_pos_site_id
 _symmetry_equiv_pos_as_xyz
  1  'x, y, z'
loop_
 _atom_site_type_symbol
 _atom_site_label
 _atom_site_symmetry_multiplicity
 _atom_site_fract_x
 _atom_site_fract_y
 _atom_site_fract_z
 _atom_site_occupancy
  Ca  Ca0  1  0.79161000  0.01538200  0.50000400  1
  Ca  Ca1  1  0.20821100  0.51526200  0.99999900  1
  La  La2  1  0.71829400  0.02951500  0.00000300  1
  La  La3  1  0.28185000  0.52968600  0.49999500  1
  Mn  Mn4  1  0.75015900  0.52316600  0.25062600  1
  Mn  Mn5  1  0.75016700  0.52316800  0.74936800  1
  Mn  Mn6  1  0.24991700  0.02321200  0.24938400  1
  Mn  Mn7  1  0.24991500  0.02321200  0.75061900  1
  O  O8  1  0.96739900  0.24116700  0.21395400  1
  O  O9  1  0.96734800  0.24119100  0.78604300  1
  O  O10  1  0.03279400  0.74125500  0.28610600  1
  O  O11  1  0.03281000  0.74129600  0.71390500  1
  O  O12  1  0.53679600  0.80932300  0.70916800  1
  O  O13  1  0.53676200  0.80936200  0.29084000  1
  O  O14  1  0.46300500  0.30919900  0.79089800  1
  O  O15  1  0.46302300  0.30924400  0.20909400  1
  O  O16  1  0.23155500  0.09149000  0.50000200  1
  O  O17  1  0.76848400  0.59140100  0.00000700  1
  O  O18  1  0.26474100  0.94405800  0.99999900  1
  O  O19  1  0.73516000  0.44421300  0.49998800  1
