# generated using pymatgen
data_BaLaZnRuO6
_symmetry_space_group_name_H-M   'P 1'
_cell_length_a   5.69471400
_cell_length_b   5.71738099
_cell_length_c   5.72082360
_cell_angle_alpha   90.43124182
_cell_angle_beta   119.35121455
_cell_angle_gamma   119.74964445
_symmetry_Int_Tables_number   1
_chemical_formula_structural   BaLaZnRuO6
_chemical_formula_sum   'Ba1 La1 Zn1 Ru1 O6'
_cell_volume   132.99236216
_cell_formula_units_Z   1
loop_
 _symmetry_equiv_pos_site_id
 _symmetry_equiv_pos_as_xyz
  1  'x, y, z'
loop_
 _atom_site_type_symbol
 _atom_site_label
 _atom_site_symmetry_multiplicity
 _atom_site_fract_x
 _atom_site_fract_y
 _atom_site_fract_z
 _atom_site_occupancy
  Ba  Ba0  1  0.49946300  0.75043100  0.24967400  1
  La  La1  1  0.48271500  0.24988800  0.73525000  1
  Zn  Zn2  1  0.99289900  0.00115900  0.99862400  1
  Ru  Ru3  1  0.99989300  0.50047200  0.50142800  1
  O  O4  1  0.05066600  0.80555600  0.32233700  1
  O  O5  1  0.48588700  0.67947300  0.72128100  1
  O  O6  1  0.91006500  0.26104100  0.16757200  1
  O  O7  1  0.04755100  0.74097100  0.78845200  1
  O  O8  1  0.51790800  0.28685600  0.30554600  1
  O  O9  1  0.01295300  0.22415300  0.70983700  1
