# generated using pymatgen
data_CaMo5O8
_symmetry_space_group_name_H-M   'P 1'
_cell_length_a   8.45788283
_cell_length_b   9.49058500
_cell_length_c   10.74275059
_cell_angle_alpha   90.00000000
_cell_angle_beta   108.82081221
_cell_angle_gamma   90.00000000
_symmetry_Int_Tables_number   1
_chemical_formula_structural   CaMo5O8
_chemical_formula_sum   'Ca4 Mo20 O32'
_cell_volume   816.21675340
_cell_formula_units_Z   4
loop_
 _symmetry_equiv_pos_site_id
 _symmetry_equiv_pos_as_xyz
  1  'x, y, z'
loop_
 _atom_site_type_symbol
 _atom_site_label
 _atom_site_symmetry_multiplicity
 _atom_site_fract_x
 _atom_site_fract_y
 _atom_site_fract_z
 _atom_site_occupancy
  Ca  Ca0  1  0.32328100  0.51758500  0.53682900  1
  Ca  Ca1  1  0.67671800  0.01758500  0.96317000  1
  Ca  Ca2  1  0.67671800  0.48241400  0.46317100  1
  Ca  Ca3  1  0.32328200  0.98241500  0.03683000  1
  Mo  Mo4  1  0.40833100  0.63442600  0.19720800  1
  Mo  Mo5  1  0.20742300  0.13767700  0.71988000  1
  Mo  Mo6  1  0.20742300  0.36232200  0.21988000  1
  Mo  Mo7  1  0.79257700  0.86232300  0.28012000  1
  Mo  Mo8  1  0.20492400  0.62482200  0.87879400  1
  Mo  Mo9  1  0.79507500  0.12482300  0.62120700  1
  Mo  Mo10  1  0.79507600  0.37517800  0.12120600  1
  Mo  Mo11  1  0.20492400  0.87517700  0.37879300  1
  Mo  Mo12  1  0.79257700  0.63767700  0.78012000  1
  Mo  Mo13  1  0.59166900  0.13442500  0.30279200  1
  Mo  Mo14  1  0.59167000  0.36557400  0.80279200  1
  Mo  Mo15  1  0.40833100  0.86557400  0.69720800  1
  Mo  Mo16  1  0.60697200  0.64690100  0.98636500  1
  Mo  Mo17  1  0.39302800  0.14690000  0.51363500  1
  Mo  Mo18  1  0.39302800  0.35310000  0.01363500  1
  Mo  Mo19  1  0.60697200  0.85309900  0.48636500  1
  Mo  Mo20  1  0.00947100  0.84764800  0.59283400  1
  Mo  Mo21  1  0.99052900  0.34764800  0.90716700  1
  Mo  Mo22  1  0.99052900  0.15235200  0.40716600  1
  Mo  Mo23  1  0.00947100  0.65235200  0.09283300  1
  O  O24  1  0.41818200  0.50270300  0.86543800  1
  O  O25  1  0.58181700  0.00270200  0.63456100  1
  O  O26  1  0.58181800  0.49729800  0.13456100  1
  O  O27  1  0.41818200  0.99729700  0.36543900  1
  O  O28  1  0.62487400  0.72095900  0.33256600  1
  O  O29  1  0.37512700  0.22095900  0.16743500  1
  O  O30  1  0.37512700  0.27904100  0.66743400  1
  O  O31  1  0.62487400  0.77904100  0.83256500  1
  O  O32  1  0.20465200  0.73098300  0.70636700  1
  O  O33  1  0.79534700  0.23098400  0.79363300  1
  O  O34  1  0.79534700  0.26901600  0.29363300  1
  O  O35  1  0.20465200  0.76901700  0.20636700  1
  O  O36  1  0.81314600  0.73063200  0.60874300  1
  O  O37  1  0.18685500  0.23063300  0.89125700  1
  O  O38  1  0.18685500  0.26936800  0.39125700  1
  O  O39  1  0.81314500  0.76936800  0.10874300  1
  O  O40  1  0.39789800  0.75379500  0.51728500  1
  O  O41  1  0.60210200  0.25379500  0.98271500  1
  O  O42  1  0.60210200  0.24620500  0.48271500  1
  O  O43  1  0.39789800  0.74620500  0.01728500  1
  O  O44  1  0.99301800  0.49435800  0.77975000  1
  O  O45  1  0.00698300  0.99435800  0.72025000  1
  O  O46  1  0.00698100  0.50564100  0.22025000  1
  O  O47  1  0.99301800  0.00564200  0.27975100  1
  O  O48  1  0.39644900  0.00708800  0.84736900  1
  O  O49  1  0.60355100  0.50708700  0.65263000  1
  O  O50  1  0.60355100  0.99291300  0.15263100  1
  O  O51  1  0.39644900  0.49291300  0.34737000  1
  O  O52  1  0.00910200  0.76535200  0.42386100  1
  O  O53  1  0.99089900  0.23464800  0.57614000  1
  O  O54  1  0.99089800  0.26535200  0.07613900  1
  O  O55  1  0.00910200  0.73464800  0.92386000  1
