# generated using pymatgen
data_Sm5AgSe8
_symmetry_space_group_name_H-M   'P 1'
_cell_length_a   7.66975914
_cell_length_b   7.66975914
_cell_length_c   7.66975914
_cell_angle_alpha   109.84617306
_cell_angle_beta   109.84617306
_cell_angle_gamma   108.72389061
_symmetry_Int_Tables_number   1
_chemical_formula_structural   Sm5AgSe8
_chemical_formula_sum   'Sm5 Ag1 Se8'
_cell_volume   347.27054957
_cell_formula_units_Z   1
loop_
 _symmetry_equiv_pos_site_id
 _symmetry_equiv_pos_as_xyz
  1  'x, y, z'
loop_
 _atom_site_type_symbol
 _atom_site_label
 _atom_site_symmetry_multiplicity
 _atom_site_fract_x
 _atom_site_fract_y
 _atom_site_fract_z
 _atom_site_occupancy
  Sm  Sm0  1  0.62212100  0.50059600  0.38361500  1
  Sm  Sm1  1  0.49940400  0.88301900  0.12152500  1
  Sm  Sm2  1  0.11698100  0.23850600  0.61638500  1
  Sm  Sm3  1  0.25000000  0.75000000  0.50000000  1
  Sm  Sm4  1  0.76149400  0.37787900  0.87847500  1
  Ag  Ag5  1  0.00000000  0.00000000  0.00000000  1
  Se  Se6  1  0.72895800  0.97778200  0.61180100  1
  Se  Se7  1  0.23963000  0.49745100  0.10695000  1
  Se  Se8  1  0.02221800  0.63401900  0.75117600  1
  Se  Se9  1  0.39050100  0.13267900  0.89305000  1
  Se  Se10  1  0.86732100  0.76037000  0.25782200  1
  Se  Se11  1  0.50254900  0.60949900  0.74217800  1
  Se  Se12  1  0.88284300  0.27104200  0.24882400  1
  Se  Se13  1  0.36598100  0.11715700  0.38819900  1
