# generated using pymatgen
data_BaNdNiSbO6
_symmetry_space_group_name_H-M   'P 1'
_cell_length_a   5.78868100
_cell_length_b   5.72556900
_cell_length_c   9.87265909
_cell_angle_alpha   54.58782102
_cell_angle_beta   90.00000000
_cell_angle_gamma   90.00000000
_symmetry_Int_Tables_number   1
_chemical_formula_structural   BaNdNiSbO6
_chemical_formula_sum   'Ba2 Nd2 Ni2 Sb2 O12'
_cell_volume   266.68125727
_cell_formula_units_Z   2
loop_
 _symmetry_equiv_pos_site_id
 _symmetry_equiv_pos_as_xyz
  1  'x, y, z'
loop_
 _atom_site_type_symbol
 _atom_site_label
 _atom_site_symmetry_multiplicity
 _atom_site_fract_x
 _atom_site_fract_y
 _atom_site_fract_z
 _atom_site_occupancy
  Ba  Ba0  1  0.74049500  0.24842200  0.25061600  1
  Ba  Ba1  1  0.25950500  0.24842200  0.75061600  1
  Nd  Nd2  1  0.20444500  0.76608600  0.25204400  1
  Nd  Nd3  1  0.79555500  0.76608600  0.75204400  1
  Ni  Ni4  1  0.25869400  0.50257000  0.00062400  1
  Ni  Ni5  1  0.74130600  0.50257000  0.50062400  1
  Sb  Sb6  1  0.25590100  0.00073600  0.49989900  1
  Sb  Sb7  1  0.74409900  0.00073600  0.99989900  1
  O  O8  1  0.21597400  0.70727000  0.74496800  1
  O  O9  1  0.99455100  0.79755500  0.96126500  1
  O  O10  1  0.00830900  0.21391700  0.53216700  1
  O  O11  1  0.99169100  0.21391700  0.03216700  1
  O  O12  1  0.00544900  0.79755500  0.46126500  1
  O  O13  1  0.78402600  0.70727000  0.24496800  1
  O  O14  1  0.73921400  0.34325000  0.75789200  1
  O  O15  1  0.53296700  0.15186700  0.54904400  1
  O  O16  1  0.54225100  0.76832600  0.95148000  1
  O  O17  1  0.45774900  0.76832600  0.45148000  1
  O  O18  1  0.46703300  0.15186700  0.04904400  1
  O  O19  1  0.26078600  0.34325000  0.25789200  1
