# generated using pymatgen
data_CaLaMnFeO6
_symmetry_space_group_name_H-M   'P 1'
_cell_length_a   5.47599100
_cell_length_b   5.51825400
_cell_length_c   9.46838822
_cell_angle_alpha   54.59061608
_cell_angle_beta   90.00000000
_cell_angle_gamma   90.00000000
_symmetry_Int_Tables_number   1
_chemical_formula_structural   CaLaMnFeO6
_chemical_formula_sum   'Ca2 La2 Mn2 Fe2 O12'
_cell_volume   233.19305606
_cell_formula_units_Z   2
loop_
 _symmetry_equiv_pos_site_id
 _symmetry_equiv_pos_as_xyz
  1  'x, y, z'
loop_
 _atom_site_type_symbol
 _atom_site_label
 _atom_site_symmetry_multiplicity
 _atom_site_fract_x
 _atom_site_fract_y
 _atom_site_fract_z
 _atom_site_occupancy
  Ca  Ca0  1  0.73902900  0.73762400  0.75060700  1
  Ca  Ca1  1  0.26097100  0.73762400  0.25060700  1
  La  La2  1  0.24205200  0.25709200  0.74960800  1
  La  La3  1  0.75794800  0.25709200  0.24960800  1
  Mn  Mn4  1  0.74998500  0.49966600  0.50046400  1
  Mn  Mn5  1  0.25001500  0.49966600  0.00046400  1
  Fe  Fe6  1  0.75009600  0.00032500  0.99941700  1
  Fe  Fe7  1  0.24990400  0.00032500  0.49941700  1
  O  O8  1  0.25491100  0.82080500  0.75437500  1
  O  O9  1  0.99201200  0.31016800  0.95654300  1
  O  O10  1  0.98485900  0.71320700  0.54399800  1
  O  O11  1  0.00798800  0.31016800  0.45654300  1
  O  O12  1  0.01514100  0.71320700  0.04399800  1
  O  O13  1  0.74508900  0.82080500  0.25437500  1
  O  O14  1  0.75396400  0.17162900  0.74538100  1
  O  O15  1  0.49694300  0.69697700  0.54275600  1
  O  O16  1  0.49072000  0.29250500  0.95685200  1
  O  O17  1  0.50928000  0.29250500  0.45685200  1
  O  O18  1  0.50305700  0.69697700  0.04275600  1
  O  O19  1  0.24603600  0.17162900  0.24538100  1
