# generated using pymatgen
data_NaCeTiNbO6F
_symmetry_space_group_name_H-M   'P 1'
_cell_length_a   7.37955400
_cell_length_b   7.37955400
_cell_length_c   10.48438700
_cell_angle_alpha   90.00000000
_cell_angle_beta   90.00000000
_cell_angle_gamma   90.00000000
_symmetry_Int_Tables_number   1
_chemical_formula_structural   NaCeTiNbO6F
_chemical_formula_sum   'Na4 Ce4 Ti4 Nb4 O24 F4'
_cell_volume   570.95683111
_cell_formula_units_Z   4
loop_
 _symmetry_equiv_pos_site_id
 _symmetry_equiv_pos_as_xyz
  1  'x, y, z'
loop_
 _atom_site_type_symbol
 _atom_site_label
 _atom_site_symmetry_multiplicity
 _atom_site_fract_x
 _atom_site_fract_y
 _atom_site_fract_z
 _atom_site_occupancy
  Na  Na0  1  0.50000000  0.72765500  0.00000000  1
  Na  Na1  1  0.50000000  0.27234500  0.50000000  1
  Na  Na2  1  0.72765500  0.50000000  0.75000000  1
  Na  Na3  1  0.27234500  0.50000000  0.25000000  1
  Ce  Ce4  1  0.00000000  0.72845700  0.00000000  1
  Ce  Ce5  1  0.27154300  0.00000000  0.25000000  1
  Ce  Ce6  1  0.00000000  0.27154300  0.50000000  1
  Ce  Ce7  1  0.72845700  0.00000000  0.75000000  1
  Ti  Ti8  1  0.00000000  0.76360900  0.50000000  1
  Ti  Ti9  1  0.23639100  0.00000000  0.75000000  1
  Ti  Ti10  1  0.76360900  0.00000000  0.25000000  1
  Ti  Ti11  1  0.00000000  0.23639100  0.00000000  1
  Nb  Nb12  1  0.50000000  0.75756800  0.50000000  1
  Nb  Nb13  1  0.50000000  0.24243200  0.00000000  1
  Nb  Nb14  1  0.75756800  0.50000000  0.25000000  1
  Nb  Nb15  1  0.24243200  0.50000000  0.75000000  1
  O  O16  1  0.55556100  0.94883300  0.36753500  1
  O  O17  1  0.95887500  0.95887500  0.37500000  1
  O  O18  1  0.05116700  0.44443900  0.88246500  1
  O  O19  1  0.04112500  0.04112500  0.87500000  1
  O  O20  1  0.04112500  0.95887500  0.62500000  1
  O  O21  1  0.24853100  0.22638700  0.07214600  1
  O  O22  1  0.24853100  0.77361300  0.42785400  1
  O  O23  1  0.22638700  0.24853100  0.67785400  1
  O  O24  1  0.44443900  0.94883300  0.63246500  1
  O  O25  1  0.43677100  0.43677100  0.87500000  1
  O  O26  1  0.44443900  0.05116700  0.86753500  1
  O  O27  1  0.56322900  0.56322900  0.37500000  1
  O  O28  1  0.56322900  0.43677100  0.12500000  1
  O  O29  1  0.55556100  0.05116700  0.13246500  1
  O  O30  1  0.75146900  0.77361300  0.57214600  1
  O  O31  1  0.75146900  0.22638700  0.92785400  1
  O  O32  1  0.77361300  0.24853100  0.32214600  1
  O  O33  1  0.77361300  0.75146900  0.17785400  1
  O  O34  1  0.94883300  0.44443900  0.11753500  1
  O  O35  1  0.95887500  0.04112500  0.12500000  1
  O  O36  1  0.94883300  0.55556100  0.38246500  1
  O  O37  1  0.05116700  0.55556100  0.61753500  1
  O  O38  1  0.22638700  0.75146900  0.82214600  1
  O  O39  1  0.43677100  0.56322900  0.62500000  1
  F  F40  1  0.26185600  0.73814400  0.12500000  1
  F  F41  1  0.73814400  0.26185600  0.62500000  1
  F  F42  1  0.73814400  0.73814400  0.87500000  1
  F  F43  1  0.26185600  0.26185600  0.37500000  1
