# generated using pymatgen
data_K2TbF6
_symmetry_space_group_name_H-M   'P 1'
_cell_length_a   6.72964463
_cell_length_b   6.72964463
_cell_length_c   7.42427749
_cell_angle_alpha   89.67480968
_cell_angle_beta   89.67480968
_cell_angle_gamma   117.35503649
_symmetry_Int_Tables_number   1
_chemical_formula_structural   K2TbF6
_chemical_formula_sum   'K4 Tb2 F12'
_cell_volume   298.61507814
_cell_formula_units_Z   2
loop_
 _symmetry_equiv_pos_site_id
 _symmetry_equiv_pos_as_xyz
  1  'x, y, z'
loop_
 _atom_site_type_symbol
 _atom_site_label
 _atom_site_symmetry_multiplicity
 _atom_site_fract_x
 _atom_site_fract_y
 _atom_site_fract_z
 _atom_site_occupancy
  K  K0  1  0.68626400  0.36337900  0.99852200  1
  K  K1  1  0.63662100  0.31373600  0.50147800  1
  K  K2  1  0.36337900  0.68626400  0.49852200  1
  K  K3  1  0.31373600  0.63662100  0.00147800  1
  Tb  Tb4  1  0.96158000  0.03842000  0.75000000  1
  Tb  Tb5  1  0.03842000  0.96158000  0.25000000  1
  F  F6  1  0.06134600  0.84939800  0.95644500  1
  F  F7  1  0.15060200  0.93865400  0.54355500  1
  F  F8  1  0.93865400  0.15060200  0.04355500  1
  F  F9  1  0.84939800  0.06134600  0.45644500  1
  F  F10  1  0.39822100  0.01120700  0.22419700  1
  F  F11  1  0.98879300  0.60177900  0.27580300  1
  F  F12  1  0.32314100  0.29292800  0.79061500  1
  F  F13  1  0.70707200  0.67685900  0.70938500  1
  F  F14  1  0.67685900  0.70707200  0.20938500  1
  F  F15  1  0.29292800  0.32314100  0.29061500  1
  F  F16  1  0.01120700  0.39822100  0.72419700  1
  F  F17  1  0.60177900  0.98879300  0.77580300  1
