# generated using pymatgen
data_Ca3TiAl2Si3O13F2
_symmetry_space_group_name_H-M   'P 1'
_cell_length_a   5.42294800
_cell_length_b   7.07817943
_cell_length_c   14.81945450
_cell_angle_alpha   84.00444135
_cell_angle_beta   87.21268069
_cell_angle_gamma   75.34761453
_symmetry_Int_Tables_number   1
_chemical_formula_structural   Ca3TiAl2Si3O13F2
_chemical_formula_sum   'Ca6 Ti2 Al4 Si6 O26 F4'
_cell_volume   547.18305699
_cell_formula_units_Z   2
loop_
 _symmetry_equiv_pos_site_id
 _symmetry_equiv_pos_as_xyz
  1  'x, y, z'
loop_
 _atom_site_type_symbol
 _atom_site_label
 _atom_site_symmetry_multiplicity
 _atom_site_fract_x
 _atom_site_fract_y
 _atom_site_fract_z
 _atom_site_occupancy
  Ca  Ca0  1  0.61341100  0.47416000  0.77498800  1
  Ca  Ca1  1  0.28141400  0.80264000  0.44609800  1
  Ca  Ca2  1  0.94054700  0.14093300  0.11231900  1
  Ca  Ca3  1  0.71858600  0.19736000  0.55390200  1
  Ca  Ca4  1  0.38658900  0.52584000  0.22501200  1
  Ca  Ca5  1  0.05945300  0.85906700  0.88768100  1
  Ti  Ti6  1  0.50000000  0.00000000  0.00000000  1
  Ti  Ti7  1  0.50000000  0.50000000  0.00000000  1
  Al  Al8  1  0.16647700  0.33199700  0.66429400  1
  Al  Al9  1  0.16670400  0.83267900  0.66506100  1
  Al  Al10  1  0.83352300  0.66800300  0.33570600  1
  Al  Al11  1  0.83329600  0.16732100  0.33493900  1
  Si  Si12  1  0.58821600  0.97687900  0.76691000  1
  Si  Si13  1  0.25205700  0.31260400  0.43866800  1
  Si  Si14  1  0.92209900  0.64494400  0.11067700  1
  Si  Si15  1  0.74794300  0.68739600  0.56133200  1
  Si  Si16  1  0.41178400  0.02312100  0.23309000  1
  Si  Si17  1  0.07790100  0.35505600  0.88932300  1
  O  O18  1  0.45688900  0.81487000  0.58627100  1
  O  O19  1  0.50361200  0.18461300  0.69986400  1
  O  O20  1  0.12109400  0.15078800  0.25662300  1
  O  O21  1  0.28332000  0.36139400  0.54333100  1
  O  O22  1  0.37764800  0.84292300  0.76439300  1
  O  O23  1  0.17080900  0.52043700  0.37122000  1
  O  O24  1  0.95784000  0.82120700  0.56505600  1
  O  O25  1  0.04671100  0.30187900  0.78580300  1
  O  O26  1  0.79619800  0.49605500  0.91434200  1
  O  O27  1  0.95328900  0.69812100  0.21419700  1
  O  O28  1  0.04216000  0.17879300  0.43494400  1
  O  O29  1  0.85309800  0.84559000  0.03973300  1
  O  O30  1  0.82919100  0.47956300  0.62878000  1
  O  O31  1  0.62235200  0.15707700  0.23560700  1
  O  O32  1  0.71668000  0.63860600  0.45666900  1
  O  O33  1  0.59673500  0.22692800  0.02197700  1
  O  O34  1  0.87890600  0.84921200  0.74337700  1
  O  O35  1  0.61907100  0.03080400  0.87106500  1
  O  O36  1  0.71261300  0.51239300  0.10754300  1
  O  O37  1  0.49638800  0.81538700  0.30013600  1
  O  O38  1  0.28738700  0.48760700  0.89245700  1
  O  O39  1  0.38092900  0.96919600  0.12893500  1
  O  O40  1  0.54311100  0.18513000  0.41372900  1
  O  O41  1  0.40326500  0.77307200  0.97802300  1
  O  O42  1  0.14690200  0.15441000  0.96026700  1
  O  O43  1  0.20380200  0.50394500  0.08565800  1
  F  F44  1  0.25532800  0.55965000  0.68771000  1
  F  F45  1  0.92180300  0.89495400  0.35924400  1
  F  F46  1  0.07819700  0.10504600  0.64075600  1
  F  F47  1  0.74467200  0.44035000  0.31229000  1
