# generated using pymatgen
data_KCu2H20N3(Cl2O)4
_symmetry_space_group_name_H-M   'P 1'
_cell_length_a   7.68043500
_cell_length_b   7.68043500
_cell_length_c   8.00730100
_cell_angle_alpha   90.00000000
_cell_angle_beta   90.00000000
_cell_angle_gamma   90.00000000
_symmetry_Int_Tables_number   1
_chemical_formula_structural   KCu2H20N3(Cl2O)4
_chemical_formula_sum   'K1 Cu2 H20 N3 Cl8 O4'
_cell_volume   472.34333360
_cell_formula_units_Z   1
loop_
 _symmetry_equiv_pos_site_id
 _symmetry_equiv_pos_as_xyz
  1  'x, y, z'
loop_
 _atom_site_type_symbol
 _atom_site_label
 _atom_site_symmetry_multiplicity
 _atom_site_fract_x
 _atom_site_fract_y
 _atom_site_fract_z
 _atom_site_occupancy
  K  K0  1  0.00000000  0.00000000  0.50000000  1
  Cu  Cu1  1  0.00000000  0.50000000  0.25098900  1
  Cu  Cu2  1  0.50000000  0.00000000  0.74901100  1
  H  H3  1  0.57167500  0.41572100  0.07456400  1
  H  H4  1  0.57196100  0.41612100  0.42546200  1
  H  H5  1  0.58387900  0.57196100  0.57453800  1
  H  H6  1  0.58427900  0.57167500  0.92543600  1
  H  H7  1  0.57384400  0.07465800  0.06646800  1
  H  H8  1  0.57355500  0.07500800  0.43130000  1
  H  H9  1  0.92534200  0.57384400  0.93353200  1
  H  H10  1  0.92499200  0.57355500  0.56870000  1
  H  H11  1  0.91628800  0.07226100  0.07436600  1
  H  H12  1  0.92773900  0.91628800  0.92563400  1
  H  H13  1  0.07226100  0.08371200  0.92563400  1
  H  H14  1  0.08371200  0.92773900  0.07436600  1
  H  H15  1  0.07465800  0.42615600  0.93353200  1
  H  H16  1  0.07500800  0.42644500  0.56870000  1
  H  H17  1  0.42615600  0.92534200  0.06646800  1
  H  H18  1  0.42644500  0.92499200  0.43130000  1
  H  H19  1  0.41572100  0.42832500  0.92543600  1
  H  H20  1  0.41612100  0.42803900  0.57453800  1
  H  H21  1  0.42832500  0.58427900  0.07456400  1
  H  H22  1  0.42803900  0.58387900  0.42546200  1
  N  N23  1  0.50000000  0.50000000  0.00000000  1
  N  N24  1  0.00000000  0.00000000  0.00000000  1
  N  N25  1  0.50000000  0.50000000  0.50000000  1
  Cl  Cl26  1  0.71348400  0.21775100  0.24784000  1
  Cl  Cl27  1  0.71437000  0.20379000  0.74604900  1
  Cl  Cl28  1  0.79621000  0.71437000  0.25395100  1
  Cl  Cl29  1  0.78224900  0.71348400  0.75216000  1
  Cl  Cl30  1  0.21775100  0.28651600  0.75216000  1
  Cl  Cl31  1  0.20379000  0.28563000  0.25395100  1
  Cl  Cl32  1  0.28563000  0.79621000  0.74604900  1
  Cl  Cl33  1  0.28651600  0.78224900  0.24784000  1
  O  O34  1  0.50000000  0.00000000  0.50333400  1
  O  O35  1  0.00000000  0.50000000  0.00555200  1
  O  O36  1  0.00000000  0.50000000  0.49666600  1
  O  O37  1  0.50000000  0.00000000  0.99444800  1
