# generated using pymatgen
data_Si2N2O
_symmetry_space_group_name_H-M   'P 1'
_cell_length_a   4.70777432
_cell_length_b   4.70777432
_cell_length_c   12.79627495
_cell_angle_alpha   89.91670556
_cell_angle_beta   89.91670556
_cell_angle_gamma   59.54849957
_symmetry_Int_Tables_number   1
_chemical_formula_structural   Si2N2O
_chemical_formula_sum   'Si12 N12 O6'
_cell_volume   244.48428513
_cell_formula_units_Z   6
loop_
 _symmetry_equiv_pos_site_id
 _symmetry_equiv_pos_as_xyz
  1  'x, y, z'
loop_
 _atom_site_type_symbol
 _atom_site_label
 _atom_site_symmetry_multiplicity
 _atom_site_fract_x
 _atom_site_fract_y
 _atom_site_fract_z
 _atom_site_occupancy
  Si  Si0  1  0.31500600  0.32816400  0.51991700  1
  Si  Si1  1  0.67183600  0.68499400  0.98008300  1
  Si  Si2  1  0.68499400  0.67183600  0.48008300  1
  Si  Si3  1  0.32816400  0.31500600  0.01991700  1
  Si  Si4  1  0.31325500  0.33162000  0.81361900  1
  Si  Si5  1  0.66838000  0.68674500  0.68638100  1
  Si  Si6  1  0.68674500  0.66838000  0.18638100  1
  Si  Si7  1  0.33162000  0.31325500  0.31361900  1
  Si  Si8  1  0.99869000  0.00362300  0.85287900  1
  Si  Si9  1  0.99637700  0.00131000  0.64712100  1
  Si  Si10  1  0.00131000  0.99637700  0.14712100  1
  Si  Si11  1  0.00362300  0.99869000  0.35287900  1
  N  N12  1  0.99386400  0.70882900  0.75216200  1
  N  N13  1  0.34060200  0.01965100  0.41702200  1
  N  N14  1  0.98034900  0.65939800  0.08297800  1
  N  N15  1  0.29117100  0.00613600  0.74783800  1
  N  N16  1  0.00613600  0.29117100  0.24783800  1
  N  N17  1  0.70882900  0.99386400  0.25216200  1
  N  N18  1  0.95286600  0.37143600  0.58524700  1
  N  N19  1  0.62856400  0.04713400  0.91475300  1
  N  N20  1  0.04713400  0.62856400  0.41475300  1
  N  N21  1  0.37143600  0.95286600  0.08524700  1
  N  N22  1  0.01965100  0.34060200  0.91702200  1
  N  N23  1  0.65939800  0.98034900  0.58297800  1
  O  O24  1  0.65508300  0.33293100  0.41817300  1
  O  O25  1  0.66706900  0.34491700  0.08182700  1
  O  O26  1  0.34491700  0.66706900  0.58182700  1
  O  O27  1  0.66779800  0.33220200  0.75000000  1
  O  O28  1  0.33220200  0.66779800  0.25000000  1
  O  O29  1  0.33293100  0.65508300  0.91817300  1
