# generated using pymatgen
data_NdTaO4
_symmetry_space_group_name_H-M   'P 1'
_cell_length_a   6.75122048
_cell_length_b   6.75122048
_cell_length_c   5.17513622
_cell_angle_alpha   69.82768483
_cell_angle_beta   69.82768483
_cell_angle_gamma   115.31006682
_symmetry_Int_Tables_number   1
_chemical_formula_structural   NdTaO4
_chemical_formula_sum   'Nd2 Ta2 O8'
_cell_volume   163.03123286
_cell_formula_units_Z   2
loop_
 _symmetry_equiv_pos_site_id
 _symmetry_equiv_pos_as_xyz
  1  'x, y, z'
loop_
 _atom_site_type_symbol
 _atom_site_label
 _atom_site_symmetry_multiplicity
 _atom_site_fract_x
 _atom_site_fract_y
 _atom_site_fract_z
 _atom_site_occupancy
  Nd  Nd0  1  0.63151200  0.36848800  0.25000000  1
  Nd  Nd1  1  0.36848800  0.63151200  0.75000000  1
  Ta  Ta2  1  0.09965400  0.90034600  0.25000000  1
  Ta  Ta3  1  0.90034600  0.09965400  0.75000000  1
  O  O4  1  0.26955200  0.20578400  0.79983100  1
  O  O5  1  0.79421600  0.73044800  0.70016900  1
  O  O6  1  0.73044800  0.79421600  0.20016900  1
  O  O7  1  0.20578400  0.26955200  0.29983100  1
  O  O8  1  0.05529100  0.64399700  0.15906500  1
  O  O9  1  0.35600300  0.94470900  0.34093500  1
  O  O10  1  0.94470900  0.35600300  0.84093500  1
  O  O11  1  0.64399700  0.05529100  0.65906500  1
