# generated using pymatgen
data_TlAg3S2
_symmetry_space_group_name_H-M   'P 1'
_cell_length_a   6.94929400
_cell_length_b   8.87065400
_cell_length_c   8.95624900
_cell_angle_alpha   90.00000000
_cell_angle_beta   90.00000000
_cell_angle_gamma   90.00000000
_symmetry_Int_Tables_number   1
_chemical_formula_structural   TlAg3S2
_chemical_formula_sum   'Tl4 Ag12 S8'
_cell_volume   552.10602268
_cell_formula_units_Z   4
loop_
 _symmetry_equiv_pos_site_id
 _symmetry_equiv_pos_as_xyz
  1  'x, y, z'
loop_
 _atom_site_type_symbol
 _atom_site_label
 _atom_site_symmetry_multiplicity
 _atom_site_fract_x
 _atom_site_fract_y
 _atom_site_fract_z
 _atom_site_occupancy
  Tl  Tl0  1  0.25000000  0.00000000  0.89961800  1
  Tl  Tl1  1  0.75000000  0.50000000  0.60038200  1
  Tl  Tl2  1  0.75000000  0.00000000  0.10038200  1
  Tl  Tl3  1  0.25000000  0.50000000  0.39961800  1
  Ag  Ag4  1  0.25000000  0.00000000  0.33910900  1
  Ag  Ag5  1  0.38719300  0.69440900  0.09683300  1
  Ag  Ag6  1  0.61280700  0.19440900  0.40316700  1
  Ag  Ag7  1  0.11280700  0.30559100  0.09683300  1
  Ag  Ag8  1  0.61280700  0.30559100  0.90316700  1
  Ag  Ag9  1  0.11280700  0.19440900  0.59683300  1
  Ag  Ag10  1  0.38719300  0.80559100  0.59683300  1
  Ag  Ag11  1  0.88719300  0.69440900  0.90316700  1
  Ag  Ag12  1  0.75000000  0.00000000  0.66089100  1
  Ag  Ag13  1  0.25000000  0.50000000  0.83910900  1
  Ag  Ag14  1  0.88719300  0.80559100  0.40316700  1
  Ag  Ag15  1  0.75000000  0.50000000  0.16089100  1
  S  S16  1  0.98759200  0.31973500  0.83137200  1
  S  S17  1  0.48759200  0.18026500  0.66862800  1
  S  S18  1  0.01240800  0.81973500  0.66862800  1
  S  S19  1  0.51240800  0.68026500  0.83137200  1
  S  S20  1  0.98759200  0.18026500  0.33137200  1
  S  S21  1  0.48759200  0.31973500  0.16862800  1
  S  S22  1  0.01240800  0.68026500  0.16862800  1
  S  S23  1  0.51240800  0.81973500  0.33137200  1
