# generated using pymatgen
data_K2Ge8O17
_symmetry_space_group_name_H-M   'P 1'
_cell_length_a   8.92518700
_cell_length_b   13.65934900
_cell_length_c   13.76841900
_cell_angle_alpha   90.00000000
_cell_angle_beta   90.00000000
_cell_angle_gamma   90.00000000
_symmetry_Int_Tables_number   1
_chemical_formula_structural   K2Ge8O17
_chemical_formula_sum   'K8 Ge32 O68'
_cell_volume   1678.53885832
_cell_formula_units_Z   4
loop_
 _symmetry_equiv_pos_site_id
 _symmetry_equiv_pos_as_xyz
  1  'x, y, z'
loop_
 _atom_site_type_symbol
 _atom_site_label
 _atom_site_symmetry_multiplicity
 _atom_site_fract_x
 _atom_site_fract_y
 _atom_site_fract_z
 _atom_site_occupancy
  K  K0  1  0.25000000  0.50754000  0.09350800  1
  K  K1  1  0.75000000  0.49246000  0.90649200  1
  K  K2  1  0.25000000  0.00754000  0.40649200  1
  K  K3  1  0.75000000  0.99246000  0.59350800  1
  K  K4  1  0.25000000  0.59217300  0.48176400  1
  K  K5  1  0.75000000  0.40782700  0.51823600  1
  K  K6  1  0.25000000  0.09217300  0.01823600  1
  K  K7  1  0.75000000  0.90782700  0.98176400  1
  Ge  Ge8  1  0.07034500  0.87619200  0.18085700  1
  Ge  Ge9  1  0.57034500  0.12380800  0.81914300  1
  Ge  Ge10  1  0.42965500  0.37619200  0.31914300  1
  Ge  Ge11  1  0.92965500  0.62380800  0.68085700  1
  Ge  Ge12  1  0.92965500  0.12380800  0.81914300  1
  Ge  Ge13  1  0.42965500  0.87619200  0.18085700  1
  Ge  Ge14  1  0.57034500  0.62380800  0.68085700  1
  Ge  Ge15  1  0.07034500  0.37619200  0.31914300  1
  Ge  Ge16  1  0.92527600  0.67342600  0.10285100  1
  Ge  Ge17  1  0.42527600  0.32657400  0.89714900  1
  Ge  Ge18  1  0.57472400  0.17342600  0.39714900  1
  Ge  Ge19  1  0.07472400  0.82657400  0.60285100  1
  Ge  Ge20  1  0.07472400  0.32657400  0.89714900  1
  Ge  Ge21  1  0.57472400  0.67342600  0.10285100  1
  Ge  Ge22  1  0.42527600  0.82657400  0.60285100  1
  Ge  Ge23  1  0.92527600  0.17342600  0.39714900  1
  Ge  Ge24  1  0.92893300  0.80596600  0.38697300  1
  Ge  Ge25  1  0.42893300  0.19403400  0.61302700  1
  Ge  Ge26  1  0.57106700  0.30596600  0.11302700  1
  Ge  Ge27  1  0.07106700  0.69403400  0.88697300  1
  Ge  Ge28  1  0.07106700  0.19403400  0.61302700  1
  Ge  Ge29  1  0.57106700  0.80596600  0.38697300  1
  Ge  Ge30  1  0.42893300  0.69403400  0.88697300  1
  Ge  Ge31  1  0.92893300  0.30596600  0.11302700  1
  Ge  Ge32  1  0.90703600  0.58762600  0.30647800  1
  Ge  Ge33  1  0.40703600  0.41237400  0.69352200  1
  Ge  Ge34  1  0.59296400  0.08762600  0.19352200  1
  Ge  Ge35  1  0.09296400  0.91237400  0.80647800  1
  Ge  Ge36  1  0.09296400  0.41237400  0.69352200  1
  Ge  Ge37  1  0.59296400  0.58762600  0.30647800  1
  Ge  Ge38  1  0.40703600  0.91237400  0.80647800  1
  Ge  Ge39  1  0.90703600  0.08762600  0.19352200  1
  O  O40  1  0.52941400  0.68000800  0.39315100  1
  O  O41  1  0.02941400  0.31999200  0.60684900  1
  O  O42  1  0.97058600  0.18000800  0.10684900  1
  O  O43  1  0.47058600  0.81999200  0.89315100  1
  O  O44  1  0.47058600  0.31999200  0.60684900  1
  O  O45  1  0.97058600  0.68000800  0.39315100  1
  O  O46  1  0.02941400  0.81999200  0.89315100  1
  O  O47  1  0.52941400  0.18000800  0.10684900  1
  O  O48  1  0.49046600  0.59671000  0.19049100  1
  O  O49  1  0.99046600  0.40329000  0.80950900  1
  O  O50  1  0.00953400  0.09671000  0.30950900  1
  O  O51  1  0.50953400  0.90329000  0.69049100  1
  O  O52  1  0.50953400  0.40329000  0.80950900  1
  O  O53  1  0.00953400  0.59671000  0.19049100  1
  O  O54  1  0.99046600  0.90329000  0.69049100  1
  O  O55  1  0.49046600  0.09671000  0.30950900  1
  O  O56  1  0.54666100  0.85882100  0.50334100  1
  O  O57  1  0.04666100  0.14117900  0.49665900  1
  O  O58  1  0.95333900  0.35882100  0.99665900  1
  O  O59  1  0.45333900  0.64117900  0.00334100  1
  O  O60  1  0.45333900  0.14117900  0.49665900  1
  O  O61  1  0.95333900  0.85882100  0.50334100  1
  O  O62  1  0.04666100  0.64117900  0.00334100  1
  O  O63  1  0.54666100  0.35882100  0.99665900  1
  O  O64  1  0.45048200  0.49821400  0.35491300  1
  O  O65  1  0.95048200  0.50178600  0.64508700  1
  O  O66  1  0.93573100  0.80207600  0.12125600  1
  O  O67  1  0.04951800  0.99821400  0.14508700  1
  O  O68  1  0.54951800  0.50178600  0.64508700  1
  O  O69  1  0.04951800  0.49821400  0.35491300  1
  O  O70  1  0.95048200  0.00178600  0.85491300  1
  O  O71  1  0.45048200  0.99821400  0.14508700  1
  O  O72  1  0.43971000  0.86543900  0.30973700  1
  O  O73  1  0.93971000  0.13456100  0.69026300  1
  O  O74  1  0.06029000  0.36543900  0.19026300  1
  O  O75  1  0.56029000  0.63456100  0.80973700  1
  O  O76  1  0.56029000  0.13456100  0.69026300  1
  O  O77  1  0.06029000  0.86543900  0.30973700  1
  O  O78  1  0.93971000  0.63456100  0.80973700  1
  O  O79  1  0.43971000  0.36543900  0.19026300  1
  O  O80  1  0.75000000  0.01315200  0.15077400  1
  O  O81  1  0.25000000  0.98684800  0.84922600  1
  O  O82  1  0.75000000  0.51315200  0.34922600  1
  O  O83  1  0.25000000  0.48684800  0.65077400  1
  O  O84  1  0.75000000  0.14853900  0.45480400  1
  O  O85  1  0.25000000  0.85146100  0.54519600  1
  O  O86  1  0.75000000  0.64853900  0.04519600  1
  O  O87  1  0.25000000  0.35146100  0.95480400  1
  O  O88  1  0.75000000  0.34873400  0.14830300  1
  O  O89  1  0.25000000  0.65126600  0.85169700  1
  O  O90  1  0.75000000  0.84873400  0.35169700  1
  O  O91  1  0.25000000  0.15126600  0.64830300  1
  O  O92  1  0.75000000  0.16357500  0.25222700  1
  O  O93  1  0.25000000  0.83642500  0.74777300  1
  O  O94  1  0.75000000  0.66357500  0.24777300  1
  O  O95  1  0.25000000  0.33642500  0.75222700  1
  O  O96  1  0.75000000  0.66587600  0.64372000  1
  O  O97  1  0.25000000  0.33412400  0.35628000  1
  O  O98  1  0.75000000  0.16587600  0.85628000  1
  O  O99  1  0.25000000  0.83412400  0.14372000  1
  O  O100  1  0.93573100  0.30207600  0.37874400  1
  O  O101  1  0.43573100  0.69792400  0.62125600  1
  O  O102  1  0.56426900  0.80207600  0.12125600  1
  O  O103  1  0.06426900  0.19792400  0.87874400  1
  O  O104  1  0.06426900  0.69792400  0.62125600  1
  O  O105  1  0.56426900  0.30207600  0.37874400  1
  O  O106  1  0.43573100  0.19792400  0.87874400  1
  O  O107  1  0.54951800  0.00178600  0.85491300  1
