# generated using pymatgen
data_Ni(PO3)4
_symmetry_space_group_name_H-M   'P 1'
_cell_length_a   9.18334100
_cell_length_b   9.52138300
_cell_length_c   10.71790300
_cell_angle_alpha   90.00000000
_cell_angle_beta   90.00000000
_cell_angle_gamma   90.00000000
_symmetry_Int_Tables_number   1
_chemical_formula_structural   Ni(PO3)4
_chemical_formula_sum   'Ni4 P16 O48'
_cell_volume   937.15314805
_cell_formula_units_Z   4
loop_
 _symmetry_equiv_pos_site_id
 _symmetry_equiv_pos_as_xyz
  1  'x, y, z'
loop_
 _atom_site_type_symbol
 _atom_site_label
 _atom_site_symmetry_multiplicity
 _atom_site_fract_x
 _atom_site_fract_y
 _atom_site_fract_z
 _atom_site_occupancy
  Ni  Ni0  1  0.25000000  0.01080600  0.78399900  1
  Ni  Ni1  1  0.75000000  0.48919400  0.28399900  1
  Ni  Ni2  1  0.25000000  0.51080600  0.71600100  1
  Ni  Ni3  1  0.75000000  0.98919400  0.21600100  1
  P  P4  1  0.75000000  0.20429800  0.60556700  1
  P  P5  1  0.54714000  0.21474800  0.38972900  1
  P  P6  1  0.95286000  0.21474800  0.38972900  1
  P  P7  1  0.25000000  0.23381200  0.51716600  1
  P  P8  1  0.75000000  0.26618800  0.01716600  1
  P  P9  1  0.04714000  0.28525200  0.88972900  1
  P  P10  1  0.45286000  0.28525200  0.88972900  1
  P  P11  1  0.25000000  0.29570200  0.10556700  1
  P  P12  1  0.75000000  0.70429800  0.89443300  1
  P  P13  1  0.54714000  0.71474800  0.11027100  1
  P  P14  1  0.95286000  0.71474800  0.11027100  1
  P  P15  1  0.25000000  0.73381200  0.98283400  1
  P  P16  1  0.75000000  0.76618800  0.48283400  1
  P  P17  1  0.04714000  0.78525200  0.61027100  1
  P  P18  1  0.45286000  0.78525200  0.61027100  1
  P  P19  1  0.25000000  0.79570200  0.39443300  1
  O  O20  1  0.58334900  0.10804100  0.29128900  1
  O  O21  1  0.91665100  0.10804100  0.29128900  1
  O  O22  1  0.75000000  0.11767600  0.72327800  1
  O  O23  1  0.75000000  0.11616500  0.05864700  1
  O  O24  1  0.25000000  0.12319000  0.61615900  1
  O  O25  1  0.09231200  0.13739500  0.86242100  1
  O  O26  1  0.40768800  0.13739500  0.86242100  1
  O  O27  1  0.61257000  0.16234200  0.52260100  1
  O  O28  1  0.88743000  0.16234200  0.52260100  1
  O  O29  1  0.25000000  0.14328000  0.14487000  1
  O  O30  1  0.12123000  0.20327600  0.41893600  1
  O  O31  1  0.37877000  0.20327600  0.41893600  1
  O  O32  1  0.62123000  0.29672400  0.91893600  1
  O  O33  1  0.87877000  0.29672400  0.91893600  1
  O  O34  1  0.75000000  0.35672000  0.64487000  1
  O  O35  1  0.11257000  0.33765800  0.02260100  1
  O  O36  1  0.38743000  0.33765800  0.02260100  1
  O  O37  1  0.59231200  0.36260500  0.36242100  1
  O  O38  1  0.90768800  0.36260500  0.36242100  1
  O  O39  1  0.75000000  0.37681000  0.11615900  1
  O  O40  1  0.25000000  0.38383500  0.55864700  1
  O  O41  1  0.25000000  0.38232400  0.22327800  1
  O  O42  1  0.08334900  0.39195900  0.79128900  1
  O  O43  1  0.41665100  0.39195900  0.79128900  1
  O  O44  1  0.58334900  0.60804100  0.20871100  1
  O  O45  1  0.91665100  0.60804100  0.20871100  1
  O  O46  1  0.75000000  0.61767600  0.77672200  1
  O  O47  1  0.75000000  0.61616500  0.44135300  1
  O  O48  1  0.25000000  0.62319000  0.88384100  1
  O  O49  1  0.09231200  0.63739500  0.63757900  1
  O  O50  1  0.40768800  0.63739500  0.63757900  1
  O  O51  1  0.61257000  0.66234200  0.97739900  1
  O  O52  1  0.88743000  0.66234200  0.97739900  1
  O  O53  1  0.25000000  0.64328000  0.35513000  1
  O  O54  1  0.12123000  0.70327600  0.08106400  1
  O  O55  1  0.37877000  0.70327600  0.08106400  1
  O  O56  1  0.62123000  0.79672400  0.58106400  1
  O  O57  1  0.87877000  0.79672400  0.58106400  1
  O  O58  1  0.75000000  0.85672000  0.85513000  1
  O  O59  1  0.11257000  0.83765800  0.47739900  1
  O  O60  1  0.38743000  0.83765800  0.47739900  1
  O  O61  1  0.59231200  0.86260500  0.13757900  1
  O  O62  1  0.90768800  0.86260500  0.13757900  1
  O  O63  1  0.75000000  0.87681000  0.38384100  1
  O  O64  1  0.25000000  0.88383500  0.94135300  1
  O  O65  1  0.25000000  0.88232400  0.27672200  1
  O  O66  1  0.08334900  0.89195900  0.70871100  1
  O  O67  1  0.41665100  0.89195900  0.70871100  1
