# generated using pymatgen
data_CuS
_symmetry_space_group_name_H-M   'P 1'
_cell_length_a   3.79656994
_cell_length_b   3.79656994
_cell_length_c   16.44066200
_cell_angle_alpha   90.00000000
_cell_angle_beta   90.00000000
_cell_angle_gamma   119.99999899
_symmetry_Int_Tables_number   1
_chemical_formula_structural   CuS
_chemical_formula_sum   'Cu6 S6'
_cell_volume   205.22617320
_cell_formula_units_Z   6
loop_
 _symmetry_equiv_pos_site_id
 _symmetry_equiv_pos_as_xyz
  1  'x, y, z'
loop_
 _atom_site_type_symbol
 _atom_site_label
 _atom_site_symmetry_multiplicity
 _atom_site_fract_x
 _atom_site_fract_y
 _atom_site_fract_z
 _atom_site_occupancy
  Cu  Cu0  1  0.33333300  0.66666700  0.39294700  1
  Cu  Cu1  1  0.66666700  0.33333300  0.89294700  1
  Cu  Cu2  1  0.66666700  0.33333300  0.60705300  1
  Cu  Cu3  1  0.33333300  0.66666700  0.10705300  1
  Cu  Cu4  1  0.66666700  0.33333300  0.25000000  1
  Cu  Cu5  1  0.33333300  0.66666700  0.75000000  1
  S  S6  1  0.00000000  0.00000000  0.43591300  1
  S  S7  1  0.00000000  0.00000000  0.93591300  1
  S  S8  1  0.00000000  0.00000000  0.56408700  1
  S  S9  1  0.00000000  0.00000000  0.06408700  1
  S  S10  1  0.66666700  0.33333300  0.75000000  1
  S  S11  1  0.33333300  0.66666700  0.25000000  1
