# generated using pymatgen
data_CrPO4
_symmetry_space_group_name_H-M   'P 1'
_cell_length_a   7.37017271
_cell_length_b   7.37017271
_cell_length_c   9.49766200
_cell_angle_alpha   90.00000000
_cell_angle_beta   90.00000000
_cell_angle_gamma   120.00000636
_symmetry_Int_Tables_number   1
_chemical_formula_structural   CrPO4
_chemical_formula_sum   'Cr6 P6 O24'
_cell_volume   446.78917654
_cell_formula_units_Z   6
loop_
 _symmetry_equiv_pos_site_id
 _symmetry_equiv_pos_as_xyz
  1  'x, y, z'
loop_
 _atom_site_type_symbol
 _atom_site_label
 _atom_site_symmetry_multiplicity
 _atom_site_fract_x
 _atom_site_fract_y
 _atom_site_fract_z
 _atom_site_occupancy
  Cr  Cr0  1  0.45714100  0.06443400  0.02577400  1
  Cr  Cr1  1  0.60729300  0.54285900  0.02577400  1
  Cr  Cr2  1  0.93556600  0.39270700  0.02577400  1
  Cr  Cr3  1  0.06443400  0.45714100  0.52577400  1
  Cr  Cr4  1  0.54285900  0.60729300  0.52577400  1
  Cr  Cr5  1  0.39270700  0.93556600  0.52577400  1
  P  P6  1  0.00000000  0.00000000  0.46803700  1
  P  P7  1  0.00000000  0.00000000  0.96803700  1
  P  P8  1  0.66666700  0.33333300  0.71994700  1
  P  P9  1  0.66666700  0.33333300  0.33058400  1
  P  P10  1  0.33333300  0.66666700  0.83058400  1
  P  P11  1  0.33333300  0.66666700  0.21994700  1
  O  O12  1  0.00000000  0.00000000  0.31274100  1
  O  O13  1  0.23165400  0.11866200  0.03554800  1
  O  O14  1  0.46484100  0.13974200  0.37877800  1
  O  O15  1  0.56953600  0.10657400  0.67200400  1
  O  O16  1  0.53703700  0.43046400  0.67200400  1
  O  O17  1  0.66666700  0.33333300  0.15727100  1
  O  O18  1  0.66666700  0.33333300  0.89022500  1
  O  O19  1  0.88133800  0.11299300  0.03554800  1
  O  O20  1  0.86025800  0.32509900  0.37877800  1
  O  O21  1  0.67490100  0.53515900  0.37877800  1
  O  O22  1  0.11866200  0.23165400  0.53554800  1
  O  O23  1  0.89342600  0.46296300  0.67200400  1
  O  O24  1  0.13974200  0.46484100  0.87877800  1
  O  O25  1  0.88700700  0.76834600  0.03554800  1
  O  O26  1  0.10657400  0.56953600  0.17200400  1
  O  O27  1  0.43046400  0.53703700  0.17200400  1
  O  O28  1  0.33333300  0.66666700  0.65727100  1
  O  O29  1  0.33333300  0.66666700  0.39022500  1
  O  O30  1  0.11299300  0.88133800  0.53554800  1
  O  O31  1  0.32509900  0.86025800  0.87877800  1
  O  O32  1  0.53515900  0.67490100  0.87877800  1
  O  O33  1  0.46296300  0.89342600  0.17200400  1
  O  O34  1  0.76834600  0.88700700  0.53554800  1
  O  O35  1  0.00000000  0.00000000  0.81274100  1
