# generated using pymatgen
data_CrPO4
_symmetry_space_group_name_H-M   'P 1'
_cell_length_a   9.57249961
_cell_length_b   5.67198159
_cell_length_c   6.41073453
_cell_angle_alpha   99.27420419
_cell_angle_beta   105.21841887
_cell_angle_gamma   76.52442218
_symmetry_Int_Tables_number   1
_chemical_formula_structural   CrPO4
_chemical_formula_sum   'Cr4 P4 O16'
_cell_volume   324.75885930
_cell_formula_units_Z   4
loop_
 _symmetry_equiv_pos_site_id
 _symmetry_equiv_pos_as_xyz
  1  'x, y, z'
loop_
 _atom_site_type_symbol
 _atom_site_label
 _atom_site_symmetry_multiplicity
 _atom_site_fract_x
 _atom_site_fract_y
 _atom_site_fract_z
 _atom_site_occupancy
  Cr  Cr0  1  0.06041400  0.25804200  0.33119800  1
  Cr  Cr1  1  0.31211600  0.87479400  0.59359600  1
  Cr  Cr2  1  0.68787600  0.12517300  0.40640800  1
  Cr  Cr3  1  0.93960200  0.74202600  0.66881200  1
  P  P4  1  0.02735200  0.17939200  0.79475900  1
  P  P5  1  0.40109300  0.30150400  0.64816500  1
  P  P6  1  0.59890400  0.69846700  0.35183500  1
  P  P7  1  0.97264800  0.82063800  0.20522900  1
  O  O8  1  0.03451300  0.37352800  0.65056900  1
  O  O9  1  0.12635700  0.93173500  0.72958300  1
  O  O10  1  0.06928100  0.26906100  0.03265400  1
  O  O11  1  0.12931100  0.88574900  0.28447200  1
  O  O12  1  0.27512400  0.21141200  0.44943600  1
  O  O13  1  0.40996700  0.11299500  0.80606700  1
  O  O14  1  0.34870300  0.56758600  0.72935800  1
  O  O15  1  0.45570900  0.73462700  0.42484000  1
  O  O16  1  0.54428800  0.26537600  0.57517200  1
  O  O17  1  0.65129800  0.43238200  0.27065200  1
  O  O18  1  0.59002900  0.88697500  0.19392500  1
  O  O19  1  0.72487800  0.78859000  0.55055600  1
  O  O20  1  0.87069200  0.11426300  0.71553400  1
  O  O21  1  0.93072400  0.73093800  0.96733500  1
  O  O22  1  0.87363300  0.06825700  0.27042700  1
  O  O23  1  0.96548800  0.62649000  0.34941900  1
