# generated using pymatgen
data_MgSiO3
_symmetry_space_group_name_H-M   'P 1'
_cell_length_a   5.38003200
_cell_length_b   8.85871000
_cell_length_c   9.36608100
_cell_angle_alpha   90.00000000
_cell_angle_beta   90.00000000
_cell_angle_gamma   90.00000000
_symmetry_Int_Tables_number   1
_chemical_formula_structural   MgSiO3
_chemical_formula_sum   'Mg8 Si8 O24'
_cell_volume   446.38876242
_cell_formula_units_Z   8
loop_
 _symmetry_equiv_pos_site_id
 _symmetry_equiv_pos_as_xyz
  1  'x, y, z'
loop_
 _atom_site_type_symbol
 _atom_site_label
 _atom_site_symmetry_multiplicity
 _atom_site_fract_x
 _atom_site_fract_y
 _atom_site_fract_z
 _atom_site_occupancy
  Mg  Mg0  1  0.25000000  0.90175300  0.00000000  1
  Mg  Mg1  1  0.75000000  0.59824700  0.50000000  1
  Mg  Mg2  1  0.75000000  0.09824700  0.00000000  1
  Mg  Mg3  1  0.25000000  0.40175300  0.50000000  1
  Mg  Mg4  1  0.75000000  0.73812400  0.00000000  1
  Mg  Mg5  1  0.25000000  0.76187600  0.50000000  1
  Mg  Mg6  1  0.25000000  0.26187600  0.00000000  1
  Mg  Mg7  1  0.75000000  0.23812400  0.50000000  1
  Si  Si8  1  0.93559700  0.90933400  0.29204000  1
  Si  Si9  1  0.43559700  0.59066600  0.20796000  1
  Si  Si10  1  0.56440300  0.90933400  0.70796000  1
  Si  Si11  1  0.06440300  0.59066600  0.79204000  1
  Si  Si12  1  0.06440300  0.09066600  0.70796000  1
  Si  Si13  1  0.56440300  0.40933400  0.79204000  1
  Si  Si14  1  0.43559700  0.09066600  0.29204000  1
  Si  Si15  1  0.93559700  0.40933400  0.20796000  1
  O  O16  1  0.71236800  0.52517500  0.15149100  1
  O  O17  1  0.21236800  0.97482500  0.34850900  1
  O  O18  1  0.78763200  0.52517500  0.84850900  1
  O  O19  1  0.28763200  0.97482500  0.65149100  1
  O  O20  1  0.28763200  0.47482500  0.84850900  1
  O  O21  1  0.78763200  0.02517500  0.65149100  1
  O  O22  1  0.21236800  0.47482500  0.15149100  1
  O  O23  1  0.71236800  0.02517500  0.34850900  1
  O  O24  1  0.93193900  0.25236700  0.12188000  1
  O  O25  1  0.43193900  0.24763300  0.37812000  1
  O  O26  1  0.56806100  0.25236700  0.87812000  1
  O  O27  1  0.06806100  0.24763300  0.62188000  1
  O  O28  1  0.06806100  0.74763300  0.87812000  1
  O  O29  1  0.56806100  0.75236700  0.62188000  1
  O  O30  1  0.43193900  0.74763300  0.12188000  1
  O  O31  1  0.93193900  0.75236700  0.37812000  1
  O  O32  1  0.92292300  0.90613300  0.11799800  1
  O  O33  1  0.42292300  0.59386700  0.38200200  1
  O  O34  1  0.57707700  0.90613300  0.88200200  1
  O  O35  1  0.07707700  0.59386700  0.61799800  1
  O  O36  1  0.07707700  0.09386700  0.88200200  1
  O  O37  1  0.57707700  0.40613300  0.61799800  1
  O  O38  1  0.42292300  0.09386700  0.11799800  1
  O  O39  1  0.92292300  0.40613300  0.38200200  1
