# generated using pymatgen
data_Cu5As2
_symmetry_space_group_name_H-M   'P 1'
_cell_length_a   7.08365388
_cell_length_b   7.08365388
_cell_length_c   7.08365388
_cell_angle_alpha   133.73482065
_cell_angle_beta   129.86462071
_cell_angle_gamma   70.59171906
_symmetry_Int_Tables_number   1
_chemical_formula_structural   Cu5As2
_chemical_formula_sum   'Cu10 As4'
_cell_volume   193.15348126
_cell_formula_units_Z   2
loop_
 _symmetry_equiv_pos_site_id
 _symmetry_equiv_pos_as_xyz
  1  'x, y, z'
loop_
 _atom_site_type_symbol
 _atom_site_label
 _atom_site_symmetry_multiplicity
 _atom_site_fract_x
 _atom_site_fract_y
 _atom_site_fract_z
 _atom_site_occupancy
  Cu  Cu0  1  0.70585700  0.89645700  0.80940100  1
  Cu  Cu1  1  0.29414300  0.10354300  0.19059900  1
  Cu  Cu2  1  0.91294400  0.60354300  0.30940100  1
  Cu  Cu3  1  0.08705600  0.39645700  0.69059900  1
  Cu  Cu4  1  0.26879000  0.01879000  0.75000000  1
  Cu  Cu5  1  0.73121000  0.48121000  0.75000000  1
  Cu  Cu6  1  0.73121000  0.98121000  0.25000000  1
  Cu  Cu7  1  0.26879000  0.51879000  0.25000000  1
  Cu  Cu8  1  0.50000000  0.75000000  0.25000000  1
  Cu  Cu9  1  0.50000000  0.25000000  0.75000000  1
  As  As10  1  0.33971100  0.61662400  0.72308700  1
  As  As11  1  0.66028900  0.38337600  0.27691300  1
  As  As12  1  0.10646300  0.88337600  0.22308700  1
  As  As13  1  0.89353700  0.11662400  0.77691300  1
