# generated using pymatgen
data_Fe4Bi2O9
_symmetry_space_group_name_H-M   'P 1'
_cell_length_a   6.10014500
_cell_length_b   8.07136600
_cell_length_c   8.65704400
_cell_angle_alpha   90.00000000
_cell_angle_beta   90.00000000
_cell_angle_gamma   90.00000000
_symmetry_Int_Tables_number   1
_chemical_formula_structural   Fe4Bi2O9
_chemical_formula_sum   'Fe8 Bi4 O18'
_cell_volume   426.24257243
_cell_formula_units_Z   2
loop_
 _symmetry_equiv_pos_site_id
 _symmetry_equiv_pos_as_xyz
  1  'x, y, z'
loop_
 _atom_site_type_symbol
 _atom_site_label
 _atom_site_symmetry_multiplicity
 _atom_site_fract_x
 _atom_site_fract_y
 _atom_site_fract_z
 _atom_site_occupancy
  Fe  Fe0  1  0.25785900  0.00000000  0.50000000  1
  Fe  Fe1  1  0.74214100  0.50000000  0.00000000  1
  Fe  Fe2  1  0.74214100  0.00000000  0.50000000  1
  Fe  Fe3  1  0.25785900  0.50000000  0.00000000  1
  Fe  Fe4  1  0.50000000  0.85356600  0.16546500  1
  Fe  Fe5  1  0.50000000  0.14643400  0.83453500  1
  Fe  Fe6  1  0.50000000  0.35356600  0.33453500  1
  Fe  Fe7  1  0.50000000  0.64643400  0.66546500  1
  Bi  Bi8  1  0.00000000  0.68105000  0.31943600  1
  Bi  Bi9  1  0.00000000  0.31895000  0.68056400  1
  Bi  Bi10  1  0.00000000  0.18105000  0.18056400  1
  Bi  Bi11  1  0.00000000  0.81895000  0.81943600  1
  O  O12  1  0.50000000  0.50000000  0.50000000  1
  O  O13  1  0.50000000  0.00000000  0.00000000  1
  O  O14  1  0.24215800  0.87478100  0.29265000  1
  O  O15  1  0.24215800  0.12521900  0.70735000  1
  O  O16  1  0.75784200  0.37478100  0.20735000  1
  O  O17  1  0.75784200  0.62521900  0.79265000  1
  O  O18  1  0.75784200  0.12521900  0.70735000  1
  O  O19  1  0.75784200  0.87478100  0.29265000  1
  O  O20  1  0.24215800  0.62521900  0.79265000  1
  O  O21  1  0.24215800  0.37478100  0.20735000  1
  O  O22  1  0.50000000  0.63393900  0.09247400  1
  O  O23  1  0.50000000  0.36606100  0.90752600  1
  O  O24  1  0.50000000  0.13393900  0.40752600  1
  O  O25  1  0.50000000  0.86606100  0.59247400  1
  O  O26  1  0.00000000  0.65475100  0.06381100  1
  O  O27  1  0.00000000  0.34524900  0.93618900  1
  O  O28  1  0.00000000  0.15475100  0.43618900  1
  O  O29  1  0.00000000  0.84524900  0.56381100  1
