# generated using pymatgen
data_Ti3Co3O
_symmetry_space_group_name_H-M   'P 1'
_cell_length_a   7.87397201
_cell_length_b   7.87397201
_cell_length_c   7.87397201
_cell_angle_alpha   60.00000000
_cell_angle_beta   60.00000000
_cell_angle_gamma   60.00000000
_symmetry_Int_Tables_number   1
_chemical_formula_structural   Ti3Co3O
_chemical_formula_sum   'Ti12 Co12 O4'
_cell_volume   345.19667303
_cell_formula_units_Z   4
loop_
 _symmetry_equiv_pos_site_id
 _symmetry_equiv_pos_as_xyz
  1  'x, y, z'
loop_
 _atom_site_type_symbol
 _atom_site_label
 _atom_site_symmetry_multiplicity
 _atom_site_fract_x
 _atom_site_fract_y
 _atom_site_fract_z
 _atom_site_occupancy
  Ti  Ti0  1  0.93950600  0.93950600  0.56049400  1
  Ti  Ti1  1  0.68950600  0.31049400  0.31049400  1
  Ti  Ti2  1  0.31049400  0.68950600  0.68950600  1
  Ti  Ti3  1  0.68950600  0.68950600  0.31049400  1
  Ti  Ti4  1  0.68950600  0.31049400  0.68950600  1
  Ti  Ti5  1  0.31049400  0.68950600  0.31049400  1
  Ti  Ti6  1  0.56049400  0.93950600  0.56049400  1
  Ti  Ti7  1  0.56049400  0.93950600  0.93950600  1
  Ti  Ti8  1  0.93950600  0.56049400  0.56049400  1
  Ti  Ti9  1  0.93950600  0.56049400  0.93950600  1
  Ti  Ti10  1  0.31049400  0.31049400  0.68950600  1
  Ti  Ti11  1  0.56049400  0.56049400  0.93950600  1
  Co  Co12  1  0.12500000  0.62500000  0.12500000  1
  Co  Co13  1  0.12500000  0.12500000  0.62500000  1
  Co  Co14  1  0.62500000  0.12500000  0.12500000  1
  Co  Co15  1  0.12500000  0.12500000  0.12500000  1
  Co  Co16  1  0.92013800  0.23958500  0.92013800  1
  Co  Co17  1  0.32986200  0.32986200  0.01041500  1
  Co  Co18  1  0.01041500  0.32986200  0.32986200  1
  Co  Co19  1  0.32986200  0.32986200  0.32986200  1
  Co  Co20  1  0.23958500  0.92013800  0.92013800  1
  Co  Co21  1  0.92013800  0.92013800  0.92013800  1
  Co  Co22  1  0.92013800  0.92013800  0.23958500  1
  Co  Co23  1  0.32986200  0.01041500  0.32986200  1
  O  O24  1  0.62500000  0.12500000  0.62500000  1
  O  O25  1  0.62500000  0.62500000  0.12500000  1
  O  O26  1  0.12500000  0.62500000  0.62500000  1
  O  O27  1  0.62500000  0.62500000  0.62500000  1
