# generated using pymatgen
data_AlTl2F5
_symmetry_space_group_name_H-M   'P 1'
_cell_length_a   6.43957834
_cell_length_b   6.43957834
_cell_length_c   7.51786900
_cell_angle_alpha   90.00000000
_cell_angle_beta   90.00000000
_cell_angle_gamma   96.43241344
_symmetry_Int_Tables_number   1
_chemical_formula_structural   AlTl2F5
_chemical_formula_sum   'Al2 Tl4 F10'
_cell_volume   309.78968966
_cell_formula_units_Z   2
loop_
 _symmetry_equiv_pos_site_id
 _symmetry_equiv_pos_as_xyz
  1  'x, y, z'
loop_
 _atom_site_type_symbol
 _atom_site_label
 _atom_site_symmetry_multiplicity
 _atom_site_fract_x
 _atom_site_fract_y
 _atom_site_fract_z
 _atom_site_occupancy
  Al  Al0  1  0.00000000  0.00000000  0.50000000  1
  Al  Al1  1  0.00000000  0.00000000  0.00000000  1
  Tl  Tl2  1  0.52313000  0.93478500  0.25000000  1
  Tl  Tl3  1  0.47687000  0.06521500  0.75000000  1
  Tl  Tl4  1  0.93478500  0.52313000  0.75000000  1
  Tl  Tl5  1  0.06521500  0.47687000  0.25000000  1
  F  F6  1  0.21159100  0.21159100  0.50000000  1
  F  F7  1  0.78840900  0.78840900  0.00000000  1
  F  F8  1  0.78840900  0.78840900  0.50000000  1
  F  F9  1  0.21159100  0.21159100  0.00000000  1
  F  F10  1  0.03067600  0.96932400  0.25000000  1
  F  F11  1  0.96932400  0.03067600  0.75000000  1
  F  F12  1  0.18686600  0.81313400  0.53791100  1
  F  F13  1  0.81313400  0.18686600  0.03791100  1
  F  F14  1  0.81313400  0.18686600  0.46208900  1
  F  F15  1  0.18686600  0.81313400  0.96208900  1
