# generated using pymatgen
data_VP2H4O9
_symmetry_space_group_name_H-M   'P 1'
_cell_length_a   9.16932800
_cell_length_b   9.16932800
_cell_length_c   7.88660900
_cell_angle_alpha   90.00000000
_cell_angle_beta   90.00000000
_cell_angle_gamma   90.00000000
_symmetry_Int_Tables_number   1
_chemical_formula_structural   VP2H4O9
_chemical_formula_sum   'V4 P8 H16 O36'
_cell_volume   663.07908075
_cell_formula_units_Z   4
loop_
 _symmetry_equiv_pos_site_id
 _symmetry_equiv_pos_as_xyz
  1  'x, y, z'
loop_
 _atom_site_type_symbol
 _atom_site_label
 _atom_site_symmetry_multiplicity
 _atom_site_fract_x
 _atom_site_fract_y
 _atom_site_fract_z
 _atom_site_occupancy
  V  V0  1  0.00000000  0.50000000  0.20437800  1
  V  V1  1  0.50000000  0.00000000  0.29562200  1
  V  V2  1  0.50000000  0.00000000  0.79562200  1
  V  V3  1  0.00000000  0.50000000  0.70437800  1
  P  P4  1  0.79569300  0.20430700  0.25000000  1
  P  P5  1  0.70430700  0.70430700  0.25000000  1
  P  P6  1  0.29569300  0.29569300  0.25000000  1
  P  P7  1  0.20430700  0.79569300  0.25000000  1
  P  P8  1  0.70430700  0.29569300  0.75000000  1
  P  P9  1  0.79569300  0.79569300  0.75000000  1
  P  P10  1  0.20430700  0.20430700  0.75000000  1
  P  P11  1  0.29569300  0.70430700  0.75000000  1
  H  H12  1  0.33411100  0.46506000  0.44812300  1
  H  H13  1  0.96506000  0.16588900  0.44812300  1
  H  H14  1  0.03494000  0.83411100  0.44812300  1
  H  H15  1  0.66588900  0.53494000  0.44812300  1
  H  H16  1  0.16588900  0.96506000  0.05187700  1
  H  H17  1  0.83411100  0.03494000  0.05187700  1
  H  H18  1  0.46506000  0.33411100  0.05187700  1
  H  H19  1  0.53494000  0.66588900  0.05187700  1
  H  H20  1  0.16588900  0.03494000  0.55187700  1
  H  H21  1  0.53494000  0.33411100  0.55187700  1
  H  H22  1  0.46506000  0.66588900  0.55187700  1
  H  H23  1  0.83411100  0.96506000  0.55187700  1
  H  H24  1  0.33411100  0.53494000  0.94812300  1
  H  H25  1  0.66588900  0.46506000  0.94812300  1
  H  H26  1  0.03494000  0.16588900  0.94812300  1
  H  H27  1  0.96506000  0.83411100  0.94812300  1
  O  O28  1  0.82919600  0.36581400  0.24331900  1
  O  O29  1  0.86581400  0.67080400  0.24331900  1
  O  O30  1  0.13418600  0.32919600  0.24331900  1
  O  O31  1  0.17080400  0.63418600  0.24331900  1
  O  O32  1  0.67080400  0.86581400  0.25668100  1
  O  O33  1  0.32919600  0.13418600  0.25668100  1
  O  O34  1  0.36581400  0.82919600  0.25668100  1
  O  O35  1  0.63418600  0.17080400  0.25668100  1
  O  O36  1  0.67080400  0.13418600  0.75668100  1
  O  O37  1  0.63418600  0.82919600  0.75668100  1
  O  O38  1  0.36581400  0.17080400  0.75668100  1
  O  O39  1  0.32919600  0.86581400  0.75668100  1
  O  O40  1  0.82919600  0.63418600  0.74331900  1
  O  O41  1  0.17080400  0.36581400  0.74331900  1
  O  O42  1  0.13418600  0.67080400  0.74331900  1
  O  O43  1  0.86581400  0.32919600  0.74331900  1
  O  O44  1  0.86963600  0.13236300  0.08694100  1
  O  O45  1  0.63236300  0.63036400  0.08694100  1
  O  O46  1  0.36763700  0.36963600  0.08694100  1
  O  O47  1  0.13036400  0.86763700  0.08694100  1
  O  O48  1  0.63036400  0.63236300  0.41305900  1
  O  O49  1  0.36963600  0.36763700  0.41305900  1
  O  O50  1  0.13236300  0.86963600  0.41305900  1
  O  O51  1  0.86763700  0.13036400  0.41305900  1
  O  O52  1  0.63036400  0.36763700  0.91305900  1
  O  O53  1  0.86763700  0.86963600  0.91305900  1
  O  O54  1  0.13236300  0.13036400  0.91305900  1
  O  O55  1  0.36963600  0.63236300  0.91305900  1
  O  O56  1  0.86963600  0.86763700  0.58694100  1
  O  O57  1  0.13036400  0.13236300  0.58694100  1
  O  O58  1  0.36763700  0.63036400  0.58694100  1
  O  O59  1  0.63236300  0.36963600  0.58694100  1
  O  O60  1  0.00000000  0.50000000  0.99359900  1
  O  O61  1  0.50000000  0.00000000  0.50640100  1
  O  O62  1  0.50000000  0.00000000  0.00640100  1
  O  O63  1  0.00000000  0.50000000  0.49359900  1
