# generated using pymatgen
data_FeCoBO4
_symmetry_space_group_name_H-M   'P 1'
_cell_length_a   3.14697500
_cell_length_b   9.39119600
_cell_length_c   9.51381300
_cell_angle_alpha   90.00000000
_cell_angle_beta   90.00000000
_cell_angle_gamma   90.00000000
_symmetry_Int_Tables_number   1
_chemical_formula_structural   FeCoBO4
_chemical_formula_sum   'Fe4 Co4 B4 O16'
_cell_volume   281.16988826
_cell_formula_units_Z   4
loop_
 _symmetry_equiv_pos_site_id
 _symmetry_equiv_pos_as_xyz
  1  'x, y, z'
loop_
 _atom_site_type_symbol
 _atom_site_label
 _atom_site_symmetry_multiplicity
 _atom_site_fract_x
 _atom_site_fract_y
 _atom_site_fract_z
 _atom_site_occupancy
  Fe  Fe0  1  0.75000000  0.38074100  0.56769200  1
  Fe  Fe1  1  0.25000000  0.61925900  0.43230800  1
  Fe  Fe2  1  0.75000000  0.88074100  0.93230800  1
  Fe  Fe3  1  0.25000000  0.11925900  0.06769200  1
  Co  Co4  1  0.75000000  0.39757000  0.18715200  1
  Co  Co5  1  0.25000000  0.60243000  0.81284800  1
  Co  Co6  1  0.75000000  0.89757000  0.31284800  1
  Co  Co7  1  0.25000000  0.10243000  0.68715200  1
  B  B8  1  0.75000000  0.33400800  0.87157300  1
  B  B9  1  0.25000000  0.66599200  0.12842700  1
  B  B10  1  0.75000000  0.83400800  0.62842700  1
  B  B11  1  0.25000000  0.16599200  0.37157300  1
  O  O12  1  0.75000000  0.47799900  0.87050400  1
  O  O13  1  0.25000000  0.52200100  0.12949600  1
  O  O14  1  0.75000000  0.97799900  0.62949600  1
  O  O15  1  0.25000000  0.02200100  0.37050400  1
  O  O16  1  0.75000000  0.25700000  0.74537200  1
  O  O17  1  0.25000000  0.74300000  0.25462800  1
  O  O18  1  0.75000000  0.75700000  0.75462800  1
  O  O19  1  0.25000000  0.24300000  0.24537200  1
  O  O20  1  0.75000000  0.25918300  0.00054400  1
  O  O21  1  0.25000000  0.74081700  0.99945600  1
  O  O22  1  0.75000000  0.75918300  0.49945600  1
  O  O23  1  0.25000000  0.24081700  0.50054400  1
  O  O24  1  0.75000000  0.49319600  0.38525700  1
  O  O25  1  0.25000000  0.50680400  0.61474300  1
  O  O26  1  0.75000000  0.99319600  0.11474300  1
  O  O27  1  0.25000000  0.00680400  0.88525700  1
