# generated using pymatgen
data_KBiF6
_symmetry_space_group_name_H-M   'P 1'
_cell_length_a   9.19206292
_cell_length_b   9.19206292
_cell_length_c   9.19206292
_cell_angle_alpha   109.47122063
_cell_angle_beta   109.47122063
_cell_angle_gamma   109.47122063
_symmetry_Int_Tables_number   1
_chemical_formula_structural   KBiF6
_chemical_formula_sum   'K4 Bi4 F24'
_cell_volume   597.88419671
_cell_formula_units_Z   4
loop_
 _symmetry_equiv_pos_site_id
 _symmetry_equiv_pos_as_xyz
  1  'x, y, z'
loop_
 _atom_site_type_symbol
 _atom_site_label
 _atom_site_symmetry_multiplicity
 _atom_site_fract_x
 _atom_site_fract_y
 _atom_site_fract_z
 _atom_site_occupancy
  K  K0  1  0.50000000  0.50000000  0.50000000  1
  K  K1  1  0.00000000  0.50000000  0.00000000  1
  K  K2  1  0.00000000  0.00000000  0.50000000  1
  K  K3  1  0.50000000  0.00000000  0.00000000  1
  Bi  Bi4  1  0.00000000  0.00000000  0.00000000  1
  Bi  Bi5  1  0.50000000  0.50000000  0.00000000  1
  Bi  Bi6  1  0.00000000  0.50000000  0.50000000  1
  Bi  Bi7  1  0.50000000  0.00000000  0.50000000  1
  F  F8  1  0.05006700  0.25696800  0.08786500  1
  F  F9  1  0.24303200  0.29309900  0.83089700  1
  F  F10  1  0.20690100  0.44993300  0.53779800  1
  F  F11  1  0.96220200  0.41213500  0.66910300  1
  F  F12  1  0.29309900  0.83089700  0.24303200  1
  F  F13  1  0.53779800  0.20690100  0.44993300  1
  F  F14  1  0.41213500  0.66910300  0.96220200  1
  F  F15  1  0.08786500  0.05006700  0.25696800  1
  F  F16  1  0.25696800  0.08786500  0.05006700  1
  F  F17  1  0.83089700  0.24303200  0.29309900  1
  F  F18  1  0.44993300  0.53779800  0.20690100  1
  F  F19  1  0.66910300  0.96220200  0.41213500  1
  F  F20  1  0.94993300  0.74303200  0.91213500  1
  F  F21  1  0.75696800  0.70690100  0.16910300  1
  F  F22  1  0.79309900  0.55006700  0.46220200  1
  F  F23  1  0.03779800  0.58786500  0.33089700  1
  F  F24  1  0.70690100  0.16910300  0.75696800  1
  F  F25  1  0.46220200  0.79309900  0.55006700  1
  F  F26  1  0.58786500  0.33089700  0.03779800  1
  F  F27  1  0.91213500  0.94993300  0.74303200  1
  F  F28  1  0.74303200  0.91213500  0.94993300  1
  F  F29  1  0.16910300  0.75696800  0.70690100  1
  F  F30  1  0.55006700  0.46220200  0.79309900  1
  F  F31  1  0.33089700  0.03779800  0.58786500  1
