# generated using pymatgen
data_Na2Si4NiO10
_symmetry_space_group_name_H-M   'P 1'
_cell_length_a   7.02664400
_cell_length_b   7.71818023
_cell_length_c   9.86779817
_cell_angle_alpha   101.39913115
_cell_angle_beta   102.74052431
_cell_angle_gamma   115.30118229
_symmetry_Int_Tables_number   1
_chemical_formula_structural   Na2Si4NiO10
_chemical_formula_sum   'Na4 Si8 Ni2 O20'
_cell_volume   445.30732057
_cell_formula_units_Z   2
loop_
 _symmetry_equiv_pos_site_id
 _symmetry_equiv_pos_as_xyz
  1  'x, y, z'
loop_
 _atom_site_type_symbol
 _atom_site_label
 _atom_site_symmetry_multiplicity
 _atom_site_fract_x
 _atom_site_fract_y
 _atom_site_fract_z
 _atom_site_occupancy
  Na  Na0  1  0.34232400  0.24404300  0.02320400  1
  Na  Na1  1  0.65767600  0.75595700  0.97679600  1
  Na  Na2  1  0.74151600  0.27403200  0.41939500  1
  Na  Na3  1  0.25848400  0.72596800  0.58060500  1
  Si  Si4  1  0.76091600  0.06126500  0.80478700  1
  Si  Si5  1  0.23908400  0.93873500  0.19521300  1
  Si  Si6  1  0.91621800  0.29056900  0.14117000  1
  Si  Si7  1  0.08378200  0.70943100  0.85883000  1
  Si  Si8  1  0.60329300  0.35926500  0.74009900  1
  Si  Si9  1  0.39670700  0.64073500  0.25990100  1
  Si  Si10  1  0.18633700  0.37972000  0.74957500  1
  Si  Si11  1  0.81366300  0.62028000  0.25042500  1
  Ni  Ni12  1  0.25554800  0.31473800  0.42283900  1
  Ni  Ni13  1  0.74445200  0.68526200  0.57716100  1
  O  O14  1  0.79441400  0.10242800  0.98264100  1
  O  O15  1  0.20558600  0.89757200  0.01735900  1
  O  O16  1  0.58866100  0.13835400  0.73119100  1
  O  O17  1  0.41133900  0.86164600  0.26880900  1
  O  O18  1  0.34584800  0.17750700  0.27041000  1
  O  O19  1  0.65415200  0.82249300  0.72959000  1
  O  O20  1  0.94832700  0.21552700  0.27877500  1
  O  O21  1  0.05167300  0.78447300  0.72122500  1
  O  O22  1  0.56499300  0.38950000  0.58102200  1
  O  O23  1  0.43500700  0.61050000  0.41897800  1
  O  O24  1  0.11723600  0.36028600  0.58017200  1
  O  O25  1  0.88276400  0.63971400  0.41982800  1
  O  O26  1  0.75389200  0.39676200  0.14025100  1
  O  O27  1  0.24610800  0.60323800  0.85974900  1
  O  O28  1  0.41997400  0.37158300  0.81632700  1
  O  O29  1  0.58002600  0.62841700  0.18367300  1
  O  O30  1  0.15645300  0.45914400  0.13510500  1
  O  O31  1  0.84354700  0.54085600  0.86489500  1
  O  O32  1  0.00770400  0.20171100  0.79574700  1
  O  O33  1  0.99229600  0.79828900  0.20425300  1
