# generated using pymatgen
data_CoAgPO4
_symmetry_space_group_name_H-M   'P 1'
_cell_length_a   5.75362541
_cell_length_b   6.60793011
_cell_length_c   9.62231022
_cell_angle_alpha   75.11698076
_cell_angle_beta   79.11089629
_cell_angle_gamma   78.94277235
_symmetry_Int_Tables_number   1
_chemical_formula_structural   CoAgPO4
_chemical_formula_sum   'Co4 Ag4 P4 O16'
_cell_volume   343.21802258
_cell_formula_units_Z   4
loop_
 _symmetry_equiv_pos_site_id
 _symmetry_equiv_pos_as_xyz
  1  'x, y, z'
loop_
 _atom_site_type_symbol
 _atom_site_label
 _atom_site_symmetry_multiplicity
 _atom_site_fract_x
 _atom_site_fract_y
 _atom_site_fract_z
 _atom_site_occupancy
  Co  Co0  1  0.21474900  0.82615800  0.43722100  1
  Co  Co1  1  0.33638900  0.94045600  0.78984300  1
  Co  Co2  1  0.78510100  0.17410600  0.56266200  1
  Co  Co3  1  0.66394200  0.05946500  0.21031900  1
  Ag  Ag4  1  0.68214200  0.38692800  0.86996100  1
  Ag  Ag5  1  0.31761000  0.61267500  0.13025100  1
  Ag  Ag6  1  0.17991200  0.47330900  0.76292600  1
  Ag  Ag7  1  0.81949500  0.52667900  0.23702100  1
  P  P8  1  0.68062200  0.71798800  0.52928000  1
  P  P9  1  0.31914700  0.28224500  0.47052900  1
  P  P10  1  0.81142900  0.86406100  0.89971400  1
  P  P11  1  0.18893300  0.13577500  0.10043400  1
  O  O12  1  0.86706200  0.84496500  0.55172700  1
  O  O13  1  0.13273100  0.15531900  0.44802400  1
  O  O14  1  0.65085000  0.77665400  0.36285300  1
  O  O15  1  0.34905400  0.22350300  0.63695200  1
  O  O16  1  0.75597900  0.47938300  0.58252200  1
  O  O17  1  0.24376400  0.52080900  0.41720000  1
  O  O18  1  0.42422500  0.79204000  0.60674800  1
  O  O19  1  0.57558200  0.20804500  0.39313700  1
  O  O20  1  0.78133900  0.08265100  0.78815500  1
  O  O21  1  0.21895800  0.91706000  0.21181900  1
  O  O22  1  0.76597500  0.88882700  0.05731200  1
  O  O23  1  0.23409400  0.11147100  0.94274900  1
  O  O24  1  0.07314500  0.74822500  0.86610600  1
  O  O25  1  0.92727900  0.25152700  0.13437700  1
  O  O26  1  0.62327000  0.73405500  0.87873800  1
  O  O27  1  0.37722300  0.26562100  0.12142000  1
