# generated using pymatgen
data_CsB(CF4)2
_symmetry_space_group_name_H-M   'P 1'
_cell_length_a   7.71397600
_cell_length_b   6.08203900
_cell_length_c   8.36858332
_cell_angle_alpha   79.19387431
_cell_angle_beta   90.00000000
_cell_angle_gamma   90.00000000
_symmetry_Int_Tables_number   1
_chemical_formula_structural   CsB(CF4)2
_chemical_formula_sum   'Cs2 B2 C4 F16'
_cell_volume   385.66397724
_cell_formula_units_Z   2
loop_
 _symmetry_equiv_pos_site_id
 _symmetry_equiv_pos_as_xyz
  1  'x, y, z'
loop_
 _atom_site_type_symbol
 _atom_site_label
 _atom_site_symmetry_multiplicity
 _atom_site_fract_x
 _atom_site_fract_y
 _atom_site_fract_z
 _atom_site_occupancy
  Cs  Cs0  1  0.75000000  0.98106800  0.22106000  1
  Cs  Cs1  1  0.25000000  0.01893200  0.77894000  1
  B  B2  1  0.25000000  0.68423600  0.20543700  1
  B  B3  1  0.75000000  0.31576400  0.79456300  1
  C  C4  1  0.75000000  0.57246600  0.83211300  1
  C  C5  1  0.75000000  0.30647700  0.59630700  1
  C  C6  1  0.25000000  0.42753400  0.16788700  1
  C  C7  1  0.25000000  0.69352300  0.40369300  1
  F  F8  1  0.75000000  0.51222900  0.49248400  1
  F  F9  1  0.60731200  0.69817600  0.77195600  1
  F  F10  1  0.09956900  0.79598800  0.13197000  1
  F  F11  1  0.59956900  0.20401200  0.86803000  1
  F  F12  1  0.10731200  0.30182400  0.22804400  1
  F  F13  1  0.39207600  0.80532900  0.45083900  1
  F  F14  1  0.89268800  0.69817600  0.77195600  1
  F  F15  1  0.90043100  0.20401200  0.86803000  1
  F  F16  1  0.39268800  0.30182400  0.22804400  1
  F  F17  1  0.10792400  0.80532900  0.45083900  1
  F  F18  1  0.89207600  0.19467100  0.54916100  1
  F  F19  1  0.25000000  0.42885200  0.00161600  1
  F  F20  1  0.40043100  0.79598800  0.13197000  1
  F  F21  1  0.75000000  0.57114800  0.99838400  1
  F  F22  1  0.25000000  0.48777100  0.50751600  1
  F  F23  1  0.60792400  0.19467100  0.54916100  1
