# generated using pymatgen
data_TiSO5
_symmetry_space_group_name_H-M   'P 1'
_cell_length_a   7.44215598
_cell_length_b   7.44215598
_cell_length_c   9.60813408
_cell_angle_alpha   89.91978510
_cell_angle_beta   89.91978510
_cell_angle_gamma   139.08553411
_symmetry_Int_Tables_number   1
_chemical_formula_structural   TiSO5
_chemical_formula_sum   'Ti4 S4 O20'
_cell_volume   348.52109634
_cell_formula_units_Z   4
loop_
 _symmetry_equiv_pos_site_id
 _symmetry_equiv_pos_as_xyz
  1  'x, y, z'
loop_
 _atom_site_type_symbol
 _atom_site_label
 _atom_site_symmetry_multiplicity
 _atom_site_fract_x
 _atom_site_fract_y
 _atom_site_fract_z
 _atom_site_occupancy
  Ti  Ti0  1  0.58860800  0.41139200  0.25000000  1
  Ti  Ti1  1  0.41139200  0.58860800  0.75000000  1
  Ti  Ti2  1  0.00000000  0.50000000  0.00000000  1
  Ti  Ti3  1  0.50000000  0.00000000  0.50000000  1
  S  S4  1  0.63991300  0.85648400  0.06566200  1
  S  S5  1  0.14351600  0.36008700  0.43433800  1
  S  S6  1  0.36008700  0.14351600  0.93433800  1
  S  S7  1  0.85648400  0.63991300  0.56566200  1
  O  O8  1  0.84188600  0.14663400  0.41698400  1
  O  O9  1  0.85336600  0.15811400  0.08301600  1
  O  O10  1  0.15811400  0.85336600  0.58301600  1
  O  O11  1  0.14663400  0.84188600  0.91698400  1
  O  O12  1  0.34522100  0.20481200  0.07884700  1
  O  O13  1  0.79518800  0.65477900  0.42115300  1
  O  O14  1  0.65477900  0.79518800  0.92115300  1
  O  O15  1  0.20481200  0.34522100  0.57884700  1
  O  O16  1  0.68929300  0.75347000  0.16823900  1
  O  O17  1  0.24653000  0.31070700  0.33176100  1
  O  O18  1  0.31070700  0.24653000  0.83176100  1
  O  O19  1  0.75347000  0.68929300  0.66823900  1
  O  O20  1  0.47241200  0.13047100  0.34380400  1
  O  O21  1  0.86952900  0.52758800  0.15619600  1
  O  O22  1  0.52758800  0.86952900  0.65619600  1
  O  O23  1  0.13047100  0.47241200  0.84380400  1
  O  O24  1  0.36456100  0.73397400  0.09037100  1
  O  O25  1  0.26602600  0.63543900  0.40962900  1
  O  O26  1  0.63543900  0.26602600  0.90962900  1
  O  O27  1  0.73397400  0.36456100  0.59037100  1
