# generated using pymatgen
data_Rb3Cr(HO)6
_symmetry_space_group_name_H-M   'P 1'
_cell_length_a   8.10938458
_cell_length_b   8.10938458
_cell_length_c   8.10938401
_cell_angle_alpha   85.64514002
_cell_angle_beta   85.64514002
_cell_angle_gamma   85.64513467
_symmetry_Int_Tables_number   1
_chemical_formula_structural   Rb3Cr(HO)6
_chemical_formula_sum   'Rb6 Cr2 H12 O12'
_cell_volume   528.89328488
_cell_formula_units_Z   2
loop_
 _symmetry_equiv_pos_site_id
 _symmetry_equiv_pos_as_xyz
  1  'x, y, z'
loop_
 _atom_site_type_symbol
 _atom_site_label
 _atom_site_symmetry_multiplicity
 _atom_site_fract_x
 _atom_site_fract_y
 _atom_site_fract_z
 _atom_site_occupancy
  Rb  Rb0  1  0.35836000  0.14164000  0.75000000  1
  Rb  Rb1  1  0.14164000  0.75000000  0.35836000  1
  Rb  Rb2  1  0.75000000  0.35836000  0.14164000  1
  Rb  Rb3  1  0.64164000  0.85836000  0.25000000  1
  Rb  Rb4  1  0.85836000  0.25000000  0.64164000  1
  Rb  Rb5  1  0.25000000  0.64164000  0.85836000  1
  Cr  Cr6  1  0.50000000  0.50000000  0.50000000  1
  Cr  Cr7  1  0.00000000  0.00000000  0.00000000  1
  H  H8  1  0.90521600  0.77951500  0.64021200  1
  H  H9  1  0.77951500  0.64021200  0.90521600  1
  H  H10  1  0.64021200  0.90521600  0.77951500  1
  H  H11  1  0.72048500  0.59478400  0.85978800  1
  H  H12  1  0.59478400  0.85978800  0.72048500  1
  H  H13  1  0.85978800  0.72048500  0.59478400  1
  H  H14  1  0.09478400  0.22048500  0.35978800  1
  H  H15  1  0.22048500  0.35978800  0.09478400  1
  H  H16  1  0.35978800  0.09478400  0.22048500  1
  H  H17  1  0.27951500  0.40521600  0.14021200  1
  H  H18  1  0.40521600  0.14021200  0.27951500  1
  H  H19  1  0.14021200  0.27951500  0.40521600  1
  O  O20  1  0.05359200  0.95483900  0.78523200  1
  O  O21  1  0.95483900  0.78523200  0.05359200  1
  O  O22  1  0.78523200  0.05359200  0.95483900  1
  O  O23  1  0.54516100  0.44640800  0.71476800  1
  O  O24  1  0.44640800  0.71476800  0.54516100  1
  O  O25  1  0.71476800  0.54516100  0.44640800  1
  O  O26  1  0.94640800  0.04516100  0.21476800  1
  O  O27  1  0.04516100  0.21476800  0.94640800  1
  O  O28  1  0.21476800  0.94640800  0.04516100  1
  O  O29  1  0.45483900  0.55359200  0.28523200  1
  O  O30  1  0.55359200  0.28523200  0.45483900  1
  O  O31  1  0.28523200  0.45483900  0.55359200  1
