# generated using pymatgen
data_Sr3Fe2Cu2S2O5
_symmetry_space_group_name_H-M   'P 1'
_cell_length_a   13.62087475
_cell_length_b   13.62087475
_cell_length_c   13.62087475
_cell_angle_alpha   163.26102040
_cell_angle_beta   163.26102040
_cell_angle_gamma   23.75823969
_symmetry_Int_Tables_number   1
_chemical_formula_structural   Sr3Fe2Cu2S2O5
_chemical_formula_sum   'Sr3 Fe2 Cu2 S2 O5'
_cell_volume   209.57267119
_cell_formula_units_Z   1
loop_
 _symmetry_equiv_pos_site_id
 _symmetry_equiv_pos_as_xyz
  1  'x, y, z'
loop_
 _atom_site_type_symbol
 _atom_site_label
 _atom_site_symmetry_multiplicity
 _atom_site_fract_x
 _atom_site_fract_y
 _atom_site_fract_z
 _atom_site_occupancy
  Sr  Sr0  1  0.50000000  0.50000000  0.00000000  1
  Sr  Sr1  1  0.64231600  0.64231600  0.00000000  1
  Sr  Sr2  1  0.35768400  0.35768400  0.00000000  1
  Fe  Fe3  1  0.07228600  0.07228600  0.00000000  1
  Fe  Fe4  1  0.92771400  0.92771400  0.00000000  1
  Cu  Cu5  1  0.75000000  0.25000000  0.50000000  1
  Cu  Cu6  1  0.25000000  0.75000000  0.50000000  1
  S  S7  1  0.19783100  0.19783100  0.00000000  1
  S  S8  1  0.80216900  0.80216900  0.00000000  1
  O  O9  1  0.58276000  0.08276000  0.50000000  1
  O  O10  1  0.08276000  0.58276000  0.50000000  1
  O  O11  1  0.41724000  0.91724000  0.50000000  1
  O  O12  1  0.91724000  0.41724000  0.50000000  1
  O  O13  1  0.00000000  0.00000000  0.00000000  1
