# generated using pymatgen
data_Nd2NiO4
_symmetry_space_group_name_H-M   'P 1'
_cell_length_a   5.57569500
_cell_length_b   5.57569500
_cell_length_c   12.14209100
_cell_angle_alpha   90.00000000
_cell_angle_beta   90.00000000
_cell_angle_gamma   90.00000000
_symmetry_Int_Tables_number   1
_chemical_formula_structural   Nd2NiO4
_chemical_formula_sum   'Nd8 Ni4 O16'
_cell_volume   377.47787505
_cell_formula_units_Z   4
loop_
 _symmetry_equiv_pos_site_id
 _symmetry_equiv_pos_as_xyz
  1  'x, y, z'
loop_
 _atom_site_type_symbol
 _atom_site_label
 _atom_site_symmetry_multiplicity
 _atom_site_fract_x
 _atom_site_fract_y
 _atom_site_fract_z
 _atom_site_occupancy
  Nd  Nd0  1  0.23322900  0.73322900  0.11317500  1
  Nd  Nd1  1  0.76677100  0.73322900  0.61317500  1
  Nd  Nd2  1  0.23322900  0.26677100  0.61317500  1
  Nd  Nd3  1  0.73322900  0.76677100  0.88682500  1
  Nd  Nd4  1  0.26677100  0.23322900  0.88682500  1
  Nd  Nd5  1  0.76677100  0.26677100  0.11317500  1
  Nd  Nd6  1  0.73322900  0.23322900  0.38682500  1
  Nd  Nd7  1  0.26677100  0.76677100  0.38682500  1
  Ni  Ni8  1  0.25000000  0.75000000  0.75000000  1
  Ni  Ni9  1  0.75000000  0.75000000  0.25000000  1
  Ni  Ni10  1  0.25000000  0.25000000  0.25000000  1
  Ni  Ni11  1  0.75000000  0.25000000  0.75000000  1
  O  O12  1  0.50000000  0.00000000  0.72000500  1
  O  O13  1  0.50000000  0.00000000  0.22000500  1
  O  O14  1  0.00000000  0.50000000  0.27999500  1
  O  O15  1  0.00000000  0.50000000  0.77999500  1
  O  O16  1  0.30380100  0.80380100  0.92998100  1
  O  O17  1  0.69619900  0.80380100  0.42998100  1
  O  O18  1  0.30380100  0.19619900  0.42998100  1
  O  O19  1  0.80380100  0.69619900  0.07001900  1
  O  O20  1  0.19619900  0.30380100  0.07001900  1
  O  O21  1  0.69619900  0.19619900  0.92998100  1
  O  O22  1  0.80380100  0.30380100  0.57001900  1
  O  O23  1  0.19619900  0.69619900  0.57001900  1
  O  O24  1  0.00000000  0.00000000  0.75000000  1
  O  O25  1  0.50000000  0.50000000  0.25000000  1
  O  O26  1  0.50000000  0.50000000  0.75000000  1
  O  O27  1  0.00000000  0.00000000  0.25000000  1
