# generated using pymatgen
data_Na3(FeS2)2
_symmetry_space_group_name_H-M   'P 1'
_cell_length_a   6.66314200
_cell_length_b   10.49862500
_cell_length_c   10.69988800
_cell_angle_alpha   90.00000000
_cell_angle_beta   90.00000000
_cell_angle_gamma   90.00000000
_symmetry_Int_Tables_number   1
_chemical_formula_structural   Na3(FeS2)2
_chemical_formula_sum   'Na12 Fe8 S16'
_cell_volume   748.49813739
_cell_formula_units_Z   4
loop_
 _symmetry_equiv_pos_site_id
 _symmetry_equiv_pos_as_xyz
  1  'x, y, z'
loop_
 _atom_site_type_symbol
 _atom_site_label
 _atom_site_symmetry_multiplicity
 _atom_site_fract_x
 _atom_site_fract_y
 _atom_site_fract_z
 _atom_site_occupancy
  Na  Na0  1  0.08210300  0.25000000  0.76514700  1
  Na  Na1  1  0.58210300  0.25000000  0.73485300  1
  Na  Na2  1  0.91789700  0.75000000  0.23485300  1
  Na  Na3  1  0.41789700  0.75000000  0.26514700  1
  Na  Na4  1  0.04311800  0.41510400  0.14363600  1
  Na  Na5  1  0.54311800  0.08489600  0.35636400  1
  Na  Na6  1  0.95688200  0.91510400  0.85636400  1
  Na  Na7  1  0.45688200  0.58489600  0.64363600  1
  Na  Na8  1  0.95688200  0.58489600  0.85636400  1
  Na  Na9  1  0.45688200  0.91510400  0.64363600  1
  Na  Na10  1  0.04311800  0.08489600  0.14363600  1
  Na  Na11  1  0.54311800  0.41510400  0.35636400  1
  Fe  Fe12  1  0.04603800  0.37405100  0.47114700  1
  Fe  Fe13  1  0.54603800  0.12594900  0.02885300  1
  Fe  Fe14  1  0.95396200  0.87405100  0.52885300  1
  Fe  Fe15  1  0.45396200  0.62594900  0.97114700  1
  Fe  Fe16  1  0.95396200  0.62594900  0.52885300  1
  Fe  Fe17  1  0.45396200  0.87405100  0.97114700  1
  Fe  Fe18  1  0.04603800  0.12594900  0.47114700  1
  Fe  Fe19  1  0.54603800  0.37405100  0.02885300  1
  S  S20  1  0.16533500  0.55186500  0.37721000  1
  S  S21  1  0.66533500  0.94813500  0.12279000  1
  S  S22  1  0.83466500  0.05186500  0.62279000  1
  S  S23  1  0.33466500  0.44813500  0.87721000  1
  S  S24  1  0.83466500  0.44813500  0.62279000  1
  S  S25  1  0.33466500  0.05186500  0.87721000  1
  S  S26  1  0.16533500  0.94813500  0.37721000  1
  S  S27  1  0.66533500  0.55186500  0.12279000  1
  S  S28  1  0.30503800  0.25000000  0.53773400  1
  S  S29  1  0.80503800  0.25000000  0.96226600  1
  S  S30  1  0.69496200  0.75000000  0.46226600  1
  S  S31  1  0.19496200  0.75000000  0.03773400  1
  S  S32  1  0.37657000  0.25000000  0.16472200  1
  S  S33  1  0.87657000  0.25000000  0.33527800  1
  S  S34  1  0.62343000  0.75000000  0.83527800  1
  S  S35  1  0.12343000  0.75000000  0.66472200  1
