# generated using pymatgen
data_Na2CrCuF7
_symmetry_space_group_name_H-M   'P 1'
_cell_length_a   7.20209100
_cell_length_b   7.64350100
_cell_length_c   10.48956800
_cell_angle_alpha   90.00000000
_cell_angle_beta   90.00000000
_cell_angle_gamma   90.00000000
_symmetry_Int_Tables_number   1
_chemical_formula_structural   Na2CrCuF7
_chemical_formula_sum   'Na8 Cr4 Cu4 F28'
_cell_volume   577.44221934
_cell_formula_units_Z   4
loop_
 _symmetry_equiv_pos_site_id
 _symmetry_equiv_pos_as_xyz
  1  'x, y, z'
loop_
 _atom_site_type_symbol
 _atom_site_label
 _atom_site_symmetry_multiplicity
 _atom_site_fract_x
 _atom_site_fract_y
 _atom_site_fract_z
 _atom_site_occupancy
  Na  Na0  1  0.00000000  0.50000000  0.00000000  1
  Na  Na1  1  0.50000000  0.50000000  0.00000000  1
  Na  Na2  1  0.00000000  0.00000000  0.50000000  1
  Na  Na3  1  0.50000000  0.00000000  0.50000000  1
  Na  Na4  1  0.25000000  0.22563500  0.75304200  1
  Na  Na5  1  0.75000000  0.77436500  0.24695800  1
  Na  Na6  1  0.75000000  0.72563500  0.74695800  1
  Na  Na7  1  0.25000000  0.27436500  0.25304200  1
  Cr  Cr8  1  0.25000000  0.72259400  0.75817800  1
  Cr  Cr9  1  0.75000000  0.27740600  0.24182200  1
  Cr  Cr10  1  0.75000000  0.22259400  0.74182200  1
  Cr  Cr11  1  0.25000000  0.77740600  0.25817800  1
  Cu  Cu12  1  0.00000000  0.00000000  0.00000000  1
  Cu  Cu13  1  0.50000000  0.00000000  0.00000000  1
  Cu  Cu14  1  0.00000000  0.50000000  0.50000000  1
  Cu  Cu15  1  0.50000000  0.50000000  0.50000000  1
  F  F16  1  0.25000000  0.09434200  0.99378700  1
  F  F17  1  0.75000000  0.90565800  0.00621300  1
  F  F18  1  0.75000000  0.59434200  0.50621300  1
  F  F19  1  0.25000000  0.40565800  0.49378700  1
  F  F20  1  0.25000000  0.95033000  0.67014300  1
  F  F21  1  0.75000000  0.04967000  0.32985700  1
  F  F22  1  0.75000000  0.45033000  0.82985700  1
  F  F23  1  0.25000000  0.54967000  0.17014300  1
  F  F24  1  0.25000000  0.49302600  0.84405100  1
  F  F25  1  0.75000000  0.50697400  0.15594900  1
  F  F26  1  0.75000000  0.99302600  0.65594900  1
  F  F27  1  0.25000000  0.00697400  0.34405100  1
  F  F28  1  0.95184200  0.15941900  0.85855700  1
  F  F29  1  0.45184200  0.84058100  0.14144300  1
  F  F30  1  0.04815800  0.65941900  0.64144300  1
  F  F31  1  0.54815800  0.34058100  0.35855700  1
  F  F32  1  0.04815800  0.84058100  0.14144300  1
  F  F33  1  0.54815800  0.15941900  0.85855700  1
  F  F34  1  0.95184200  0.34058100  0.35855700  1
  F  F35  1  0.45184200  0.65941900  0.64144300  1
  F  F36  1  0.04769100  0.77599200  0.87306100  1
  F  F37  1  0.54769100  0.22400800  0.12693900  1
  F  F38  1  0.95230900  0.27599200  0.62693900  1
  F  F39  1  0.45230900  0.72400800  0.37306100  1
  F  F40  1  0.95230900  0.22400800  0.12693900  1
  F  F41  1  0.45230900  0.77599200  0.87306100  1
  F  F42  1  0.04769100  0.72400800  0.37306100  1
  F  F43  1  0.54769100  0.27599200  0.62693900  1
