# generated using pymatgen
data_CsCu4Se3
_symmetry_space_group_name_H-M   'P 1'
_cell_length_a   4.10694500
_cell_length_b   4.10694500
_cell_length_c   10.14811900
_cell_angle_alpha   90.00000000
_cell_angle_beta   90.00000000
_cell_angle_gamma   90.00000000
_symmetry_Int_Tables_number   1
_chemical_formula_structural   CsCu4Se3
_chemical_formula_sum   'Cs1 Cu4 Se3'
_cell_volume   171.16829509
_cell_formula_units_Z   1
loop_
 _symmetry_equiv_pos_site_id
 _symmetry_equiv_pos_as_xyz
  1  'x, y, z'
loop_
 _atom_site_type_symbol
 _atom_site_label
 _atom_site_symmetry_multiplicity
 _atom_site_fract_x
 _atom_site_fract_y
 _atom_site_fract_z
 _atom_site_occupancy
  Cs  Cs0  1  0.00000000  0.00000000  0.50000000  1
  Cu  Cu1  1  0.00000000  0.50000000  0.15142300  1
  Cu  Cu2  1  0.50000000  0.00000000  0.84857700  1
  Cu  Cu3  1  0.50000000  0.00000000  0.15142300  1
  Cu  Cu4  1  0.00000000  0.50000000  0.84857700  1
  Se  Se5  1  0.50000000  0.50000000  0.72005600  1
  Se  Se6  1  0.50000000  0.50000000  0.27994400  1
  Se  Se7  1  0.00000000  0.00000000  0.00000000  1
