# generated using pymatgen
data_U2V2O11
_symmetry_space_group_name_H-M   'P 1'
_cell_length_a   13.21955800
_cell_length_b   6.14980800
_cell_length_c   7.37200325
_cell_angle_alpha   59.84396113
_cell_angle_beta   90.00000000
_cell_angle_gamma   90.00000000
_symmetry_Int_Tables_number   1
_chemical_formula_structural   U2V2O11
_chemical_formula_sum   'U4 V4 O22'
_cell_volume   518.21458072
_cell_formula_units_Z   2
loop_
 _symmetry_equiv_pos_site_id
 _symmetry_equiv_pos_as_xyz
  1  'x, y, z'
loop_
 _atom_site_type_symbol
 _atom_site_label
 _atom_site_symmetry_multiplicity
 _atom_site_fract_x
 _atom_site_fract_y
 _atom_site_fract_z
 _atom_site_occupancy
  U  U0  1  0.67702100  0.16088700  0.17132600  1
  U  U1  1  0.17702100  0.83911300  0.32867400  1
  U  U2  1  0.32297900  0.83911300  0.82867400  1
  U  U3  1  0.82297900  0.16088700  0.67132600  1
  V  V4  1  0.92977700  0.21205300  0.14598400  1
  V  V5  1  0.42977700  0.78794700  0.35401600  1
  V  V6  1  0.07022300  0.78794700  0.85401600  1
  V  V7  1  0.57022300  0.21205300  0.64598400  1
  O  O8  1  0.51192500  0.03527600  0.23970900  1
  O  O9  1  0.01192500  0.96472400  0.26029100  1
  O  O10  1  0.48807500  0.96472400  0.76029100  1
  O  O11  1  0.98807500  0.03527600  0.73970900  1
  O  O12  1  0.65729600  0.17652900  0.48667600  1
  O  O13  1  0.15729600  0.82347100  0.01332400  1
  O  O14  1  0.34270400  0.82347100  0.51332400  1
  O  O15  1  0.84270400  0.17652900  0.98667600  1
  O  O16  1  0.50000000  0.50000000  0.50000000  1
  O  O17  1  0.00000000  0.50000000  0.00000000  1
  O  O18  1  0.84655200  0.20730800  0.32981800  1
  O  O19  1  0.34655200  0.79269200  0.17018200  1
  O  O20  1  0.15344800  0.79269200  0.67018200  1
  O  O21  1  0.65344800  0.20730800  0.82981800  1
  O  O22  1  0.79722900  0.83019100  0.80247700  1
  O  O23  1  0.64410000  0.48704400  0.04505700  1
  O  O24  1  0.20277100  0.16980900  0.19752300  1
  O  O25  1  0.70277100  0.83019100  0.30247700  1
  O  O26  1  0.85590000  0.48704400  0.54505700  1
  O  O27  1  0.35590000  0.51295600  0.95494300  1
  O  O28  1  0.14410000  0.51295600  0.45494300  1
  O  O29  1  0.29722900  0.16980900  0.69752300  1
