# generated using pymatgen
data_USiSe
_symmetry_space_group_name_H-M   'P 1'
_cell_length_a   8.73914415
_cell_length_b   8.73914415
_cell_length_c   8.73914415
_cell_angle_alpha   154.31997635
_cell_angle_beta   154.31997635
_cell_angle_gamma   36.63469140
_symmetry_Int_Tables_number   1
_chemical_formula_structural   USiSe
_chemical_formula_sum   'U2 Si2 Se2'
_cell_volume   125.16624163
_cell_formula_units_Z   2
loop_
 _symmetry_equiv_pos_site_id
 _symmetry_equiv_pos_as_xyz
  1  'x, y, z'
loop_
 _atom_site_type_symbol
 _atom_site_label
 _atom_site_symmetry_multiplicity
 _atom_site_fract_x
 _atom_site_fract_y
 _atom_site_fract_z
 _atom_site_occupancy
  U  U0  1  0.86791600  0.86791600  0.00000000  1
  U  U1  1  0.13208400  0.13208400  0.00000000  1
  Si  Si2  1  0.00000000  0.50000000  0.50000000  1
  Si  Si3  1  0.50000000  0.00000000  0.50000000  1
  Se  Se4  1  0.68408100  0.68408100  0.00000000  1
  Se  Se5  1  0.31591900  0.31591900  0.00000000  1
