# generated using pymatgen
data_Cs2RbFe(CN)6
_symmetry_space_group_name_H-M   'P 1'
_cell_length_a   8.35668000
_cell_length_b   7.85765400
_cell_length_c   13.78553333
_cell_angle_alpha   55.70686286
_cell_angle_beta   90.00000000
_cell_angle_gamma   90.00000000
_symmetry_Int_Tables_number   1
_chemical_formula_structural   Cs2RbFe(CN)6
_chemical_formula_sum   'Cs4 Rb2 Fe2 C12 N12'
_cell_volume   747.85508772
_cell_formula_units_Z   2
loop_
 _symmetry_equiv_pos_site_id
 _symmetry_equiv_pos_as_xyz
  1  'x, y, z'
loop_
 _atom_site_type_symbol
 _atom_site_label
 _atom_site_symmetry_multiplicity
 _atom_site_fract_x
 _atom_site_fract_y
 _atom_site_fract_z
 _atom_site_occupancy
  Cs  Cs0  1  0.92982300  0.72702000  0.75181800  1
  Cs  Cs1  1  0.42982300  0.27298000  0.74818200  1
  Cs  Cs2  1  0.07017700  0.27298000  0.24818200  1
  Cs  Cs3  1  0.57017700  0.72702000  0.25181800  1
  Rb  Rb4  1  0.00000000  0.50000000  0.50000000  1
  Rb  Rb5  1  0.50000000  0.50000000  0.00000000  1
  Fe  Fe6  1  0.00000000  0.00000000  0.00000000  1
  Fe  Fe7  1  0.50000000  0.00000000  0.50000000  1
  C  C8  1  0.02772200  0.08077100  0.84186000  1
  C  C9  1  0.52772200  0.91922900  0.65814000  1
  C  C10  1  0.97227800  0.91922900  0.15814000  1
  C  C11  1  0.47227800  0.08077100  0.34186000  1
  C  C12  1  0.11900600  0.23539800  0.96613500  1
  C  C13  1  0.61900600  0.76460200  0.53386500  1
  C  C14  1  0.88099400  0.76460200  0.03386500  1
  C  C15  1  0.38099400  0.23539800  0.46613500  1
  C  C16  1  0.19306500  0.84143500  0.04430800  1
  C  C17  1  0.69306500  0.15856500  0.45569200  1
  C  C18  1  0.80693500  0.15856500  0.95569200  1
  C  C19  1  0.30693500  0.84143500  0.54430800  1
  N  N20  1  0.04783000  0.12876400  0.74489000  1
  N  N21  1  0.54783000  0.87123600  0.75511000  1
  N  N22  1  0.95217000  0.87123600  0.25511000  1
  N  N23  1  0.45217000  0.12876400  0.24489000  1
  N  N24  1  0.19052900  0.38277900  0.94352600  1
  N  N25  1  0.69052900  0.61722100  0.55647400  1
  N  N26  1  0.80947100  0.61722100  0.05647400  1
  N  N27  1  0.30947100  0.38277900  0.44352600  1
  N  N28  1  0.31095200  0.74204700  0.07229900  1
  N  N29  1  0.81095200  0.25795300  0.42770100  1
  N  N30  1  0.68904800  0.25795300  0.92770100  1
  N  N31  1  0.18904800  0.74204700  0.57229900  1
