# generated using pymatgen
data_Eu2GeSe4
_symmetry_space_group_name_H-M   'P 1'
_cell_length_a   7.02367300
_cell_length_b   7.00886500
_cell_length_c   8.43232899
_cell_angle_alpha   72.19243799
_cell_angle_beta   90.00000000
_cell_angle_gamma   90.00000000
_symmetry_Int_Tables_number   1
_chemical_formula_structural   Eu2GeSe4
_chemical_formula_sum   'Eu4 Ge2 Se8'
_cell_volume   395.21833699
_cell_formula_units_Z   2
loop_
 _symmetry_equiv_pos_site_id
 _symmetry_equiv_pos_as_xyz
  1  'x, y, z'
loop_
 _atom_site_type_symbol
 _atom_site_label
 _atom_site_symmetry_multiplicity
 _atom_site_fract_x
 _atom_site_fract_y
 _atom_site_fract_z
 _atom_site_occupancy
  Eu  Eu0  1  0.75000000  0.27158100  0.05631000  1
  Eu  Eu1  1  0.25000000  0.72841900  0.94369000  1
  Eu  Eu2  1  0.25000000  0.75181200  0.43669700  1
  Eu  Eu3  1  0.75000000  0.24818800  0.56330300  1
  Ge  Ge4  1  0.75000000  0.73073800  0.19667900  1
  Ge  Ge5  1  0.25000000  0.26926200  0.80332100  1
  Se  Se6  1  0.49125100  0.49849000  0.25769100  1
  Se  Se7  1  0.75000000  0.91368100  0.90719100  1
  Se  Se8  1  0.25000000  0.08631900  0.09280900  1
  Se  Se9  1  0.00874900  0.49849000  0.25769100  1
  Se  Se10  1  0.25000000  0.07533400  0.61454500  1
  Se  Se11  1  0.99125100  0.50151000  0.74230900  1
  Se  Se12  1  0.50874900  0.50151000  0.74230900  1
  Se  Se13  1  0.75000000  0.92466600  0.38545500  1
