# generated using pymatgen
data_CeP3H8O7
_symmetry_space_group_name_H-M   'P 1'
_cell_length_a   7.23863900
_cell_length_b   8.08033531
_cell_length_c   9.04428546
_cell_angle_alpha   110.74993664
_cell_angle_beta   97.57883586
_cell_angle_gamma   104.93029721
_symmetry_Int_Tables_number   1
_chemical_formula_structural   CeP3H8O7
_chemical_formula_sum   'Ce2 P6 H16 O14'
_cell_volume   463.18246526
_cell_formula_units_Z   2
loop_
 _symmetry_equiv_pos_site_id
 _symmetry_equiv_pos_as_xyz
  1  'x, y, z'
loop_
 _atom_site_type_symbol
 _atom_site_label
 _atom_site_symmetry_multiplicity
 _atom_site_fract_x
 _atom_site_fract_y
 _atom_site_fract_z
 _atom_site_occupancy
  Ce  Ce0  1  0.34642400  0.18777500  0.13232300  1
  Ce  Ce1  1  0.65357600  0.81222500  0.86767700  1
  P  P2  1  0.85213400  0.18604200  0.26641700  1
  P  P3  1  0.14786600  0.81395800  0.73358300  1
  P  P4  1  0.03165900  0.78161200  0.18935700  1
  P  P5  1  0.96834100  0.21838800  0.81064300  1
  P  P6  1  0.46965500  0.31098600  0.58605000  1
  P  P7  1  0.53034500  0.68901400  0.41395000  1
  H  H8  1  0.86752600  0.37767300  0.32344000  1
  H  H9  1  0.13247400  0.62232700  0.67656000  1
  H  H10  1  0.84953300  0.14625800  0.40698900  1
  H  H11  1  0.15046700  0.85374200  0.59301100  1
  H  H12  1  0.04847900  0.61701800  0.20475100  1
  H  H13  1  0.95152100  0.38298200  0.79524900  1
  H  H14  1  0.04024200  0.90112800  0.35124200  1
  H  H15  1  0.95975800  0.09887200  0.64875800  1
  H  H16  1  0.46393000  0.15317000  0.62280400  1
  H  H17  1  0.53607000  0.84683000  0.37719600  1
  H  H18  1  0.27589200  0.32118700  0.58342200  1
  H  H19  1  0.72410800  0.67881300  0.41657800  1
  H  H20  1  0.68034700  0.28359000  0.97083000  1
  H  H21  1  0.31965300  0.71641000  0.02917000  1
  H  H22  1  0.66805200  0.49086900  0.04835200  1
  H  H23  1  0.33194800  0.50913100  0.95164800  1
  O  O24  1  0.03515800  0.15992000  0.20968300  1
  O  O25  1  0.96484200  0.84008000  0.79031700  1
  O  O26  1  0.65485200  0.06744900  0.14026900  1
  O  O27  1  0.34514800  0.93255100  0.85973100  1
  O  O28  1  0.21590500  0.86782300  0.14186800  1
  O  O29  1  0.78409500  0.13217700  0.85813200  1
  O  O30  1  0.82845800  0.73187200  0.08058000  1
  O  O31  1  0.17154200  0.26812800  0.91942000  1
  O  O32  1  0.61631400  0.48315400  0.72659200  1
  O  O33  1  0.38368600  0.51684600  0.27340800  1
  O  O34  1  0.50125800  0.26782200  0.41481000  1
  O  O35  1  0.49874200  0.73217800  0.58519000  1
  O  O36  1  0.62224900  0.36495200  0.04872800  1
  O  O37  1  0.37775100  0.63504800  0.95127200  1
