# generated using pymatgen
data_Mn3BO5
_symmetry_space_group_name_H-M   'P 1'
_cell_length_a   3.17531600
_cell_length_b   9.57503600
_cell_length_c   12.85941700
_cell_angle_alpha   90.00000000
_cell_angle_beta   90.00000000
_cell_angle_gamma   90.00000000
_symmetry_Int_Tables_number   1
_chemical_formula_structural   Mn3BO5
_chemical_formula_sum   'Mn12 B4 O20'
_cell_volume   390.97469265
_cell_formula_units_Z   4
loop_
 _symmetry_equiv_pos_site_id
 _symmetry_equiv_pos_as_xyz
  1  'x, y, z'
loop_
 _atom_site_type_symbol
 _atom_site_label
 _atom_site_symmetry_multiplicity
 _atom_site_fract_x
 _atom_site_fract_y
 _atom_site_fract_z
 _atom_site_occupancy
  Mn  Mn0  1  0.50000000  0.00582100  0.27842400  1
  Mn  Mn1  1  0.50000000  0.99417900  0.72157600  1
  Mn  Mn2  1  0.50000000  0.50582100  0.22157600  1
  Mn  Mn3  1  0.50000000  0.49417900  0.77842400  1
  Mn  Mn4  1  0.50000000  0.00000000  0.00000000  1
  Mn  Mn5  1  0.50000000  0.50000000  0.50000000  1
  Mn  Mn6  1  0.00000000  0.50000000  0.00000000  1
  Mn  Mn7  1  0.00000000  0.00000000  0.50000000  1
  Mn  Mn8  1  0.00000000  0.24054600  0.11743200  1
  Mn  Mn9  1  0.00000000  0.75945400  0.88256800  1
  Mn  Mn10  1  0.00000000  0.74054600  0.38256800  1
  Mn  Mn11  1  0.00000000  0.25945400  0.61743200  1
  B  B12  1  0.00000000  0.27986500  0.35954500  1
  B  B13  1  0.00000000  0.72013500  0.64045500  1
  B  B14  1  0.00000000  0.77986500  0.14045500  1
  B  B15  1  0.00000000  0.22013500  0.85954500  1
  O  O16  1  0.00000000  0.14908000  0.95426800  1
  O  O17  1  0.00000000  0.85092000  0.04573200  1
  O  O18  1  0.00000000  0.64908000  0.54573200  1
  O  O19  1  0.00000000  0.35092000  0.45426800  1
  O  O20  1  0.50000000  0.10409500  0.13841700  1
  O  O21  1  0.50000000  0.89590500  0.86158300  1
  O  O22  1  0.50000000  0.60409500  0.36158300  1
  O  O23  1  0.50000000  0.39590500  0.63841700  1
  O  O24  1  0.00000000  0.13419600  0.35599700  1
  O  O25  1  0.00000000  0.86580400  0.64400300  1
  O  O26  1  0.00000000  0.63419600  0.14400300  1
  O  O27  1  0.00000000  0.36580400  0.85599700  1
  O  O28  1  0.50000000  0.38915900  0.08065500  1
  O  O29  1  0.50000000  0.61084100  0.91934500  1
  O  O30  1  0.50000000  0.88915900  0.41934500  1
  O  O31  1  0.50000000  0.11084100  0.58065500  1
  O  O32  1  0.00000000  0.35448100  0.26663800  1
  O  O33  1  0.00000000  0.64551900  0.73336200  1
  O  O34  1  0.00000000  0.85448100  0.23336200  1
  O  O35  1  0.00000000  0.14551900  0.76663800  1
