# generated using pymatgen
data_Sr4Fe6O13
_symmetry_space_group_name_H-M   'P 1'
_cell_length_a   11.71899049
_cell_length_b   11.71899049
_cell_length_c   11.71899049
_cell_angle_alpha   153.05538595
_cell_angle_beta   123.22258213
_cell_angle_gamma   63.93835310
_symmetry_Int_Tables_number   1
_chemical_formula_structural   Sr4Fe6O13
_chemical_formula_sum   'Sr8 Fe12 O26'
_cell_volume   604.94041798
_cell_formula_units_Z   2
loop_
 _symmetry_equiv_pos_site_id
 _symmetry_equiv_pos_as_xyz
  1  'x, y, z'
loop_
 _atom_site_type_symbol
 _atom_site_label
 _atom_site_symmetry_multiplicity
 _atom_site_fract_x
 _atom_site_fract_y
 _atom_site_fract_z
 _atom_site_occupancy
  Sr  Sr0  1  0.21644200  0.85327000  0.38088100  1
  Sr  Sr1  1  0.78355800  0.16443900  0.63682900  1
  Sr  Sr2  1  0.47238900  0.35327000  0.13682900  1
  Sr  Sr3  1  0.52761100  0.66443900  0.88088100  1
  Sr  Sr4  1  0.03568100  0.66512000  0.37432400  1
  Sr  Sr5  1  0.96431900  0.33864300  0.62943900  1
  Sr  Sr6  1  0.29079600  0.16512000  0.12943900  1
  Sr  Sr7  1  0.70920400  0.83864300  0.87432400  1
  Fe  Fe8  1  0.66307100  0.61014900  0.20490300  1
  Fe  Fe9  1  0.33692900  0.54183200  0.94707800  1
  Fe  Fe10  1  0.40524600  0.11014900  0.44707800  1
  Fe  Fe11  1  0.59475400  0.04183200  0.70490300  1
  Fe  Fe12  1  0.05560800  0.96355900  0.11554300  1
  Fe  Fe13  1  0.94439200  0.05993500  0.90795100  1
  Fe  Fe14  1  0.84801600  0.46355900  0.40795100  1
  Fe  Fe15  1  0.15198400  0.55993500  0.61554300  1
  Fe  Fe16  1  0.87509300  0.75467100  0.12605200  1
  Fe  Fe17  1  0.12490700  0.25096000  0.87957800  1
  Fe  Fe18  1  0.62861800  0.25467100  0.37957800  1
  Fe  Fe19  1  0.37138200  0.75096000  0.62605200  1
  O  O20  1  0.75862100  0.62885400  0.13583800  1
  O  O21  1  0.24137900  0.37721700  0.87023300  1
  O  O22  1  0.49301500  0.12885400  0.37023300  1
  O  O23  1  0.50698500  0.87721700  0.63583800  1
  O  O24  1  0.96976400  0.84297200  0.10158900  1
  O  O25  1  0.03023600  0.13182500  0.87320700  1
  O  O26  1  0.74138300  0.34297200  0.37320700  1
  O  O27  1  0.25861700  0.63182500  0.60158900  1
  O  O28  1  0.74287400  0.99760200  0.25953900  1
  O  O29  1  0.25712600  0.51666500  0.25472900  1
  O  O30  1  0.73806400  0.49760200  0.75472900  1
  O  O31  1  0.26193600  0.01666500  0.75953900  1
  O  O32  1  0.00321800  0.00396400  0.50253300  1
  O  O33  1  0.99678200  0.49931500  0.00074600  1
  O  O34  1  0.50143100  0.50396400  0.50074600  1
  O  O35  1  0.49856900  0.99931500  0.00253300  1
  O  O36  1  0.75866800  0.94459300  0.63089600  1
  O  O37  1  0.24133200  0.87222800  0.18592500  1
  O  O38  1  0.31369700  0.44459300  0.68592500  1
  O  O39  1  0.68630300  0.37222800  0.13089600  1
  O  O40  1  0.97007800  0.42305400  0.30044300  1
  O  O41  1  0.02992200  0.33036500  0.45297600  1
  O  O42  1  0.12261000  0.92305400  0.95297600  1
  O  O43  1  0.87739000  0.83036500  0.80044300  1
  O  O44  1  0.50000000  0.80061800  0.30061800  1
  O  O45  1  0.50000000  0.30061800  0.80061800  1
