# generated using pymatgen
data_Na3(FeSe2)2
_symmetry_space_group_name_H-M   'P 1'
_cell_length_a   6.97582100
_cell_length_b   10.83517500
_cell_length_c   11.26108600
_cell_angle_alpha   90.00000000
_cell_angle_beta   90.00000000
_cell_angle_gamma   90.00000000
_symmetry_Int_Tables_number   1
_chemical_formula_structural   Na3(FeSe2)2
_chemical_formula_sum   'Na12 Fe8 Se16'
_cell_volume   851.16064157
_cell_formula_units_Z   4
loop_
 _symmetry_equiv_pos_site_id
 _symmetry_equiv_pos_as_xyz
  1  'x, y, z'
loop_
 _atom_site_type_symbol
 _atom_site_label
 _atom_site_symmetry_multiplicity
 _atom_site_fract_x
 _atom_site_fract_y
 _atom_site_fract_z
 _atom_site_occupancy
  Na  Na0  1  0.07457200  0.25000000  0.75640100  1
  Na  Na1  1  0.57457200  0.25000000  0.74359900  1
  Na  Na2  1  0.92542800  0.75000000  0.24359900  1
  Na  Na3  1  0.42542800  0.75000000  0.25640100  1
  Na  Na4  1  0.05108100  0.41868500  0.14101800  1
  Na  Na5  1  0.55108100  0.08131500  0.35898200  1
  Na  Na6  1  0.94891900  0.91868500  0.85898200  1
  Na  Na7  1  0.44891900  0.58131500  0.64101800  1
  Na  Na8  1  0.94891900  0.58131500  0.85898200  1
  Na  Na9  1  0.44891900  0.91868500  0.64101800  1
  Na  Na10  1  0.05108100  0.08131500  0.14101800  1
  Na  Na11  1  0.55108100  0.41868500  0.35898200  1
  Fe  Fe12  1  0.04632100  0.37255600  0.47119500  1
  Fe  Fe13  1  0.54632100  0.12744400  0.02880500  1
  Fe  Fe14  1  0.95367900  0.87255600  0.52880500  1
  Fe  Fe15  1  0.45367900  0.62744400  0.97119500  1
  Fe  Fe16  1  0.95367900  0.62744400  0.52880500  1
  Fe  Fe17  1  0.45367900  0.87255600  0.97119500  1
  Fe  Fe18  1  0.04632100  0.12744400  0.47119500  1
  Fe  Fe19  1  0.54632100  0.37255600  0.02880500  1
  Se  Se20  1  0.31321800  0.25000000  0.53910600  1
  Se  Se21  1  0.81321800  0.25000000  0.96089400  1
  Se  Se22  1  0.68678200  0.75000000  0.46089400  1
  Se  Se23  1  0.18678200  0.75000000  0.03910600  1
  Se  Se24  1  0.37891700  0.25000000  0.17113200  1
  Se  Se25  1  0.87891700  0.25000000  0.32886800  1
  Se  Se26  1  0.62108300  0.75000000  0.82886800  1
  Se  Se27  1  0.12108300  0.75000000  0.67113200  1
  Se  Se28  1  0.17195000  0.55481700  0.37693800  1
  Se  Se29  1  0.67195000  0.94518300  0.12306200  1
  Se  Se30  1  0.82805000  0.05481700  0.62306200  1
  Se  Se31  1  0.32805000  0.44518300  0.87693800  1
  Se  Se32  1  0.82805000  0.44518300  0.62306200  1
  Se  Se33  1  0.32805000  0.05481700  0.87693800  1
  Se  Se34  1  0.17195000  0.94518300  0.37693800  1
  Se  Se35  1  0.67195000  0.55481700  0.12306200  1
