# generated using pymatgen
data_Al3(Co10B3)2
_symmetry_space_group_name_H-M   'P 1'
_cell_length_a   7.39881746
_cell_length_b   7.39881746
_cell_length_c   7.39881746
_cell_angle_alpha   60.00000000
_cell_angle_beta   60.00000000
_cell_angle_gamma   60.00000000
_symmetry_Int_Tables_number   1
_chemical_formula_structural   Al3(Co10B3)2
_chemical_formula_sum   'Al3 Co20 B6'
_cell_volume   286.39929247
_cell_formula_units_Z   1
loop_
 _symmetry_equiv_pos_site_id
 _symmetry_equiv_pos_as_xyz
  1  'x, y, z'
loop_
 _atom_site_type_symbol
 _atom_site_label
 _atom_site_symmetry_multiplicity
 _atom_site_fract_x
 _atom_site_fract_y
 _atom_site_fract_z
 _atom_site_occupancy
  Al  Al0  1  0.00000000  0.00000000  0.00000000  1
  Al  Al1  1  0.75000000  0.75000000  0.75000000  1
  Al  Al2  1  0.25000000  0.25000000  0.25000000  1
  Co  Co3  1  0.61754700  0.14735900  0.61754700  1
  Co  Co4  1  0.38245300  0.38245300  0.85264100  1
  Co  Co5  1  0.85264100  0.38245300  0.38245300  1
  Co  Co6  1  0.38245300  0.38245300  0.38245300  1
  Co  Co7  1  0.14735900  0.61754700  0.61754700  1
  Co  Co8  1  0.61754700  0.61754700  0.61754700  1
  Co  Co9  1  0.61754700  0.61754700  0.14735900  1
  Co  Co10  1  0.38245300  0.85264100  0.38245300  1
  Co  Co11  1  0.65961500  0.34038500  0.00000000  1
  Co  Co12  1  0.00000000  0.34038500  0.65961500  1
  Co  Co13  1  0.65961500  0.00000000  0.00000000  1
  Co  Co14  1  0.00000000  0.00000000  0.34038500  1
  Co  Co15  1  0.00000000  0.00000000  0.65961500  1
  Co  Co16  1  0.00000000  0.34038500  0.00000000  1
  Co  Co17  1  0.65961500  0.00000000  0.34038500  1
  Co  Co18  1  0.34038500  0.00000000  0.00000000  1
  Co  Co19  1  0.00000000  0.65961500  0.00000000  1
  Co  Co20  1  0.34038500  0.00000000  0.65961500  1
  Co  Co21  1  0.00000000  0.65961500  0.34038500  1
  Co  Co22  1  0.34038500  0.65961500  0.00000000  1
  B  B23  1  0.27662700  0.27662700  0.72337300  1
  B  B24  1  0.27662700  0.72337300  0.72337300  1
  B  B25  1  0.72337300  0.27662700  0.27662700  1
  B  B26  1  0.27662700  0.72337300  0.27662700  1
  B  B27  1  0.72337300  0.27662700  0.72337300  1
  B  B28  1  0.72337300  0.72337300  0.27662700  1
