# generated using pymatgen
data_Mn5(NiBi2)2
_symmetry_space_group_name_H-M   'P 1'
_cell_length_a   8.50716916
_cell_length_b   8.50716916
_cell_length_c   8.50716916
_cell_angle_alpha   60.00000000
_cell_angle_beta   60.00000000
_cell_angle_gamma   60.00000000
_symmetry_Int_Tables_number   1
_chemical_formula_structural   Mn5(NiBi2)2
_chemical_formula_sum   'Mn10 Ni4 Bi8'
_cell_volume   435.35166277
_cell_formula_units_Z   2
loop_
 _symmetry_equiv_pos_site_id
 _symmetry_equiv_pos_as_xyz
  1  'x, y, z'
loop_
 _atom_site_type_symbol
 _atom_site_label
 _atom_site_symmetry_multiplicity
 _atom_site_fract_x
 _atom_site_fract_y
 _atom_site_fract_z
 _atom_site_occupancy
  Mn  Mn0  1  0.91662500  0.25012400  0.91662500  1
  Mn  Mn1  1  0.91662500  0.91662500  0.25012400  1
  Mn  Mn2  1  0.25012400  0.91662500  0.91662500  1
  Mn  Mn3  1  0.91662500  0.91662500  0.91662500  1
  Mn  Mn4  1  0.50556300  0.50556300  0.99443700  1
  Mn  Mn5  1  0.99443700  0.50556300  0.50556300  1
  Mn  Mn6  1  0.50556300  0.99443700  0.99443700  1
  Mn  Mn7  1  0.99443700  0.99443700  0.50556300  1
  Mn  Mn8  1  0.99443700  0.50556300  0.99443700  1
  Mn  Mn9  1  0.50556300  0.99443700  0.50556300  1
  Ni  Ni10  1  0.12233200  0.63300400  0.12233200  1
  Ni  Ni11  1  0.12233200  0.12233200  0.63300400  1
  Ni  Ni12  1  0.63300400  0.12233200  0.12233200  1
  Ni  Ni13  1  0.12233200  0.12233200  0.12233200  1
  Bi  Bi14  1  0.75000000  0.75000000  0.75000000  1
  Bi  Bi15  1  0.25000000  0.25000000  0.25000000  1
  Bi  Bi16  1  0.28927000  0.28927000  0.71073000  1
  Bi  Bi17  1  0.71073000  0.28927000  0.28927000  1
  Bi  Bi18  1  0.28927000  0.71073000  0.71073000  1
  Bi  Bi19  1  0.71073000  0.71073000  0.28927000  1
  Bi  Bi20  1  0.71073000  0.28927000  0.71073000  1
  Bi  Bi21  1  0.28927000  0.71073000  0.28927000  1
