# generated using pymatgen
data_In3Au10
_symmetry_space_group_name_H-M   'P 1'
_cell_length_a   10.90734761
_cell_length_b   10.90734761
_cell_length_c   4.79678200
_cell_angle_alpha   90.00000000
_cell_angle_beta   90.00000000
_cell_angle_gamma   119.99999761
_symmetry_Int_Tables_number   1
_chemical_formula_structural   In3Au10
_chemical_formula_sum   'In6 Au20'
_cell_volume   494.21842386
_cell_formula_units_Z   2
loop_
 _symmetry_equiv_pos_site_id
 _symmetry_equiv_pos_as_xyz
  1  'x, y, z'
loop_
 _atom_site_type_symbol
 _atom_site_label
 _atom_site_symmetry_multiplicity
 _atom_site_fract_x
 _atom_site_fract_y
 _atom_site_fract_z
 _atom_site_occupancy
  In  In0  1  0.63862000  0.74400600  0.25000000  1
  In  In1  1  0.25599400  0.89461400  0.25000000  1
  In  In2  1  0.10538600  0.36138000  0.25000000  1
  In  In3  1  0.36138000  0.25599400  0.75000000  1
  In  In4  1  0.74400600  0.10538600  0.75000000  1
  In  In5  1  0.89461400  0.63862000  0.75000000  1
  Au  Au6  1  0.87749500  0.05814100  0.25000000  1
  Au  Au7  1  0.94185900  0.81935400  0.25000000  1
  Au  Au8  1  0.18064600  0.12250500  0.25000000  1
  Au  Au9  1  0.12250500  0.94185900  0.75000000  1
  Au  Au10  1  0.05814100  0.18064600  0.75000000  1
  Au  Au11  1  0.81935400  0.87749500  0.75000000  1
  Au  Au12  1  0.56451400  0.97423500  0.25000000  1
  Au  Au13  1  0.02576500  0.59027900  0.25000000  1
  Au  Au14  1  0.40972100  0.43548600  0.25000000  1
  Au  Au15  1  0.43548600  0.02576500  0.75000000  1
  Au  Au16  1  0.97423500  0.40972100  0.75000000  1
  Au  Au17  1  0.59027900  0.56451400  0.75000000  1
  Au  Au18  1  0.79598600  0.28444600  0.25000000  1
  Au  Au19  1  0.71555400  0.51154000  0.25000000  1
  Au  Au20  1  0.48846000  0.20401400  0.25000000  1
  Au  Au21  1  0.20401400  0.71555400  0.75000000  1
  Au  Au22  1  0.28444600  0.48846000  0.75000000  1
  Au  Au23  1  0.51154000  0.79598600  0.75000000  1
  Au  Au24  1  0.66666700  0.33333300  0.75000000  1
  Au  Au25  1  0.33333300  0.66666700  0.25000000  1
