# generated using pymatgen
data_CoH20S2(NO7)2
_symmetry_space_group_name_H-M   'P 1'
_cell_length_a   12.63487800
_cell_length_b   6.31082800
_cell_length_c   9.27937983
_cell_angle_alpha   72.41656326
_cell_angle_beta   90.00000000
_cell_angle_gamma   90.00000000
_symmetry_Int_Tables_number   1
_chemical_formula_structural   CoH20S2(NO7)2
_chemical_formula_sum   'Co2 H40 S4 N4 O28'
_cell_volume   705.33581434
_cell_formula_units_Z   2
loop_
 _symmetry_equiv_pos_site_id
 _symmetry_equiv_pos_as_xyz
  1  'x, y, z'
loop_
 _atom_site_type_symbol
 _atom_site_label
 _atom_site_symmetry_multiplicity
 _atom_site_fract_x
 _atom_site_fract_y
 _atom_site_fract_z
 _atom_site_occupancy
  Co  Co0  1  0.00000000  0.00000000  0.00000000  1
  Co  Co1  1  0.50000000  0.00000000  0.50000000  1
  H  H2  1  0.14534300  0.32382700  0.97272200  1
  H  H3  1  0.64534300  0.67617300  0.52727800  1
  H  H4  1  0.85465700  0.67617300  0.02727800  1
  H  H5  1  0.35465700  0.32382700  0.47272200  1
  H  H6  1  0.05977000  0.33958400  0.09349100  1
  H  H7  1  0.55977000  0.66041600  0.40650900  1
  H  H8  1  0.94023000  0.66041600  0.90650900  1
  H  H9  1  0.44023000  0.33958400  0.59349100  1
  H  H10  1  0.09295300  0.67566200  0.21690000  1
  H  H11  1  0.59295300  0.32433800  0.28310000  1
  H  H12  1  0.90704700  0.32433800  0.78310000  1
  H  H13  1  0.40704700  0.67566200  0.71690000  1
  H  H14  1  0.12498200  0.90406200  0.24862900  1
  H  H15  1  0.62498200  0.09593800  0.25137100  1
  H  H16  1  0.87501800  0.09593800  0.75137100  1
  H  H17  1  0.37501800  0.90406200  0.74862900  1
  H  H18  1  0.81460000  0.00551900  0.13923000  1
  H  H19  1  0.31460000  0.99448100  0.36077000  1
  H  H20  1  0.18540000  0.99448100  0.86077000  1
  H  H21  1  0.68540000  0.00551900  0.63923000  1
  H  H22  1  0.90116400  0.94699400  0.26863000  1
  H  H23  1  0.40116400  0.05300600  0.23137000  1
  H  H24  1  0.09883600  0.05300600  0.73137000  1
  H  H25  1  0.59883600  0.94699400  0.76863000  1
  H  H26  1  0.33744900  0.52906200  0.07315200  1
  H  H27  1  0.83744900  0.47093800  0.42684800  1
  H  H28  1  0.66255100  0.47093800  0.92684800  1
  H  H29  1  0.16255100  0.52906200  0.57315200  1
  H  H30  1  0.29899200  0.59799700  0.22655200  1
  H  H31  1  0.79899200  0.40200300  0.27344800  1
  H  H32  1  0.70100800  0.40200300  0.77344800  1
  H  H33  1  0.20100800  0.59799700  0.72655200  1
  H  H34  1  0.33406900  0.79810400  0.06249800  1
  H  H35  1  0.83406900  0.20189600  0.43750200  1
  H  H36  1  0.66593100  0.20189600  0.93750200  1
  H  H37  1  0.16593100  0.79810400  0.56249800  1
  H  H38  1  0.42797400  0.63110000  0.17055900  1
  H  H39  1  0.92797400  0.36890000  0.32944100  1
  H  H40  1  0.57202600  0.36890000  0.82944100  1
  H  H41  1  0.07202600  0.63110000  0.67055900  1
  S  S42  1  0.63737900  0.74129600  0.09280800  1
  S  S43  1  0.13737900  0.25870400  0.40719200  1
  S  S44  1  0.36262100  0.25870400  0.90719200  1
  S  S45  1  0.86262100  0.74129600  0.59280800  1
  N  N46  1  0.34935900  0.63962600  0.13419000  1
  N  N47  1  0.84935900  0.36037400  0.36581000  1
  N  N48  1  0.65064100  0.36037400  0.86581000  1
  N  N49  1  0.15064100  0.63962600  0.63419000  1
  O  O50  1  0.06890900  0.30196000  0.99817200  1
  O  O51  1  0.56890900  0.69804000  0.50182800  1
  O  O52  1  0.93109100  0.69804000  0.00182800  1
  O  O53  1  0.43109100  0.30196000  0.49817200  1
  O  O54  1  0.11101000  0.83425600  0.16849300  1
  O  O55  1  0.61101000  0.16574400  0.33150700  1
  O  O56  1  0.88899000  0.16574400  0.83150700  1
  O  O57  1  0.38899000  0.83425600  0.66849300  1
  O  O58  1  0.88842300  0.03775600  0.16190800  1
  O  O59  1  0.38842300  0.96224400  0.33809200  1
  O  O60  1  0.11157700  0.96224400  0.83809200  1
  O  O61  1  0.61157700  0.03775600  0.66190800  1
  O  O62  1  0.72911100  0.59139300  0.08958700  1
  O  O63  1  0.22911100  0.40860700  0.41041300  1
  O  O64  1  0.27088900  0.40860700  0.91041300  1
  O  O65  1  0.77088900  0.59139300  0.58958700  1
  O  O66  1  0.57713600  0.78850000  0.95007300  1
  O  O67  1  0.07713600  0.21150000  0.54992700  1
  O  O68  1  0.42286400  0.21150000  0.04992700  1
  O  O69  1  0.92286400  0.78850000  0.45007300  1
  O  O70  1  0.56689400  0.62107500  0.22235400  1
  O  O71  1  0.06689400  0.37892500  0.27764600  1
  O  O72  1  0.43310600  0.37892500  0.77764600  1
  O  O73  1  0.93310600  0.62107500  0.72235400  1
  O  O74  1  0.67728000  0.95276300  0.11614600  1
  O  O75  1  0.17728000  0.04723700  0.38385400  1
  O  O76  1  0.32272000  0.04723700  0.88385400  1
  O  O77  1  0.82272000  0.95276300  0.61614600  1
