# generated using pymatgen
data_BaEu2ZnO5
_symmetry_space_group_name_H-M   'P 1'
_cell_length_a   5.84281100
_cell_length_b   7.30411500
_cell_length_c   12.68675500
_cell_angle_alpha   90.00000000
_cell_angle_beta   90.00000000
_cell_angle_gamma   90.00000000
_symmetry_Int_Tables_number   1
_chemical_formula_structural   BaEu2ZnO5
_chemical_formula_sum   'Ba4 Eu8 Zn4 O20'
_cell_volume   541.42710495
_cell_formula_units_Z   4
loop_
 _symmetry_equiv_pos_site_id
 _symmetry_equiv_pos_as_xyz
  1  'x, y, z'
loop_
 _atom_site_type_symbol
 _atom_site_label
 _atom_site_symmetry_multiplicity
 _atom_site_fract_x
 _atom_site_fract_y
 _atom_site_fract_z
 _atom_site_occupancy
  Ba  Ba0  1  0.25000000  0.92370400  0.90063000  1
  Ba  Ba1  1  0.75000000  0.07629600  0.09937000  1
  Ba  Ba2  1  0.75000000  0.42370400  0.59937000  1
  Ba  Ba3  1  0.25000000  0.57629600  0.40063000  1
  Eu  Eu4  1  0.25000000  0.11771400  0.28986400  1
  Eu  Eu5  1  0.75000000  0.88228600  0.71013600  1
  Eu  Eu6  1  0.75000000  0.61771400  0.21013600  1
  Eu  Eu7  1  0.25000000  0.38228600  0.78986400  1
  Eu  Eu8  1  0.25000000  0.39453300  0.07228200  1
  Eu  Eu9  1  0.75000000  0.60546700  0.92771800  1
  Eu  Eu10  1  0.75000000  0.89453300  0.42771800  1
  Eu  Eu11  1  0.25000000  0.10546700  0.57228200  1
  Zn  Zn12  1  0.25000000  0.69437000  0.65004600  1
  Zn  Zn13  1  0.75000000  0.30563000  0.34995400  1
  Zn  Zn14  1  0.75000000  0.19437000  0.84995400  1
  Zn  Zn15  1  0.25000000  0.80563000  0.15004600  1
  O  O16  1  0.99230700  0.17168500  0.43596500  1
  O  O17  1  0.49230700  0.82831500  0.56403500  1
  O  O18  1  0.00769300  0.67168500  0.06403500  1
  O  O19  1  0.50769300  0.32831500  0.93596500  1
  O  O20  1  0.00769300  0.82831500  0.56403500  1
  O  O21  1  0.50769300  0.17168500  0.43596500  1
  O  O22  1  0.99230700  0.32831500  0.93596500  1
  O  O23  1  0.49230700  0.67168500  0.06403500  1
  O  O24  1  0.50522900  0.35320400  0.22615200  1
  O  O25  1  0.00522900  0.64679600  0.77384800  1
  O  O26  1  0.49477100  0.85320400  0.27384800  1
  O  O27  1  0.99477100  0.14679600  0.72615200  1
  O  O28  1  0.49477100  0.64679600  0.77384800  1
  O  O29  1  0.99477100  0.35320400  0.22615200  1
  O  O30  1  0.50522900  0.14679600  0.72615200  1
  O  O31  1  0.00522900  0.85320400  0.27384800  1
  O  O32  1  0.25000000  0.06637800  0.09852600  1
  O  O33  1  0.75000000  0.93362200  0.90147400  1
  O  O34  1  0.75000000  0.56637800  0.40147400  1
  O  O35  1  0.25000000  0.43362200  0.59852600  1
