# generated using pymatgen
data_Sr(FeS2)2
_symmetry_space_group_name_H-M   'P 1'
_cell_length_a   5.22962700
_cell_length_b   10.68322600
_cell_length_c   21.36312900
_cell_angle_alpha   90.00000000
_cell_angle_beta   90.00000000
_cell_angle_gamma   90.00000000
_symmetry_Int_Tables_number   1
_chemical_formula_structural   Sr(FeS2)2
_chemical_formula_sum   'Sr8 Fe16 S32'
_cell_volume   1193.54278824
_cell_formula_units_Z   8
loop_
 _symmetry_equiv_pos_site_id
 _symmetry_equiv_pos_as_xyz
  1  'x, y, z'
loop_
 _atom_site_type_symbol
 _atom_site_label
 _atom_site_symmetry_multiplicity
 _atom_site_fract_x
 _atom_site_fract_y
 _atom_site_fract_z
 _atom_site_occupancy
  Sr  Sr0  1  0.00000000  0.50000000  0.24973400  1
  Sr  Sr1  1  0.00000000  0.00000000  0.50000000  1
  Sr  Sr2  1  0.00000000  0.50000000  0.75026600  1
  Sr  Sr3  1  0.50000000  0.50000000  0.50000000  1
  Sr  Sr4  1  0.50000000  0.00000000  0.00000000  1
  Sr  Sr5  1  0.00000000  0.00000000  0.25026600  1
  Sr  Sr6  1  0.00000000  0.00000000  0.74973400  1
  Sr  Sr7  1  0.00000000  0.50000000  0.00000000  1
  Fe  Fe8  1  0.00004000  0.24950000  0.37461900  1
  Fe  Fe9  1  0.00004000  0.75050000  0.62538100  1
  Fe  Fe10  1  0.49986900  0.75061600  0.12482100  1
  Fe  Fe11  1  0.49986900  0.25061600  0.37517900  1
  Fe  Fe12  1  0.50013100  0.24938400  0.12482100  1
  Fe  Fe13  1  0.49986900  0.74938400  0.62482100  1
  Fe  Fe14  1  0.50013100  0.74938400  0.37517900  1
  Fe  Fe15  1  0.50013100  0.25061600  0.62482100  1
  Fe  Fe16  1  0.49986900  0.24938400  0.87517900  1
  Fe  Fe17  1  0.50013100  0.75061600  0.87517900  1
  Fe  Fe18  1  0.00004000  0.74950000  0.12538100  1
  Fe  Fe19  1  0.99996000  0.25050000  0.12538100  1
  Fe  Fe20  1  0.00004000  0.25050000  0.87461900  1
  Fe  Fe21  1  0.99996000  0.75050000  0.37461900  1
  Fe  Fe22  1  0.99996000  0.24950000  0.62538100  1
  Fe  Fe23  1  0.99996000  0.74950000  0.87461900  1
  S  S24  1  0.74843900  0.09088400  0.37518600  1
  S  S25  1  0.74843900  0.59088400  0.12481400  1
  S  S26  1  0.75090300  0.90920500  0.12516200  1
  S  S27  1  0.75104700  0.24960900  0.04552400  1
  S  S28  1  0.74863400  0.24999400  0.20465400  1
  S  S29  1  0.75090300  0.40920500  0.37483800  1
  S  S30  1  0.75090300  0.59079500  0.62516200  1
  S  S31  1  0.74863400  0.74999400  0.29534600  1
  S  S32  1  0.75104700  0.74960900  0.45447600  1
  S  S33  1  0.74843900  0.90911600  0.62481400  1
  S  S34  1  0.75104700  0.25039100  0.54552400  1
  S  S35  1  0.75090300  0.09079500  0.87483800  1
  S  S36  1  0.74863400  0.25000600  0.70465400  1
  S  S37  1  0.74843900  0.40911600  0.87518600  1
  S  S38  1  0.74863400  0.75000600  0.79534600  1
  S  S39  1  0.75104700  0.75039100  0.95447600  1
  S  S40  1  0.25136600  0.75000600  0.20465400  1
  S  S41  1  0.24895300  0.75039100  0.04552400  1
  S  S42  1  0.24909700  0.09079500  0.12516200  1
  S  S43  1  0.25156100  0.40911600  0.12481400  1
  S  S44  1  0.25136600  0.25000600  0.29534600  1
  S  S45  1  0.24895300  0.25039100  0.45447600  1
  S  S46  1  0.24909700  0.59079500  0.37483800  1
  S  S47  1  0.25136600  0.74999400  0.70465400  1
  S  S48  1  0.24895300  0.24960900  0.95447600  1
  S  S49  1  0.25156100  0.59088400  0.87518600  1
  S  S50  1  0.25156100  0.90911600  0.37518600  1
  S  S51  1  0.24895300  0.74960900  0.54552400  1
  S  S52  1  0.25156100  0.09088400  0.62481400  1
  S  S53  1  0.25136600  0.24999400  0.79534600  1
  S  S54  1  0.24909700  0.90920500  0.87483800  1
  S  S55  1  0.24909700  0.40920500  0.62516200  1
