# generated using pymatgen
data_Bi17W3O34
_symmetry_space_group_name_H-M   'P 1'
_cell_length_a   10.51235300
_cell_length_b   10.69878178
_cell_length_c   10.50734013
_cell_angle_alpha   107.89461101
_cell_angle_beta   106.12561437
_cell_angle_gamma   115.52742203
_symmetry_Int_Tables_number   1
_chemical_formula_structural   Bi17W3O34
_chemical_formula_sum   'Bi17 W3 O34'
_cell_volume   891.56144171
_cell_formula_units_Z   1
loop_
 _symmetry_equiv_pos_site_id
 _symmetry_equiv_pos_as_xyz
  1  'x, y, z'
loop_
 _atom_site_type_symbol
 _atom_site_label
 _atom_site_symmetry_multiplicity
 _atom_site_fract_x
 _atom_site_fract_y
 _atom_site_fract_z
 _atom_site_occupancy
  Bi  Bi0  1  0.22871600  0.88529600  0.88858800  1
  Bi  Bi1  1  0.07935700  0.46943300  0.80885600  1
  Bi  Bi2  1  0.14014600  0.63386000  0.50162900  1
  Bi  Bi3  1  0.17387900  0.76678800  0.20551000  1
  Bi  Bi4  1  0.94693200  0.13773100  0.36298100  1
  Bi  Bi5  1  0.01739300  0.34457700  0.11335100  1
  Bi  Bi6  1  0.55950800  0.96963700  0.79989400  1
  Bi  Bi7  1  0.43493200  0.50405000  0.69630200  1
  Bi  Bi8  1  0.25432000  0.06633500  0.59545700  1
  Bi  Bi9  1  0.47246800  0.65030500  0.40994400  1
  Bi  Bi10  1  0.51378500  0.79837500  0.07481300  1
  Bi  Bi11  1  0.29170800  0.21619400  0.29955800  1
  Bi  Bi12  1  0.71797900  0.41283100  0.90707800  1
  Bi  Bi13  1  0.77429600  0.57198000  0.57779100  1
  Bi  Bi14  1  0.77768100  0.72445600  0.29424900  1
  Bi  Bi15  1  0.68846200  0.27022100  0.23301500  1
  Bi  Bi16  1  0.90962600  0.02877500  0.66943100  1
  W  W17  1  0.30503900  0.29000400  0.00168100  1
  W  W18  1  0.65676700  0.13621600  0.50605800  1
  W  W19  1  0.88446100  0.88275600  0.99705900  1
  O  O20  1  0.07725700  0.62593800  0.69689500  1
  O  O21  1  0.06511600  0.88711100  0.12084800  1
  O  O22  1  0.13398100  0.31789000  0.93944400  1
  O  O23  1  0.29836600  0.92192600  0.69457100  1
  O  O24  1  0.99135000  0.52119400  0.02527300  1
  O  O25  1  0.47418600  0.94918700  0.96131100  1
  O  O26  1  0.96952400  0.98281000  0.48043300  1
  O  O27  1  0.32178100  0.54492400  0.84506900  1
  O  O28  1  0.21417500  0.59357800  0.29786900  1
  O  O29  1  0.20392500  0.13022300  0.79451100  1
  O  O30  1  0.03773200  0.13208900  0.16994400  1
  O  O31  1  0.38044800  0.67696600  0.61931300  1
  O  O32  1  0.27774500  0.77592500  0.04914700  1
  O  O33  1  0.22278700  0.27744100  0.48879100  1
  O  O34  1  0.46782100  0.30231900  0.72682700  1
  O  O35  1  0.31389400  0.38526800  0.20690300  1
  O  O36  1  0.72648000  0.92467100  0.93172800  1
  O  O37  1  0.65351200  0.97661000  0.55277900  1
  O  O38  1  0.65220200  0.05077300  0.31015600  1
  O  O39  1  0.51657300  0.47752500  0.49565500  1
  O  O40  1  0.44519900  0.05001400  0.44200500  1
  O  O41  1  0.75076200  0.66420000  0.87968100  1
  O  O42  1  0.55364800  0.71271500  0.24793600  1
  O  O43  1  0.34438800  0.16323000  0.07333000  1
  O  O44  1  0.76438400  0.76184400  0.52036000  1
  O  O45  1  0.74214200  0.29432700  0.71080500  1
  O  O46  1  0.69918000  0.31498900  0.46096800  1
  O  O47  1  0.96368300  0.92501200  0.86994800  1
  O  O48  1  0.80584100  0.87520600  0.16506100  1
  O  O49  1  0.49311800  0.43268000  0.03142600  1
  O  O50  1  0.78335600  0.52493700  0.36315300  1
  O  O51  1  0.91994900  0.22627300  0.59397500  1
  O  O52  1  0.71749700  0.24104600  0.98146800  1
  O  O53  1  0.94054400  0.34934100  0.30917000  1
