# generated using pymatgen
data_B4C
_symmetry_space_group_name_H-M   'P 1'
_cell_length_a   5.11891100
_cell_length_b   5.11881548
_cell_length_c   22.36804765
_cell_angle_alpha   92.91352383
_cell_angle_beta   94.78121753
_cell_angle_gamma   114.43464863
_symmetry_Int_Tables_number   1
_chemical_formula_structural   B4C
_chemical_formula_sum   'B56 C14'
_cell_volume   529.39669256
_cell_formula_units_Z   14
loop_
 _symmetry_equiv_pos_site_id
 _symmetry_equiv_pos_as_xyz
  1  'x, y, z'
loop_
 _atom_site_type_symbol
 _atom_site_label
 _atom_site_symmetry_multiplicity
 _atom_site_fract_x
 _atom_site_fract_y
 _atom_site_fract_z
 _atom_site_occupancy
  B  B0  1  0.32563400  0.00677200  0.99841200  1
  B  B1  1  0.12922300  0.93889500  0.06568800  1
  B  B2  1  0.99274200  0.67387500  0.99856400  1
  B  B3  1  0.73531000  0.79578400  0.19993300  1
  B  B4  1  0.53831700  0.72892900  0.26597400  1
  B  B5  1  0.47061100  0.66219100  0.13535600  1
  B  B6  1  0.75025400  0.76854100  0.03785500  1
  B  B7  1  0.40467900  0.45138300  0.19982700  1
  B  B8  1  0.27067200  0.28826600  0.03786900  1
  B  B9  1  0.93660700  0.53074400  0.46799000  1
  B  B10  1  0.16489100  0.55677000  0.24018900  1
  B  B11  1  0.87374400  0.46603800  0.33681900  1
  B  B12  1  0.12064300  0.51802600  0.15988700  1
  B  B13  1  0.80258900  0.26945700  0.40113700  1
  B  B14  1  0.68194900  0.07967400  0.24037600  1
  B  B15  1  0.91965600  0.14229200  0.06250200  1
  B  B16  1  0.63714100  0.04050300  0.15979200  1
  B  B17  1  0.54417100  0.38916400  0.60270400  1
  B  B18  1  0.27919800  0.25814600  0.53790100  1
  B  B19  1  0.55842900  0.36105300  0.44036000  1
  B  B20  1  0.51645400  0.32497400  0.36007500  1
  B  B21  1  0.21426400  0.05929600  0.60288300  1
  B  B22  1  0.08048100  0.87735400  0.44043400  1
  B  B23  1  0.03909400  0.84184800  0.35990000  1
  B  B24  1  0.32918100  0.93714100  0.26340100  1
  B  B25  1  0.26257100  0.86894700  0.13220700  1
  B  B26  1  0.06829200  0.80168600  0.19905100  1
  B  B27  1  0.93350300  0.19760700  0.80103700  1
  B  B28  1  0.97299700  0.15128900  0.64269500  1
  B  B29  1  0.67414500  0.06301500  0.73675200  1
  B  B30  1  0.93089300  0.11368900  0.56246100  1
  B  B31  1  0.79569800  0.93561600  0.40022900  1
  B  B32  1  0.60384800  0.86792300  0.80104100  1
  B  B33  1  0.49214600  0.67024300  0.64271700  1
  B  B34  1  0.44936000  0.63275300  0.56246100  1
  B  B35  1  0.72626700  0.73578900  0.46479700  1
  B  B36  1  0.66285300  0.67255000  0.33418600  1
  B  B37  1  0.45139500  0.60506900  0.40032900  1
  B  B38  1  0.36119600  0.96010500  0.83983300  1
  B  B39  1  0.06367800  0.87107300  0.93407100  1
  B  B40  1  0.32113000  0.92252100  0.75965400  1
  B  B41  1  0.20824400  0.72613500  0.60206500  1
  B  B42  1  0.88012400  0.47903200  0.83983200  1
  B  B43  1  0.83750600  0.43890600  0.75965300  1
  B  B44  1  0.13830300  0.52821100  0.66592000  1
  B  B45  1  0.07231300  0.46483800  0.53473600  1
  B  B46  1  0.87676300  0.39468800  0.60191600  1
  B  B47  1  0.71054100  0.72877900  0.95744300  1
  B  B48  1  0.59600100  0.53364100  0.79926400  1
  B  B49  1  0.52862000  0.33521500  0.86340700  1
  B  B50  1  0.22935200  0.24771500  0.95742300  1
  B  B51  1  0.46260100  0.26919000  0.73136700  1
  B  B52  1  0.26602300  0.20367200  0.79926400  1
  B  B53  1  0.98787100  0.34210400  0.99745100  1
  B  B54  1  0.65600400  0.01013000  0.99726700  1
  B  B55  1  0.85321600  0.07655400  0.92922200  1
  C  C56  1  0.51287400  0.56027400  0.07215400  1
  C  C57  1  0.12317800  0.60117800  0.40088700  1
  C  C58  1  0.93180700  0.34923700  0.27613700  1
  C  C59  1  0.87488500  0.24919300  0.12469400  1
  C  C60  1  0.33890300  0.32772300  0.66618900  1
  C  C61  1  0.40030000  0.12251900  0.19927200  1
  C  C62  1  0.32580400  0.14914100  0.47564500  1
  C  C63  1  0.27301500  0.05601400  0.32407800  1
  C  C64  1  0.72833300  0.13638900  0.86421800  1
  C  C65  1  0.73961000  0.93918200  0.67820900  1
  C  C66  1  0.68747500  0.84148500  0.52799900  1
  C  C67  1  0.12292300  0.75229300  0.87482900  1
  C  C68  1  0.07906900  0.64726500  0.72596900  1
  C  C69  1  0.47243600  0.45230300  0.92414200  1
