# generated using pymatgen
data_Ba2Co9O14
_symmetry_space_group_name_H-M   'P 1'
_cell_length_a   10.26967068
_cell_length_b   10.26967068
_cell_length_c   10.26967047
_cell_angle_alpha   32.51972404
_cell_angle_beta   32.51972404
_cell_angle_gamma   32.51972609
_symmetry_Int_Tables_number   1
_chemical_formula_structural   Ba2Co9O14
_chemical_formula_sum   'Ba2 Co9 O14'
_cell_volume   278.34548737
_cell_formula_units_Z   1
loop_
 _symmetry_equiv_pos_site_id
 _symmetry_equiv_pos_as_xyz
  1  'x, y, z'
loop_
 _atom_site_type_symbol
 _atom_site_label
 _atom_site_symmetry_multiplicity
 _atom_site_fract_x
 _atom_site_fract_y
 _atom_site_fract_z
 _atom_site_occupancy
  Ba  Ba0  1  0.88446100  0.88446100  0.88446100  1
  Ba  Ba1  1  0.11553900  0.11553900  0.11553900  1
  Co  Co2  1  0.23273500  0.23273500  0.23273500  1
  Co  Co3  1  0.76726500  0.76726500  0.76726500  1
  Co  Co4  1  0.58713800  0.58713800  0.58713800  1
  Co  Co5  1  0.41286200  0.41286200  0.41286200  1
  Co  Co6  1  0.50000000  0.50000000  0.50000000  1
  Co  Co7  1  0.00000000  0.50000000  0.50000000  1
  Co  Co8  1  0.50000000  0.00000000  0.50000000  1
  Co  Co9  1  0.50000000  0.50000000  0.00000000  1
  Co  Co10  1  0.00000000  0.00000000  0.00000000  1
  O  O11  1  0.39594000  0.84099200  0.39594000  1
  O  O12  1  0.39594000  0.39594000  0.84099200  1
  O  O13  1  0.84099200  0.39594000  0.39594000  1
  O  O14  1  0.60406000  0.60406000  0.15900800  1
  O  O15  1  0.15900800  0.60406000  0.60406000  1
  O  O16  1  0.60406000  0.15900800  0.60406000  1
  O  O17  1  0.29957100  0.29957100  0.29957100  1
  O  O18  1  0.70042900  0.70042900  0.70042900  1
  O  O19  1  0.78324000  0.78324000  0.32220900  1
  O  O20  1  0.32220900  0.78324000  0.78324000  1
  O  O21  1  0.78324000  0.32220900  0.78324000  1
  O  O22  1  0.67779100  0.21676000  0.21676000  1
  O  O23  1  0.21676000  0.21676000  0.67779100  1
  O  O24  1  0.21676000  0.67779100  0.21676000  1
