# generated using pymatgen
data_MgAl6O10
_symmetry_space_group_name_H-M   'P 1'
_cell_length_a   5.67998731
_cell_length_b   5.67998731
_cell_length_c   23.54961782
_cell_angle_alpha   82.86712546
_cell_angle_beta   82.86712546
_cell_angle_gamma   60.58947356
_symmetry_Int_Tables_number   1
_chemical_formula_structural   MgAl6O10
_chemical_formula_sum   'Mg4 Al24 O40'
_cell_volume   654.96856084
_cell_formula_units_Z   4
loop_
 _symmetry_equiv_pos_site_id
 _symmetry_equiv_pos_as_xyz
  1  'x, y, z'
loop_
 _atom_site_type_symbol
 _atom_site_label
 _atom_site_symmetry_multiplicity
 _atom_site_fract_x
 _atom_site_fract_y
 _atom_site_fract_z
 _atom_site_occupancy
  Mg  Mg0  1  0.93238500  0.93238500  0.21955800  1
  Mg  Mg1  1  0.13326400  0.13326400  0.61752000  1
  Mg  Mg2  1  0.72623700  0.72623700  0.82522200  1
  Mg  Mg3  1  0.07432600  0.07432600  0.77342800  1
  Al  Al4  1  0.32901000  0.32901000  0.02679500  1
  Al  Al5  1  0.80038300  0.29876200  0.10126400  1
  Al  Al6  1  0.29876200  0.80038300  0.10126400  1
  Al  Al7  1  0.40214600  0.40214600  0.30000400  1
  Al  Al8  1  0.40294000  0.89562600  0.29988900  1
  Al  Al9  1  0.60989900  0.60989900  0.19890400  1
  Al  Al10  1  0.53000100  0.53000100  0.42584100  1
  Al  Al11  1  0.89562600  0.40294000  0.29988900  1
  Al  Al12  1  0.00133400  0.50000900  0.49961200  1
  Al  Al13  1  0.18694300  0.18694300  0.40548300  1
  Al  Al14  1  0.26843600  0.26843600  0.17483200  1
  Al  Al15  1  0.50000900  0.00133400  0.49961200  1
  Al  Al16  1  0.60348300  0.60348300  0.69825100  1
  Al  Al17  1  0.86751400  0.86751400  0.37810400  1
  Al  Al18  1  0.81100500  0.81100500  0.59747200  1
  Al  Al19  1  0.19941400  0.19941400  0.90127600  1
  Al  Al20  1  0.09828500  0.60306000  0.69842800  1
  Al  Al21  1  0.46967000  0.46967000  0.57311600  1
  Al  Al22  1  0.20105800  0.69648400  0.90093300  1
  Al  Al23  1  0.40033800  0.40033800  0.79889900  1
  Al  Al24  1  0.60306000  0.09828500  0.69842800  1
  Al  Al25  1  0.69648400  0.20105800  0.90093300  1
  Al  Al26  1  0.98598700  0.98598700  0.00681900  1
  Al  Al27  1  0.66650700  0.66650700  0.98053300  1
  O  O28  1  0.66374100  0.16928900  0.04596300  1
  O  O29  1  0.96465900  0.96465900  0.13794500  1
  O  O30  1  0.16928900  0.66374100  0.04596300  1
  O  O31  1  0.14452900  0.14452900  0.04785100  1
  O  O32  1  0.28576300  0.72926900  0.25503400  1
  O  O33  1  0.45582100  0.45582100  0.15043000  1
  O  O34  1  0.72926900  0.28576300  0.25503400  1
  O  O35  1  0.43444300  0.93132200  0.15460300  1
  O  O36  1  0.55153600  0.55153600  0.34641400  1
  O  O37  1  0.63764000  0.63764000  0.05552300  1
  O  O38  1  0.73472900  0.73472900  0.25437900  1
  O  O39  1  0.93132200  0.43444300  0.15460300  1
  O  O40  1  0.86492800  0.36966300  0.44476300  1
  O  O41  1  0.05762800  0.05762800  0.34831400  1
  O  O42  1  0.06215100  0.52959700  0.34643500  1
  O  O43  1  0.24757900  0.24757900  0.25585200  1
  O  O44  1  0.16579000  0.16579000  0.53621600  1
  O  O45  1  0.36966300  0.86492800  0.44476300  1
  O  O46  1  0.34551400  0.34551400  0.44653100  1
  O  O47  1  0.52959700  0.06215100  0.34643500  1
  O  O48  1  0.65727100  0.65727100  0.54870000  1
  O  O49  1  0.48373500  0.93167100  0.65374400  1
  O  O50  1  0.83877600  0.83877600  0.45320300  1
  O  O51  1  0.75452200  0.75452200  0.74292600  1
  O  O52  1  0.63568800  0.13188400  0.55306300  1
  O  O53  1  0.93167100  0.48373500  0.65374400  1
  O  O54  1  0.93687900  0.93687900  0.65314200  1
  O  O55  1  0.13188500  0.63568800  0.55306300  1
  O  O56  1  0.08572600  0.52882400  0.85464500  1
  O  O57  1  0.26986800  0.26986800  0.74726300  1
  O  O58  1  0.34988400  0.34988400  0.94695000  1
  O  O59  1  0.52882400  0.08572600  0.85464500  1
  O  O60  1  0.45030900  0.45030900  0.65331400  1
  O  O61  1  0.27138900  0.71246400  0.74736400  1
  O  O62  1  0.53016900  0.53016900  0.85451800  1
  O  O63  1  0.71246400  0.27138900  0.74736400  1
  O  O64  1  0.85509800  0.85509800  0.95021200  1
  O  O65  1  0.85923800  0.33266900  0.94801900  1
  O  O66  1  0.04424300  0.04424300  0.86071900  1
  O  O67  1  0.33266900  0.85923800  0.94801900  1
