# generated using pymatgen
data_Tm2TiO5
_symmetry_space_group_name_H-M   'P 1'
_cell_length_a   7.38874866
_cell_length_b   7.38874866
_cell_length_c   17.34533912
_cell_angle_alpha   88.69089860
_cell_angle_beta   88.69089860
_cell_angle_gamma   62.37055021
_symmetry_Int_Tables_number   1
_chemical_formula_structural   Tm2TiO5
_chemical_formula_sum   'Tm16 Ti8 O40'
_cell_volume   838.66089491
_cell_formula_units_Z   8
loop_
 _symmetry_equiv_pos_site_id
 _symmetry_equiv_pos_as_xyz
  1  'x, y, z'
loop_
 _atom_site_type_symbol
 _atom_site_label
 _atom_site_symmetry_multiplicity
 _atom_site_fract_x
 _atom_site_fract_y
 _atom_site_fract_z
 _atom_site_occupancy
  Tm  Tm0  1  0.99388200  0.99388200  0.99758800  1
  Tm  Tm1  1  0.50173000  0.95604400  0.98918300  1
  Tm  Tm2  1  0.95604400  0.50173000  0.98918300  1
  Tm  Tm3  1  0.32110800  0.85246000  0.16337200  1
  Tm  Tm4  1  0.84078800  0.84078800  0.16289300  1
  Tm  Tm5  1  0.17414900  0.67010700  0.32529800  1
  Tm  Tm6  1  0.67768100  0.67768100  0.34168600  1
  Tm  Tm7  1  0.00922400  0.53838800  0.50612400  1
  Tm  Tm8  1  0.85246000  0.32110800  0.16337200  1
  Tm  Tm9  1  0.85402500  0.31709600  0.67401600  1
  Tm  Tm10  1  0.50634600  0.50634600  0.50460300  1
  Tm  Tm11  1  0.67010700  0.17414900  0.32529800  1
  Tm  Tm12  1  0.67570100  0.15831500  0.84137800  1
  Tm  Tm13  1  0.53838800  0.00922400  0.50612400  1
  Tm  Tm14  1  0.15831500  0.67570100  0.84137800  1
  Tm  Tm15  1  0.31709600  0.85402500  0.67401600  1
  Ti  Ti16  1  0.47417000  0.47417000  0.00006500  1
  Ti  Ti17  1  0.33519500  0.33519500  0.17394000  1
  Ti  Ti18  1  0.19279300  0.19279300  0.33267300  1
  Ti  Ti19  1  0.16633300  0.16633300  0.82925000  1
  Ti  Ti20  1  0.33561100  0.33561100  0.67524300  1
  Ti  Ti21  1  0.01876300  0.01876300  0.49293300  1
  Ti  Ti22  1  0.82181500  0.82181500  0.67224300  1
  Ti  Ti23  1  0.64916500  0.64916500  0.81351600  1
  O  O24  1  0.36027500  0.74867700  0.03322300  1
  O  O25  1  0.83820800  0.83820800  0.28912800  1
  O  O26  1  0.74867700  0.36027500  0.03322300  1
  O  O27  1  0.21163900  0.61502000  0.18441900  1
  O  O28  1  0.34812600  0.34812600  0.29342400  1
  O  O29  1  0.91955500  0.54985100  0.11504300  1
  O  O30  1  0.34908300  0.34908300  0.56728700  1
  O  O31  1  0.03308300  0.43577400  0.38149900  1
  O  O32  1  0.61502000  0.21163900  0.18441900  1
  O  O33  1  0.34029400  0.34029400  0.05384500  1
  O  O34  1  0.43577400  0.03308300  0.38149900  1
  O  O35  1  0.76914300  0.39273400  0.28250900  1
  O  O36  1  0.54985100  0.91955500  0.11504300  1
  O  O37  1  0.90585100  0.27493700  0.54148600  1
  O  O38  1  0.18429000  0.18429000  0.21288100  1
  O  O39  1  0.02940800  0.02940800  0.87538500  1
  O  O40  1  0.63050800  0.23217600  0.44461900  1
  O  O41  1  0.97001600  0.97001600  0.67480100  1
  O  O42  1  0.58517700  0.23857400  0.71711700  1
  O  O43  1  0.39273400  0.76914300  0.28250900  1
  O  O44  1  0.04372700  0.04372700  0.38289700  1
  O  O45  1  0.00654200  0.00654200  0.12345000  1
  O  O46  1  0.27493700  0.90585100  0.54148600  1
  O  O47  1  0.41416100  0.08954000  0.87264300  1
  O  O48  1  0.23217600  0.63050800  0.44461900  1
  O  O49  1  0.23857400  0.58517700  0.71711700  1
  O  O50  1  0.55986900  0.95765300  0.63183200  1
  O  O51  1  0.80237200  0.80237200  0.78500600  1
  O  O52  1  0.87671900  0.87671900  0.52386400  1
  O  O53  1  0.68276600  0.68276600  0.92288200  1
  O  O54  1  0.36342200  0.81440200  0.80214900  1
  O  O55  1  0.95765300  0.55986900  0.63183200  1
  O  O56  1  0.08954000  0.41416100  0.87264300  1
  O  O57  1  0.67530300  0.67530300  0.46679500  1
  O  O58  1  0.61566800  0.61566800  0.69624200  1
  O  O59  1  0.06775800  0.70397200  0.96441400  1
  O  O60  1  0.81440200  0.36342200  0.80214900  1
  O  O61  1  0.46155500  0.46155500  0.89365500  1
  O  O62  1  0.70397200  0.06775800  0.96441400  1
  O  O63  1  0.18922500  0.18922500  0.71778500  1
