# generated using pymatgen
data_K3Mn2O8
_symmetry_space_group_name_H-M   'P 1'
_cell_length_a   7.97903398
_cell_length_b   7.97903398
_cell_length_c   7.97903403
_cell_angle_alpha   43.29801510
_cell_angle_beta   43.29801510
_cell_angle_gamma   43.29801834
_symmetry_Int_Tables_number   1
_chemical_formula_structural   K3Mn2O8
_chemical_formula_sum   'K3 Mn2 O8'
_cell_volume   216.68200280
_cell_formula_units_Z   1
loop_
 _symmetry_equiv_pos_site_id
 _symmetry_equiv_pos_as_xyz
  1  'x, y, z'
loop_
 _atom_site_type_symbol
 _atom_site_label
 _atom_site_symmetry_multiplicity
 _atom_site_fract_x
 _atom_site_fract_y
 _atom_site_fract_z
 _atom_site_occupancy
  K  K0  1  0.29500100  0.29500100  0.29500100  1
  K  K1  1  0.70499900  0.70499900  0.70499900  1
  K  K2  1  0.50000000  0.50000000  0.50000000  1
  Mn  Mn3  1  0.90696900  0.90696900  0.90696900  1
  Mn  Mn4  1  0.09303100  0.09303100  0.09303100  1
  O  O5  1  0.78002100  0.78002100  0.23682500  1
  O  O6  1  0.21997900  0.76317500  0.21997900  1
  O  O7  1  0.83156600  0.83156600  0.83156600  1
  O  O8  1  0.16843400  0.16843400  0.16843400  1
  O  O9  1  0.21997900  0.21997900  0.76317500  1
  O  O10  1  0.78002100  0.23682500  0.78002100  1
  O  O11  1  0.76317500  0.21997900  0.21997900  1
  O  O12  1  0.23682500  0.78002100  0.78002100  1
