# generated using pymatgen
data_Ba3(Mo9O14)2
_symmetry_space_group_name_H-M   'P 1'
_cell_length_a   9.78302000
_cell_length_b   10.60237300
_cell_length_c   14.68081475
_cell_angle_alpha   79.72961865
_cell_angle_beta   90.00000000
_cell_angle_gamma   90.00000000
_symmetry_Int_Tables_number   1
_chemical_formula_structural   Ba3(Mo9O14)2
_chemical_formula_sum   'Ba6 Mo36 O56'
_cell_volume   1498.34310853
_cell_formula_units_Z   2
loop_
 _symmetry_equiv_pos_site_id
 _symmetry_equiv_pos_as_xyz
  1  'x, y, z'
loop_
 _atom_site_type_symbol
 _atom_site_label
 _atom_site_symmetry_multiplicity
 _atom_site_fract_x
 _atom_site_fract_y
 _atom_site_fract_z
 _atom_site_occupancy
  Ba  Ba0  1  0.01863700  0.31093200  0.63801600  1
  Ba  Ba1  1  0.48336100  0.80196200  0.67150400  1
  Ba  Ba2  1  0.49855700  0.73925100  0.05307100  1
  Ba  Ba3  1  0.51863700  0.68906800  0.36198400  1
  Ba  Ba4  1  0.98336100  0.19803800  0.32849600  1
  Ba  Ba5  1  0.99855700  0.26074900  0.94692900  1
  Mo  Mo6  1  0.13119200  0.84564800  0.99766000  1
  Mo  Mo7  1  0.12541200  0.95823500  0.55094900  1
  Mo  Mo8  1  0.13232100  0.89824100  0.77330400  1
  Mo  Mo9  1  0.13488800  0.79228900  0.21951300  1
  Mo  Mo10  1  0.13012000  0.65732500  0.66480700  1
  Mo  Mo11  1  0.14279600  0.72408100  0.44261700  1
  Mo  Mo12  1  0.14287200  0.60663100  0.88735800  1
  Mo  Mo13  1  0.14359500  0.54528600  0.11223300  1
  Mo  Mo14  1  0.14362200  0.49812200  0.33518600  1
  Mo  Mo15  1  0.35222200  0.99763700  0.33679300  1
  Mo  Mo16  1  0.35640200  0.05125200  0.11303200  1
  Mo  Mo17  1  0.36135500  0.10302200  0.88641700  1
  Mo  Mo18  1  0.35648500  0.22549600  0.44176600  1
  Mo  Mo19  1  0.36885100  0.15851900  0.66405000  1
  Mo  Mo20  1  0.36518700  0.29175700  0.22220400  1
  Mo  Mo21  1  0.36570500  0.39811600  0.77488400  1
  Mo  Mo22  1  0.37427400  0.46290500  0.55099500  1
  Mo  Mo23  1  0.36948800  0.34351800  0.99551200  1
  Mo  Mo24  1  0.63119200  0.15435200  0.00234000  1
  Mo  Mo25  1  0.62541200  0.04176500  0.44905100  1
  Mo  Mo26  1  0.63232100  0.10175900  0.22669600  1
  Mo  Mo27  1  0.63488800  0.20771100  0.78048700  1
  Mo  Mo28  1  0.63012000  0.34267500  0.33519300  1
  Mo  Mo29  1  0.64279600  0.27591900  0.55738300  1
  Mo  Mo30  1  0.64287200  0.39336900  0.11264200  1
  Mo  Mo31  1  0.64359500  0.45471400  0.88776700  1
  Mo  Mo32  1  0.64362200  0.50187800  0.66481400  1
  Mo  Mo33  1  0.85222200  0.00236300  0.66320700  1
  Mo  Mo34  1  0.85640200  0.94874800  0.88696800  1
  Mo  Mo35  1  0.86135500  0.89697800  0.11358300  1
  Mo  Mo36  1  0.85648500  0.77450400  0.55823400  1
  Mo  Mo37  1  0.86885100  0.84148100  0.33595000  1
  Mo  Mo38  1  0.86518700  0.70824300  0.77779600  1
  Mo  Mo39  1  0.86570500  0.60188400  0.22511600  1
  Mo  Mo40  1  0.87427400  0.53709500  0.44900500  1
  Mo  Mo41  1  0.86948800  0.65648200  0.00448800  1
  O  O42  1  0.01692800  0.45435200  0.22490000  1
  O  O43  1  0.01384800  0.56178300  0.77768700  1
  O  O44  1  0.00013700  0.61932100  0.54610800  1
  O  O45  1  0.00953300  0.40453000  0.44239000  1
  O  O46  1  0.02143800  0.50934800  0.00388500  1
  O  O47  1  0.25719600  0.11346300  0.22998200  1
  O  O48  1  0.23380100  0.78805500  0.55590500  1
  O  O49  1  0.25669200  0.22407100  0.77022700  1
  O  O50  1  0.25299600  0.87999000  0.10796100  1
  O  O51  1  0.24223000  0.93980000  0.88503600  1
  O  O52  1  0.23196000  0.06091200  0.43550600  1
  O  O53  1  0.25759400  0.82477900  0.33142000  1
  O  O54  1  0.24285200  0.99655000  0.65574300  1
  O  O55  1  0.24500800  0.66911300  0.00275700  1
  O  O56  1  0.25591200  0.17175900  0.99871300  1
  O  O57  1  0.25561800  0.49588100  0.65697300  1
  O  O58  1  0.24049900  0.32381700  0.33114000  1
  O  O59  1  0.27339700  0.56711300  0.43595600  1
  O  O60  1  0.24555400  0.43153100  0.88653500  1
  O  O61  1  0.26177800  0.39490000  0.10772600  1
  O  O62  1  0.24325500  0.72482300  0.76953500  1
  O  O63  1  0.26640700  0.28840800  0.55434400  1
  O  O64  1  0.24245400  0.61439600  0.21641100  1
  O  O65  1  0.48149400  0.00814300  0.00260300  1
  O  O66  1  0.48859400  0.90842500  0.43401300  1
  O  O67  1  0.48777700  0.06152400  0.77424600  1
  O  O68  1  0.49826000  0.11949700  0.54434400  1
  O  O69  1  0.47834400  0.95713000  0.23236500  1
  O  O70  1  0.51692800  0.54564800  0.77510000  1
  O  O71  1  0.50013700  0.38067900  0.45389200  1
  O  O72  1  0.51384800  0.43821700  0.22231300  1
  O  O73  1  0.50953300  0.59547000  0.55761000  1
  O  O74  1  0.52143800  0.49065200  0.99611500  1
  O  O75  1  0.75719600  0.88653700  0.77001800  1
  O  O76  1  0.73380100  0.21194500  0.44409500  1
  O  O77  1  0.75669200  0.77592900  0.22977300  1
  O  O78  1  0.74223000  0.06020000  0.11496400  1
  O  O79  1  0.73196000  0.93908800  0.56449400  1
  O  O80  1  0.75299600  0.12001000  0.89203900  1
  O  O81  1  0.75759400  0.17522100  0.66858000  1
  O  O82  1  0.74285200  0.00345000  0.34425700  1
  O  O83  1  0.74500800  0.33088700  0.99724300  1
  O  O84  1  0.75591200  0.82824100  0.00128700  1
  O  O85  1  0.75561800  0.50411900  0.34302700  1
  O  O86  1  0.74049900  0.67618300  0.66886000  1
  O  O87  1  0.77339700  0.43288700  0.56404400  1
  O  O88  1  0.74555400  0.56846900  0.11346500  1
  O  O89  1  0.76177800  0.60510000  0.89227400  1
  O  O90  1  0.74325500  0.27517700  0.23046500  1
  O  O91  1  0.76640700  0.71159200  0.44565600  1
  O  O92  1  0.74245400  0.38560400  0.78358900  1
  O  O93  1  0.98149400  0.99185700  0.99739700  1
  O  O94  1  0.98859400  0.09157500  0.56598700  1
  O  O95  1  0.99826000  0.88050300  0.45565600  1
  O  O96  1  0.98777700  0.93847600  0.22575400  1
  O  O97  1  0.97834400  0.04287000  0.76763500  1
