# generated using pymatgen
data_U2Zn17
_symmetry_space_group_name_H-M   'P 1'
_cell_length_a   6.77990199
_cell_length_b   6.77990199
_cell_length_c   6.77990267
_cell_angle_alpha   82.48444664
_cell_angle_beta   82.48444664
_cell_angle_gamma   82.48444435
_symmetry_Int_Tables_number   1
_chemical_formula_structural   U2Zn17
_chemical_formula_sum   'U2 Zn17'
_cell_volume   304.26470329
_cell_formula_units_Z   1
loop_
 _symmetry_equiv_pos_site_id
 _symmetry_equiv_pos_as_xyz
  1  'x, y, z'
loop_
 _atom_site_type_symbol
 _atom_site_label
 _atom_site_symmetry_multiplicity
 _atom_site_fract_x
 _atom_site_fract_y
 _atom_site_fract_z
 _atom_site_occupancy
  U  U0  1  0.66170000  0.66170000  0.66170000  1
  U  U1  1  0.33830000  0.33830000  0.33830000  1
  Zn  Zn2  1  0.35414600  0.35414600  0.83969400  1
  Zn  Zn3  1  0.83969400  0.35414600  0.35414600  1
  Zn  Zn4  1  0.10173500  0.10173500  0.10173500  1
  Zn  Zn5  1  0.89826500  0.89826500  0.89826500  1
  Zn  Zn6  1  0.00000000  0.00000000  0.50000000  1
  Zn  Zn7  1  0.00000000  0.50000000  0.00000000  1
  Zn  Zn8  1  0.50000000  0.00000000  0.00000000  1
  Zn  Zn9  1  0.00000000  0.70166400  0.29833600  1
  Zn  Zn10  1  0.70166400  0.29833600  0.00000000  1
  Zn  Zn11  1  0.29833600  0.00000000  0.70166400  1
  Zn  Zn12  1  0.00000000  0.29833600  0.70166400  1
  Zn  Zn13  1  0.29833600  0.70166400  0.00000000  1
  Zn  Zn14  1  0.70166400  0.00000000  0.29833600  1
  Zn  Zn15  1  0.16030600  0.64585400  0.64585400  1
  Zn  Zn16  1  0.64585400  0.64585400  0.16030600  1
  Zn  Zn17  1  0.64585400  0.16030600  0.64585400  1
  Zn  Zn18  1  0.35414600  0.83969400  0.35414600  1
