# generated using pymatgen
data_Ca3(PO4)2
_symmetry_space_group_name_H-M   'P 1'
_cell_length_a   13.95813639
_cell_length_b   13.95813639
_cell_length_c   13.95813646
_cell_angle_alpha   44.40588940
_cell_angle_beta   44.40588940
_cell_angle_gamma   44.40588565
_symmetry_Int_Tables_number   1
_chemical_formula_structural   Ca3(PO4)2
_chemical_formula_sum   'Ca21 P14 O56'
_cell_volume   1210.41795576
_cell_formula_units_Z   7
loop_
 _symmetry_equiv_pos_site_id
 _symmetry_equiv_pos_as_xyz
  1  'x, y, z'
loop_
 _atom_site_type_symbol
 _atom_site_label
 _atom_site_symmetry_multiplicity
 _atom_site_fract_x
 _atom_site_fract_y
 _atom_site_fract_z
 _atom_site_occupancy
  Ca  Ca0  1  0.23501100  0.23501100  0.23501100  1
  Ca  Ca1  1  0.58049900  0.14513800  0.17924100  1
  Ca  Ca2  1  0.14513800  0.17924100  0.58049900  1
  Ca  Ca3  1  0.17924100  0.58049900  0.14513800  1
  Ca  Ca4  1  0.21967300  0.18695700  0.78260500  1
  Ca  Ca5  1  0.78260500  0.21967300  0.18695700  1
  Ca  Ca6  1  0.64249600  0.08547300  0.67101300  1
  Ca  Ca7  1  0.18695700  0.78260500  0.21967300  1
  Ca  Ca8  1  0.30774100  0.30232100  0.89082600  1
  Ca  Ca9  1  0.89082600  0.30774100  0.30232100  1
  Ca  Ca10  1  0.67101300  0.64249600  0.08547300  1
  Ca  Ca11  1  0.08547300  0.67101300  0.64249600  1
  Ca  Ca12  1  0.69953300  0.30101200  0.67818600  1
  Ca  Ca13  1  0.30232100  0.89082600  0.30774100  1
  Ca  Ca14  1  0.30101200  0.67818600  0.69953300  1
  Ca  Ca15  1  0.67818600  0.69953300  0.30101200  1
  Ca  Ca16  1  0.80860900  0.39247300  0.79855400  1
  Ca  Ca17  1  0.39247300  0.79855400  0.80860900  1
  Ca  Ca18  1  0.79855400  0.80860900  0.39247300  1
  Ca  Ca19  1  0.73473700  0.73473700  0.73473700  1
  Ca  Ca20  1  0.92285100  0.92285100  0.92285100  1
  P  P21  1  0.99957700  0.99957700  0.99957700  1
  P  P22  1  0.56720900  0.99886200  0.04007300  1
  P  P23  1  0.99886200  0.04007300  0.56720900  1
  P  P24  1  0.04007300  0.56720900  0.99886200  1
  P  P25  1  0.50674000  0.05431400  0.54402700  1
  P  P26  1  0.54402700  0.50674000  0.05431400  1
  P  P27  1  0.05431400  0.54402700  0.50674000  1
  P  P28  1  0.50200400  0.50200400  0.50200400  1
  P  P29  1  0.46160300  0.41949500  0.91979100  1
  P  P30  1  0.91979100  0.46160300  0.41949500  1
  P  P31  1  0.41949500  0.91979100  0.46160300  1
  P  P32  1  0.96092500  0.41921300  0.92145000  1
  P  P33  1  0.41921300  0.92145000  0.96092500  1
  P  P34  1  0.92145000  0.96092500  0.41921300  1
  O  O35  1  0.04007500  0.04007500  0.04007500  1
  O  O36  1  0.10059800  0.10024900  0.39407700  1
  O  O37  1  0.39407700  0.10059800  0.10024900  1
  O  O38  1  0.65902200  0.98568600  0.07907900  1
  O  O39  1  0.10024900  0.39407700  0.10059800  1
  O  O40  1  0.98568600  0.07907900  0.65902200  1
  O  O41  1  0.35619000  0.09537500  0.37944100  1
  O  O42  1  0.37944100  0.35619000  0.09537500  1
  O  O43  1  0.07907900  0.65902200  0.98568600  1
  O  O44  1  0.09537500  0.37944100  0.35619000  1
  O  O45  1  0.34066700  0.07707200  0.62534700  1
  O  O46  1  0.57934300  0.11610600  0.37056000  1
  O  O47  1  0.62534700  0.34066700  0.07707200  1
  O  O48  1  0.11610600  0.37056000  0.57934300  1
  O  O49  1  0.50404000  0.12313100  0.59645300  1
  O  O50  1  0.37056000  0.57934300  0.11610600  1
  O  O51  1  0.07707200  0.62534700  0.34066700  1
  O  O52  1  0.83010400  0.13309300  0.37599100  1
  O  O53  1  0.35880700  0.09192500  0.90538700  1
  O  O54  1  0.59645300  0.50404000  0.12313100  1
  O  O55  1  0.12313100  0.59645300  0.50404000  1
  O  O56  1  0.13309300  0.37599100  0.83010400  1
  O  O57  1  0.90538700  0.35880700  0.09192500  1
  O  O58  1  0.63221700  0.06545000  0.86777300  1
  O  O59  1  0.83842100  0.13147900  0.57424600  1
  O  O60  1  0.49562900  0.34610100  0.62859000  1
  O  O61  1  0.62859000  0.49562900  0.34610100  1
  O  O62  1  0.37599100  0.83010400  0.13309300  1
  O  O63  1  0.09192500  0.90538700  0.35880700  1
  O  O64  1  0.34610100  0.62859000  0.49562900  1
  O  O65  1  0.13147900  0.57424600  0.83842100  1
  O  O66  1  0.86777300  0.63221700  0.06545000  1
  O  O67  1  0.42297600  0.40046700  0.85534900  1
  O  O68  1  0.54375100  0.54375100  0.54375100  1
  O  O69  1  0.85534900  0.42297600  0.40046700  1
  O  O70  1  0.57424600  0.83842100  0.13147900  1
  O  O71  1  0.06545000  0.86777300  0.63221700  1
  O  O72  1  0.63376800  0.32639100  0.87589900  1
  O  O73  1  0.85814800  0.40462900  0.59000300  1
  O  O74  1  0.98284100  0.12114900  0.84638600  1
  O  O75  1  0.40046700  0.85534900  0.42297600  1
  O  O76  1  0.87589900  0.63376800  0.32639100  1
  O  O77  1  0.40462900  0.59000300  0.85814800  1
  O  O78  1  0.32639100  0.87589900  0.63376800  1
  O  O79  1  0.59000300  0.85814800  0.40462900  1
  O  O80  1  0.12114900  0.84638600  0.98284100  1
  O  O81  1  0.92379200  0.35202800  0.90407600  1
  O  O82  1  0.87807400  0.60426500  0.59834800  1
  O  O83  1  0.60426500  0.59834800  0.87807400  1
  O  O84  1  0.84638600  0.98284100  0.12114900  1
  O  O85  1  0.59834800  0.87807400  0.60426500  1
  O  O86  1  0.35202800  0.90407600  0.92379200  1
  O  O87  1  0.90407600  0.92379200  0.35202800  1
  O  O88  1  0.87902300  0.59441900  0.85676200  1
  O  O89  1  0.59441900  0.85676200  0.87902300  1
  O  O90  1  0.85676200  0.87902300  0.59441900  1
