# generated using pymatgen
data_La10(Si2O9)3
_symmetry_space_group_name_H-M   'P 1'
_cell_length_a   7.30595000
_cell_length_b   9.96360300
_cell_length_c   19.61638904
_cell_angle_alpha   59.57190982
_cell_angle_beta   90.00000000
_cell_angle_gamma   90.00000000
_symmetry_Int_Tables_number   1
_chemical_formula_structural   La10(Si2O9)3
_chemical_formula_sum   'La20 Si12 O54'
_cell_volume   1231.26964697
_cell_formula_units_Z   2
loop_
 _symmetry_equiv_pos_site_id
 _symmetry_equiv_pos_as_xyz
  1  'x, y, z'
loop_
 _atom_site_type_symbol
 _atom_site_label
 _atom_site_symmetry_multiplicity
 _atom_site_fract_x
 _atom_site_fract_y
 _atom_site_fract_z
 _atom_site_occupancy
  La  La0  1  0.48913000  0.75774100  0.99631700  1
  La  La1  1  0.50271200  0.99455300  0.61101200  1
  La  La2  1  0.75146100  0.66152500  0.83444100  1
  La  La3  1  0.25225200  0.66783400  0.83403900  1
  La  La4  1  0.99830900  0.76065700  0.61563700  1
  La  La5  1  0.51087000  0.75774100  0.49631700  1
  La  La6  1  0.49565600  0.22159500  0.89571700  1
  La  La7  1  0.49728800  0.99455300  0.11101200  1
  La  La8  1  0.75574200  0.32724700  0.67150400  1
  La  La9  1  0.25487800  0.33755800  0.66964000  1
  La  La10  1  0.74774800  0.66783400  0.33403900  1
  La  La11  1  0.24853900  0.66152500  0.33444100  1
  La  La12  1  0.00389500  0.99993800  0.88140400  1
  La  La13  1  0.00169100  0.76065700  0.11563700  1
  La  La14  1  0.04308500  0.22942300  0.50266800  1
  La  La15  1  0.50434400  0.22159500  0.39571700  1
  La  La16  1  0.74512200  0.33755800  0.16964000  1
  La  La17  1  0.24425800  0.32724700  0.17150400  1
  La  La18  1  0.99610500  0.99993800  0.38140400  1
  La  La19  1  0.95691500  0.22942300  0.00266800  1
  Si  Si20  1  0.00184100  0.96679100  0.70179700  1
  Si  Si21  1  0.99687600  0.62334000  0.98592200  1
  Si  Si22  1  0.50574000  0.59117200  0.68972000  1
  Si  Si23  1  0.00218600  0.40731200  0.81402500  1
  Si  Si24  1  0.99815900  0.96679100  0.20179700  1
  Si  Si25  1  0.00312400  0.62334000  0.48592200  1
  Si  Si26  1  0.49549000  0.38387900  0.51874100  1
  Si  Si27  1  0.49855700  0.03036000  0.79779100  1
  Si  Si28  1  0.49426000  0.59117200  0.18972000  1
  Si  Si29  1  0.99781400  0.40731200  0.31402500  1
  Si  Si30  1  0.50451000  0.38387900  0.01874100  1
  Si  Si31  1  0.50144300  0.03036000  0.29779100  1
  O  O32  1  0.17503000  0.74355800  0.95289900  1
  O  O33  1  0.81401000  0.73641200  0.95500100  1
  O  O34  1  0.99684400  0.86508400  0.79974200  1
  O  O35  1  0.49888100  0.84083100  0.83401500  1
  O  O36  1  0.82478700  0.90763800  0.67148000  1
  O  O37  1  0.18667900  0.91111300  0.67427100  1
  O  O38  1  0.58527500  0.96710300  0.49998100  1
  O  O39  1  0.00684700  0.98782300  0.49866300  1
  O  O40  1  0.00572600  0.52945300  0.93660600  1
  O  O41  1  0.49948800  0.66270400  0.74903300  1
  O  O42  1  0.50073100  0.50404400  0.92232000  1
  O  O43  1  0.01881100  0.59975800  0.76428800  1
  O  O44  1  0.32722500  0.65170900  0.62880700  1
  O  O45  1  0.69316100  0.64601600  0.63595400  1
  O  O46  1  0.80983100  0.37442000  0.86374400  1
  O  O47  1  0.17385900  0.33742000  0.87656600  1
  O  O48  1  0.18599000  0.73641200  0.45500100  1
  O  O49  1  0.82497000  0.74355800  0.45289900  1
  O  O50  1  0.00315600  0.86508400  0.29974200  1
  O  O51  1  0.50111900  0.84083100  0.33401500  1
  O  O52  1  0.50160500  0.39872700  0.73776100  1
  O  O53  1  0.99704400  0.51541300  0.58272900  1
  O  O54  1  0.81332100  0.91111300  0.17427100  1
  O  O55  1  0.17521300  0.90763800  0.17148000  1
  O  O56  1  0.99880900  0.32955500  0.75745500  1
  O  O57  1  0.55061800  0.47575700  0.56712300  1
  O  O58  1  0.41472500  0.96710300  0.99998100  1
  O  O59  1  0.99427400  0.52945300  0.43660600  1
  O  O60  1  0.50051200  0.66270400  0.24903300  1
  O  O61  1  0.31024100  0.08911800  0.82159600  1
  O  O62  1  0.67620600  0.08187500  0.83234500  1
  O  O63  1  0.49926900  0.50404400  0.42232000  1
  O  O64  1  0.98118900  0.59975800  0.26428800  1
  O  O65  1  0.99863800  0.15486100  0.66843000  1
  O  O66  1  0.50828200  0.13039500  0.70039700  1
  O  O67  1  0.65187300  0.24835500  0.54354300  1
  O  O68  1  0.28349600  0.33681200  0.55128600  1
  O  O69  1  0.30683900  0.64601600  0.13595400  1
  O  O70  1  0.67277500  0.65170900  0.12880700  1
  O  O71  1  0.82614100  0.33742000  0.37656600  1
  O  O72  1  0.19016900  0.37442000  0.36374400  1
  O  O73  1  0.32660600  0.14312300  0.50359000  1
  O  O74  1  0.49839500  0.39872700  0.23776100  1
  O  O75  1  0.00295600  0.51541300  0.08272900  1
  O  O76  1  0.00119100  0.32955500  0.25745500  1
  O  O77  1  0.44938200  0.47575700  0.06712300  1
  O  O78  1  0.32379400  0.08187500  0.33234500  1
  O  O79  1  0.68975900  0.08911800  0.32159600  1
  O  O80  1  0.00136200  0.15486100  0.16843000  1
  O  O81  1  0.49171800  0.13039500  0.20039700  1
  O  O82  1  0.71650400  0.33681200  0.05128600  1
  O  O83  1  0.34812700  0.24835500  0.04354300  1
  O  O84  1  0.67339400  0.14312300  0.00359000  1
  O  O85  1  0.99315300  0.98782300  0.99866300  1
