# generated using pymatgen
data_Na16(WO3)19
_symmetry_space_group_name_H-M   'P 1'
_cell_length_a   74.22973369
_cell_length_b   5.52322996
_cell_length_c   5.52323014
_cell_angle_alpha   59.99767381
_cell_angle_beta   44.99698583
_cell_angle_gamma   44.99698405
_symmetry_Int_Tables_number   1
_chemical_formula_structural   Na16(WO3)19
_chemical_formula_sum   'Na16 W19 O57'
_cell_volume   1132.10957121
_cell_formula_units_Z   1
loop_
 _symmetry_equiv_pos_site_id
 _symmetry_equiv_pos_as_xyz
  1  'x, y, z'
loop_
 _atom_site_type_symbol
 _atom_site_label
 _atom_site_symmetry_multiplicity
 _atom_site_fract_x
 _atom_site_fract_y
 _atom_site_fract_z
 _atom_site_occupancy
  Na  Na0  1  0.05245300  0.00121100  0.00121100  1
  Na  Na1  1  0.10618200  0.99428000  0.99428000  1
  Na  Na2  1  0.20960800  0.00560900  0.00560900  1
  Na  Na3  1  0.26333800  0.99879000  0.99879000  1
  Na  Na4  1  0.36590300  0.01605000  0.01605000  1
  Na  Na5  1  0.41932300  0.01097500  0.01097500  1
  Na  Na6  1  0.47240700  0.00813300  0.00813300  1
  Na  Na7  1  0.52579500  0.00329100  0.00329100  1
  Na  Na8  1  0.57874000  0.00137900  0.00137900  1
  Na  Na9  1  0.63148300  0.00059500  0.00059500  1
  Na  Na10  1  0.68428400  0.99958900  0.99958900  1
  Na  Na11  1  0.73704400  0.99864200  0.99864200  1
  Na  Na12  1  0.78999600  0.99678400  0.99678400  1
  Na  Na13  1  0.84337300  0.99195800  0.99195800  1
  Na  Na14  1  0.89647400  0.98901300  0.98901300  1
  Na  Na15  1  0.94987900  0.98393300  0.98393300  1
  W  W16  1  0.02639200  0.49943900  0.49943900  1
  W  W17  1  0.07921500  0.49829100  0.49829100  1
  W  W18  1  0.13213300  0.49649500  0.49649500  1
  W  W19  1  0.18365000  0.50352100  0.50352100  1
  W  W20  1  0.23656800  0.50170700  0.50170700  1
  W  W21  1  0.28939000  0.50057300  0.50057300  1
  W  W22  1  0.34071900  0.50886900  0.50886900  1
  W  W23  1  0.39318600  0.50991300  0.50991300  1
  W  W24  1  0.44661600  0.50482100  0.50482100  1
  W  W25  1  0.49955400  0.50283600  0.50283600  1
  W  W26  1  0.55232000  0.50198600  0.50198600  1
  W  W27  1  0.60513500  0.50084100  0.50084100  1
  W  W28  1  0.65790100  0.50000000  0.50000000  1
  W  W29  1  0.71067000  0.49911700  0.49911700  1
  W  W30  1  0.76348000  0.49798400  0.49798400  1
  W  W31  1  0.81624100  0.49716200  0.49716200  1
  W  W32  1  0.86917600  0.49516900  0.49516900  1
  W  W33  1  0.92260300  0.49007100  0.49007100  1
  W  W34  1  0.97507000  0.49109800  0.49109800  1
  O  O35  1  0.00042900  0.49746700  0.99703000  1
  O  O36  1  0.00042900  0.99703000  0.49746700  1
  O  O37  1  0.00046700  0.49716500  0.49716500  1
  O  O38  1  0.05340600  0.49373300  0.99794300  1
  O  O39  1  0.05340600  0.99794300  0.49373300  1
  O  O40  1  0.05341300  0.49368100  0.49368100  1
  O  O41  1  0.10493100  0.50361600  0.99912100  1
  O  O42  1  0.10493100  0.99912100  0.50361600  1
  O  O43  1  0.10492800  0.50364700  0.50364700  1
  O  O44  1  0.15789500  0.99999600  0.50000800  1
  O  O45  1  0.15789500  0.50000800  0.99999600  1
  O  O46  1  0.15788500  0.50006900  0.50006900  1
  O  O47  1  0.21084800  0.00086200  0.49637900  1
  O  O48  1  0.21084800  0.49637900  0.00086200  1
  O  O49  1  0.21086600  0.49625300  0.49625300  1
  O  O50  1  0.26238500  0.00204200  0.50624800  1
  O  O51  1  0.26238500  0.50624800  0.00204200  1
  O  O52  1  0.26236100  0.50641900  0.50641900  1
  O  O53  1  0.31535100  0.00296100  0.50251900  1
  O  O54  1  0.31535100  0.50251900  0.00296100  1
  O  O55  1  0.31532800  0.50272400  0.50272400  1
  O  O56  1  0.36834500  0.00333400  0.49874900  1
  O  O57  1  0.36834500  0.49874900  0.00333400  1
  O  O58  1  0.36830600  0.49919600  0.49919600  1
  O  O59  1  0.42056100  0.00348700  0.50267500  1
  O  O60  1  0.42056100  0.50267500  0.00348700  1
  O  O61  1  0.42052200  0.50311800  0.50311800  1
  O  O62  1  0.47329800  0.00297500  0.50214200  1
  O  O63  1  0.47329800  0.50214200  0.00297500  1
  O  O64  1  0.47326700  0.50244400  0.50244400  1
  O  O65  1  0.52604600  0.00189400  0.50160400  1
  O  O66  1  0.52604600  0.50160400  0.00189400  1
  O  O67  1  0.52605600  0.50159000  0.50159000  1
  O  O68  1  0.57880400  0.00106500  0.50097300  1
  O  O69  1  0.57880400  0.50097300  0.00106500  1
  O  O70  1  0.57878600  0.50111100  0.50111100  1
  O  O71  1  0.63153000  0.00038300  0.50028100  1
  O  O72  1  0.63153000  0.50028100  0.00038300  1
  O  O73  1  0.63154900  0.50016900  0.50016900  1
  O  O74  1  0.68427000  0.99962500  0.49970900  1
  O  O75  1  0.68427000  0.49970900  0.99962500  1
  O  O76  1  0.68424800  0.49984400  0.49984400  1
  O  O77  1  0.73699300  0.99893500  0.49901300  1
  O  O78  1  0.73699300  0.49901300  0.99893500  1
  O  O79  1  0.73701400  0.49885500  0.49885500  1
  O  O80  1  0.78975100  0.99810100  0.49836800  1
  O  O81  1  0.78975100  0.49836800  0.99810100  1
  O  O82  1  0.78974200  0.49838900  0.49838900  1
  O  O83  1  0.84249600  0.99703500  0.49786200  1
  O  O84  1  0.84249600  0.49786200  0.99703500  1
  O  O85  1  0.84252200  0.49759000  0.49759000  1
  O  O86  1  0.89522400  0.99653000  0.49731400  1
  O  O87  1  0.89522400  0.49731400  0.99653000  1
  O  O88  1  0.89527200  0.49683300  0.49683300  1
  O  O89  1  0.94744300  0.99667300  0.50126600  1
  O  O90  1  0.94744300  0.50126600  0.99667300  1
  O  O91  1  0.94747300  0.50086300  0.50086300  1
