# generated using pymatgen
data_MgAl2O4
_symmetry_space_group_name_H-M   'P 1'
_cell_length_a   19.21121130
_cell_length_b   19.21121130
_cell_length_c   19.21121096
_cell_angle_alpha   17.24484730
_cell_angle_beta   17.24484730
_cell_angle_gamma   17.24484761
_symmetry_Int_Tables_number   1
_chemical_formula_structural   MgAl2O4
_chemical_formula_sum   'Mg8 Al16 O32'
_cell_volume   543.72606343
_cell_formula_units_Z   8
loop_
 _symmetry_equiv_pos_site_id
 _symmetry_equiv_pos_as_xyz
  1  'x, y, z'
loop_
 _atom_site_type_symbol
 _atom_site_label
 _atom_site_symmetry_multiplicity
 _atom_site_fract_x
 _atom_site_fract_y
 _atom_site_fract_z
 _atom_site_occupancy
  Mg  Mg0  1  0.15540300  0.15540300  0.15540300  1
  Mg  Mg1  1  0.40529100  0.40529100  0.40529100  1
  Mg  Mg2  1  0.74965800  0.74965800  0.74965800  1
  Mg  Mg3  1  0.65537600  0.65537600  0.65537600  1
  Mg  Mg4  1  0.90599500  0.90599500  0.90599500  1
  Mg  Mg5  1  0.99936100  0.99936100  0.99936100  1
  Mg  Mg6  1  0.59448100  0.59448100  0.59448100  1
  Mg  Mg7  1  0.49961400  0.49961400  0.49961400  1
  Al  Al8  1  0.62020800  0.62020800  0.13522900  1
  Al  Al9  1  0.13522900  0.62020800  0.62020800  1
  Al  Al10  1  0.62020800  0.13522900  0.62020800  1
  Al  Al11  1  0.87067600  0.87067600  0.38438200  1
  Al  Al12  1  0.38438200  0.87067600  0.87067600  1
  Al  Al13  1  0.12215200  0.12215200  0.63048000  1
  Al  Al14  1  0.87067600  0.38438200  0.87067600  1
  Al  Al15  1  0.63048000  0.12215200  0.12215200  1
  Al  Al16  1  0.09507900  0.09507900  0.09507900  1
  Al  Al17  1  0.12215200  0.63048000  0.12215200  1
  Al  Al18  1  0.37275000  0.37275000  0.88055100  1
  Al  Al19  1  0.88055100  0.37275000  0.37275000  1
  Al  Al20  1  0.34530800  0.34530800  0.34530800  1
  Al  Al21  1  0.25053700  0.25053700  0.25053700  1
  Al  Al22  1  0.37275000  0.88055100  0.37275000  1
  Al  Al23  1  0.84417500  0.84417500  0.84417500  1
  O  O24  1  0.32359800  0.78261200  0.32359800  1
  O  O25  1  0.78261200  0.32359800  0.32359800  1
  O  O26  1  0.44002100  0.44002100  0.44002100  1
  O  O27  1  0.32359800  0.32359800  0.78261200  1
  O  O28  1  0.57358000  0.03221600  0.57358000  1
  O  O29  1  0.93310000  0.93310000  0.45220000  1
  O  O30  1  0.45220000  0.93310000  0.93310000  1
  O  O31  1  0.03221600  0.57358000  0.57358000  1
  O  O32  1  0.68997200  0.68997200  0.68997200  1
  O  O33  1  0.81121300  0.81121300  0.81121300  1
  O  O34  1  0.57358000  0.57358000  0.03221600  1
  O  O35  1  0.93310000  0.45220000  0.93310000  1
  O  O36  1  0.82197800  0.28374400  0.82197800  1
  O  O37  1  0.18248700  0.18248700  0.70353100  1
  O  O38  1  0.70353100  0.18248700  0.18248700  1
  O  O39  1  0.06165500  0.06165500  0.06165500  1
  O  O40  1  0.28374400  0.82197800  0.82197800  1
  O  O41  1  0.93997200  0.93997200  0.93997200  1
  O  O42  1  0.82197800  0.82197800  0.28374400  1
  O  O43  1  0.18248700  0.70353100  0.18248700  1
  O  O44  1  0.08075900  0.52325900  0.08075900  1
  O  O45  1  0.41832200  0.41832200  0.97970100  1
  O  O46  1  0.97970100  0.41832200  0.41832200  1
  O  O47  1  0.31246700  0.31246700  0.31246700  1
  O  O48  1  0.19070700  0.19070700  0.19070700  1
  O  O49  1  0.52325900  0.08075900  0.08075900  1
  O  O50  1  0.41832200  0.97970100  0.41832200  1
  O  O51  1  0.08075900  0.08075900  0.52325900  1
  O  O52  1  0.68638800  0.68638800  0.19555800  1
  O  O53  1  0.19555800  0.68638800  0.68638800  1
  O  O54  1  0.55825400  0.55825400  0.55825400  1
  O  O55  1  0.68638800  0.19555800  0.68638800  1
