# generated using pymatgen
data_Ca20Er10F69
_symmetry_space_group_name_H-M   'P 1'
_cell_length_a   8.78343500
_cell_length_b   8.78423507
_cell_length_c   16.67017549
_cell_angle_alpha   90.28155372
_cell_angle_beta   90.20060570
_cell_angle_gamma   90.00729223
_symmetry_Int_Tables_number   1
_chemical_formula_structural   Ca20Er10F69
_chemical_formula_sum   'Ca20 Er10 F69'
_cell_volume   1286.17659571
_cell_formula_units_Z   1
loop_
 _symmetry_equiv_pos_site_id
 _symmetry_equiv_pos_as_xyz
  1  'x, y, z'
loop_
 _atom_site_type_symbol
 _atom_site_label
 _atom_site_symmetry_multiplicity
 _atom_site_fract_x
 _atom_site_fract_y
 _atom_site_fract_z
 _atom_site_occupancy
  Ca  Ca0  1  0.80744500  0.38059300  0.83678800  1
  Ca  Ca1  1  0.62237700  0.80891600  0.83820200  1
  Ca  Ca2  1  0.38041500  0.19399200  0.83618900  1
  Ca  Ca3  1  0.30582600  0.89367700  0.33137900  1
  Ca  Ca4  1  0.30554800  0.89124600  0.66772100  1
  Ca  Ca5  1  0.19248700  0.62247400  0.83750300  1
  Ca  Ca6  1  0.10844200  0.30678900  0.33267000  1
  Ca  Ca7  1  0.10667300  0.30457000  0.66889600  1
  Ca  Ca8  1  0.00025900  0.00132600  0.17811100  1
  Ca  Ca9  1  0.00000000  0.00000000  0.50000000  1
  Ca  Ca10  1  0.99974100  0.99867400  0.82188900  1
  Ca  Ca11  1  0.89332700  0.69543000  0.33110400  1
  Ca  Ca12  1  0.89155800  0.69321100  0.66733000  1
  Ca  Ca13  1  0.80751300  0.37752600  0.16249700  1
  Ca  Ca14  1  0.69445200  0.10875400  0.33227900  1
  Ca  Ca15  1  0.69417400  0.10632300  0.66862100  1
  Ca  Ca16  1  0.61958500  0.80600800  0.16381100  1
  Ca  Ca17  1  0.50000000  0.50000000  0.00000000  1
  Ca  Ca18  1  0.37762300  0.19108400  0.16179800  1
  Ca  Ca19  1  0.19255500  0.61940700  0.16321200  1
  Er  Er20  1  0.50017100  0.50138400  0.67974100  1
  Er  Er21  1  0.39322400  0.18911900  0.49969900  1
  Er  Er22  1  0.18918300  0.60674400  0.49970600  1
  Er  Er23  1  0.89193400  0.68530600  0.99979900  1
  Er  Er24  1  0.81081700  0.39325600  0.50029400  1
  Er  Er25  1  0.68531900  0.10808400  0.99970300  1
  Er  Er26  1  0.60677600  0.81088100  0.50030100  1
  Er  Er27  1  0.49982900  0.49861600  0.32025900  1
  Er  Er28  1  0.31468100  0.89191600  0.00029700  1
  Er  Er29  1  0.10806600  0.31469400  0.00020100  1
  F  F30  1  0.77608200  0.07974300  0.87709500  1
  F  F31  1  0.69669500  0.59301800  0.75819000  1
  F  F32  1  0.70552200  0.57923700  0.91960700  1
  F  F33  1  0.59247800  0.30396500  0.75727400  1
  F  F34  1  0.57631400  0.71639000  0.62276700  1
  F  F35  1  0.58135000  0.29446500  0.91902600  1
  F  F36  1  0.49996100  0.00109900  0.58120800  1
  F  F37  1  0.50003100  0.00058700  0.75106500  1
  F  F38  1  0.49709600  0.00174300  0.91891400  1
  F  F39  1  0.42303000  0.28727800  0.62150900  1
  F  F40  1  0.40763400  0.69734000  0.75812200  1
  F  F41  1  0.35529500  0.79083500  0.50067300  1
  F  F42  1  0.42025700  0.70522300  0.91977400  1
  F  F43  1  0.28442000  0.57435500  0.37750700  1
  F  F44  1  0.30344900  0.40823800  0.75729700  1
  F  F45  1  0.28638800  0.57880200  0.62184700  1
  F  F46  1  0.20455200  0.10176100  0.26073700  1
  F  F47  1  0.29477500  0.41820000  0.91924200  1
  F  F48  1  0.20698700  0.08269900  0.42036000  1
  F  F49  1  0.20919100  0.35524000  0.49708600  1
  F  F50  1  0.20685900  0.08551900  0.57986600  1
  F  F51  1  0.22046100  0.91325800  0.87788700  1
  F  F52  1  0.20433100  0.09994800  0.73978700  1
  F  F53  1  0.10102200  0.79627400  0.25993500  1
  F  F54  1  0.08269400  0.22414300  0.12304800  1
  F  F55  1  0.08487200  0.79288400  0.41994400  1
  F  F56  1  0.08349900  0.79315200  0.57945900  1
  F  F57  1  0.99970900  0.50084400  0.08111800  1
  F  F58  1  0.10066900  0.79486100  0.73894800  1
  F  F59  1  0.00037200  0.50040700  0.24900700  1
  F  F60  1  0.08356000  0.22022800  0.87808300  1
  F  F61  1  0.99753300  0.50165200  0.41883200  1
  F  F62  1  0.00246700  0.49834800  0.58116800  1
  F  F63  1  0.91644000  0.77977200  0.12191700  1
  F  F64  1  0.99962800  0.49959300  0.75099300  1
  F  F65  1  0.89933100  0.20513900  0.26105200  1
  F  F66  1  0.00029100  0.49915600  0.91888200  1
  F  F67  1  0.85306300  0.29408600  0.00007600  1
  F  F68  1  0.91650100  0.20684800  0.42054100  1
  F  F69  1  0.91512800  0.20711600  0.58005600  1
  F  F70  1  0.91730600  0.77585700  0.87695200  1
  F  F71  1  0.89897800  0.20372600  0.74006500  1
  F  F72  1  0.79566900  0.90005200  0.26021300  1
  F  F73  1  0.77953900  0.08674200  0.12211300  1
  F  F74  1  0.79314100  0.91448100  0.42013400  1
  F  F75  1  0.79080900  0.64476000  0.50291400  1
  F  F76  1  0.79301300  0.91730100  0.57964000  1
  F  F77  1  0.70586300  0.85300900  0.99700600  1
  F  F78  1  0.70522500  0.58180000  0.08075800  1
  F  F79  1  0.79544800  0.89823900  0.73926300  1
  F  F80  1  0.71361200  0.42119800  0.37815300  1
  F  F81  1  0.69655100  0.59176200  0.24270300  1
  F  F82  1  0.71558000  0.42564500  0.62249300  1
  F  F83  1  0.57974300  0.29477700  0.08022600  1
  F  F84  1  0.64470500  0.20916500  0.49932700  1
  F  F85  1  0.59236600  0.30266000  0.24187800  1
  F  F86  1  0.57697000  0.71272200  0.37849100  1
  F  F87  1  0.50290400  0.99825700  0.08108600  1
  F  F88  1  0.49996900  0.99941300  0.24893500  1
  F  F89  1  0.50003900  0.99890100  0.41879200  1
  F  F90  1  0.50000000  0.50000000  0.50000000  1
  F  F91  1  0.41865000  0.70553500  0.08097400  1
  F  F92  1  0.42368600  0.28361000  0.37723300  1
  F  F93  1  0.40752200  0.69603500  0.24272600  1
  F  F94  1  0.29413700  0.14699100  0.00299400  1
  F  F95  1  0.29447800  0.42076300  0.08039300  1
  F  F96  1  0.30330500  0.40698200  0.24181000  1
  F  F97  1  0.22391800  0.92025700  0.12290500  1
  F  F98  1  0.14693700  0.70591400  0.99992400  1
