# generated using pymatgen
data_Fe(Bi5O8)5
_symmetry_space_group_name_H-M   'P 1'
_cell_length_a   9.00550970
_cell_length_b   9.00550940
_cell_length_c   18.00011954
_cell_angle_alpha   109.41629986
_cell_angle_beta   109.44273527
_cell_angle_gamma   109.57914263
_symmetry_Int_Tables_number   1
_chemical_formula_structural   Fe(Bi5O8)5
_chemical_formula_sum   'Fe1 Bi25 O40'
_cell_volume   1123.40888369
_cell_formula_units_Z   1
loop_
 _symmetry_equiv_pos_site_id
 _symmetry_equiv_pos_as_xyz
  1  'x, y, z'
loop_
 _atom_site_type_symbol
 _atom_site_label
 _atom_site_symmetry_multiplicity
 _atom_site_fract_x
 _atom_site_fract_y
 _atom_site_fract_z
 _atom_site_occupancy
  Fe  Fe0  1  0.99707500  0.99707500  0.00000000  1
  Bi  Bi1  1  0.15248200  0.85325200  0.82967200  1
  Bi  Bi2  1  0.14279100  0.29715700  0.90230700  1
  Bi  Bi3  1  0.19292200  0.50078100  0.66530600  1
  Bi  Bi4  1  0.31084600  0.81832200  0.56874900  1
  Bi  Bi5  1  0.17016900  0.86231000  0.33469400  1
  Bi  Bi6  1  0.49814000  0.70303800  0.92314600  1
  Bi  Bi7  1  0.00709500  0.00709500  0.50000000  1
  Bi  Bi8  1  0.14163400  0.31311100  0.40475900  1
  Bi  Bi9  1  0.32884800  0.19017900  0.74765900  1
  Bi  Bi10  1  0.69231100  0.83997200  0.74917900  1
  Bi  Bi11  1  0.19390700  0.49313700  0.17032800  1
  Bi  Bi12  1  0.29646800  0.79496200  0.07255800  1
  Bi  Bi13  1  0.50359300  0.33211500  0.59524100  1
  Bi  Bi14  1  0.64984500  0.15135200  0.92744200  1
  Bi  Bi15  1  0.50840100  0.68993700  0.41526500  1
  Bi  Bi16  1  0.83749600  0.49039300  0.84676500  1
  Bi  Bi17  1  0.34161400  0.19395300  0.25082100  1
  Bi  Bi18  1  0.69486000  0.83352900  0.25234100  1
  Bi  Bi19  1  0.85940600  0.67787100  0.58473500  1
  Bi  Bi20  1  0.49254300  0.33817800  0.09769300  1
  Bi  Bi21  1  0.68082300  0.17334700  0.43125100  1
  Bi  Bi22  1  0.81831100  0.14134300  0.65236700  1
  Bi  Bi23  1  0.83660900  0.51357600  0.34763300  1
  Bi  Bi24  1  0.85674600  0.65184900  0.07685400  1
  Bi  Bi25  1  0.79686300  0.14396500  0.15323500  1
  O  O26  1  0.11228200  0.75394600  0.69018900  1
  O  O27  1  0.25964200  0.63951300  0.94301700  1
  O  O28  1  0.00033100  0.64729300  0.50072500  1
  O  O29  1  0.25069400  0.36340400  0.81630900  1
  O  O30  1  0.37950200  0.74252100  0.81385700  1
  O  O31  1  0.11480700  0.75178800  0.18614300  1
  O  O32  1  0.37047100  0.63605600  0.62859700  1
  O  O33  1  0.37331500  0.11374300  0.88032500  1
  O  O34  1  0.26665600  0.63666900  0.44347200  1
  O  O35  1  0.36270500  0.36212900  0.68205600  1
  O  O36  1  0.99842300  0.59500600  0.99842200  1
  O  O37  1  0.25932600  0.99966500  0.49863000  1
  O  O38  1  0.24341000  0.35674100  0.30785800  1
  O  O39  1  0.62153100  0.37336700  0.86838300  1
  O  O40  1  0.80660300  0.80757100  0.90506500  1
  O  O41  1  0.64189500  0.88877400  0.63241800  1
  O  O42  1  0.37356900  0.73190500  0.30981100  1
  O  O43  1  0.35309200  0.61266400  0.11967500  1
  O  O44  1  0.74102600  0.62769400  0.69214200  1
  O  O45  1  0.37886100  0.11327700  0.37140300  1
  O  O46  1  0.63263100  0.25112400  0.68223600  1
  O  O47  1  0.00089300  0.00060200  0.80494400  1
  O  O48  1  0.39071300  0.39100400  0.19505600  1
  O  O49  1  0.18803500  0.99817200  0.00000300  1
  O  O50  1  0.88560200  0.25783800  0.82033100  1
  O  O51  1  0.62393800  0.37705900  0.36758200  1
  O  O52  1  0.00040100  0.00105100  0.62382600  1
  O  O53  1  0.75339800  0.75274900  0.37617400  1
  O  O54  1  0.63660200  0.88476600  0.13161700  1
  O  O55  1  0.74972500  0.37971200  0.55652800  1
  O  O56  1  0.64584200  0.99888000  0.49927500  1
  O  O57  1  0.73078600  0.61807600  0.18369100  1
  O  O58  1  0.61717600  0.24494000  0.17966900  1
  O  O59  1  0.99801700  0.99859300  0.31794400  1
  O  O60  1  0.88665100  0.26815800  0.31776400  1
  O  O61  1  0.00240500  0.26206600  0.50137000  1
  O  O62  1  0.75347900  0.37360700  0.05698300  1
  O  O63  1  0.59816100  0.00157800  0.00157800  1
  O  O64  1  0.99744100  0.99647300  0.09493500  1
  O  O65  1  0.99816600  0.18803000  0.99999700  1
