# generated using pymatgen
data_MgAl2O4
_symmetry_space_group_name_H-M   'P 1'
_cell_length_a   5.76635262
_cell_length_b   5.76635262
_cell_length_c   19.20826280
_cell_angle_alpha   81.27466262
_cell_angle_beta   81.27466262
_cell_angle_gamma   59.90079603
_symmetry_Int_Tables_number   1
_chemical_formula_structural   MgAl2O4
_chemical_formula_sum   'Mg8 Al16 O32'
_cell_volume   544.03379144
_cell_formula_units_Z   8
loop_
 _symmetry_equiv_pos_site_id
 _symmetry_equiv_pos_as_xyz
  1  'x, y, z'
loop_
 _atom_site_type_symbol
 _atom_site_label
 _atom_site_symmetry_multiplicity
 _atom_site_fract_x
 _atom_site_fract_y
 _atom_site_fract_z
 _atom_site_occupancy
  Mg  Mg0  1  0.84432700  0.84432700  0.96633400  1
  Mg  Mg1  1  0.59491800  0.59491800  0.71430800  1
  Mg  Mg2  1  0.25093300  0.25093300  0.74739200  1
  Mg  Mg3  1  0.87303600  0.87303600  0.37587200  1
  Mg  Mg4  1  0.09429700  0.09429700  0.22241900  1
  Mg  Mg5  1  0.65405600  0.65405600  0.53324000  1
  Mg  Mg6  1  0.50018700  0.50018700  0.99868500  1
  Mg  Mg7  1  0.40358500  0.40358500  0.27849100  1
  Al  Al8  1  0.37961500  0.37961500  0.87529900  1
  Al  Al9  1  0.86560500  0.37949300  0.87531100  1
  Al  Al10  1  0.37949300  0.86560500  0.87531100  1
  Al  Al11  1  0.12600700  0.12600700  0.62508700  1
  Al  Al12  1  0.62342800  0.12551600  0.62491300  1
  Al  Al13  1  0.34869800  0.34869800  0.46884400  1
  Al  Al14  1  0.12551600  0.62342800  0.62491300  1
  Al  Al15  1  0.38212100  0.87159800  0.37484200  1
  Al  Al16  1  0.90461800  0.90461800  0.78629800  1
  Al  Al17  1  0.99982500  0.99982500  0.50295300  1
  Al  Al18  1  0.87159800  0.38212100  0.37484200  1
  Al  Al19  1  0.62734400  0.62734400  0.12529600  1
  Al  Al20  1  0.11916000  0.62772300  0.12567700  1
  Al  Al21  1  0.74864700  0.74864700  0.25106900  1
  Al  Al22  1  0.62772300  0.11916000  0.12567700  1
  Al  Al23  1  0.15587500  0.15587500  0.03271500  1
  O  O24  1  0.67666900  0.21734300  0.92918900  1
  O  O25  1  0.56048500  0.56048500  0.81901600  1
  O  O26  1  0.21734300  0.67666900  0.92918900  1
  O  O27  1  0.67654600  0.67654600  0.92923600  1
  O  O28  1  0.42759400  0.96904100  0.67613500  1
  O  O29  1  0.06784800  0.06784800  0.81791600  1
  O  O30  1  0.54638000  0.06804300  0.81800400  1
  O  O31  1  0.18883800  0.18883800  0.93342400  1
  O  O32  1  0.96904100  0.42759400  0.67613500  1
  O  O33  1  0.31209200  0.31209200  0.56393200  1
  O  O34  1  0.42732600  0.42732600  0.67600000  1
  O  O35  1  0.06804300  0.54638000  0.81800400  1
  O  O36  1  0.18942800  0.70678400  0.44103400  1
  O  O37  1  0.83129300  0.83129300  0.56699300  1
  O  O38  1  0.26874600  0.83266400  0.56794700  1
  O  O39  1  0.93695700  0.93695700  0.68803400  1
  O  O40  1  0.70678400  0.18942800  0.44103400  1
  O  O41  1  0.06767400  0.06767400  0.32692200  1
  O  O42  1  0.83266400  0.26874600  0.56794700  1
  O  O43  1  0.18235300  0.18235300  0.43863300  1
  O  O44  1  0.91849500  0.47518000  0.18396900  1
  O  O45  1  0.57432700  0.57432700  0.31576500  1
  O  O46  1  0.68061700  0.68061700  0.42942600  1
  O  O47  1  0.81002100  0.81002100  0.07187000  1
  O  O48  1  0.47518000  0.91849500  0.18396900  1
  O  O49  1  0.02613700  0.56549400  0.31222800  1
  O  O50  1  0.92049500  0.92049500  0.18500000  1
  O  O51  1  0.56549400  0.02613700  0.31222800  1
  O  O52  1  0.31389500  0.31389500  0.06754000  1
  O  O53  1  0.80441800  0.31410200  0.06743000  1
  O  O54  1  0.44210300  0.44210300  0.17263200  1
  O  O55  1  0.31410200  0.80441800  0.06743000  1
