# generated using pymatgen
data_Ga41N11O45
_symmetry_space_group_name_H-M   'P 1'
_cell_length_a   5.94373186
_cell_length_b   5.94373186
_cell_length_c   34.21099192
_cell_angle_alpha   84.99543846
_cell_angle_beta   84.99543846
_cell_angle_gamma   60.11452775
_symmetry_Int_Tables_number   1
_chemical_formula_structural   Ga41N11O45
_chemical_formula_sum   'Ga41 N11 O45'
_cell_volume   1042.55175859
_cell_formula_units_Z   1
loop_
 _symmetry_equiv_pos_site_id
 _symmetry_equiv_pos_as_xyz
  1  'x, y, z'
loop_
 _atom_site_type_symbol
 _atom_site_label
 _atom_site_symmetry_multiplicity
 _atom_site_fract_x
 _atom_site_fract_y
 _atom_site_fract_z
 _atom_site_occupancy
  Ga  Ga0  1  0.16499600  0.16499600  0.01825200  1
  Ga  Ga1  1  0.50587300  0.50587300  0.00018600  1
  Ga  Ga2  1  0.13954800  0.65328700  0.07480700  1
  Ga  Ga3  1  0.45067900  0.45067900  0.16403300  1
  Ga  Ga4  1  0.64783400  0.64783400  0.07421600  1
  Ga  Ga5  1  0.42348200  0.93770000  0.21573000  1
  Ga  Ga6  1  0.72612200  0.72612200  0.30048000  1
  Ga  Ga7  1  0.81638200  0.81638200  0.14915500  1
  Ga  Ga8  1  0.65328700  0.13954800  0.07480700  1
  Ga  Ga9  1  0.70849500  0.22291400  0.35653100  1
  Ga  Ga10  1  0.12360300  0.12360300  0.12714300  1
  Ga  Ga11  1  0.02046300  0.02046300  0.44591500  1
  Ga  Ga12  1  0.05735900  0.05735900  0.27941300  1
  Ga  Ga13  1  0.93770000  0.42348200  0.21573000  1
  Ga  Ga14  1  0.51702000  0.98563700  0.49889800  1
  Ga  Ga15  1  0.21346700  0.21346700  0.35480000  1
  Ga  Ga16  1  0.40220800  0.40220800  0.26479200  1
  Ga  Ga17  1  0.35910700  0.35910700  0.42623600  1
  Ga  Ga18  1  0.98563700  0.51702000  0.49889800  1
  Ga  Ga19  1  0.30785200  0.30785200  0.58787100  1
  Ga  Ga20  1  0.22291400  0.70849500  0.35653100  1
  Ga  Ga21  1  0.50538300  0.50538300  0.49832600  1
  Ga  Ga22  1  0.80327600  0.27204900  0.64216400  1
  Ga  Ga23  1  0.27204900  0.80327600  0.64216400  1
  Ga  Ga24  1  0.68326800  0.68326800  0.41107200  1
  Ga  Ga25  1  0.59375300  0.59375300  0.73107000  1
  Ga  Ga26  1  0.64713300  0.64713300  0.56960100  1
  Ga  Ga27  1  0.79138800  0.79138800  0.64170400  1
  Ga  Ga28  1  0.97053200  0.97053200  0.55533700  1
  Ga  Ga29  1  0.55773600  0.08908600  0.78535700  1
  Ga  Ga30  1  0.87939600  0.87939600  0.87407400  1
  Ga  Ga31  1  0.93305200  0.93305200  0.71277600  1
  Ga  Ga32  1  0.07712300  0.07712300  0.78486100  1
  Ga  Ga33  1  0.84435000  0.37425900  0.92869200  1
  Ga  Ga34  1  0.25664200  0.25664200  0.69856900  1
  Ga  Ga35  1  0.21860900  0.21860900  0.85596400  1
  Ga  Ga36  1  0.08908600  0.55773600  0.78535700  1
  Ga  Ga37  1  0.36254500  0.36254500  0.92822000  1
  Ga  Ga38  1  0.54224300  0.54224300  0.84194200  1
  Ga  Ga39  1  0.37425900  0.84435000  0.92869200  1
  Ga  Ga40  1  0.83003700  0.83003700  0.98294000  1
  N  N41  1  0.95592100  0.95592100  0.10603100  1
  N  N42  1  0.23133100  0.23133100  0.24993800  1
  N  N43  1  0.51750100  0.51750100  0.39076500  1
  N  N44  1  0.67442900  0.67442900  0.46715300  1
  N  N45  1  0.80708100  0.80708100  0.53448200  1
  N  N46  1  0.96039100  0.96039100  0.61102600  1
  N  N47  1  0.09329500  0.09329500  0.67779000  1
  N  N48  1  0.24616200  0.24616200  0.75426400  1
  N  N49  1  0.37901900  0.37901900  0.82103200  1
  N  N50  1  0.53180100  0.53180100  0.89772100  1
  N  N51  1  0.66481000  0.66481000  0.96431200  1
  O  O52  1  0.33741500  0.33741500  0.03644400  1
  O  O53  1  0.47090500  0.47090500  0.10299700  1
  O  O54  1  0.80626000  0.33142600  0.03666700  1
  O  O55  1  0.33142600  0.80626000  0.03666700  1
  O  O56  1  0.62626300  0.62626300  0.17826000  1
  O  O57  1  0.96250300  0.47706000  0.10331800  1
  O  O58  1  0.47706000  0.96250300  0.10331800  1
  O  O59  1  0.74348000  0.74348000  0.24708000  1
  O  O60  1  0.82008500  0.82008500  0.03907200  1
  O  O61  1  0.10381300  0.59406300  0.17788300  1
  O  O62  1  0.59406300  0.10381300  0.17788300  1
  O  O63  1  0.90136600  0.90136600  0.32346100  1
  O  O64  1  0.26339000  0.75245000  0.25150100  1
  O  O65  1  0.75245000  0.26339000  0.25150100  1
  O  O66  1  0.03524400  0.03524400  0.39001500  1
  O  O67  1  0.11567700  0.11567700  0.18035000  1
  O  O68  1  0.37365900  0.89946800  0.32397900  1
  O  O69  1  0.89946800  0.37365900  0.32397900  1
  O  O70  1  0.19180700  0.19180700  0.46502500  1
  O  O71  1  0.52017000  0.04874200  0.39139000  1
  O  O72  1  0.04874200  0.52017000  0.39139000  1
  O  O73  1  0.32426100  0.32426100  0.53117300  1
  O  O74  1  0.66180800  0.18664200  0.46468300  1
  O  O75  1  0.38593600  0.38593600  0.32460100  1
  O  O76  1  0.18664200  0.66180800  0.46468300  1
  O  O77  1  0.80951100  0.33242400  0.53528400  1
  O  O78  1  0.47812600  0.47812600  0.60793900  1
  O  O79  1  0.33242400  0.80951100  0.53528400  1
  O  O80  1  0.61036900  0.61036900  0.67416900  1
  O  O81  1  0.94984000  0.47218100  0.60760600  1
  O  O82  1  0.47218100  0.94984000  0.60760600  1
  O  O83  1  0.76387100  0.76387100  0.75107700  1
  O  O84  1  0.09560700  0.61817800  0.67858900  1
  O  O85  1  0.61817800  0.09560700  0.67858900  1
  O  O86  1  0.89605300  0.89605300  0.81719900  1
  O  O87  1  0.23586500  0.75774300  0.75075100  1
  O  O88  1  0.75774300  0.23586500  0.75075100  1
  O  O89  1  0.04942400  0.04942400  0.89413700  1
  O  O90  1  0.38136700  0.90359400  0.82179000  1
  O  O91  1  0.90359400  0.38136700  0.82179000  1
  O  O92  1  0.18240500  0.18240500  0.96034400  1
  O  O93  1  0.52199000  0.04318600  0.89389400  1
  O  O94  1  0.04318600  0.52199000  0.89389400  1
  O  O95  1  0.66917100  0.18900000  0.96493500  1
  O  O96  1  0.18900000  0.66917100  0.96493500  1
