# generated using pymatgen
data_Rb2(WO3)9
_symmetry_space_group_name_H-M   'P 1'
_cell_length_a   7.52415498
_cell_length_b   7.52415582
_cell_length_c   46.45515367
_cell_angle_alpha   90.00000000
_cell_angle_beta   90.00000000
_cell_angle_gamma   120.00000044
_symmetry_Int_Tables_number   1
_chemical_formula_structural   Rb2(WO3)9
_chemical_formula_sum   'Rb8 W36 O108'
_cell_volume   2277.61358349
_cell_formula_units_Z   4
loop_
 _symmetry_equiv_pos_site_id
 _symmetry_equiv_pos_as_xyz
  1  'x, y, z'
loop_
 _atom_site_type_symbol
 _atom_site_label
 _atom_site_symmetry_multiplicity
 _atom_site_fract_x
 _atom_site_fract_y
 _atom_site_fract_z
 _atom_site_occupancy
  Rb  Rb0  1  -0.00000000  0.00000000  0.00409495  1
  Rb  Rb1  1  -0.00000000  0.00000000  0.16704813  1
  Rb  Rb2  1  -0.00000000  0.00000000  0.41628587  1
  Rb  Rb3  1  -0.00000000  0.00000000  0.66655878  1
  Rb  Rb4  1  -0.00000000  0.00000000  0.57923805  1
  Rb  Rb5  1  -0.00000000  0.00000000  0.75043387  1
  Rb  Rb6  1  -0.00000000  0.00000000  0.83289913  1
  Rb  Rb7  1  -0.00000000  0.00000000  0.91677522  1
  W  W8  1  0.00000000  0.49687389  0.04200808  1
  W  W9  1  0.00000000  0.49532206  0.20866017  1
  W  W10  1  0.00000000  0.49532206  0.37467283  1
  W  W11  1  0.00000000  0.49687389  0.54132592  1
  W  W12  1  0.00000000  0.49912216  0.70846042  1
  W  W13  1  0.00000000  0.49912216  0.87487258  1
  W  W14  1  0.49595256  0.49595256  0.12510124  1
  W  W15  1  0.49292703  0.49292703  0.29166700  1
  W  W16  1  0.49595256  0.49595256  0.45823176  1
  W  W17  1  0.49832780  0.49832780  0.62487777  1
  W  W18  1  0.49991185  0.49991185  0.79166700  1
  W  W19  1  0.49832780  0.49832780  0.95845523  1
  W  W20  1  0.50312611  0.50312611  0.04200808  1
  W  W21  1  0.50467794  0.50467794  0.20866017  1
  W  W22  1  0.50467794  0.50467794  0.37467283  1
  W  W23  1  0.50312611  0.50312611  0.54132592  1
  W  W24  1  0.50087784  0.50087784  0.70846042  1
  W  W25  1  0.50087784  0.50087784  0.87487258  1
  W  W26  1  0.49687389  1.00000000  0.04200808  1
  W  W27  1  0.49532206  1.00000000  0.20866017  1
  W  W28  1  0.49532206  1.00000000  0.37467283  1
  W  W29  1  0.49687389  1.00000000  0.54132592  1
  W  W30  1  0.49912216  1.00000000  0.70846042  1
  W  W31  1  0.49912216  1.00000000  0.87487258  1
  W  W32  1  0.50404744  0.00000000  0.12510124  1
  W  W33  1  0.50707297  1.00000000  0.29166700  1
  W  W34  1  0.50404744  0.00000000  0.45823176  1
  W  W35  1  0.50167220  0.00000000  0.62487777  1
  W  W36  1  0.50008815  0.00000000  0.79166700  1
  W  W37  1  0.50167220  0.00000000  0.95845523  1
  W  W38  1  1.00000000  0.50404744  0.12510124  1
  W  W39  1  0.00000000  0.50707297  0.29166700  1
  W  W40  1  1.00000000  0.50404744  0.45823176  1
  W  W41  1  1.00000000  0.50008815  0.79166700  1
  W  W42  1  1.00000000  0.50167220  0.62487777  1
  W  W43  1  1.00000000  0.50167220  0.95845523  1
  O  O44  1  1.00000000  0.49949127  0.99993383  1
  O  O45  1  0.00000000  0.50017924  0.16656391  1
  O  O46  1  1.00000000  0.50058918  0.33359290  1
  O  O47  1  0.00000000  0.49989961  0.08330487  1
  O  O48  1  0.00000000  0.50008559  0.66625875  1
  O  O49  1  0.00000000  0.49989961  0.50002813  1
  O  O50  1  1.00000000  0.50058918  0.24974010  1
  O  O51  1  0.00000000  0.49985455  0.83399953  1
  O  O52  1  0.00000000  0.50017924  0.41677009  1
  O  O53  1  1.00000000  0.49949127  0.58339917  1
  O  O54  1  0.00000000  0.50008559  0.91707525  1
  O  O55  1  0.00000000  0.49985455  0.74933347  1
  O  O56  1  0.21117963  0.78715340  0.04131111  1
  O  O57  1  0.21121963  0.78685713  0.20783390  1
  O  O58  1  0.21121963  0.78685713  0.37549910  1
  O  O59  1  0.21117963  0.78715340  0.54202289  1
  O  O60  1  0.20981375  0.78969647  0.70778200  1
  O  O61  1  0.20981375  0.78969647  0.87555100  1
  O  O62  1  0.21315930  0.78872370  0.12518587  1
  O  O63  1  0.21548288  0.78773990  0.29166700  1
  O  O64  1  0.21315930  0.78872370  0.45814713  1
  O  O65  1  0.21081177  0.78994431  0.62488100  1
  O  O66  1  0.20970922  0.79030808  0.79166700  1
  O  O67  1  0.21081177  0.78994431  0.95845200  1
  O  O68  1  0.21127630  0.42443560  0.12518587  1
  O  O69  1  0.21226010  0.42774298  0.29166700  1
  O  O70  1  0.21127630  0.42443560  0.45814713  1
  O  O71  1  0.21005569  0.42086745  0.62488100  1
  O  O72  1  0.20969192  0.41940114  0.79166700  1
  O  O73  1  0.21005569  0.42086745  0.95845200  1
  O  O74  1  0.21284660  0.42402623  0.04131111  1
  O  O75  1  0.21314287  0.42436249  0.20783390  1
  O  O76  1  0.21314287  0.42436249  0.37549910  1
  O  O77  1  0.21284660  0.42402623  0.54202289  1
  O  O78  1  0.21030353  0.42011727  0.70778200  1
  O  O79  1  0.21030353  0.42011727  0.87555100  1
  O  O80  1  0.57597377  0.78882037  0.04131111  1
  O  O81  1  0.57563751  0.78878037  0.20783390  1
  O  O82  1  0.57563751  0.78878037  0.37549910  1
  O  O83  1  0.57597377  0.78882037  0.54202289  1
  O  O84  1  0.57988273  0.79018625  0.70778200  1
  O  O85  1  0.57988273  0.79018625  0.87555100  1
  O  O86  1  0.57556440  0.78684070  0.12518587  1
  O  O87  1  0.57225702  0.78451712  0.29166700  1
  O  O88  1  0.57556440  0.78684070  0.45814713  1
  O  O89  1  0.57913255  0.78918823  0.62488100  1
  O  O90  1  0.58059886  0.79029078  0.79166700  1
  O  O91  1  0.57913255  0.78918823  0.95845200  1
  O  O92  1  0.50050873  0.50050873  0.99993383  1
  O  O93  1  0.50010039  0.50010039  0.08330487  1
  O  O94  1  0.49982076  0.49982076  0.16656391  1
  O  O95  1  0.49941082  0.49941082  0.33359290  1
  O  O96  1  0.49982076  0.49982076  0.41677009  1
  O  O97  1  0.49941082  0.49941082  0.24974010  1
  O  O98  1  0.50014545  0.50014545  0.83399953  1
  O  O99  1  0.50010039  0.50010039  0.50002813  1
  O  O100  1  0.49991441  0.49991441  0.66625875  1
  O  O101  1  0.50050873  0.50050873  0.58339917  1
  O  O102  1  0.50014545  0.50014545  0.74933347  1
  O  O103  1  0.49991441  0.49991441  0.91707525  1
  O  O104  1  0.42402623  0.21284660  0.04131111  1
  O  O105  1  0.42436249  0.21314287  0.20783390  1
  O  O106  1  0.42436249  0.21314287  0.37549910  1
  O  O107  1  0.42402623  0.21284660  0.54202289  1
  O  O108  1  0.42011727  0.21030353  0.70778200  1
  O  O109  1  0.42011727  0.21030353  0.87555100  1
  O  O110  1  0.42443560  0.21127630  0.12518587  1
  O  O111  1  0.42774298  0.21226010  0.29166700  1
  O  O112  1  0.42443560  0.21127630  0.45814713  1
  O  O113  1  0.42086745  0.21005569  0.62488100  1
  O  O114  1  0.41940114  0.20969192  0.79166700  1
  O  O115  1  0.42086745  0.21005569  0.95845200  1
  O  O116  1  0.78684070  0.57556440  0.12518587  1
  O  O117  1  0.78451712  0.57225702  0.29166700  1
  O  O118  1  0.78684070  0.57556440  0.45814713  1
  O  O119  1  0.78918823  0.57913255  0.62488100  1
  O  O120  1  0.79029078  0.58059886  0.79166700  1
  O  O121  1  0.78918823  0.57913255  0.95845200  1
  O  O122  1  0.49949127  0.00000000  0.99993383  1
  O  O123  1  0.50017924  1.00000000  0.16656391  1
  O  O124  1  0.50058918  0.00000000  0.33359290  1
  O  O125  1  0.49989961  1.00000000  0.50002813  1
  O  O126  1  0.50008559  1.00000000  0.66625875  1
  O  O127  1  0.49985455  1.00000000  0.83399953  1
  O  O128  1  0.49989961  1.00000000  0.08330487  1
  O  O129  1  0.50017924  1.00000000  0.41677009  1
  O  O130  1  0.50058918  0.00000000  0.24974010  1
  O  O131  1  0.49949127  0.00000000  0.58339917  1
  O  O132  1  0.49985455  1.00000000  0.74933347  1
  O  O133  1  0.50008559  1.00000000  0.91707525  1
  O  O134  1  0.78882037  0.57597377  0.04131111  1
  O  O135  1  0.78878037  0.57563751  0.20783390  1
  O  O136  1  0.78878037  0.57563751  0.37549910  1
  O  O137  1  0.78882037  0.57597377  0.54202289  1
  O  O138  1  0.79018625  0.57988273  0.70778200  1
  O  O139  1  0.79018625  0.57988273  0.87555100  1
  O  O140  1  0.78715340  0.21117963  0.04131111  1
  O  O141  1  0.78685713  0.21121963  0.20783390  1
  O  O142  1  0.78685713  0.21121963  0.37549910  1
  O  O143  1  0.78715340  0.21117963  0.54202289  1
  O  O144  1  0.78969647  0.20981375  0.70778200  1
  O  O145  1  0.78969647  0.20981375  0.87555100  1
  O  O146  1  0.78872370  0.21315930  0.12518587  1
  O  O147  1  0.78773990  0.21548288  0.29166700  1
  O  O148  1  0.78872370  0.21315930  0.45814713  1
  O  O149  1  0.78994431  0.21081177  0.62488100  1
  O  O150  1  0.79030808  0.20970922  0.79166700  1
  O  O151  1  0.78994431  0.21081177  0.95845200  1
