# generated using pymatgen
data_LaNb2AgO7
_symmetry_space_group_name_H-M   'P 1'
_cell_length_a   22.46849054
_cell_length_b   22.46849054
_cell_length_c   22.46849054
_cell_angle_alpha   159.74204772
_cell_angle_beta   159.74204772
_cell_angle_gamma   28.80239090
_symmetry_Int_Tables_number   1
_chemical_formula_structural   LaNb2AgO7
_chemical_formula_sum   'La8 Nb16 Ag8 O56'
_cell_volume   1359.16788708
_cell_formula_units_Z   8
loop_
 _symmetry_equiv_pos_site_id
 _symmetry_equiv_pos_as_xyz
  1  'x, y, z'
loop_
 _atom_site_type_symbol
 _atom_site_label
 _atom_site_symmetry_multiplicity
 _atom_site_fract_x
 _atom_site_fract_y
 _atom_site_fract_z
 _atom_site_occupancy
  La  La0  1  0.87500000  0.12500000  0.75000000  1
  La  La1  1  0.37500000  0.12500000  0.25000000  1
  La  La2  1  0.87500000  0.62500000  0.75000000  1
  La  La3  1  0.37500000  0.62500000  0.25000000  1
  La  La4  1  0.87500000  0.62500000  0.25000000  1
  La  La5  1  0.37500000  0.62500000  0.75000000  1
  La  La6  1  0.37500000  0.12500000  0.75000000  1
  La  La7  1  0.87500000  0.12500000  0.25000000  1
  Nb  Nb8  1  0.17332600  0.42673700  0.24601000  1
  Nb  Nb9  1  0.67332600  0.42731500  0.74658800  1
  Nb  Nb10  1  0.07268500  0.82667400  0.25341200  1
  Nb  Nb11  1  0.17731500  0.93072700  0.25399000  1
  Nb  Nb12  1  0.57326300  0.81927300  0.74658800  1
  Nb  Nb13  1  0.67673700  0.92332600  0.74601000  1
  Nb  Nb14  1  0.56927300  0.32268500  0.74601000  1
  Nb  Nb15  1  0.68072700  0.92673700  0.25341200  1
  Nb  Nb16  1  0.06927300  0.32326300  0.24658800  1
  Nb  Nb17  1  0.18072700  0.92731500  0.75399000  1
  Nb  Nb18  1  0.17673700  0.43072700  0.75341200  1
  Nb  Nb19  1  0.07326300  0.32667400  0.75399000  1
  Nb  Nb20  1  0.57268500  0.31927300  0.24601000  1
  Nb  Nb21  1  0.67731500  0.42332600  0.24658800  1
  Nb  Nb22  1  0.07667400  0.82268500  0.75341200  1
  Nb  Nb23  1  0.57667400  0.82326300  0.25399000  1
  Ag  Ag24  1  0.00118200  0.49881800  0.00000000  1
  Ag  Ag25  1  0.50118200  0.50118200  0.50236300  1
  Ag  Ag26  1  0.99881800  0.99881800  0.49763700  1
  Ag  Ag27  1  0.25118200  0.24881800  0.50000000  1
  Ag  Ag28  1  0.49881800  0.00118200  0.00000000  1
  Ag  Ag29  1  0.75118200  0.25118200  0.00236300  1
  Ag  Ag30  1  0.24881800  0.74881800  0.99763700  1
  Ag  Ag31  1  0.74881800  0.75118200  0.50000000  1
  O  O32  1  0.41451900  0.41766000  0.49674500  1
  O  O33  1  0.08222600  0.58548100  0.00314200  1
  O  O34  1  0.21662000  0.46586100  0.24471600  1
  O  O35  1  0.11732900  0.37500000  0.24232900  1
  O  O36  1  0.61732900  0.37500000  0.74232900  1
  O  O37  1  0.71662000  0.47190500  0.75075900  1
  O  O38  1  0.58222600  0.57908500  0.49674500  1
  O  O39  1  0.91451900  0.41777400  0.99685800  1
  O  O40  1  0.62500000  0.86732900  0.74232900  1
  O  O41  1  0.53413900  0.77885400  0.75075900  1
  O  O42  1  0.71586100  0.96662000  0.74471600  1
  O  O43  1  0.16721900  0.66721900  0.50000000  1
  O  O44  1  0.58335400  0.08335400  0.50000000  1
  O  O45  1  0.91721900  0.91721900  0.00000000  1
  O  O46  1  0.33278100  0.83278100  0.50000000  1
  O  O47  1  0.41664600  0.91664600  0.50000000  1
  O  O48  1  0.08278100  0.08278100  0.00000000  1
  O  O49  1  0.83335400  0.83335400  0.00000000  1
  O  O50  1  0.66664600  0.66664600  0.00000000  1
  O  O51  1  0.02809500  0.78338000  0.24924100  1
  O  O52  1  0.22190500  0.97114600  0.25528400  1
  O  O53  1  0.12500000  0.88267100  0.25767100  1
  O  O54  1  0.42091500  0.91766000  0.00314200  1
  O  O55  1  0.82908500  0.33222600  0.99674500  1
  O  O56  1  0.08234000  0.08548100  0.50325500  1
  O  O57  1  0.16766000  0.17091500  0.50314200  1
  O  O58  1  0.52885400  0.27809500  0.74471600  1
  O  O59  1  0.72114600  0.96586100  0.24924100  1
  O  O60  1  0.13267100  0.87500000  0.75767100  1
  O  O61  1  0.63267100  0.87500000  0.25767100  1
  O  O62  1  0.02885400  0.28413900  0.25075900  1
  O  O63  1  0.22114600  0.97190500  0.75528400  1
  O  O64  1  0.66766000  0.16451900  0.99674500  1
  O  O65  1  0.58234000  0.07908500  0.99685800  1
  O  O66  1  0.92091500  0.91777400  0.50325500  1
  O  O67  1  0.32908500  0.33234000  0.49685800  1
  O  O68  1  0.62500000  0.36732900  0.24232900  1
  O  O69  1  0.52809500  0.27885400  0.24471600  1
  O  O70  1  0.72190500  0.46662000  0.25075900  1
  O  O71  1  0.91664600  0.41664600  0.50000000  1
  O  O72  1  0.08335400  0.58335400  0.50000000  1
  O  O73  1  0.16664600  0.16664600  0.00000000  1
  O  O74  1  0.66721900  0.16721900  0.50000000  1
  O  O75  1  0.33335400  0.33335400  0.00000000  1
  O  O76  1  0.83278100  0.33278100  0.50000000  1
  O  O77  1  0.41721900  0.41721900  0.00000000  1
  O  O78  1  0.58278100  0.58278100  0.00000000  1
  O  O79  1  0.21586100  0.47114600  0.74924100  1
  O  O80  1  0.03413900  0.28338000  0.75528400  1
  O  O81  1  0.12500000  0.38267100  0.75767100  1
  O  O82  1  0.83548100  0.83222600  0.50314200  1
  O  O83  1  0.16777400  0.67091500  0.00325500  1
  O  O84  1  0.03338000  0.77809500  0.74924100  1
  O  O85  1  0.53338000  0.78413900  0.25528400  1
  O  O86  1  0.66777400  0.66451900  0.49685800  1
  O  O87  1  0.33548100  0.83234000  0.00325500  1
