# generated using pymatgen
data_Fe10Bi5O24
_symmetry_space_group_name_H-M   'P 1'
_cell_length_a   10.86709327
_cell_length_b   10.86709327
_cell_length_c   10.86709327
_cell_angle_alpha   108.96737174
_cell_angle_beta   108.96737174
_cell_angle_gamma   110.48368728
_symmetry_Int_Tables_number   1
_chemical_formula_structural   Fe10Bi5O24
_chemical_formula_sum   'Fe20 Bi10 O48'
_cell_volume   987.68024070
_cell_formula_units_Z   2
loop_
 _symmetry_equiv_pos_site_id
 _symmetry_equiv_pos_as_xyz
  1  'x, y, z'
loop_
 _atom_site_type_symbol
 _atom_site_label
 _atom_site_symmetry_multiplicity
 _atom_site_fract_x
 _atom_site_fract_y
 _atom_site_fract_z
 _atom_site_occupancy
  Fe  Fe0  1  0.76208400  0.76208400  0.00000000  1
  Fe  Fe1  1  0.37653200  0.62424700  0.74862100  1
  Fe  Fe2  1  0.12500000  0.74760200  0.12260200  1
  Fe  Fe3  1  0.87424700  0.62562600  0.74771600  1
  Fe  Fe4  1  0.37575300  0.62346800  0.25137900  1
  Fe  Fe5  1  0.75115500  0.87500000  0.37615500  1
  Fe  Fe6  1  0.62500000  0.00239800  0.87739800  1
  Fe  Fe7  1  0.25239800  0.87500000  0.87739800  1
  Fe  Fe8  1  0.87562600  0.62791100  0.25137900  1
  Fe  Fe9  1  0.48791600  0.98791600  0.50000000  1
  Fe  Fe10  1  0.37208900  0.12437400  0.74862100  1
  Fe  Fe11  1  0.23791600  0.23791600  0.00000000  1
  Fe  Fe12  1  0.87346800  0.12208900  0.74771500  1
  Fe  Fe13  1  0.37437400  0.12575300  0.25228500  1
  Fe  Fe14  1  0.99760200  0.37500000  0.12260200  1
  Fe  Fe15  1  0.12500000  0.24884500  0.62384500  1
  Fe  Fe16  1  0.49884500  0.37500000  0.62384500  1
  Fe  Fe17  1  0.87791100  0.12653200  0.25228500  1
  Fe  Fe18  1  0.62500000  0.50115500  0.37615500  1
  Fe  Fe19  1  0.01208400  0.51208400  0.50000000  1
  Bi  Bi20  1  0.62500000  0.75523000  0.63023000  1
  Bi  Bi21  1  0.50176600  0.87500000  0.12676600  1
  Bi  Bi22  1  0.00523000  0.87500000  0.63023000  1
  Bi  Bi23  1  0.62500000  0.25176600  0.12676600  1
  Bi  Bi24  1  0.12500000  0.99477000  0.36977000  1
  Bi  Bi25  1  0.75000000  0.25000000  0.50000000  1
  Bi  Bi26  1  0.74823400  0.37500000  0.87323400  1
  Bi  Bi27  1  0.50000000  0.50000000  0.00000000  1
  Bi  Bi28  1  0.24477000  0.37500000  0.36977000  1
  Bi  Bi29  1  0.12500000  0.49823400  0.87323400  1
  O  O30  1  0.54966000  0.71829600  0.22642200  1
  O  O31  1  0.55389300  0.70469500  0.94420200  1
  O  O32  1  0.77819900  0.64364800  0.57529700  1
  O  O33  1  0.78929400  0.72547500  0.83340800  1
  O  O34  1  0.27966600  0.69958200  0.13334400  1
  O  O35  1  0.30041800  0.72033400  0.86665600  1
  O  O36  1  0.48460100  0.79865700  0.74459500  1
  O  O37  1  0.76539900  0.00999400  0.81405500  1
  O  O38  1  0.79709800  0.93164900  0.57529700  1
  O  O39  1  0.68376200  0.05041800  0.08008400  1
  O  O40  1  0.97547500  0.64206700  0.43618100  1
  O  O41  1  0.19593900  0.95134300  0.18594500  1
  O  O42  1  0.46070600  0.79411400  0.43618100  1
  O  O43  1  0.39632200  0.02966600  0.08008400  1
  O  O44  1  0.04865700  0.80406100  0.81405500  1
  O  O45  1  0.89206700  0.95588600  0.16659200  1
  O  O46  1  0.25999400  0.94593900  0.74459500  1
  O  O47  1  0.05406100  0.74000600  0.25540500  1
  O  O48  1  0.56623800  0.14632200  0.86665600  1
  O  O49  1  0.75812600  0.03170400  0.33136300  1
  O  O50  1  0.35793300  0.02452500  0.56381900  1
  O  O51  1  0.69610700  0.14030900  0.65080200  1
  O  O52  1  0.27452500  0.21070600  0.16659200  1
  O  O53  1  0.89364800  0.81835100  0.36544900  1
  O  O54  1  0.85367800  0.43376200  0.13334400  1
  O  O55  1  0.48950700  0.04530500  0.34919800  1
  O  O56  1  0.04411400  0.10793300  0.83340800  1
  O  O57  1  0.39030900  0.23950700  0.94420200  1
  O  O58  1  0.99000600  0.23460100  0.18594500  1
  O  O59  1  0.18164900  0.10635200  0.63455100  1
  O  O60  1  0.67676300  0.50812600  0.22642200  1
  O  O61  1  0.49187400  0.32323700  0.77357800  1
  O  O62  1  0.85969100  0.30389300  0.34919800  1
  O  O63  1  0.70034000  0.42676300  0.66863700  1
  O  O64  1  0.35635200  0.22180100  0.42470300  1
  O  O65  1  0.29530500  0.44610700  0.05579800  1
  O  O66  1  0.57323700  0.29966000  0.33136300  1
  O  O67  1  0.76049300  0.60969100  0.05579800  1
  O  O68  1  0.06835100  0.20290200  0.42470300  1
  O  O69  1  0.94958200  0.31623800  0.91991600  1
  O  O70  1  0.96829600  0.24187400  0.66863700  1
  O  O71  1  0.28170400  0.45034000  0.77357800  1
  O  O72  1  0.45290200  0.52819900  0.63455100  1
  O  O73  1  0.47180100  0.54709800  0.36544900  1
  O  O74  1  0.95469500  0.51049300  0.65080200  1
  O  O75  1  0.97033400  0.60367800  0.91991600  1
  O  O76  1  0.20588600  0.53929400  0.56381900  1
  O  O77  1  0.20134300  0.51539900  0.25540500  1
