# generated using pymatgen
data_Sr9(NiO3)7
_symmetry_space_group_name_H-M   'P 1'
_cell_length_a   13.30969650
_cell_length_b   13.28714504
_cell_length_c   13.29171725
_cell_angle_alpha   42.05638702
_cell_angle_beta   42.17439876
_cell_angle_gamma   42.21497624
_symmetry_Int_Tables_number   1
_chemical_formula_structural   Sr9(NiO3)7
_chemical_formula_sum   'Sr18 Ni14 O42'
_cell_volume   957.78105204
_cell_formula_units_Z   2
loop_
 _symmetry_equiv_pos_site_id
 _symmetry_equiv_pos_as_xyz
  1  'x, y, z'
loop_
 _atom_site_type_symbol
 _atom_site_label
 _atom_site_symmetry_multiplicity
 _atom_site_fract_x
 _atom_site_fract_y
 _atom_site_fract_z
 _atom_site_occupancy
  Sr  Sr0  1  0.01308900  0.70850500  0.36216700  1
  Sr  Sr1  1  0.36187500  0.99701900  0.72567900  1
  Sr  Sr2  1  0.08443900  0.42330500  0.74730700  1
  Sr  Sr3  1  0.71857800  0.36873200  0.99780200  1
  Sr  Sr4  1  0.41732300  0.74656600  0.08246600  1
  Sr  Sr5  1  0.14201300  0.77795600  0.49108700  1
  Sr  Sr6  1  0.75547600  0.07733000  0.41973500  1
  Sr  Sr7  1  0.50156500  0.13182000  0.78556200  1
  Sr  Sr8  1  0.22265600  0.50256500  0.86121000  1
  Sr  Sr9  1  0.79263000  0.49906900  0.12908300  1
  Sr  Sr10  1  0.50681400  0.86299700  0.21404400  1
  Sr  Sr11  1  0.24726800  0.91021000  0.58628000  1
  Sr  Sr12  1  0.87197700  0.20844900  0.49834100  1
  Sr  Sr13  1  0.57801600  0.25066500  0.91837300  1
  Sr  Sr14  1  0.29012400  0.63376500  0.99351100  1
  Sr  Sr15  1  0.92756500  0.57628500  0.24911200  1
  Sr  Sr16  1  0.63951200  0.99696500  0.27550200  1
  Sr  Sr17  1  0.00158200  0.28069200  0.63365700  1
  Ni  Ni18  1  0.99904600  0.00331400  0.99782100  1
  Ni  Ni19  1  0.06497300  0.07433000  0.06565800  1
  Ni  Ni20  1  0.13787200  0.14542300  0.13956300  1
  Ni  Ni21  1  0.22209400  0.20777300  0.21763400  1
  Ni  Ni22  1  0.27739200  0.28965200  0.28942700  1
  Ni  Ni23  1  0.42799700  0.29165300  0.35587800  1
  Ni  Ni24  1  0.42800000  0.43698900  0.42925600  1
  Ni  Ni25  1  0.51261900  0.49456600  0.49288200  1
  Ni  Ni26  1  0.56369100  0.56471100  0.57758700  1
  Ni  Ni27  1  0.70398400  0.64522600  0.57584900  1
  Ni  Ni28  1  0.70503400  0.71571000  0.72312200  1
  Ni  Ni29  1  0.78992400  0.78317000  0.77942500  1
  Ni  Ni30  1  0.85462600  0.86220400  0.86084200  1
  Ni  Ni31  1  0.92975700  0.93501200  0.93062700  1
  O  O32  1  0.04013100  0.33223400  0.17629600  1
  O  O33  1  0.18870100  0.01888100  0.34808600  1
  O  O34  1  0.35768100  0.17491500  0.02664400  1
  O  O35  1  0.10005300  0.24326000  0.40506800  1
  O  O36  1  0.25038300  0.39582200  0.10369800  1
  O  O37  1  0.40182100  0.09545800  0.25727700  1
  O  O38  1  0.12583400  0.48496700  0.31909000  1
  O  O39  1  0.32488400  0.16574300  0.46892800  1
  O  O40  1  0.46494000  0.32458500  0.16689400  1
  O  O41  1  0.04709300  0.18370400  0.86783900  1
  O  O42  1  0.17426100  0.87641400  0.04953800  1
  O  O43  1  0.22718800  0.58040500  0.42004700  1
  O  O44  1  0.07842700  0.96822800  0.25581200  1
  O  O45  1  0.40545800  0.24845000  0.54009000  1
  O  O46  1  0.25925600  0.08793600  0.95100400  1
  O  O47  1  0.53471500  0.41119500  0.24557400  1
  O  O48  1  0.86842300  0.05187900  0.18083400  1
  O  O49  1  0.33255700  0.44646200  0.62507500  1
  O  O50  1  0.46637500  0.62435600  0.31214100  1
  O  O51  1  0.63655100  0.31635400  0.44674400  1
  O  O52  1  0.95046500  0.26917200  0.07521700  1
  O  O53  1  0.03381000  0.74426100  0.91791600  1
  O  O54  1  0.38175400  0.67515400  0.53869500  1
  O  O55  1  0.55818100  0.36503600  0.67350900  1
  O  O56  1  0.69030800  0.54361600  0.36740800  1
  O  O57  1  0.13108300  0.95261500  0.81407300  1
  O  O58  1  0.41697800  0.57486700  0.77867200  1
  O  O59  1  0.73455300  0.92250900  0.05250300  1
  O  O60  1  0.58346900  0.75292400  0.47142800  1
  O  O61  1  0.91209300  0.04847900  0.73983300  1
  O  O62  1  0.74773300  0.45837100  0.60222600  1
  O  O63  1  0.82071400  0.13261900  0.94816100  1
  O  O64  1  0.95258600  0.82515800  0.12326600  1
  O  O65  1  0.51149300  0.68167800  0.87721900  1
  O  O66  1  0.67036600  0.83528600  0.53626500  1
  O  O67  1  0.83142100  0.53486700  0.67597500  1
  O  O68  1  0.59937200  0.90340800  0.74904200  1
  O  O69  1  0.75065100  0.59934900  0.90130000  1
  O  O70  1  0.89512000  0.75097000  0.59731700  1
  O  O71  1  0.67003900  0.82112400  0.96294200  1
  O  O72  1  0.82721300  0.96971200  0.64614900  1
  O  O73  1  0.98125500  0.64595000  0.81181600  1
