# generated using pymatgen
data_Ge(PbS2)2
_symmetry_space_group_name_H-M   'P 1'
_cell_length_a   12.51248332
_cell_length_b   12.51248332
_cell_length_c   12.51248332
_cell_angle_alpha   110.09673042
_cell_angle_beta   110.09673042
_cell_angle_gamma   108.22731628
_symmetry_Int_Tables_number   1
_chemical_formula_structural   Ge(PbS2)2
_chemical_formula_sum   'Ge8 Pb16 S32'
_cell_volume   1507.49367833
_cell_formula_units_Z   8
loop_
 _symmetry_equiv_pos_site_id
 _symmetry_equiv_pos_as_xyz
  1  'x, y, z'
loop_
 _atom_site_type_symbol
 _atom_site_label
 _atom_site_symmetry_multiplicity
 _atom_site_fract_x
 _atom_site_fract_y
 _atom_site_fract_z
 _atom_site_occupancy
  Ge  Ge0  1  0.12917000  0.38116100  0.69994700  1
  Ge  Ge1  1  0.61883900  0.31878600  0.74800900  1
  Ge  Ge2  1  0.06878600  0.86883900  0.24800900  1
  Ge  Ge3  1  0.62083000  0.82077700  0.75199100  1
  Ge  Ge4  1  0.57077700  0.87083000  0.25199100  1
  Ge  Ge5  1  0.68121400  0.42922300  0.30005300  1
  Ge  Ge6  1  0.17922300  0.93121400  0.80005300  1
  Ge  Ge7  1  0.13116100  0.37917000  0.19994700  1
  Pb  Pb8  1  0.10606300  0.60606300  0.50000000  1
  Pb  Pb9  1  0.87500000  0.14530900  0.77030900  1
  Pb  Pb10  1  0.87500000  0.46017900  0.08517900  1
  Pb  Pb11  1  0.89530900  0.12500000  0.27030900  1
  Pb  Pb12  1  0.87500000  0.85469500  0.47969500  1
  Pb  Pb13  1  0.85469100  0.62500000  0.72969100  1
  Pb  Pb14  1  0.39393700  0.89393700  0.50000000  1
  Pb  Pb15  1  0.37500000  0.10469100  0.22969100  1
  Pb  Pb16  1  0.60469500  0.12500000  0.97969500  1
  Pb  Pb17  1  0.53982100  0.62500000  0.41482100  1
  Pb  Pb18  1  0.64393700  0.64393700  0.00000000  1
  Pb  Pb19  1  0.37500000  0.78982100  0.91482100  1
  Pb  Pb20  1  0.14530500  0.62500000  0.02030500  1
  Pb  Pb21  1  0.35606300  0.35606300  0.00000000  1
  Pb  Pb22  1  0.37500000  0.39530500  0.52030500  1
  Pb  Pb23  1  0.21017900  0.12500000  0.58517900  1
  S  S24  1  0.12356500  0.37494700  0.87688100  1
  S  S25  1  0.09950000  0.54808900  0.70098100  1
  S  S26  1  0.92840800  0.22909700  0.03327300  1
  S  S27  1  0.82159200  0.35486500  0.80068800  1
  S  S28  1  0.97909700  0.17840800  0.53327300  1
  S  S29  1  0.84710800  0.39851900  0.29901900  1
  S  S30  1  0.10486500  0.07159200  0.30068800  1
  S  S31  1  0.99668400  0.74806700  0.62311900  1
  S  S32  1  0.77090300  0.80417600  0.69931200  1
  S  S33  1  0.06832500  0.83527800  0.41374700  1
  S  S34  1  0.45191100  0.15289200  0.55141100  1
  S  S35  1  0.60148100  0.90050000  0.44858900  1
  S  S36  1  0.75331600  0.87643500  0.25138200  1
  S  S37  1  0.58527800  0.31832500  0.91374700  1
  S  S38  1  0.55417600  0.02090300  0.19931200  1
  S  S39  1  0.90289200  0.70191100  0.05141100  1
  S  S40  1  0.68167500  0.59542200  0.26695300  1
  S  S41  1  0.64513500  0.44582400  0.46672700  1
  S  S42  1  0.65050000  0.85148100  0.94858900  1
  S  S43  1  0.62643500  0.00331600  0.75138200  1
  S  S44  1  0.25193300  0.87505300  0.24861800  1
  S  S45  1  0.40457800  0.67153100  0.08625300  1
  S  S46  1  0.34542200  0.93167500  0.76695300  1
  S  S47  1  0.19582400  0.89513500  0.96672700  1
  S  S48  1  0.16472200  0.57846900  0.23304700  1
  S  S49  1  0.62505300  0.50193300  0.74861800  1
  S  S50  1  0.49806700  0.24668400  0.12311900  1
  S  S51  1  0.29808900  0.34950000  0.20098100  1
  S  S52  1  0.42153100  0.65457800  0.58625300  1
  S  S53  1  0.32846900  0.41472200  0.73304700  1
  S  S54  1  0.14851900  0.09710800  0.79901900  1
  S  S55  1  0.12494700  0.37356500  0.37688100  1
