# generated using pymatgen
data_Al2NiO4
_symmetry_space_group_name_H-M   'P 1'
_cell_length_a   5.76055331
_cell_length_b   5.76055331
_cell_length_c   23.56903712
_cell_angle_alpha   82.91897184
_cell_angle_beta   82.91897184
_cell_angle_gamma   60.05629196
_symmetry_Int_Tables_number   1
_chemical_formula_structural   Al2NiO4
_chemical_formula_sum   'Al20 Ni10 O40'
_cell_volume   670.80988641
_cell_formula_units_Z   10
loop_
 _symmetry_equiv_pos_site_id
 _symmetry_equiv_pos_as_xyz
  1  'x, y, z'
loop_
 _atom_site_type_symbol
 _atom_site_label
 _atom_site_symmetry_multiplicity
 _atom_site_fract_x
 _atom_site_fract_y
 _atom_site_fract_z
 _atom_site_occupancy
  Al  Al0  1  0.99958900  0.99958900  0.00219500  1
  Al  Al1  1  0.29224200  0.80170400  0.10049800  1
  Al  Al2  1  0.80170400  0.29224200  0.10049800  1
  Al  Al3  1  0.59761000  0.59761000  0.20234500  1
  Al  Al4  1  0.52857900  0.52857900  0.42753600  1
  Al  Al5  1  0.89447900  0.39919600  0.30058600  1
  Al  Al6  1  0.26627700  0.26627700  0.17596900  1
  Al  Al7  1  0.39919600  0.89447900  0.30058600  1
  Al  Al8  1  0.13026500  0.13026500  0.62612000  1
  Al  Al9  1  0.49971300  0.00040900  0.49978600  1
  Al  Al10  1  0.86904000  0.86904000  0.37317500  1
  Al  Al11  1  0.00040900  0.49971300  0.49978600  1
  Al  Al12  1  0.73389200  0.73389200  0.82444400  1
  Al  Al13  1  0.10110000  0.60140100  0.69925400  1
  Al  Al14  1  0.60140100  0.10110000  0.69925400  1
  Al  Al15  1  0.47087600  0.47087600  0.57301100  1
  Al  Al16  1  0.70141900  0.20554500  0.89847700  1
  Al  Al17  1  0.07217500  0.07217500  0.77279700  1
  Al  Al18  1  0.20554500  0.70141900  0.89847700  1
  Al  Al19  1  0.66960800  0.66960800  0.97616100  1
  Ni  Ni20  1  0.32692800  0.32692800  0.02317400  1
  Ni  Ni21  1  0.92385300  0.92385300  0.22738700  1
  Ni  Ni22  1  0.80073700  0.80073700  0.10032700  1
  Ni  Ni23  1  0.19903800  0.19903800  0.39965700  1
  Ni  Ni24  1  0.39885200  0.39885200  0.30070900  1
  Ni  Ni25  1  0.80022900  0.80022900  0.59974500  1
  Ni  Ni26  1  0.99996500  0.99996500  0.50001700  1
  Ni  Ni27  1  0.20406100  0.20406100  0.89897800  1
  Ni  Ni28  1  0.40223000  0.40223000  0.79963500  1
  Ni  Ni29  1  0.60083800  0.60083800  0.69949300  1
  O  O30  1  0.68498600  0.14821700  0.05034900  1
  O  O31  1  0.14821700  0.68498600  0.05034900  1
  O  O32  1  0.96169200  0.96169200  0.14381200  1
  O  O33  1  0.13263000  0.13263000  0.05325400  1
  O  O34  1  0.28701000  0.74449300  0.25136600  1
  O  O35  1  0.45487400  0.45487400  0.14925200  1
  O  O36  1  0.44545000  0.92704100  0.15072900  1
  O  O37  1  0.63911600  0.63911600  0.05404000  1
  O  O38  1  0.74449300  0.28701000  0.25136600  1
  O  O39  1  0.55552100  0.55552100  0.35027700  1
  O  O40  1  0.72666600  0.72666600  0.25385600  1
  O  O41  1  0.92704100  0.44545000  0.15072900  1
  O  O42  1  0.85824400  0.36031700  0.45361300  1
  O  O43  1  0.05071500  0.05071500  0.34542900  1
  O  O44  1  0.23874300  0.23874300  0.25352200  1
  O  O45  1  0.03590100  0.54176300  0.34657800  1
  O  O46  1  0.15897700  0.15897700  0.54783300  1
  O  O47  1  0.36031700  0.85824400  0.45361300  1
  O  O48  1  0.34549900  0.34549900  0.45429800  1
  O  O49  1  0.54176300  0.03590100  0.34657800  1
  O  O50  1  0.65344800  0.65344800  0.54632600  1
  O  O51  1  0.45782600  0.96215200  0.65308000  1
  O  O52  1  0.84076900  0.84076900  0.45230700  1
  O  O53  1  0.63875400  0.14215900  0.54691600  1
  O  O54  1  0.76097200  0.76097200  0.74631300  1
  O  O55  1  0.96215200  0.45782600  0.65308000  1
  O  O56  1  0.14215900  0.63875400  0.54691600  1
  O  O57  1  0.94767500  0.94767500  0.65351100  1
  O  O58  1  0.05714500  0.56676900  0.85228200  1
  O  O59  1  0.25471200  0.25471200  0.74621900  1
  O  O60  1  0.23972400  0.74342900  0.74666000  1
  O  O61  1  0.44157500  0.44157500  0.65214100  1
  O  O62  1  0.36966500  0.36966500  0.93898800  1
  O  O63  1  0.56676900  0.05714500  0.85228200  1
  O  O64  1  0.55444500  0.55444500  0.85244000  1
  O  O65  1  0.74342900  0.23972400  0.74666000  1
  O  O66  1  0.85943900  0.85943900  0.94960700  1
  O  O67  1  0.85084000  0.32997600  0.95045000  1
  O  O68  1  0.04311800  0.04311800  0.85241700  1
  O  O69  1  0.32997600  0.85084000  0.95045000  1
