# generated using pymatgen
data_Li7Mn17O32
_symmetry_space_group_name_H-M   'P 1'
_cell_length_a   23.18603366
_cell_length_b   8.19719398
_cell_length_c   10.04563413
_cell_angle_alpha   65.89399270
_cell_angle_beta   30.01997943
_cell_angle_gamma   45.00214660
_symmetry_Int_Tables_number   1
_chemical_formula_structural   Li7Mn17O32
_chemical_formula_sum   'Li7 Mn17 O32'
_cell_volume   552.12776685
_cell_formula_units_Z   1
loop_
 _symmetry_equiv_pos_site_id
 _symmetry_equiv_pos_as_xyz
  1  'x, y, z'
loop_
 _atom_site_type_symbol
 _atom_site_label
 _atom_site_symmetry_multiplicity
 _atom_site_fract_x
 _atom_site_fract_y
 _atom_site_fract_z
 _atom_site_occupancy
  Li  Li0  1  0.06388200  0.12224500  0.74886200  1
  Li  Li1  1  0.18725600  0.87548800  0.25000000  1
  Li  Li2  1  0.31151300  0.12570300  0.75127400  1
  Li  Li3  1  0.43727000  0.87545900  0.25000000  1
  Li  Li4  1  0.56274300  0.12450600  0.75113800  1
  Li  Li5  1  0.81278700  0.12569800  0.74872600  1
  Li  Li6  1  0.93726700  0.87546700  0.25000000  1
  Mn  Mn7  1  0.12514900  0.99969600  0.99980800  1
  Mn  Mn8  1  0.00241500  0.49618200  0.99899800  1
  Mn  Mn9  1  0.00305400  0.49663300  0.49306300  1
  Mn  Mn10  1  0.37198600  0.00183100  0.00684200  1
  Mn  Mn11  1  0.24611700  0.50502400  0.00693700  1
  Mn  Mn12  1  0.12882800  0.49654100  0.49315800  1
  Mn  Mn13  1  0.24987100  0.50005100  0.50020500  1
  Mn  Mn14  1  0.62359200  0.00280700  0.99899000  1
  Mn  Mn15  1  0.50007500  0.50005700  0.99979500  1
  Mn  Mn16  1  0.37258200  0.50484500  0.50101000  1
  Mn  Mn17  1  0.49883300  0.50507000  0.50147800  1
  Mn  Mn18  1  0.75031100  0.49664200  0.99852200  1
  Mn  Mn19  1  0.87620600  0.00180600  0.99842300  1
  Mn  Mn20  1  0.62462900  0.49652300  0.50157700  1
  Mn  Mn21  1  0.68727500  0.87544900  0.25000000  1
  Mn  Mn22  1  0.75141200  0.49616400  0.50100200  1
  Mn  Mn23  1  0.87495800  0.50009000  0.50019200  1
  O  O24  1  0.10557100  0.26230600  0.02713500  1
  O  O25  1  0.24411400  0.26240800  0.02502300  1
  O  O26  1  0.13095300  0.26373600  0.47498100  1
  O  O27  1  0.01913700  0.71108800  0.47497700  1
  O  O28  1  0.35593400  0.26249000  0.02501900  1
  O  O29  1  0.23006600  0.28961700  0.52704100  1
  O  O30  1  0.11827400  0.73728400  0.52674000  1
  O  O31  1  0.00745000  0.73602500  0.97229200  1
  O  O32  1  0.49229100  0.26483000  0.02724100  1
  O  O33  1  0.38222200  0.26265100  0.47232300  1
  O  O34  1  0.26953300  0.71152200  0.47275900  1
  O  O35  1  0.60454600  0.26381400  0.02767700  1
  O  O36  1  0.14479500  0.73709300  0.97308600  1
  O  O37  1  0.47994000  0.28950300  0.52696700  1
  O  O38  1  0.36751800  0.73828600  0.52761800  1
  O  O39  1  0.25674600  0.73708100  0.97314500  1
  O  O40  1  0.74289200  0.26239300  0.02745900  1
  O  O41  1  0.63215500  0.26130800  0.47257900  1
  O  O42  1  0.52035100  0.71112200  0.47254100  1
  O  O43  1  0.85473400  0.26491400  0.02742100  1
  O  O44  1  0.39501300  0.73614200  0.97326000  1
  O  O45  1  0.72974200  0.28959200  0.52770800  1
  O  O46  1  0.61812900  0.73763000  0.52673200  1
  O  O47  1  0.50710700  0.73603600  0.97295900  1
  O  O48  1  0.99280000  0.26381500  0.02779600  1
  O  O49  1  0.88270600  0.26114000  0.47286500  1
  O  O50  1  0.77059600  0.70939300  0.47220400  1
  O  O51  1  0.64513600  0.73640500  0.97238200  1
  O  O52  1  0.97989100  0.28964600  0.52685500  1
  O  O53  1  0.86788000  0.73755700  0.52691400  1
  O  O54  1  0.75690700  0.73680300  0.97303300  1
  O  O55  1  0.89486000  0.73639200  0.97326800  1
