# generated using pymatgen
data_Yb4Zr3O12
_symmetry_space_group_name_H-M   'P 1'
_cell_length_a   6.39667600
_cell_length_b   6.45283414
_cell_length_c   25.17686396
_cell_angle_alpha   93.02815854
_cell_angle_beta   93.25536891
_cell_angle_gamma   100.07098382
_symmetry_Int_Tables_number   1
_chemical_formula_structural   Yb4Zr3O12
_chemical_formula_sum   'Yb16 Zr12 O48'
_cell_volume   1019.47014503
_cell_formula_units_Z   4
loop_
 _symmetry_equiv_pos_site_id
 _symmetry_equiv_pos_as_xyz
  1  'x, y, z'
loop_
 _atom_site_type_symbol
 _atom_site_label
 _atom_site_symmetry_multiplicity
 _atom_site_fract_x
 _atom_site_fract_y
 _atom_site_fract_z
 _atom_site_occupancy
  Yb  Yb0  1  0.73726800  0.42492700  0.03216500  1
  Yb  Yb1  1  0.98747100  0.67577200  0.28251600  1
  Yb  Yb2  1  0.75658600  0.75264300  0.75106300  1
  Yb  Yb3  1  0.23620300  0.92569700  0.53269600  1
  Yb  Yb4  1  0.01336600  0.85525000  0.15094400  1
  Yb  Yb5  1  0.51406900  0.82329200  0.21473100  1
  Yb  Yb6  1  0.26185500  0.10606900  0.40113800  1
  Yb  Yb7  1  0.47137200  0.93657500  0.07352400  1
  Yb  Yb8  1  0.76175000  0.07188200  0.46526600  1
  Yb  Yb9  1  0.51463500  0.35170500  0.65122800  1
  Yb  Yb10  1  0.71816200  0.18490600  0.32492100  1
  Yb  Yb11  1  0.03046300  0.32138800  0.71422700  1
  Yb  Yb12  1  0.75850800  0.59215400  0.90169200  1
  Yb  Yb13  1  0.96782800  0.43226300  0.57469000  1
  Yb  Yb14  1  0.26079400  0.57373700  0.96450100  1
  Yb  Yb15  1  0.21950000  0.68298300  0.82874000  1
  Zr  Zr16  1  0.79937800  0.32095400  0.17588300  1
  Zr  Zr17  1  0.24916300  0.24690100  0.24993600  1
  Zr  Zr18  1  0.04885600  0.57170500  0.42598300  1
  Zr  Zr19  1  0.49790900  0.49573400  0.49985100  1
  Zr  Zr20  1  0.22728000  0.37905900  0.09489300  1
  Zr  Zr21  1  0.29968800  0.81352900  0.67478700  1
  Zr  Zr22  1  0.47801600  0.62921800  0.34488200  1
  Zr  Zr23  1  0.54217700  0.06553500  0.92497900  1
  Zr  Zr24  1  0.00425300  0.99541700  0.00049800  1
  Zr  Zr25  1  0.72197800  0.87368800  0.59588600  1
  Zr  Zr26  1  0.47151900  0.16789300  0.78219900  1
  Zr  Zr27  1  0.98771500  0.16314100  0.84638200  1
  O  O28  1  0.69124100  0.06297800  0.00788100  1
  O  O29  1  0.12218300  0.26055900  0.17002300  1
  O  O30  1  0.93670100  0.31142800  0.26010500  1
  O  O31  1  0.54158900  0.29371800  0.11183700  1
  O  O32  1  0.37124400  0.51031200  0.42006500  1
  O  O33  1  0.18570400  0.56196400  0.51030900  1
  O  O34  1  0.07632700  0.33284600  0.01760600  1
  O  O35  1  0.79129100  0.54503900  0.36221200  1
  O  O36  1  0.93980200  0.50411300  0.11078700  1
  O  O37  1  0.60455900  0.73848400  0.66938600  1
  O  O38  1  0.42885200  0.83886900  0.76378800  1
  O  O39  1  0.32586500  0.58199500  0.26733400  1
  O  O40  1  0.78417700  0.62886900  0.20282000  1
  O  O41  1  0.03691400  0.79328700  0.61398200  1
  O  O42  1  0.19087700  0.75545900  0.36093700  1
  O  O43  1  0.87930200  0.02379700  0.91843900  1
  O  O44  1  0.44371400  0.58430600  0.05038400  1
  O  O45  1  0.57438000  0.83016800  0.51784700  1
  O  O46  1  0.03279000  0.87911900  0.45300300  1
  O  O47  1  0.31470700  0.68836900  0.13641300  1
  O  O48  1  0.28984300  0.05224900  0.85892500  1
  O  O49  1  0.44007400  0.00336300  0.61098500  1
  O  O50  1  0.69383900  0.83386400  0.29995800  1
  O  O51  1  0.17655900  0.92887900  0.23563200  1
  O  O52  1  0.81334000  0.10958900  0.76962000  1
  O  O53  1  0.29709800  0.12832500  0.70574000  1
  O  O54  1  0.56154200  0.93756700  0.38713800  1
  O  O55  1  0.71042100  0.99511300  0.14683300  1
  O  O56  1  0.66550500  0.25122700  0.85698900  1
  O  O57  1  0.94046100  0.08000100  0.55082500  1
  O  O58  1  0.42471300  0.17813700  0.48577000  1
  O  O59  1  0.52855300  0.37377500  0.95299300  1
  O  O60  1  0.14212600  0.02799800  0.07785900  1
  O  O61  1  0.81450900  0.18241600  0.63849200  1
  O  O62  1  0.95881700  0.24485500  0.39768300  1
  O  O63  1  0.22580000  0.33827800  0.79685300  1
  O  O64  1  0.67302900  0.39378700  0.74146800  1
  O  O65  1  0.55451100  0.20102100  0.22879800  1
  O  O66  1  0.39053900  0.27969800  0.32797800  1
  O  O67  1  0.05795300  0.45246800  0.88800300  1
  O  O68  1  0.20830700  0.49026000  0.64656700  1
  O  O69  1  0.91810600  0.68112100  0.98584700  1
  O  O70  1  0.80373500  0.45074000  0.47869000  1
  O  O71  1  0.64082400  0.52491800  0.57766300  1
  O  O72  1  0.46970700  0.74395100  0.89855300  1
  O  O73  1  0.08817900  0.69341700  0.73557800  1
  O  O74  1  0.90059500  0.81391500  0.83591800  1
  O  O75  1  0.30133600  0.94937200  0.97728100  1
