# generated using pymatgen
data_Co2SnO4
_symmetry_space_group_name_H-M   'P 1'
_cell_length_a   6.22065563
_cell_length_b   6.19762913
_cell_length_c   30.43580298
_cell_angle_alpha   60.42314841
_cell_angle_beta   60.64572630
_cell_angle_gamma   60.99352175
_symmetry_Int_Tables_number   1
_chemical_formula_structural   Co2SnO4
_chemical_formula_sum   'Co20 Sn10 O40'
_cell_volume   842.55348501
_cell_formula_units_Z   10
loop_
 _symmetry_equiv_pos_site_id
 _symmetry_equiv_pos_as_xyz
  1  'x, y, z'
loop_
 _atom_site_type_symbol
 _atom_site_label
 _atom_site_symmetry_multiplicity
 _atom_site_fract_x
 _atom_site_fract_y
 _atom_site_fract_z
 _atom_site_occupancy
  Co  Co0  1  0.23896800  0.25124000  0.04877200  1
  Co  Co1  1  0.01235700  0.01502900  0.19740900  1
  Co  Co2  1  0.62001700  0.63819500  0.02482700  1
  Co  Co3  1  0.23296000  0.23578500  0.25430700  1
  Co  Co4  1  0.01243300  0.01100600  0.39844700  1
  Co  Co5  1  0.62147400  0.62741300  0.12503700  1
  Co  Co6  1  0.62270100  0.62613300  0.22533700  1
  Co  Co7  1  0.23429000  0.23566500  0.45392800  1
  Co  Co8  1  0.01276400  0.01009500  0.59841900  1
  Co  Co9  1  0.62383700  0.62423200  0.32551300  1
  Co  Co10  1  0.62386300  0.62390800  0.42566300  1
  Co  Co11  1  0.23458600  0.23273000  0.65402400  1
  Co  Co12  1  0.01288900  0.00232300  0.79980200  1
  Co  Co13  1  0.62390400  0.62343100  0.52570600  1
  Co  Co14  1  0.62479900  0.62109800  0.62584700  1
  Co  Co15  1  0.23587400  0.24871800  0.85137100  1
  Co  Co16  1  0.62558400  0.61960100  0.72580400  1
  Co  Co17  1  0.63343700  0.60722500  0.82657800  1
  Co  Co18  1  0.63083500  0.13672800  0.92131200  1
  Co  Co19  1  0.63160300  0.62744400  0.92100300  1
  Sn  Sn20  1  0.02704500  0.01403400  0.99239000  1
  Sn  Sn21  1  0.12514500  0.62619400  0.12581900  1
  Sn  Sn22  1  0.62002600  0.13200600  0.12537000  1
  Sn  Sn23  1  0.12384300  0.62411700  0.32561300  1
  Sn  Sn24  1  0.62391800  0.12432100  0.32555900  1
  Sn  Sn25  1  0.12421400  0.62326500  0.52578900  1
  Sn  Sn26  1  0.62370500  0.12353700  0.52585100  1
  Sn  Sn27  1  0.12621500  0.61962100  0.72540300  1
  Sn  Sn28  1  0.62548000  0.11812900  0.72605800  1
  Sn  Sn29  1  0.13570700  0.63089700  0.92075200  1
  O  O30  1  0.37433300  0.38389000  0.07784400  1
  O  O31  1  0.37081600  0.84909900  0.07882900  1
  O  O32  1  0.37380000  0.37858700  0.17227300  1
  O  O33  1  0.83765000  0.38286600  0.07812400  1
  O  O34  1  0.37721400  0.37854200  0.27774800  1
  O  O35  1  0.40933000  0.87511300  0.17095200  1
  O  O36  1  0.87480100  0.88049500  0.07622100  1
  O  O37  1  0.87077400  0.41315200  0.17104100  1
  O  O38  1  0.37701900  0.84227900  0.27778400  1
  O  O39  1  0.37680600  0.37667000  0.37148300  1
  O  O40  1  0.84054300  0.37923200  0.27771400  1
  O  O41  1  0.87002600  0.87675900  0.17148400  1
  O  O42  1  0.40779000  0.87189500  0.37168500  1
  O  O43  1  0.37745700  0.37758800  0.47787400  1
  O  O44  1  0.87378600  0.87471900  0.27828400  1
  O  O45  1  0.87242700  0.40741100  0.37170700  1
  O  O46  1  0.37721200  0.84178100  0.47785500  1
  O  O47  1  0.37705400  0.37611500  0.57157800  1
  O  O48  1  0.84142600  0.37775100  0.47788800  1
  O  O49  1  0.87389600  0.87365900  0.37193200  1
  O  O50  1  0.40774800  0.87088900  0.57192300  1
  O  O51  1  0.37954400  0.37254800  0.67794300  1
  O  O52  1  0.87303900  0.40605500  0.57183000  1
  O  O53  1  0.87279900  0.87283100  0.47893500  1
  O  O54  1  0.37800400  0.83918400  0.67789200  1
  O  O55  1  0.38137900  0.37522700  0.77045200  1
  O  O56  1  0.84247800  0.37311400  0.67804400  1
  O  O57  1  0.87381300  0.87235600  0.57220100  1
  O  O58  1  0.41042200  0.86376900  0.77311900  1
  O  O59  1  0.37200200  0.37817800  0.87803800  1
  O  O60  1  0.87754400  0.39880700  0.77191000  1
  O  O61  1  0.87364400  0.86862800  0.67901000  1
  O  O62  1  0.37720100  0.85356100  0.87731000  1
  O  O63  1  0.36513000  0.39079900  0.97070300  1
  O  O64  1  0.84873100  0.37933000  0.87822200  1
  O  O65  1  0.87614000  0.86568400  0.77253800  1
  O  O66  1  0.41132900  0.86481900  0.97303500  1
  O  O67  1  0.87074900  0.86399400  0.88074800  1
  O  O68  1  0.86746500  0.40343700  0.97404800  1
  O  O69  1  0.87220600  0.86506500  0.97408800  1
