# generated using pymatgen
data_La8Mn7O24
_symmetry_space_group_name_H-M   'P 1'
_cell_length_a   7.88731900
_cell_length_b   9.46897657
_cell_length_c   14.80010804
_cell_angle_alpha   90.67454403
_cell_angle_beta   105.17916384
_cell_angle_gamma   113.26678589
_symmetry_Int_Tables_number   1
_chemical_formula_structural   La8Mn7O24
_chemical_formula_sum   'La16 Mn14 O48'
_cell_volume   971.71690834
_cell_formula_units_Z   2
loop_
 _symmetry_equiv_pos_site_id
 _symmetry_equiv_pos_as_xyz
  1  'x, y, z'
loop_
 _atom_site_type_symbol
 _atom_site_label
 _atom_site_symmetry_multiplicity
 _atom_site_fract_x
 _atom_site_fract_y
 _atom_site_fract_z
 _atom_site_occupancy
  La  La0  1  0.94407500  0.29159300  0.55664100  1
  La  La1  1  0.18107900  0.06453000  0.31810000  1
  La  La2  1  0.42282900  0.30214700  0.55779000  1
  La  La3  1  0.57717100  0.69785300  0.44221000  1
  La  La4  1  0.42185100  0.80011100  0.05946300  1
  La  La5  1  0.69883300  0.05844100  0.31878100  1
  La  La6  1  0.81667300  0.43399900  0.18042500  1
  La  La7  1  0.05592500  0.70840700  0.44335900  1
  La  La8  1  0.70189600  0.56131400  0.81775500  1
  La  La9  1  0.94358700  0.79099100  0.05768000  1
  La  La10  1  0.05641300  0.20900900  0.94232000  1
  La  La11  1  0.29810400  0.43868600  0.18224500  1
  La  La12  1  0.18332700  0.56600100  0.81957500  1
  La  La13  1  0.30116700  0.94155900  0.68121900  1
  La  La14  1  0.57814900  0.19988900  0.94053700  1
  La  La15  1  0.81892100  0.93547000  0.68190000  1
  Mn  Mn16  1  0.87093600  0.61789100  0.62521500  1
  Mn  Mn17  1  0.12906400  0.38210900  0.37478500  1
  Mn  Mn18  1  0.50000000  0.00000000  0.50000000  1
  Mn  Mn19  1  0.25313300  0.75308400  0.25245300  1
  Mn  Mn20  1  0.37436100  0.12382000  0.12712400  1
  Mn  Mn21  1  0.62496600  0.37659700  0.37304000  1
  Mn  Mn22  1  0.74876900  0.74908300  0.24744800  1
  Mn  Mn23  1  0.50000000  0.50000000  0.00000000  1
  Mn  Mn24  1  0.62563900  0.87618000  0.87287600  1
  Mn  Mn25  1  0.87220800  0.11786200  0.12512500  1
  Mn  Mn26  1  0.74686700  0.24691600  0.74754700  1
  Mn  Mn27  1  0.12779200  0.88213800  0.87487500  1
  Mn  Mn28  1  0.25123100  0.25091700  0.75255200  1
  Mn  Mn29  1  0.37503400  0.62340300  0.62696000  1
  O  O30  1  0.11146300  0.21548300  0.44549300  1
  O  O31  1  0.27731200  0.00047800  0.52411600  1
  O  O32  1  0.11682100  0.63357900  0.60096400  1
  O  O33  1  0.48571900  0.82505600  0.58028500  1
  O  O34  1  0.32357600  0.84987200  0.38334500  1
  O  O35  1  0.29748400  0.52675700  0.49242400  1
  O  O36  1  0.36773600  0.95574800  0.20935000  1
  O  O37  1  0.70251600  0.47324300  0.50757600  1
  O  O38  1  0.51018300  0.74491800  0.27795600  1
  O  O39  1  0.67642400  0.15012800  0.61665500  1
  O  O40  1  0.36595600  0.38535500  0.34707600  1
  O  O41  1  0.51428100  0.17494400  0.41971500  1
  O  O42  1  0.73892000  0.58418500  0.33099600  1
  O  O43  1  0.88317900  0.36642100  0.39903600  1
  O  O44  1  0.57875200  0.59944100  0.13393700  1
  O  O45  1  0.72268800  0.99952200  0.47588400  1
  O  O46  1  0.54468100  0.27879900  0.24022800  1
  O  O47  1  0.88853700  0.78451700  0.55450700  1
  O  O48  1  0.61909600  0.70637400  0.95196600  1
  O  O49  1  0.96069800  0.22227900  0.25834500  1
  O  O50  1  0.73948800  0.48710600  0.02211900  1
  O  O51  1  0.90090800  0.89223500  0.35581900  1
  O  O52  1  0.61791700  0.13576900  0.10149100  1
  O  O53  1  0.75083700  0.91535600  0.16663800  1
  O  O54  1  0.97403300  0.31235600  0.08277800  1
  O  O55  1  0.13044700  0.11065000  0.15177000  1
  O  O56  1  0.82514600  0.34544200  0.87124400  1
  O  O57  1  0.98892600  0.75504300  0.22290800  1
  O  O58  1  0.78639300  0.02911900  0.98854900  1
  O  O59  1  0.13608300  0.54465900  0.29329100  1
  O  O60  1  0.86391700  0.45534100  0.70670900  1
  O  O61  1  0.21360700  0.97088100  0.01145100  1
  O  O62  1  0.01107400  0.24495700  0.77709200  1
  O  O63  1  0.17485400  0.65455800  0.12875600  1
  O  O64  1  0.86955300  0.88935000  0.84823000  1
  O  O65  1  0.02596700  0.68764400  0.91722200  1
  O  O66  1  0.24916300  0.08464400  0.83336200  1
  O  O67  1  0.38208300  0.86423100  0.89850900  1
  O  O68  1  0.09909200  0.10776500  0.64418100  1
  O  O69  1  0.26051200  0.51289400  0.97788100  1
  O  O70  1  0.03930200  0.77772100  0.74165500  1
  O  O71  1  0.38090400  0.29362600  0.04803400  1
  O  O72  1  0.45531900  0.72120100  0.75977200  1
  O  O73  1  0.42124800  0.40055900  0.86606300  1
  O  O74  1  0.26108000  0.41581500  0.66900400  1
  O  O75  1  0.63404400  0.61464500  0.65292400  1
  O  O76  1  0.48981700  0.25508200  0.72204400  1
  O  O77  1  0.63226400  0.04425200  0.79065000  1
