# generated using pymatgen
data_V(CoO2)2
_symmetry_space_group_name_H-M   'P 1'
_cell_length_a   6.01735506
_cell_length_b   6.00122042
_cell_length_c   35.94093109
_cell_angle_alpha   59.93887945
_cell_angle_beta   60.48281816
_cell_angle_gamma   60.08866651
_symmetry_Int_Tables_number   1
_chemical_formula_structural   V(CoO2)2
_chemical_formula_sum   'V12 Co24 O48'
_cell_volume   921.23154517
_cell_formula_units_Z   12
loop_
 _symmetry_equiv_pos_site_id
 _symmetry_equiv_pos_as_xyz
  1  'x, y, z'
loop_
 _atom_site_type_symbol
 _atom_site_label
 _atom_site_symmetry_multiplicity
 _atom_site_fract_x
 _atom_site_fract_y
 _atom_site_fract_z
 _atom_site_occupancy
  V  V0  1  0.01258319  0.98966249  0.00134864  1
  V  V1  1  0.14046623  0.61551132  0.10475219  1
  V  V2  1  0.14541115  0.61750836  0.26992836  1
  V  V3  1  0.01532968  0.99316824  0.16638931  1
  V  V4  1  0.12829123  0.62665227  0.43640071  1
  V  V5  1  0.63076029  0.62598014  0.35288024  1
  V  V6  1  0.12631144  0.62659229  0.60341766  1
  V  V7  1  0.62705942  0.62584592  0.52020779  1
  V  V8  1  0.12881264  0.62645066  0.76971401  1
  V  V9  1  0.62663211  0.62688624  0.68659924  1
  V  V10  1  0.13528765  0.62103399  0.93710739  1
  V  V11  1  0.62943579  0.62666302  0.85287336  1
  Co  Co12  1  0.22763206  0.25710263  0.04302745  1
  Co  Co13  1  0.61878276  0.62266168  0.02264865  1
  Co  Co14  1  0.23139831  0.25400668  0.21009772  1
  Co  Co15  1  0.62294118  0.12906003  0.10464666  1
  Co  Co16  1  0.62294118  0.62012086  0.10464666  1
  Co  Co17  1  0.62199303  0.62036296  0.18954684  1
  Co  Co18  1  0.24222690  0.25633236  0.37418473  1
  Co  Co19  1  0.62935210  0.12695529  0.27053239  1
  Co  Co20  1  0.62935210  0.62049627  0.27053239  1
  Co  Co21  1  0.00946965  0.99594063  0.33310785  1
  Co  Co22  1  0.24029953  0.25850220  0.54044968  1
  Co  Co23  1  0.62535056  0.12585021  0.43731172  1
  Co  Co24  1  0.62535056  0.62492888  0.43731172  1
  Co  Co25  1  0.00585340  0.99367550  0.50113260  1
  Co  Co26  1  0.24158095  0.25780367  0.70713495  1
  Co  Co27  1  0.62262041  0.12618291  0.60436355  1
  Co  Co28  1  0.62262041  0.62501740  0.60436355  1
  Co  Co29  1  0.00567538  0.99546177  0.66723385  1
  Co  Co30  1  0.62689282  0.12636684  0.77023134  1
  Co  Co31  1  0.24435916  0.25834305  0.87315912  1
  Co  Co32  1  0.62689282  0.62535031  0.77023134  1
  Co  Co33  1  0.00753252  0.99279765  0.83447836  1
  Co  Co34  1  0.62689051  0.12598981  0.93729492  1
  Co  Co35  1  0.62689051  0.62335017  0.93729492  1
  O  O36  1  0.35198666  0.40049784  0.06560936  1
  O  O37  1  0.36295176  0.39119078  0.14244411  1
  O  O38  1  0.35198666  0.85385731  0.06560936  1
  O  O39  1  0.83520596  0.38746123  0.06497826  1
  O  O40  1  0.35452320  0.39234469  0.23323324  1
  O  O41  1  0.38941111  0.87184002  0.14448481  1
  O  O42  1  0.37106284  0.39004075  0.30814261  1
  O  O43  1  0.35452320  0.85373266  0.23323324  1
  O  O44  1  0.89488468  0.37966127  0.14450865  1
  O  O45  1  0.87642558  0.86955062  0.06407886  1
  O  O46  1  0.84005467  0.38584006  0.23137754  1
  O  O47  1  0.89488468  0.85840216  0.14450865  1
  O  O48  1  0.37370304  0.40643320  0.39531456  1
  O  O49  1  0.41453213  0.85082055  0.31397146  1
  O  O50  1  0.36412779  0.39806003  0.47329236  1
  O  O51  1  0.37370304  0.84797839  0.39531456  1
  O  O52  1  0.88356750  0.40474942  0.31150168  1
  O  O53  1  0.88259605  0.87343226  0.22842357  1
  O  O54  1  0.83797136  0.39957278  0.39381418  1
  O  O55  1  0.88356750  0.84267502  0.31150168  1
  O  O56  1  0.37050512  0.40568526  0.56233059  1
  O  O57  1  0.40947112  0.85104577  0.48140589  1
  O  O58  1  0.36216815  0.39835853  0.64018547  1
  O  O59  1  0.37050512  0.84982408  0.56233059  1
  O  O60  1  0.87810997  0.40021020  0.47975599  1
  O  O61  1  0.88598443  0.85261187  0.40146497  1
  O  O62  1  0.83585933  0.39838740  0.56122731  1
  O  O63  1  0.87810997  0.84314188  0.47975599  1
  O  O64  1  0.37310331  0.40554215  0.72858237  1
  O  O65  1  0.40760118  0.85179118  0.64813608  1
  O  O66  1  0.36539443  0.39857435  0.80624281  1
  O  O67  1  0.87682774  0.40073790  0.64639335  1
  O  O68  1  0.37310331  0.84986031  0.72858237  1
  O  O69  1  0.88189630  0.85226650  0.56892845  1
  O  O70  1  0.83859431  0.39827637  0.72747549  1
  O  O71  1  0.87682774  0.84407425  0.64639335  1
  O  O72  1  0.37436162  0.40759417  0.89492565  1
  O  O73  1  0.41099484  0.85226591  0.81407923  1
  O  O74  1  0.36306664  0.39708123  0.97379548  1
  O  O75  1  0.87978055  0.39989002  0.81268679  1
  O  O76  1  0.37436162  0.84849230  0.89492565  1
  O  O77  1  0.88680849  0.85189570  0.73490035  1
  O  O78  1  0.83939077  0.39868241  0.89387440  1
  O  O79  1  0.87978055  0.84421069  0.81268679  1
  O  O80  1  0.38704719  0.87320334  0.97775736  1
  O  O81  1  0.89587840  0.37305695  0.97815878  1
  O  O82  1  0.88564044  0.84837361  0.90293506  1
  O  O83  1  0.89587840  0.86210994  0.97815878  1
