# generated using pymatgen
data_Y2Zr24O51
_symmetry_space_group_name_H-M   'P 1'
_cell_length_a   3.64465700
_cell_length_b   3.65864800
_cell_length_c   69.04576900
_cell_angle_alpha   90.00000000
_cell_angle_beta   90.00000000
_cell_angle_gamma   90.00000000
_symmetry_Int_Tables_number   1
_chemical_formula_structural   Y2Zr24O51
_chemical_formula_sum   'Y2 Zr24 O51'
_cell_volume   920.69198353
_cell_formula_units_Z   1
loop_
 _symmetry_equiv_pos_site_id
 _symmetry_equiv_pos_as_xyz
  1  'x, y, z'
loop_
 _atom_site_type_symbol
 _atom_site_label
 _atom_site_symmetry_multiplicity
 _atom_site_fract_x
 _atom_site_fract_y
 _atom_site_fract_z
 _atom_site_occupancy
  Y  Y0  1  0.50000000  0.00000000  0.01496500  1
  Y  Y1  1  0.00000000  0.50000000  0.05994100  1
  Zr  Zr2  1  0.50000000  0.00000000  0.94126800  1
  Zr  Zr3  1  0.50000000  0.00000000  0.86569700  1
  Zr  Zr4  1  0.50000000  0.00000000  0.78896600  1
  Zr  Zr5  1  0.50000000  0.00000000  0.71185100  1
  Zr  Zr6  1  0.50000000  0.00000000  0.63474200  1
  Zr  Zr7  1  0.50000000  0.00000000  0.55772400  1
  Zr  Zr8  1  0.50000000  0.00000000  0.48076500  1
  Zr  Zr9  1  0.50000000  0.00000000  0.40384000  1
  Zr  Zr10  1  0.50000000  0.00000000  0.32695600  1
  Zr  Zr11  1  0.50000000  0.00000000  0.25016400  1
  Zr  Zr12  1  0.50000000  0.00000000  0.17351000  1
  Zr  Zr13  1  0.50000000  0.00000000  0.09710700  1
  Zr  Zr14  1  0.00000000  0.50000000  0.97856800  1
  Zr  Zr15  1  0.00000000  0.50000000  0.90370200  1
  Zr  Zr16  1  0.00000000  0.50000000  0.82746900  1
  Zr  Zr17  1  0.00000000  0.50000000  0.75047800  1
  Zr  Zr18  1  0.00000000  0.50000000  0.67334100  1
  Zr  Zr19  1  0.00000000  0.50000000  0.59627700  1
  Zr  Zr20  1  0.00000000  0.50000000  0.51929300  1
  Zr  Zr21  1  0.00000000  0.50000000  0.36544500  1
  Zr  Zr22  1  0.00000000  0.50000000  0.44235200  1
  Zr  Zr23  1  0.00000000  0.50000000  0.21186900  1
  Zr  Zr24  1  0.00000000  0.50000000  0.28859500  1
  Zr  Zr25  1  0.00000000  0.50000000  0.13530500  1
  O  O26  1  0.00000000  0.00000000  0.99812200  1
  O  O27  1  0.00000000  0.00000000  0.95937300  1
  O  O28  1  0.00000000  0.00000000  0.92030900  1
  O  O29  1  0.00000000  0.00000000  0.84271700  1
  O  O30  1  0.00000000  0.00000000  0.88146400  1
  O  O31  1  0.00000000  0.00000000  0.80408000  1
  O  O32  1  0.00000000  0.00000000  0.76543200  1
  O  O33  1  0.00000000  0.00000000  0.72683200  1
  O  O34  1  0.00000000  0.00000000  0.68821900  1
  O  O35  1  0.00000000  0.00000000  0.64966500  1
  O  O36  1  0.00000000  0.00000000  0.61110500  1
  O  O37  1  0.00000000  0.00000000  0.57260700  1
  O  O38  1  0.00000000  0.00000000  0.53409400  1
  O  O39  1  0.00000000  0.00000000  0.45714900  1
  O  O40  1  0.00000000  0.00000000  0.49563300  1
  O  O41  1  0.00000000  0.00000000  0.41871300  1
  O  O42  1  0.00000000  0.00000000  0.38025700  1
  O  O43  1  0.00000000  0.00000000  0.34185700  1
  O  O44  1  0.00000000  0.00000000  0.30345200  1
  O  O45  1  0.00000000  0.00000000  0.26512700  1
  O  O46  1  0.00000000  0.00000000  0.22680100  1
  O  O47  1  0.00000000  0.00000000  0.18855900  1
  O  O48  1  0.00000000  0.00000000  0.15034300  1
  O  O49  1  0.00000000  0.00000000  0.11231200  1
  O  O50  1  0.00000000  0.00000000  0.07460400  1
  O  O51  1  0.50000000  0.50000000  0.92446700  1
  O  O52  1  0.50000000  0.50000000  0.77415300  1
  O  O53  1  0.50000000  0.50000000  0.85041700  1
  O  O54  1  0.50000000  0.50000000  0.61999200  1
  O  O55  1  0.50000000  0.50000000  0.69712800  1
  O  O56  1  0.50000000  0.50000000  0.46595700  1
  O  O57  1  0.50000000  0.50000000  0.54293600  1
  O  O58  1  0.50000000  0.50000000  0.31215900  1
  O  O59  1  0.50000000  0.50000000  0.96041700  1
  O  O60  1  0.50000000  0.50000000  0.38903000  1
  O  O61  1  0.50000000  0.50000000  0.15868700  1
  O  O62  1  0.50000000  0.50000000  0.23538400  1
  O  O63  1  0.50000000  0.50000000  0.88778700  1
  O  O64  1  0.50000000  0.50000000  0.81243000  1
  O  O65  1  0.50000000  0.50000000  0.08198200  1
  O  O66  1  0.50000000  0.50000000  0.99631800  1
  O  O67  1  0.50000000  0.50000000  0.73566300  1
  O  O68  1  0.50000000  0.50000000  0.65853800  1
  O  O69  1  0.50000000  0.50000000  0.50442100  1
  O  O70  1  0.50000000  0.50000000  0.58143400  1
  O  O71  1  0.50000000  0.50000000  0.35056800  1
  O  O72  1  0.50000000  0.50000000  0.42746900  1
  O  O73  1  0.50000000  0.50000000  0.19701200  1
  O  O74  1  0.50000000  0.50000000  0.27373800  1
  O  O75  1  0.50000000  0.50000000  0.03792000  1
  O  O76  1  0.50000000  0.50000000  0.12031400  1
