# generated using pymatgen
data_Mn(PO3)3
_symmetry_space_group_name_H-M   'P 1'
_cell_length_a   7.03158817
_cell_length_b   7.29936159
_cell_length_c   7.21635705
_cell_angle_alpha   84.02935989
_cell_angle_beta   105.34059009
_cell_angle_gamma   93.92083812
_symmetry_Int_Tables_number   1
_chemical_formula_structural   Mn(PO3)3
_chemical_formula_sum   'Mn2 P6 O18'
_cell_volume   354.93054131
_cell_formula_units_Z   2
loop_
 _symmetry_equiv_pos_site_id
 _symmetry_equiv_pos_as_xyz
  1  'x, y, z'
loop_
 _atom_site_type_symbol
 _atom_site_label
 _atom_site_symmetry_multiplicity
 _atom_site_fract_x
 _atom_site_fract_y
 _atom_site_fract_z
 _atom_site_occupancy
  Mn  Mn0  1  0.56711200  0.82701000  0.85084600  1
  Mn  Mn1  1  0.43314600  0.17284000  0.14888700  1
  P  P2  1  0.74633600  0.13511500  0.56164700  1
  P  P3  1  0.25366600  0.86486100  0.43829400  1
  P  P4  1  0.12886100  0.30815200  0.76487500  1
  P  P5  1  0.87105100  0.69196200  0.23538700  1
  P  P6  1  0.53662400  0.35365000  0.77569200  1
  P  P7  1  0.46330200  0.64632500  0.22416400  1
  O  O8  1  0.29515300  0.04380100  0.32917000  1
  O  O9  1  0.70506100  0.95621100  0.67089700  1
  O  O10  1  0.68186200  0.13921200  0.34375200  1
  O  O11  1  0.31836400  0.86054800  0.65619000  1
  O  O12  1  0.97595700  0.18022200  0.61455000  1
  O  O13  1  0.02400800  0.82003100  0.38559600  1
  O  O14  1  0.19428800  0.17470900  0.94863800  1
  O  O15  1  0.80578400  0.82530700  0.05147600  1
  O  O16  1  0.58217800  0.20808700  0.94924200  1
  O  O17  1  0.41780300  0.79181000  0.05052200  1
  O  O18  1  0.65021200  0.30405400  0.62401300  1
  O  O19  1  0.34931000  0.69582000  0.37558400  1
  O  O20  1  0.31045400  0.31937700  0.65999000  1
  O  O21  1  0.68935000  0.68096900  0.34012600  1
  O  O22  1  0.41796400  0.44914700  0.18991200  1
  O  O23  1  0.58234600  0.55075700  0.81005100  1
  O  O24  1  0.94630600  0.51152400  0.22830200  1
  O  O25  1  0.05350300  0.48849900  0.77219800  1
