# generated using pymatgen
data_KAl11O17
_symmetry_space_group_name_H-M   'P 1'
_cell_length_a   5.64933404
_cell_length_b   5.64933404
_cell_length_c   23.20832425
_cell_angle_alpha   83.22372680
_cell_angle_beta   83.22372680
_cell_angle_gamma   60.13413613
_symmetry_Int_Tables_number   1
_chemical_formula_structural   KAl11O17
_chemical_formula_sum   'K2 Al22 O34'
_cell_volume   636.32646938
_cell_formula_units_Z   2
loop_
 _symmetry_equiv_pos_site_id
 _symmetry_equiv_pos_as_xyz
  1  'x, y, z'
loop_
 _atom_site_type_symbol
 _atom_site_label
 _atom_site_symmetry_multiplicity
 _atom_site_fract_x
 _atom_site_fract_y
 _atom_site_fract_z
 _atom_site_occupancy
  K  K0  1  0.91432800  0.91432800  0.25560600  1
  K  K1  1  0.33560100  0.33560100  0.75204700  1
  Al  Al2  1  0.99932600  0.99932600  0.00004200  1
  Al  Al3  1  0.80167700  0.29601900  0.60656000  1
  Al  Al4  1  0.50049200  0.50049200  0.50024500  1
  Al  Al5  1  0.79624700  0.30152900  0.10572800  1
  Al  Al6  1  0.79620800  0.79620800  0.10580500  1
  Al  Al7  1  0.30152900  0.79624700  0.10572800  1
  Al  Al8  1  0.67484800  0.67484800  0.97508400  1
  Al  Al9  1  0.72283700  0.72283700  0.82494900  1
  Al  Al10  1  0.77408900  0.77408900  0.67497300  1
  Al  Al11  1  0.29601900  0.80167700  0.60656000  1
  Al  Al12  1  0.29697100  0.29697100  0.60486600  1
  Al  Al13  1  0.82508700  0.82508700  0.52527300  1
  Al  Al14  1  0.17500900  0.17500900  0.47534000  1
  Al  Al15  1  0.70261100  0.70261100  0.39447300  1
  Al  Al16  1  0.70255600  0.20065600  0.39457300  1
  Al  Al17  1  0.22492000  0.22492000  0.32480600  1
  Al  Al18  1  0.27520500  0.27520500  0.17500200  1
  Al  Al19  1  0.32485300  0.32485300  0.02511900  1
  Al  Al20  1  0.69984900  0.20224000  0.89360400  1
  Al  Al21  1  0.20160600  0.20160600  0.89564400  1
  Al  Al22  1  0.20224000  0.69984900  0.89360400  1
  Al  Al23  1  0.20065600  0.70255600  0.39457300  1
  O  O24  1  0.83065300  0.35965200  0.45076700  1
  O  O25  1  0.54634500  0.54634500  0.35985100  1
  O  O26  1  0.94975300  0.45373700  0.14392600  1
  O  O27  1  0.64825600  0.64825600  0.05478900  1
  O  O28  1  0.85916300  0.85916300  0.95033400  1
  O  O29  1  0.85943000  0.33002500  0.95075700  1
  O  O30  1  0.33002500  0.85943000  0.95075700  1
  O  O31  1  0.54347300  0.05054500  0.85566100  1
  O  O32  1  0.54449300  0.54449300  0.85536700  1
  O  O33  1  0.04681100  0.04681100  0.85950900  1
  O  O34  1  0.75314600  0.75314600  0.74999800  1
  O  O35  1  0.95243800  0.95243800  0.64363900  1
  O  O36  1  0.95634200  0.44821700  0.64433100  1
  O  O37  1  0.44821700  0.95634200  0.64433100  1
  O  O38  1  0.63966800  0.17067300  0.54921500  1
  O  O39  1  0.64060400  0.64060400  0.54966800  1
  O  O40  1  0.14824000  0.14824000  0.55495700  1
  O  O41  1  0.85178100  0.85178100  0.44521800  1
  O  O42  1  0.35965200  0.83065300  0.45076700  1
  O  O43  1  0.35939100  0.35939100  0.45065200  1
  O  O44  1  0.55265700  0.04542500  0.35551900  1
  O  O45  1  0.04542500  0.55265700  0.35551900  1
  O  O46  1  0.04579500  0.04579500  0.35562900  1
  O  O47  1  0.24996500  0.24996500  0.24997400  1
  O  O48  1  0.95358300  0.95358300  0.14045500  1
  O  O49  1  0.45336900  0.45336900  0.14382500  1
  O  O50  1  0.45373700  0.94975300  0.14392600  1
  O  O51  1  0.67017000  0.13993100  0.04925900  1
  O  O52  1  0.13993100  0.67017000  0.04925900  1
  O  O53  1  0.14017400  0.14017400  0.04933200  1
  O  O54  1  0.35139400  0.35139400  0.94512100  1
  O  O55  1  0.05054500  0.54347300  0.85566100  1
  O  O56  1  0.45341900  0.45341900  0.64066200  1
  O  O57  1  0.17067300  0.63966800  0.54921500  1
