# generated using pymatgen
data_Ca10Ta3Ti4Al3(SiO5)10
_symmetry_space_group_name_H-M   'P 1'
_cell_length_a   5.48000100
_cell_length_b   7.13013638
_cell_length_c   25.18272728
_cell_angle_alpha   84.50248140
_cell_angle_beta   85.77888955
_cell_angle_gamma   76.02610340
_symmetry_Int_Tables_number   1
_chemical_formula_structural   Ca10Ta3Ti4Al3(SiO5)10
_chemical_formula_sum   'Ca10 Ta3 Ti4 Al3 Si10 O50'
_cell_volume   949.15857073
_cell_formula_units_Z   1
loop_
 _symmetry_equiv_pos_site_id
 _symmetry_equiv_pos_as_xyz
  1  'x, y, z'
loop_
 _atom_site_type_symbol
 _atom_site_label
 _atom_site_symmetry_multiplicity
 _atom_site_fract_x
 _atom_site_fract_y
 _atom_site_fract_z
 _atom_site_occupancy
  Ca  Ca0  1  0.14505900  0.99005100  0.76673200  1
  Ca  Ca1  1  0.54625600  0.79096700  0.56795300  1
  Ca  Ca2  1  0.94718000  0.58890500  0.36752600  1
  Ca  Ca3  1  0.34169800  0.41014000  0.16691100  1
  Ca  Ca4  1  0.05282000  0.41109500  0.63247400  1
  Ca  Ca5  1  0.73785900  0.21728800  0.96507800  1
  Ca  Ca6  1  0.45374400  0.20903300  0.43204700  1
  Ca  Ca7  1  0.85494100  0.00994900  0.23326800  1
  Ca  Ca8  1  0.26214100  0.78271200  0.03492200  1
  Ca  Ca9  1  0.65830200  0.58986000  0.83308900  1
  Ta  Ta10  1  0.59760900  0.20105600  0.69956500  1
  Ta  Ta11  1  0.00000000  0.00000000  0.50000000  1
  Ta  Ta12  1  0.40239100  0.79894400  0.30043500  1
  Ti  Ti13  1  0.80363700  0.59920800  0.10091100  1
  Ti  Ti14  1  0.79969400  0.10214300  0.09875500  1
  Ti  Ti15  1  0.19636300  0.40079200  0.89908900  1
  Ti  Ti16  1  0.20030600  0.89785700  0.90124500  1
  Al  Al17  1  0.59913500  0.69941500  0.70067400  1
  Al  Al18  1  0.00000000  0.50000000  0.50000000  1
  Al  Al19  1  0.40086500  0.30058500  0.29932600  1
  Si  Si20  1  0.14722800  0.52094200  0.76347800  1
  Si  Si21  1  0.54774700  0.32330300  0.56225800  1
  Si  Si22  1  0.94866400  0.12265000  0.36231600  1
  Si  Si23  1  0.05133600  0.87735000  0.63768400  1
  Si  Si24  1  0.35321100  0.91522200  0.16284300  1
  Si  Si25  1  0.45225300  0.67669700  0.43774200  1
  Si  Si26  1  0.75349500  0.71156000  0.96450100  1
  Si  Si27  1  0.85277200  0.47905800  0.23652200  1
  Si  Si28  1  0.24650500  0.28844000  0.03549900  1
  Si  Si29  1  0.64678900  0.08477800  0.83715700  1
  O  O30  1  0.32456700  0.73644200  0.65170300  1
  O  O31  1  0.24059400  0.33939900  0.72339600  1
  O  O32  1  0.50255600  0.95803600  0.71310800  1
  O  O33  1  0.72538700  0.53503100  0.45147600  1
  O  O34  1  0.49548200  0.22407600  0.62338800  1
  O  O35  1  0.36443000  0.64614300  0.76191000  1
  O  O36  1  0.64094300  0.14008300  0.52320000  1
  O  O37  1  0.83323300  0.75387700  0.63855800  1
  O  O38  1  0.70357400  0.17920400  0.77613000  1
  O  O39  1  0.90174300  0.75819500  0.51274100  1
  O  O40  1  0.12676900  0.33851500  0.25075300  1
  O  O41  1  0.69626200  0.44224300  0.68691100  1
  O  O42  1  0.89714100  0.02450900  0.42351300  1
  O  O43  1  0.76605400  0.44640000  0.56178200  1
  O  O44  1  0.04196400  0.93930200  0.32322100  1
  O  O45  1  0.95803600  0.06069800  0.67677900  1
  O  O46  1  0.23394600  0.55360000  0.43821800  1
  O  O47  1  0.10285900  0.97549100  0.57648700  1
  O  O48  1  0.30373800  0.55775700  0.31308900  1
  O  O49  1  0.52043400  0.14143400  0.04961500  1
  O  O50  1  0.87323100  0.66148500  0.74924700  1
  O  O51  1  0.09825700  0.24180500  0.48725900  1
  O  O52  1  0.29642600  0.82079600  0.22387000  1
  O  O53  1  0.16676700  0.24612300  0.36144200  1
  O  O54  1  0.44191900  0.73740600  0.12313100  1
  O  O55  1  0.35905700  0.85991700  0.47680000  1
  O  O56  1  0.63557000  0.35385700  0.23809000  1
  O  O57  1  0.50451800  0.77592400  0.37661200  1
  O  O58  1  0.70333200  0.36249600  0.11381300  1
  O  O59  1  0.91952700  0.93843800  0.85110100  1
  O  O60  1  0.27461300  0.46496900  0.54852400  1
  O  O61  1  0.49744400  0.04196400  0.28689200  1
  O  O62  1  0.70010200  0.61457800  0.02488300  1
  O  O63  1  0.56433300  0.04585500  0.16249600  1
  O  O64  1  0.84020300  0.53776100  0.92307900  1
  O  O65  1  0.75940600  0.66060100  0.27660400  1
  O  O66  1  0.03599600  0.15590900  0.03671600  1
  O  O67  1  0.90165200  0.57886300  0.17570600  1
  O  O68  1  0.10316100  0.16384900  0.91364400  1
  O  O69  1  0.67543300  0.26355800  0.34829700  1
  O  O70  1  0.89683900  0.83615100  0.08635600  1
  O  O71  1  0.09834800  0.42113700  0.82429400  1
  O  O72  1  0.96400400  0.84409100  0.96328400  1
  O  O73  1  0.15979700  0.46223900  0.07692100  1
  O  O74  1  0.43566700  0.95414500  0.83750400  1
  O  O75  1  0.29989800  0.38542200  0.97511700  1
  O  O76  1  0.08047300  0.06156200  0.14889900  1
  O  O77  1  0.29666800  0.63750400  0.88618700  1
  O  O78  1  0.55808100  0.26259400  0.87686900  1
  O  O79  1  0.47956600  0.85856600  0.95038500  1
