# generated using pymatgen
data_Mg2SiO4
_symmetry_space_group_name_H-M   'P 1'
_cell_length_a   7.88682470
_cell_length_b   7.88682470
_cell_length_c   7.88682470
_cell_angle_alpha   136.44274903
_cell_angle_beta   110.84048863
_cell_angle_gamma   85.38535681
_symmetry_Int_Tables_number   1
_chemical_formula_structural   Mg2SiO4
_chemical_formula_sum   'Mg8 Si4 O16'
_cell_volume   303.71060341
_cell_formula_units_Z   4
loop_
 _symmetry_equiv_pos_site_id
 _symmetry_equiv_pos_as_xyz
  1  'x, y, z'
loop_
 _atom_site_type_symbol
 _atom_site_label
 _atom_site_symmetry_multiplicity
 _atom_site_fract_x
 _atom_site_fract_y
 _atom_site_fract_z
 _atom_site_occupancy
  Mg  Mg0  1  0.00000000  0.00000000  0.00000000  1
  Mg  Mg1  1  0.50000000  0.50000000  0.00000000  1
  Mg  Mg2  1  0.30556400  0.75000000  0.55556400  1
  Mg  Mg3  1  0.69443600  0.25000000  0.44443600  1
  Mg  Mg4  1  0.36798400  0.86798400  0.00000000  1
  Mg  Mg5  1  0.63201600  0.63201600  0.50000000  1
  Mg  Mg6  1  0.63201600  0.13201600  0.00000000  1
  Mg  Mg7  1  0.36798400  0.36798400  0.50000000  1
  Si  Si8  1  0.26390300  0.88998200  0.37392200  1
  Si  Si9  1  0.73609700  0.11001900  0.62607800  1
  Si  Si10  1  0.98394000  0.61001900  0.37392200  1
  Si  Si11  1  0.01606000  0.38998200  0.62607800  1
  O  O12  1  0.88840200  0.60182500  0.72055400  1
  O  O13  1  0.11159800  0.83215200  0.71342300  1
  O  O14  1  0.61872900  0.89817500  0.28657700  1
  O  O15  1  0.38127100  0.66784800  0.27944600  1
  O  O16  1  0.11159800  0.39817500  0.27944600  1
  O  O17  1  0.88840200  0.16784800  0.28657700  1
  O  O18  1  0.38127100  0.10182500  0.71342300  1
  O  O19  1  0.61872900  0.33215200  0.72055400  1
  O  O20  1  0.24632400  0.49082000  0.75550400  1
  O  O21  1  0.75367600  0.50918000  0.24449600  1
  O  O22  1  0.76468300  0.00917900  0.75550400  1
  O  O23  1  0.23531700  0.99082100  0.24449600  1
  O  O24  1  0.51406200  0.75000000  0.76406200  1
  O  O25  1  0.48593800  0.25000000  0.23593800  1
  O  O26  1  0.06074500  0.75000000  0.31074500  1
  O  O27  1  0.93925500  0.25000000  0.68925500  1
