# generated using pymatgen
data_Fe(PO3)3
_symmetry_space_group_name_H-M   'P 1'
_cell_length_a   6.70235132
_cell_length_b   14.72354903
_cell_length_c   6.89783480
_cell_angle_alpha   101.59093053
_cell_angle_beta   86.21021002
_cell_angle_gamma   86.84880586
_symmetry_Int_Tables_number   1
_chemical_formula_structural   Fe(PO3)3
_chemical_formula_sum   'Fe4 P12 O36'
_cell_volume   663.73142025
_cell_formula_units_Z   4
loop_
 _symmetry_equiv_pos_site_id
 _symmetry_equiv_pos_as_xyz
  1  'x, y, z'
loop_
 _atom_site_type_symbol
 _atom_site_label
 _atom_site_symmetry_multiplicity
 _atom_site_fract_x
 _atom_site_fract_y
 _atom_site_fract_z
 _atom_site_occupancy
  Fe  Fe0  1  0.16452400  0.57179200  0.90317600  1
  Fe  Fe1  1  0.83546400  0.42820500  0.09680200  1
  Fe  Fe2  1  0.16450000  0.07178800  0.90317400  1
  Fe  Fe3  1  0.83549700  0.92821400  0.09683900  1
  P  P4  1  0.14425300  0.27862100  0.79627100  1
  P  P5  1  0.14427900  0.77861800  0.79627000  1
  P  P6  1  0.85572700  0.22138500  0.20373800  1
  P  P7  1  0.85574200  0.72137700  0.20372200  1
  P  P8  1  0.33250100  0.39923600  0.11574200  1
  P  P9  1  0.33253700  0.89923700  0.11572800  1
  P  P10  1  0.66747600  0.10075900  0.88428000  1
  P  P11  1  0.66749300  0.60076700  0.88424500  1
  P  P12  1  0.33474000  0.39977700  0.55581300  1
  P  P13  1  0.33473300  0.89977600  0.55579900  1
  P  P14  1  0.66526900  0.10022700  0.44421300  1
  P  P15  1  0.66524800  0.60022200  0.44417400  1
  O  O16  1  0.04968800  0.16193200  0.14523800  1
  O  O17  1  0.04969400  0.66192100  0.14523400  1
  O  O18  1  0.95029600  0.33807200  0.85476300  1
  O  O19  1  0.95032200  0.83807200  0.85478300  1
  O  O20  1  0.13056000  0.17494500  0.75760500  1
  O  O21  1  0.13057300  0.67494500  0.75762200  1
  O  O22  1  0.86943000  0.32505800  0.24237900  1
  O  O23  1  0.86944800  0.82505200  0.24240400  1
  O  O24  1  0.16969800  0.47009300  0.08125000  1
  O  O25  1  0.16971100  0.97008600  0.08124600  1
  O  O26  1  0.83030200  0.02990900  0.91876800  1
  O  O27  1  0.83029600  0.52990900  0.91874000  1
  O  O28  1  0.18095400  0.47677800  0.66226500  1
  O  O29  1  0.18094600  0.97677800  0.66225700  1
  O  O30  1  0.81906100  0.02322500  0.33776300  1
  O  O31  1  0.81904000  0.52322400  0.33772000  1
  O  O32  1  0.29788000  0.30261500  0.96929800  1
  O  O33  1  0.29793900  0.80261800  0.96927400  1
  O  O34  1  0.70207600  0.19737900  0.03073200  1
  O  O35  1  0.70212100  0.69738700  0.03068300  1
  O  O36  1  0.25616600  0.30236800  0.60562100  1
  O  O37  1  0.25615900  0.80236300  0.60559500  1
  O  O38  1  0.74385200  0.19763800  0.39441500  1
  O  O39  1  0.74380200  0.69763200  0.39436600  1
  O  O40  1  0.28264900  0.37533000  0.32452200  1
  O  O41  1  0.28266600  0.87532800  0.32450200  1
  O  O42  1  0.71734200  0.12467000  0.67550900  1
  O  O43  1  0.71735000  0.62467100  0.67546400  1
  O  O44  1  0.45062700  0.09346700  0.41825200  1
  O  O45  1  0.45060300  0.59345400  0.41823500  1
  O  O46  1  0.54938400  0.40653900  0.58175800  1
  O  O47  1  0.54937600  0.90653800  0.58175500  1
  O  O48  1  0.45301800  0.08156600  0.92109500  1
  O  O49  1  0.45303400  0.58157700  0.92107600  1
  O  O50  1  0.54695900  0.41842600  0.07891000  1
  O  O51  1  0.54699500  0.91843100  0.07891500  1
