# generated using pymatgen
data_Nb2(PO4)3
_symmetry_space_group_name_H-M   'P 1'
_cell_length_a   8.81149200
_cell_length_b   8.81396559
_cell_length_c   9.11406986
_cell_angle_alpha   90.18813754
_cell_angle_beta   118.67160453
_cell_angle_gamma   119.96998123
_symmetry_Int_Tables_number   1
_chemical_formula_structural   Nb2(PO4)3
_chemical_formula_sum   'Nb4 P6 O24'
_cell_volume   509.77599442
_cell_formula_units_Z   2
loop_
 _symmetry_equiv_pos_site_id
 _symmetry_equiv_pos_as_xyz
  1  'x, y, z'
loop_
 _atom_site_type_symbol
 _atom_site_label
 _atom_site_symmetry_multiplicity
 _atom_site_fract_x
 _atom_site_fract_y
 _atom_site_fract_z
 _atom_site_occupancy
  Nb  Nb0  1  0.21510000  0.85902600  0.07361000  1
  Nb  Nb1  1  0.78657600  0.64185200  0.42943300  1
  Nb  Nb2  1  0.21342400  0.35814800  0.57056700  1
  Nb  Nb3  1  0.78490000  0.14097400  0.92639000  1
  P  P4  1  0.99720400  0.96638000  0.24745500  1
  P  P5  1  0.28114300  0.53197400  0.25102100  1
  P  P6  1  0.28217100  0.75160800  0.74699400  1
  P  P7  1  0.71782900  0.24839200  0.25300600  1
  P  P8  1  0.71885700  0.46802600  0.74897900  1
  P  P9  1  0.00279600  0.03362000  0.75254500  1
  O  O10  1  0.29087100  0.70682800  0.21652100  1
  O  O11  1  0.85916700  0.98914300  0.07674300  1
  O  O12  1  0.85784300  0.85550000  0.59562500  1
  O  O13  1  0.85134400  0.80258600  0.28244100  1
  O  O14  1  0.13757300  0.92561000  0.22544100  1
  O  O15  1  0.48226500  0.55384600  0.28766900  1
  O  O16  1  0.09474300  0.73354900  0.58164500  1
  O  O17  1  0.91090600  0.63783100  0.91314800  1
  O  O18  1  0.27867600  0.78427400  0.91097700  1
  O  O19  1  0.48698300  0.91658900  0.77426900  1
  O  O20  1  0.73421700  0.48927600  0.58806600  1
  O  O21  1  0.72562300  0.42609300  0.27787400  1
  O  O22  1  0.27437700  0.57390700  0.72212600  1
  O  O23  1  0.26578300  0.51072400  0.41193400  1
  O  O24  1  0.51301700  0.08341100  0.22573100  1
  O  O25  1  0.72132400  0.21572600  0.08902300  1
  O  O26  1  0.08909400  0.36216900  0.08685200  1
  O  O27  1  0.90525700  0.26645100  0.41835500  1
  O  O28  1  0.51773500  0.44615400  0.71233100  1
  O  O29  1  0.86242700  0.07439000  0.77455900  1
  O  O30  1  0.14865600  0.19741400  0.71755900  1
  O  O31  1  0.14215700  0.14450000  0.40437500  1
  O  O32  1  0.14083300  0.01085700  0.92325700  1
  O  O33  1  0.70912900  0.29317200  0.78347900  1
