# generated using pymatgen
data_Tl9SbSe6
_symmetry_space_group_name_H-M   'P 1'
_cell_length_a   11.86713300
_cell_length_b   11.86713300
_cell_length_c   14.44381200
_cell_angle_alpha   90.00000000
_cell_angle_beta   90.00000000
_cell_angle_gamma   90.00000000
_symmetry_Int_Tables_number   1
_chemical_formula_structural   Tl9SbSe6
_chemical_formula_sum   'Tl36 Sb4 Se24'
_cell_volume   2034.10537060
_cell_formula_units_Z   4
loop_
 _symmetry_equiv_pos_site_id
 _symmetry_equiv_pos_as_xyz
  1  'x, y, z'
loop_
 _atom_site_type_symbol
 _atom_site_label
 _atom_site_symmetry_multiplicity
 _atom_site_fract_x
 _atom_site_fract_y
 _atom_site_fract_z
 _atom_site_occupancy
  Tl  Tl0  1  0.90049900  0.74864200  0.60733700  1
  Tl  Tl1  1  0.11190300  0.71499900  0.11434700  1
  Tl  Tl2  1  0.22963800  0.59989500  0.59631200  1
  Tl  Tl3  1  0.38247300  0.72768700  0.39947900  1
  Tl  Tl4  1  0.25525800  0.59033000  0.89614200  1
  Tl  Tl5  1  0.23878200  0.40694200  0.10571500  1
  Tl  Tl6  1  0.27231300  0.38247300  0.39947900  1
  Tl  Tl7  1  0.59033000  0.74474200  0.89614200  1
  Tl  Tl8  1  0.50000000  0.50000000  0.68798400  1
  Tl  Tl9  1  0.40967000  0.25525800  0.89614200  1
  Tl  Tl10  1  0.72768700  0.61752700  0.39947900  1
  Tl  Tl11  1  0.40010500  0.22963800  0.59631200  1
  Tl  Tl12  1  0.76121800  0.59305800  0.10571500  1
  Tl  Tl13  1  0.74474200  0.40967000  0.89614200  1
  Tl  Tl14  1  0.61752700  0.27231300  0.39947900  1
  Tl  Tl15  1  0.77036200  0.40010500  0.59631200  1
  Tl  Tl16  1  0.59305800  0.23878200  0.10571500  1
  Tl  Tl17  1  0.00000000  0.50000000  0.33099000  1
  Tl  Tl18  1  0.88809700  0.28500100  0.11434700  1
  Tl  Tl19  1  0.74864200  0.09950100  0.60733700  1
  Tl  Tl20  1  0.90954100  0.21445000  0.37980400  1
  Tl  Tl21  1  0.74328700  0.11196800  0.90508900  1
  Tl  Tl22  1  0.71499900  0.88809700  0.11434700  1
  Tl  Tl23  1  0.09950100  0.25135800  0.60733700  1
  Tl  Tl24  1  0.78555000  0.90954100  0.37980400  1
  Tl  Tl25  1  0.11196800  0.25671300  0.90508900  1
  Tl  Tl26  1  0.00000000  0.00000000  0.16967000  1
  Tl  Tl27  1  0.88803200  0.74328700  0.90508900  1
  Tl  Tl28  1  0.21445000  0.09045900  0.37980400  1
  Tl  Tl29  1  0.28500100  0.11190300  0.11434700  1
  Tl  Tl30  1  0.25671300  0.88803200  0.90508900  1
  Tl  Tl31  1  0.09045900  0.78555000  0.37980400  1
  Tl  Tl32  1  0.25135800  0.90049900  0.60733700  1
  Tl  Tl33  1  0.50000000  0.00000000  0.33099000  1
  Tl  Tl34  1  0.40694200  0.76121800  0.10571500  1
  Tl  Tl35  1  0.59989500  0.77036200  0.59631200  1
  Sb  Sb36  1  0.00000000  0.50000000  0.75909200  1
  Sb  Sb37  1  0.50000000  0.50000000  0.23865900  1
  Sb  Sb38  1  0.50000000  0.00000000  0.75909200  1
  Sb  Sb39  1  0.00000000  0.00000000  0.76921900  1
  Se  Se40  1  0.07642900  0.75042300  0.76132200  1
  Se  Se41  1  0.00000000  0.50000000  0.95137300  1
  Se  Se42  1  0.26553200  0.57660300  0.25734600  1
  Se  Se43  1  0.23122800  0.41876400  0.74693800  1
  Se  Se44  1  0.57660300  0.73446800  0.25734600  1
  Se  Se45  1  0.50000000  0.50000000  0.47235400  1
  Se  Se46  1  0.50000000  0.50000000  0.05460600  1
  Se  Se47  1  0.42339700  0.26553200  0.25734600  1
  Se  Se48  1  0.76877200  0.58123600  0.74693800  1
  Se  Se49  1  0.73446800  0.42339700  0.25734600  1
  Se  Se50  1  0.58123600  0.23122800  0.74693800  1
  Se  Se51  1  0.50000000  0.00000000  0.95137300  1
  Se  Se52  1  0.00000000  0.50000000  0.55110600  1
  Se  Se53  1  0.92357100  0.24957700  0.76132200  1
  Se  Se54  1  0.75512300  0.09124100  0.23307700  1
  Se  Se55  1  0.75042300  0.92357100  0.76132200  1
  Se  Se56  1  0.09124100  0.24487700  0.23307700  1
  Se  Se57  1  0.00000000  0.00000000  0.46669400  1
  Se  Se58  1  0.00000000  0.00000000  0.94406100  1
  Se  Se59  1  0.90875900  0.75512300  0.23307700  1
  Se  Se60  1  0.24957700  0.07642900  0.76132200  1
  Se  Se61  1  0.24487700  0.90875900  0.23307700  1
  Se  Se62  1  0.50000000  0.00000000  0.55110600  1
  Se  Se63  1  0.41876400  0.76877200  0.74693800  1
