# generated using pymatgen
data_Er2CdSe4
_symmetry_space_group_name_H-M   'P 1'
_cell_length_a   8.31615296
_cell_length_b   8.31615296
_cell_length_c   40.66348900
_cell_angle_alpha   90.00000000
_cell_angle_beta   90.00000000
_cell_angle_gamma   120.00000762
_symmetry_Int_Tables_number   1
_chemical_formula_structural   Er2CdSe4
_chemical_formula_sum   'Er24 Cd12 Se48'
_cell_volume   2435.45536621
_cell_formula_units_Z   12
loop_
 _symmetry_equiv_pos_site_id
 _symmetry_equiv_pos_as_xyz
  1  'x, y, z'
loop_
 _atom_site_type_symbol
 _atom_site_label
 _atom_site_symmetry_multiplicity
 _atom_site_fract_x
 _atom_site_fract_y
 _atom_site_fract_z
 _atom_site_occupancy
  Er  Er0  1  0.33333300  0.66666700  0.00063100  1
  Er  Er1  1  0.67236900  0.83618500  0.89617800  1
  Er  Er2  1  0.16381500  0.32763100  0.89617800  1
  Er  Er3  1  0.16381500  0.83618500  0.89617800  1
  Er  Er4  1  0.00402900  0.50201400  0.72921200  1
  Er  Er5  1  0.49798600  0.99597100  0.72921200  1
  Er  Er6  1  0.66666700  0.33333300  0.83441100  1
  Er  Er7  1  0.33332500  0.16666300  0.56253300  1
  Er  Er8  1  0.49798600  0.50201400  0.72921200  1
  Er  Er9  1  0.83333700  0.66667500  0.56253300  1
  Er  Er10  1  0.66666700  0.33333300  0.64606300  1
  Er  Er11  1  0.83333700  0.16666300  0.56253300  1
  Er  Er12  1  0.66670500  0.83335200  0.39585900  1
  Er  Er13  1  0.00000000  0.00000000  0.47920500  1
  Er  Er14  1  0.16664800  0.33329500  0.39585900  1
  Er  Er15  1  0.16664800  0.83335200  0.39585900  1
  Er  Er16  1  0.00000500  0.50000200  0.22923200  1
  Er  Er17  1  0.33333300  0.66666700  0.31255700  1
  Er  Er18  1  0.49999800  0.99999500  0.22923200  1
  Er  Er19  1  0.49999800  0.50000200  0.22923200  1
  Er  Er20  1  0.33474300  0.16737200  0.06277900  1
  Er  Er21  1  0.66666700  0.33333300  0.14611900  1
  Er  Er22  1  0.83262800  0.66525700  0.06277900  1
  Er  Er23  1  0.83262800  0.16737200  0.06277900  1
  Cd  Cd24  1  0.66666700  0.33333300  0.95727800  1
  Cd  Cd25  1  0.00000000  0.00000000  0.79023800  1
  Cd  Cd26  1  0.00000000  0.00000000  0.97737500  1
  Cd  Cd27  1  0.33333300  0.66666700  0.62467000  1
  Cd  Cd28  1  0.33333300  0.66666700  0.81095100  1
  Cd  Cd29  1  0.33333300  0.66666700  0.50006800  1
  Cd  Cd30  1  0.66666700  0.33333300  0.45831100  1
  Cd  Cd31  1  0.00000000  0.00000000  0.66691200  1
  Cd  Cd32  1  0.00000000  0.00000000  0.16676400  1
  Cd  Cd33  1  0.00000000  0.00000000  0.29168900  1
  Cd  Cd34  1  0.33333300  0.66666700  0.12524100  1
  Cd  Cd35  1  0.66666700  0.33333300  0.33344400  1
  Se  Se36  1  0.84266800  0.15733200  0.93614100  1
  Se  Se37  1  0.84266800  0.68533600  0.93614100  1
  Se  Se38  1  0.00000000  0.00000000  0.85752100  1
  Se  Se39  1  0.31466400  0.15733200  0.93614100  1
  Se  Se40  1  0.02171900  0.51085900  0.85594000  1
  Se  Se41  1  0.17622300  0.82377700  0.76922000  1
  Se  Se42  1  0.48914100  0.97828100  0.85594000  1
  Se  Se43  1  0.33333300  0.66666700  0.93373600  1
  Se  Se44  1  0.17622300  0.35244600  0.76922000  1
  Se  Se45  1  0.33333300  0.66666700  0.69090000  1
  Se  Se46  1  0.48914100  0.51085900  0.85594000  1
  Se  Se47  1  0.64755400  0.82377700  0.76922000  1
  Se  Se48  1  0.51016200  0.48983800  0.60284100  1
  Se  Se49  1  0.35418500  0.17709300  0.68883000  1
  Se  Se50  1  0.82290700  0.64581500  0.68883000  1
  Se  Se51  1  0.66666700  0.33333300  0.76716800  1
  Se  Se52  1  0.51016200  0.02032300  0.60284100  1
  Se  Se53  1  0.66666700  0.33333300  0.52461700  1
  Se  Se54  1  0.82290700  0.17709300  0.68883000  1
  Se  Se55  1  0.97967700  0.48983800  0.60284100  1
  Se  Se56  1  0.68700600  0.84350300  0.52205400  1
  Se  Se57  1  0.84345300  0.15654700  0.43619200  1
  Se  Se58  1  0.15649700  0.31299400  0.52205400  1
  Se  Se59  1  0.00000000  0.00000000  0.60040200  1
  Se  Se60  1  0.84345300  0.68690600  0.43619200  1
  Se  Se61  1  0.00000000  0.00000000  0.35794200  1
  Se  Se62  1  0.15649700  0.84350300  0.52205400  1
  Se  Se63  1  0.31309400  0.15654700  0.43619200  1
  Se  Se64  1  0.02033600  0.51016800  0.35538600  1
  Se  Se65  1  0.17679100  0.82320900  0.26950600  1
  Se  Se66  1  0.33333300  0.66666700  0.43367500  1
  Se  Se67  1  0.17679100  0.35358100  0.26950600  1
  Se  Se68  1  0.48983200  0.97966400  0.35538600  1
  Se  Se69  1  0.33333300  0.66666700  0.19131500  1
  Se  Se70  1  0.48983200  0.51016800  0.35538600  1
  Se  Se71  1  0.64641900  0.82320900  0.26950600  1
  Se  Se72  1  0.35360900  0.17680500  0.18872700  1
  Se  Se73  1  0.51005200  0.48994800  0.10306100  1
  Se  Se74  1  0.66666700  0.33333300  0.26700200  1
  Se  Se75  1  0.82319500  0.64639100  0.18872700  1
  Se  Se76  1  0.51005200  0.02010400  0.10306100  1
  Se  Se77  1  0.66666700  0.33333300  0.02460500  1
  Se  Se78  1  0.82319500  0.17680500  0.18872700  1
  Se  Se79  1  0.97989600  0.48994800  0.10306100  1
  Se  Se80  1  0.68725100  0.84362500  0.02258400  1
  Se  Se81  1  0.15637500  0.31274900  0.02258400  1
  Se  Se82  1  0.00000000  0.00000000  0.10037200  1
  Se  Se83  1  0.15637500  0.84362500  0.02258400  1
