# generated using pymatgen
data_Li2Cu3F11
_symmetry_space_group_name_H-M   'P 1'
_cell_length_a   18.25960350
_cell_length_b   7.33644400
_cell_length_c   6.25774858
_cell_angle_alpha   90.00000000
_cell_angle_beta   93.55051562
_cell_angle_gamma   90.00000000
_symmetry_Int_Tables_number   1
_chemical_formula_structural   Li2Cu3F11
_chemical_formula_sum   'Li8 Cu12 F44'
_cell_volume   836.68246653
_cell_formula_units_Z   4
loop_
 _symmetry_equiv_pos_site_id
 _symmetry_equiv_pos_as_xyz
  1  'x, y, z'
loop_
 _atom_site_type_symbol
 _atom_site_label
 _atom_site_symmetry_multiplicity
 _atom_site_fract_x
 _atom_site_fract_y
 _atom_site_fract_z
 _atom_site_occupancy
  Li  Li0  1  0.07244600  0.75000000  0.14372200  1
  Li  Li1  1  0.12572600  0.25000000  0.24152500  1
  Li  Li2  1  0.37322400  0.75000000  0.75916700  1
  Li  Li3  1  0.42691600  0.25000000  0.86102200  1
  Li  Li4  1  0.57308400  0.75000000  0.13897800  1
  Li  Li5  1  0.62677600  0.25000000  0.24083300  1
  Li  Li6  1  0.87427400  0.75000000  0.75847500  1
  Li  Li7  1  0.92755400  0.25000000  0.85627800  1
  Cu  Cu8  1  0.06104100  0.50106300  0.67862200  1
  Cu  Cu9  1  0.06104100  0.99893700  0.67862200  1
  Cu  Cu10  1  0.24923800  0.50025800  0.51300800  1
  Cu  Cu11  1  0.24923800  0.99974200  0.51300800  1
  Cu  Cu12  1  0.43653200  0.49777700  0.33353400  1
  Cu  Cu13  1  0.43653200  0.00222300  0.33353400  1
  Cu  Cu14  1  0.56346800  0.99777700  0.66646600  1
  Cu  Cu15  1  0.56346800  0.50222300  0.66646600  1
  Cu  Cu16  1  0.75076200  0.00025800  0.48699200  1
  Cu  Cu17  1  0.75076200  0.49974200  0.48699200  1
  Cu  Cu18  1  0.93895900  0.00106300  0.32137800  1
  Cu  Cu19  1  0.93895900  0.49893700  0.32137800  1
  F  F20  1  0.03219600  0.25000000  0.74720000  1
  F  F21  1  0.07450300  0.95824600  0.97126700  1
  F  F22  1  0.07450300  0.54175400  0.97126700  1
  F  F23  1  0.07821700  0.75000000  0.59916800  1
  F  F24  1  0.04723600  0.05056900  0.36784600  1
  F  F25  1  0.04723600  0.44943100  0.36784600  1
  F  F26  1  0.16230900  0.05092800  0.66267100  1
  F  F27  1  0.16230900  0.44907200  0.66267100  1
  F  F28  1  0.22085600  0.75000000  0.46917800  1
  F  F29  1  0.19853900  0.05610600  0.26340400  1
  F  F30  1  0.19853900  0.44389400  0.26340400  1
  F  F31  1  0.27679600  0.25000000  0.55783600  1
  F  F32  1  0.30042600  0.55684400  0.76117100  1
  F  F33  1  0.30042600  0.94315600  0.76117100  1
  F  F34  1  0.33666800  0.55620600  0.36580900  1
  F  F35  1  0.33666800  0.94379400  0.36580900  1
  F  F36  1  0.45595800  0.55616500  0.64072300  1
  F  F37  1  0.45595800  0.94383500  0.64072300  1
  F  F38  1  0.41695800  0.25000000  0.42597300  1
  F  F39  1  0.42126200  0.04705500  0.04333900  1
  F  F40  1  0.42126200  0.45294500  0.04333900  1
  F  F41  1  0.46602300  0.75000000  0.25600100  1
  F  F42  1  0.53397700  0.25000000  0.74399900  1
  F  F43  1  0.57873800  0.54705500  0.95666100  1
  F  F44  1  0.57873800  0.95294500  0.95666100  1
  F  F45  1  0.58304200  0.75000000  0.57402700  1
  F  F46  1  0.54404200  0.05616500  0.35927700  1
  F  F47  1  0.54404200  0.44383500  0.35927700  1
  F  F48  1  0.66333100  0.05620600  0.63419100  1
  F  F49  1  0.66333100  0.44379400  0.63419100  1
  F  F50  1  0.69957400  0.05684400  0.23882900  1
  F  F51  1  0.69957400  0.44315600  0.23882900  1
  F  F52  1  0.72320400  0.75000000  0.44216400  1
  F  F53  1  0.80146100  0.55610600  0.73659600  1
  F  F54  1  0.80146100  0.94389400  0.73659600  1
  F  F55  1  0.77914400  0.25000000  0.53082200  1
  F  F56  1  0.83769100  0.55092800  0.33732900  1
  F  F57  1  0.83769100  0.94907200  0.33732900  1
  F  F58  1  0.95276400  0.55056900  0.63215400  1
  F  F59  1  0.95276400  0.94943100  0.63215400  1
  F  F60  1  0.92178300  0.25000000  0.40083200  1
  F  F61  1  0.92549700  0.04175400  0.02873300  1
  F  F62  1  0.92549700  0.45824600  0.02873300  1
  F  F63  1  0.96780400  0.75000000  0.25280000  1
