# generated using pymatgen
data_CsBaIn2(PO4)3
_symmetry_space_group_name_H-M   'P 1'
_cell_length_a   10.42292100
_cell_length_b   10.42292100
_cell_length_c   10.42292100
_cell_angle_alpha   90.00000000
_cell_angle_beta   90.00000000
_cell_angle_gamma   90.00000000
_symmetry_Int_Tables_number   1
_chemical_formula_structural   CsBaIn2(PO4)3
_chemical_formula_sum   'Cs4 Ba4 In8 P12 O48'
_cell_volume   1132.31780974
_cell_formula_units_Z   4
loop_
 _symmetry_equiv_pos_site_id
 _symmetry_equiv_pos_as_xyz
  1  'x, y, z'
loop_
 _atom_site_type_symbol
 _atom_site_label
 _atom_site_symmetry_multiplicity
 _atom_site_fract_x
 _atom_site_fract_y
 _atom_site_fract_z
 _atom_site_occupancy
  Cs  Cs0  1  0.04611300  0.04611300  0.04611300  1
  Cs  Cs1  1  0.45388700  0.95388700  0.54611300  1
  Cs  Cs2  1  0.54611300  0.45388700  0.95388700  1
  Cs  Cs3  1  0.95388700  0.54611300  0.45388700  1
  Ba  Ba4  1  0.18513800  0.31486200  0.68513800  1
  Ba  Ba5  1  0.31486200  0.68513800  0.18513800  1
  Ba  Ba6  1  0.68513800  0.18513800  0.31486200  1
  Ba  Ba7  1  0.81486200  0.81486200  0.81486200  1
  In  In8  1  0.09829400  0.90170600  0.40170600  1
  In  In9  1  0.16943400  0.66943400  0.83056600  1
  In  In10  1  0.33056600  0.33056600  0.33056600  1
  In  In11  1  0.40170600  0.09829400  0.90170600  1
  In  In12  1  0.59829400  0.59829400  0.59829400  1
  In  In13  1  0.66943400  0.83056600  0.16943400  1
  In  In14  1  0.83056600  0.16943400  0.66943400  1
  In  In15  1  0.90170600  0.40170600  0.09829400  1
  P  P16  1  0.01463500  0.21371500  0.37828400  1
  P  P17  1  0.12171600  0.98536500  0.71371500  1
  P  P18  1  0.21371500  0.37828400  0.01463500  1
  P  P19  1  0.28628500  0.62171600  0.51463500  1
  P  P20  1  0.37828400  0.01463500  0.21371500  1
  P  P21  1  0.48536500  0.78628500  0.87828400  1
  P  P22  1  0.51463500  0.28628500  0.62171600  1
  P  P23  1  0.62171600  0.51463500  0.28628500  1
  P  P24  1  0.71371500  0.12171600  0.98536500  1
  P  P25  1  0.78628500  0.87828400  0.48536500  1
  P  P26  1  0.87828400  0.48536500  0.78628500  1
  P  P27  1  0.98536500  0.71371500  0.12171600  1
  O  O28  1  0.00218800  0.56522600  0.76478000  1
  O  O29  1  0.00802400  0.07265800  0.33254400  1
  O  O30  1  0.05132800  0.79604200  0.22626800  1
  O  O31  1  0.06522600  0.73522000  0.99781200  1
  O  O32  1  0.07265800  0.33254400  0.00802400  1
  O  O33  1  0.08985000  0.84616300  0.75659000  1
  O  O34  1  0.15383700  0.25659000  0.41015000  1
  O  O35  1  0.16745600  0.99197600  0.57265800  1
  O  O36  1  0.20395800  0.72626800  0.44867200  1
  O  O37  1  0.22626800  0.05132800  0.79604200  1
  O  O38  1  0.23522000  0.50218800  0.93477400  1
  O  O39  1  0.24341000  0.58985000  0.65383700  1
  O  O40  1  0.25659000  0.41015000  0.15383700  1
  O  O41  1  0.26478000  0.49781200  0.43477400  1
  O  O42  1  0.27373200  0.94867200  0.29604200  1
  O  O43  1  0.29604200  0.27373200  0.94867200  1
  O  O44  1  0.33254400  0.00802400  0.07265800  1
  O  O45  1  0.34616300  0.74341000  0.91015000  1
  O  O46  1  0.41015000  0.15383700  0.25659000  1
  O  O47  1  0.42734200  0.66745600  0.50802400  1
  O  O48  1  0.43477400  0.26478000  0.49781200  1
  O  O49  1  0.44867200  0.20395800  0.72626800  1
  O  O50  1  0.49197600  0.92734200  0.83254400  1
  O  O51  1  0.49781200  0.43477400  0.26478000  1
  O  O52  1  0.50218800  0.93477400  0.23522000  1
  O  O53  1  0.50802400  0.42734200  0.66745600  1
  O  O54  1  0.55132800  0.70395800  0.77373200  1
  O  O55  1  0.56522600  0.76478000  0.00218800  1
  O  O56  1  0.57265800  0.16745600  0.99197600  1
  O  O57  1  0.58985000  0.65383700  0.24341000  1
  O  O58  1  0.65383700  0.24341000  0.58985000  1
  O  O59  1  0.66745600  0.50802400  0.42734200  1
  O  O60  1  0.70395800  0.77373200  0.55132800  1
  O  O61  1  0.72626800  0.44867200  0.20395800  1
  O  O62  1  0.73522000  0.99781200  0.06522600  1
  O  O63  1  0.74341000  0.91015000  0.34616300  1
  O  O64  1  0.75659000  0.08985000  0.84616300  1
  O  O65  1  0.76478000  0.00218800  0.56522600  1
  O  O66  1  0.77373200  0.55132800  0.70395800  1
  O  O67  1  0.79604200  0.22626800  0.05132800  1
  O  O68  1  0.83254400  0.49197600  0.92734200  1
  O  O69  1  0.84616300  0.75659000  0.08985000  1
  O  O70  1  0.91015000  0.34616300  0.74341000  1
  O  O71  1  0.92734200  0.83254400  0.49197600  1
  O  O72  1  0.93477400  0.23522000  0.50218800  1
  O  O73  1  0.94867200  0.29604200  0.27373200  1
  O  O74  1  0.99197600  0.57265800  0.16745600  1
  O  O75  1  0.99781200  0.06522600  0.73522000  1
