# generated using pymatgen
data_FeP2O7
_symmetry_space_group_name_H-M   'P 1'
_cell_length_a   5.41769450
_cell_length_b   5.41769466
_cell_length_c   9.16880796
_cell_angle_alpha   82.41829973
_cell_angle_beta   97.58170043
_cell_angle_gamma   77.72981492
_symmetry_Int_Tables_number   1
_chemical_formula_structural   FeP2O7
_chemical_formula_sum   'Fe2 P4 O14'
_cell_volume   257.09087661
_cell_formula_units_Z   2
loop_
 _symmetry_equiv_pos_site_id
 _symmetry_equiv_pos_as_xyz
  1  'x, y, z'
loop_
 _atom_site_type_symbol
 _atom_site_label
 _atom_site_symmetry_multiplicity
 _atom_site_fract_x
 _atom_site_fract_y
 _atom_site_fract_z
 _atom_site_occupancy
  Fe  Fe0  1  0.69046100  0.65803000  0.49256600  1
  Fe  Fe1  1  0.34197000  0.30953900  0.99256600  1
  P  P2  1  0.80254400  0.22356100  0.79883400  1
  P  P3  1  0.19072000  0.77637300  0.70467700  1
  P  P4  1  0.77643900  0.19745600  0.29883400  1
  P  P5  1  0.22362700  0.80928000  0.20467700  1
  O  O6  1  0.66665500  0.01470800  0.39899300  1
  O  O7  1  0.59829000  0.33826200  0.15456900  1
  O  O8  1  0.01473300  0.02942200  0.24593900  1
  O  O9  1  0.66173800  0.40171000  0.65456900  1
  O  O10  1  0.37972200  0.66076300  0.35279500  1
  O  O11  1  0.10342200  0.62921700  0.11716300  1
  O  O12  1  0.87528800  0.39484500  0.38167200  1
  O  O13  1  0.60515500  0.12471200  0.88167200  1
  O  O14  1  0.36535200  0.95404400  0.10143100  1
  O  O15  1  0.97057800  0.98526700  0.74593900  1
  O  O16  1  0.04595600  0.63464800  0.60143100  1
  O  O17  1  0.37078300  0.89657800  0.61716300  1
  O  O18  1  0.98529200  0.33334500  0.89899300  1
  O  O19  1  0.33923700  0.62027800  0.85279500  1
