# generated using pymatgen
data_Ca4Ti3AlSi4O19F
_symmetry_space_group_name_H-M   'P 1'
_cell_length_a   5.47604500
_cell_length_b   7.11103443
_cell_length_c   19.99135039
_cell_angle_alpha   89.25601138
_cell_angle_beta   96.26319110
_cell_angle_gamma   104.41185981
_symmetry_Int_Tables_number   1
_chemical_formula_structural   Ca4Ti3AlSi4O19F
_chemical_formula_sum   'Ca8 Ti6 Al2 Si8 O38 F2'
_cell_volume   749.39147404
_cell_formula_units_Z   2
loop_
 _symmetry_equiv_pos_site_id
 _symmetry_equiv_pos_as_xyz
  1  'x, y, z'
loop_
 _atom_site_type_symbol
 _atom_site_label
 _atom_site_symmetry_multiplicity
 _atom_site_fract_x
 _atom_site_fract_y
 _atom_site_fract_z
 _atom_site_occupancy
  Ca  Ca0  1  0.41956400  0.33469600  0.41823400  1
  Ca  Ca1  1  0.16081500  0.08199500  0.66477100  1
  Ca  Ca2  1  0.91092000  0.83067500  0.91724800  1
  Ca  Ca3  1  0.66188300  0.58192300  0.16935100  1
  Ca  Ca4  1  0.58043600  0.66530400  0.58176600  1
  Ca  Ca5  1  0.33811700  0.41807700  0.83064900  1
  Ca  Ca6  1  0.08908000  0.16932500  0.08275200  1
  Ca  Ca7  1  0.83918500  0.91800500  0.33522900  1
  Ti  Ti8  1  0.74829100  0.24940300  0.74738700  1
  Ti  Ti9  1  0.74988300  0.75018600  0.74839500  1
  Ti  Ti10  1  0.50000000  0.00000000  0.00000000  1
  Ti  Ti11  1  0.50000000  0.50000000  0.00000000  1
  Ti  Ti12  1  0.25170900  0.75059700  0.25261300  1
  Ti  Ti13  1  0.25011700  0.24981400  0.25160500  1
  Al  Al14  1  0.00000000  0.50000000  0.50000000  1
  Al  Al15  1  0.00000000  0.00000000  0.50000000  1
  Si  Si16  1  0.39732200  0.83119200  0.42465600  1
  Si  Si17  1  0.14404000  0.57652400  0.66620000  1
  Si  Si18  1  0.89860200  0.32916100  0.91918900  1
  Si  Si19  1  0.60267800  0.16880800  0.57534400  1
  Si  Si20  1  0.64952800  0.08063300  0.17147600  1
  Si  Si21  1  0.35047200  0.91936700  0.82852400  1
  Si  Si22  1  0.10139800  0.67083900  0.08081100  1
  Si  Si23  1  0.85596000  0.42347600  0.33380000  1
  O  O24  1  0.30770500  0.03827500  0.55811000  1
  O  O25  1  0.32768900  0.63880700  0.47377800  1
  O  O26  1  0.06428800  0.77543300  0.81123400  1
  O  O27  1  0.15005600  0.49912100  0.58938600  1
  O  O28  1  0.18776100  0.96428400  0.42661800  1
  O  O29  1  0.09098800  0.39203000  0.71838000  1
  O  O30  1  0.81223900  0.03571600  0.57338200  1
  O  O31  1  0.84994400  0.50087900  0.41061400  1
  O  O32  1  0.83828500  0.01477100  0.73111400  1
  O  O33  1  0.81511800  0.52777900  0.06305200  1
  O  O34  1  0.90599800  0.24655100  0.84302400  1
  O  O35  1  0.93676300  0.70957400  0.66852300  1
  O  O36  1  0.84186000  0.14456100  0.97129600  1
  O  O37  1  0.67231100  0.36119300  0.52622200  1
  O  O38  1  0.55862300  0.78661500  0.82698600  1
  O  O39  1  0.59734500  0.24782000  0.65266400  1
  O  O40  1  0.58792900  0.76760900  0.98276400  1
  O  O41  1  0.56874400  0.28116500  0.31526100  1
  O  O42  1  0.69229500  0.96172500  0.44189000  1
  O  O43  1  0.66174900  0.48023100  0.76505200  1
  O  O44  1  0.65591800  0.99779700  0.09525500  1
  O  O45  1  0.69010800  0.46150300  0.92088300  1
  O  O46  1  0.59291700  0.89642500  0.22354400  1
  O  O47  1  0.40708300  0.10357500  0.77645600  1
  O  O48  1  0.30989200  0.53849700  0.07911700  1
  O  O49  1  0.34408200  0.00220300  0.90474500  1
  O  O50  1  0.33825100  0.51976900  0.23494800  1
  O  O51  1  0.43125600  0.71883500  0.68473900  1
  O  O52  1  0.41207100  0.23239100  0.01723600  1
  O  O53  1  0.40265500  0.75218000  0.34733600  1
  O  O54  1  0.44137700  0.21338500  0.17301400  1
  O  O55  1  0.15814000  0.85543900  0.02870400  1
  O  O56  1  0.06323700  0.29042600  0.33147700  1
  O  O57  1  0.09400200  0.75344900  0.15697600  1
  O  O58  1  0.18488200  0.47222100  0.93694800  1
  O  O59  1  0.16171500  0.98522900  0.26888600  1
  O  O60  1  0.90901200  0.60797000  0.28162000  1
  O  O61  1  0.93571200  0.22456700  0.18876600  1
  F  F62  1  0.08116400  0.26649100  0.48209100  1
  F  F63  1  0.91883600  0.73350900  0.51790900  1
