# generated using pymatgen
data_CaMg2TiAl2SiO10
_symmetry_space_group_name_H-M   'P 1'
_cell_length_a   9.02116600
_cell_length_b   9.91280088
_cell_length_c   10.48400297
_cell_angle_alpha   115.44562406
_cell_angle_beta   84.28916677
_cell_angle_gamma   114.25785974
_symmetry_Int_Tables_number   1
_chemical_formula_structural   CaMg2TiAl2SiO10
_chemical_formula_sum   'Ca4 Mg8 Ti4 Al8 Si4 O40'
_cell_volume   768.45223406
_cell_formula_units_Z   4
loop_
 _symmetry_equiv_pos_site_id
 _symmetry_equiv_pos_as_xyz
  1  'x, y, z'
loop_
 _atom_site_type_symbol
 _atom_site_label
 _atom_site_symmetry_multiplicity
 _atom_site_fract_x
 _atom_site_fract_y
 _atom_site_fract_z
 _atom_site_occupancy
  Ca  Ca0  1  0.60358600  0.36805300  0.57848400  1
  Ca  Ca1  1  0.63098600  0.39258000  0.05165000  1
  Ca  Ca2  1  0.37469700  0.61956200  0.95874200  1
  Ca  Ca3  1  0.39604700  0.63133900  0.41927300  1
  Mg  Mg4  1  0.94415000  0.05578600  0.65476100  1
  Mg  Mg5  1  0.94535900  0.05785400  0.15173300  1
  Mg  Mg6  1  0.73402200  0.26104200  0.25445000  1
  Mg  Mg7  1  0.49888000  0.99845600  0.00655400  1
  Mg  Mg8  1  0.17725900  0.85819900  0.53979100  1
  Mg  Mg9  1  0.14871600  0.82852400  0.05720900  1
  Mg  Mg10  1  0.05039200  0.94282700  0.84640300  1
  Mg  Mg11  1  0.06336800  0.94489000  0.34731700  1
  Ti  Ti12  1  0.84637000  0.17014400  0.95597100  1
  Ti  Ti13  1  0.82020400  0.14410200  0.45916400  1
  Ti  Ti14  1  0.25923200  0.75101200  0.75531800  1
  Ti  Ti15  1  0.01139000  0.50121500  0.49185500  1
  Al  Al16  1  0.95287500  0.43317100  0.79637800  1
  Al  Al17  1  0.56022300  0.05104600  0.69807500  1
  Al  Al18  1  0.65395300  0.77092300  0.74451900  1
  Al  Al19  1  0.67171600  0.76823300  0.23971500  1
  Al  Al20  1  0.23070900  0.33514500  0.55443300  1
  Al  Al21  1  0.22569500  0.34090300  0.06727000  1
  Al  Al22  1  0.43205700  0.94024300  0.30417400  1
  Al  Al23  1  0.04741000  0.56744700  0.19461700  1
  Si  Si24  1  0.77549800  0.66076600  0.93048400  1
  Si  Si25  1  0.76724300  0.66012300  0.44355800  1
  Si  Si26  1  0.33450400  0.23265800  0.76364000  1
  Si  Si27  1  0.34485600  0.23336600  0.25628300  1
  O  O28  1  0.95507600  0.27180400  0.82678900  1
  O  O29  1  0.94190700  0.28194500  0.34883500  1
  O  O30  1  0.87767500  0.37437700  0.61514800  1
  O  O31  1  0.72325300  0.04993200  0.58457600  1
  O  O32  1  0.86333800  0.37667900  0.12228300  1
  O  O33  1  0.73901200  0.06385100  0.07442700  1
  O  O34  1  0.93764100  0.83231700  0.98155800  1
  O  O35  1  0.80524600  0.49781000  0.89848100  1
  O  O36  1  0.62808100  0.12436500  0.88128800  1
  O  O37  1  0.93376200  0.82906000  0.48949800  1
  O  O38  1  0.79041200  0.49699300  0.43292600  1
  O  O39  1  0.62588800  0.13238300  0.38267600  1
  O  O40  1  0.83456900  0.95073800  0.79085400  1
  O  O41  1  0.68291500  0.62581100  0.78510700  1
  O  O42  1  0.49741400  0.20139500  0.70199300  1
  O  O43  1  0.84149700  0.95717000  0.29251700  1
  O  O44  1  0.50765500  0.21600600  0.17719700  1
  O  O45  1  0.67766200  0.62003400  0.29289000  1
  O  O46  1  0.62635300  0.67832300  0.55641500  1
  O  O47  1  0.64208100  0.66248700  0.05132000  1
  O  O48  1  0.37087500  0.33052000  0.93806600  1
  O  O49  1  0.38198600  0.31845800  0.43132400  1
  O  O50  1  0.33199300  0.36624700  0.70936000  1
  O  O51  1  0.47245400  0.77711200  0.82180500  1
  O  O52  1  0.16755700  0.06491400  0.71758100  1
  O  O53  1  0.49684300  0.79384200  0.30600000  1
  O  O54  1  0.32197700  0.37210400  0.22157300  1
  O  O55  1  0.17246900  0.06902600  0.21101500  1
  O  O56  1  0.38523000  0.85994400  0.62830800  1
  O  O57  1  0.21021000  0.51239900  0.56489400  1
  O  O58  1  0.04492600  0.16317300  0.51712200  1
  O  O59  1  0.38073900  0.87354200  0.12036100  1
  O  O60  1  0.20021800  0.51451800  0.09632300  1
  O  O61  1  0.04923400  0.15955400  0.01274900  1
  O  O62  1  0.26234000  0.93194800  0.90815900  1
  O  O63  1  0.14213000  0.61007300  0.85319800  1
  O  O64  1  0.27843100  0.96713300  0.41508700  1
  O  O65  1  0.11339600  0.60817600  0.37556100  1
  O  O66  1  0.06327900  0.71870300  0.65987800  1
  O  O67  1  0.02087900  0.72552200  0.18303400  1
