# generated using pymatgen
data_Na4Al3Ge3B(HO3)4
_symmetry_space_group_name_H-M   'P 1'
_cell_length_a   9.13979700
_cell_length_b   9.13979700
_cell_length_c   9.13979700
_cell_angle_alpha   90.00000000
_cell_angle_beta   90.00000000
_cell_angle_gamma   90.00000000
_symmetry_Int_Tables_number   1
_chemical_formula_structural   Na4Al3Ge3B(HO3)4
_chemical_formula_sum   'Na8 Al6 Ge6 B2 H8 O24'
_cell_volume   763.50106951
_cell_formula_units_Z   2
loop_
 _symmetry_equiv_pos_site_id
 _symmetry_equiv_pos_as_xyz
  1  'x, y, z'
loop_
 _atom_site_type_symbol
 _atom_site_label
 _atom_site_symmetry_multiplicity
 _atom_site_fract_x
 _atom_site_fract_y
 _atom_site_fract_z
 _atom_site_occupancy
  Na  Na0  1  0.82730600  0.82730600  0.17269400  1
  Na  Na1  1  0.82730600  0.17269400  0.82730600  1
  Na  Na2  1  0.17269400  0.82730600  0.82730600  1
  Na  Na3  1  0.17269400  0.17269400  0.17269400  1
  Na  Na4  1  0.32730600  0.32730600  0.67269400  1
  Na  Na5  1  0.32730600  0.67269400  0.32730600  1
  Na  Na6  1  0.67269400  0.32730600  0.32730600  1
  Na  Na7  1  0.67269400  0.67269400  0.67269400  1
  Al  Al8  1  0.75000000  0.00000000  0.50000000  1
  Al  Al9  1  0.00000000  0.50000000  0.75000000  1
  Al  Al10  1  0.25000000  0.00000000  0.50000000  1
  Al  Al11  1  0.50000000  0.25000000  0.00000000  1
  Al  Al12  1  0.50000000  0.75000000  0.00000000  1
  Al  Al13  1  0.00000000  0.50000000  0.25000000  1
  Ge  Ge14  1  0.75000000  0.50000000  0.00000000  1
  Ge  Ge15  1  0.00000000  0.75000000  0.50000000  1
  Ge  Ge16  1  0.25000000  0.50000000  0.00000000  1
  Ge  Ge17  1  0.50000000  0.00000000  0.25000000  1
  Ge  Ge18  1  0.50000000  0.00000000  0.75000000  1
  Ge  Ge19  1  0.00000000  0.25000000  0.50000000  1
  B  B20  1  0.00000000  0.00000000  0.00000000  1
  B  B21  1  0.50000000  0.50000000  0.50000000  1
  H  H22  1  0.57769900  0.57769900  0.42230100  1
  H  H23  1  0.57769900  0.42230100  0.57769900  1
  H  H24  1  0.07769900  0.07769900  0.92230100  1
  H  H25  1  0.07769900  0.92230100  0.07769900  1
  H  H26  1  0.42230100  0.57769900  0.57769900  1
  H  H27  1  0.42230100  0.42230100  0.42230100  1
  H  H28  1  0.92230100  0.92230100  0.92230100  1
  H  H29  1  0.92230100  0.07769900  0.07769900  1
  O  O30  1  0.57363100  0.85656500  0.14377600  1
  O  O31  1  0.57363100  0.14343500  0.85622400  1
  O  O32  1  0.85622400  0.57363100  0.14343500  1
  O  O33  1  0.85622400  0.42636900  0.85656500  1
  O  O34  1  0.85656500  0.14377600  0.57363100  1
  O  O35  1  0.85656500  0.85622400  0.42636900  1
  O  O36  1  0.07363100  0.35622400  0.64343500  1
  O  O37  1  0.07363100  0.64377600  0.35656500  1
  O  O38  1  0.14343500  0.85622400  0.57363100  1
  O  O39  1  0.14343500  0.14377600  0.42636900  1
  O  O40  1  0.14377600  0.57363100  0.85656500  1
  O  O41  1  0.14377600  0.42636900  0.14343500  1
  O  O42  1  0.35622400  0.35656500  0.92636900  1
  O  O43  1  0.35622400  0.64343500  0.07363100  1
  O  O44  1  0.35656500  0.07363100  0.64377600  1
  O  O45  1  0.35656500  0.92636900  0.35622400  1
  O  O46  1  0.42636900  0.85656500  0.85622400  1
  O  O47  1  0.42636900  0.14343500  0.14377600  1
  O  O48  1  0.64343500  0.07363100  0.35622400  1
  O  O49  1  0.64343500  0.92636900  0.64377600  1
  O  O50  1  0.64377600  0.35656500  0.07363100  1
  O  O51  1  0.64377600  0.64343500  0.92636900  1
  O  O52  1  0.92636900  0.35622400  0.35656500  1
  O  O53  1  0.92636900  0.64377600  0.64343500  1
