# generated using pymatgen
data_Mn7V5O16
_symmetry_space_group_name_H-M   'P 1'
_cell_length_a   6.20521503
_cell_length_b   12.39910279
_cell_length_c   16.53277060
_cell_angle_alpha   39.72822394
_cell_angle_beta   53.97739444
_cell_angle_gamma   58.93747466
_symmetry_Int_Tables_number   1
_chemical_formula_structural   Mn7V5O16
_chemical_formula_sum   'Mn14 V10 O32'
_cell_volume   652.53952054
_cell_formula_units_Z   2
loop_
 _symmetry_equiv_pos_site_id
 _symmetry_equiv_pos_as_xyz
  1  'x, y, z'
loop_
 _atom_site_type_symbol
 _atom_site_label
 _atom_site_symmetry_multiplicity
 _atom_site_fract_x
 _atom_site_fract_y
 _atom_site_fract_z
 _atom_site_occupancy
  Mn  Mn0  1  0.13804800  0.03049100  0.06014600  1
  Mn  Mn1  1  0.12506400  0.52657900  0.06204200  1
  Mn  Mn2  1  0.50000000  0.12500000  0.25000000  1
  Mn  Mn3  1  0.11752500  0.28637100  0.56226000  1
  Mn  Mn4  1  0.00000000  0.12500000  0.25000000  1
  Mn  Mn5  1  0.50000000  0.62500000  0.25000000  1
  Mn  Mn6  1  0.11856600  0.78520800  0.55956600  1
  Mn  Mn7  1  0.86195200  0.21950900  0.43985400  1
  Mn  Mn8  1  0.50000000  0.12500000  0.75000000  1
  Mn  Mn9  1  0.49485900  0.37981600  0.74638600  1
  Mn  Mn10  1  0.87493600  0.72342100  0.43795800  1
  Mn  Mn11  1  0.50514100  0.87018400  0.75361400  1
  Mn  Mn12  1  0.88143400  0.46479200  0.94043400  1
  Mn  Mn13  1  0.88247500  0.96362900  0.93774000  1
  V  V14  1  0.52111600  0.25195900  0.99303200  1
  V  V15  1  0.47888400  0.99804100  0.50696800  1
  V  V16  1  0.48527400  0.37701000  0.25110600  1
  V  V17  1  0.50039500  0.73824300  0.00629200  1
  V  V18  1  0.49960500  0.51175700  0.49370800  1
  V  V19  1  0.51472600  0.87299000  0.24889400  1
  V  V20  1  0.00000000  0.62500000  0.25000000  1
  V  V21  1  0.50000000  0.62500000  0.75000000  1
  V  V22  1  0.99165400  0.37816400  0.75090100  1
  V  V23  1  0.00834600  0.87183600  0.74909900  1
  O  O24  1  0.30489200  0.05955500  0.12090400  1
  O  O25  1  0.28861100  0.29603900  0.11312100  1
  O  O26  1  0.72543900  0.06287000  0.12030300  1
  O  O27  1  0.24846200  0.56017500  0.13586100  1
  O  O28  1  0.27456100  0.18713000  0.37969700  1
  O  O29  1  0.71500800  0.31303600  0.14594700  1
  O  O30  1  0.24739500  0.45021400  0.35478000  1
  O  O31  1  0.25505200  0.78902600  0.12739200  1
  O  O32  1  0.24745600  0.04250100  0.63121500  1
  O  O33  1  0.69510800  0.19044500  0.37909600  1
  O  O34  1  0.70969200  0.55903100  0.13030300  1
  O  O35  1  0.24150500  0.33978300  0.62119800  1
  O  O36  1  0.29030800  0.69096900  0.36969700  1
  O  O37  1  0.74494800  0.46097400  0.37260800  1
  O  O38  1  0.77351400  0.03513600  0.64542300  1
  O  O39  1  0.75260500  0.79978600  0.14522000  1
  O  O40  1  0.28499200  0.93696400  0.35405300  1
  O  O41  1  0.22648600  0.21486400  0.85457700  1
  O  O42  1  0.24303000  0.54962700  0.62078000  1
  O  O43  1  0.75153800  0.68982500  0.36413900  1
  O  O44  1  0.70677400  0.33870700  0.61151300  1
  O  O45  1  0.25539500  0.80729600  0.63614800  1
  O  O46  1  0.29593400  0.43532300  0.87270600  1
  O  O47  1  0.75254400  0.20749900  0.86878500  1
  O  O48  1  0.74312500  0.55345600  0.64525800  1
  O  O49  1  0.71138900  0.95396100  0.38687900  1
  O  O50  1  0.25687500  0.69654400  0.85474200  1
  O  O51  1  0.74460500  0.44270400  0.86385200  1
  O  O52  1  0.70406600  0.81467700  0.62729400  1
  O  O53  1  0.29322600  0.91129300  0.88848700  1
  O  O54  1  0.75697000  0.70037300  0.87922000  1
  O  O55  1  0.75849500  0.91021700  0.87880200  1
