# generated using pymatgen
data_Mn5(P2O7)4
_symmetry_space_group_name_H-M   'P 1'
_cell_length_a   9.59424400
_cell_length_b   10.48230713
_cell_length_c   13.00148616
_cell_angle_alpha   80.61428125
_cell_angle_beta   72.26641615
_cell_angle_gamma   65.39781848
_symmetry_Int_Tables_number   1
_chemical_formula_structural   Mn5(P2O7)4
_chemical_formula_sum   'Mn10 P16 O56'
_cell_volume   1131.37276250
_cell_formula_units_Z   2
loop_
 _symmetry_equiv_pos_site_id
 _symmetry_equiv_pos_as_xyz
  1  'x, y, z'
loop_
 _atom_site_type_symbol
 _atom_site_label
 _atom_site_symmetry_multiplicity
 _atom_site_fract_x
 _atom_site_fract_y
 _atom_site_fract_z
 _atom_site_occupancy
  Mn  Mn0  1  0.19065100  0.00392100  0.75684600  1
  Mn  Mn1  1  0.61088500  0.29351700  0.61687700  1
  Mn  Mn2  1  0.25777100  0.24822400  0.55712900  1
  Mn  Mn3  1  0.74222900  0.75177600  0.44287100  1
  Mn  Mn4  1  0.80934900  0.99607900  0.24315400  1
  Mn  Mn5  1  0.38911500  0.70648300  0.38312300  1
  Mn  Mn6  1  0.60630400  0.28811800  0.10422300  1
  Mn  Mn7  1  0.23696200  0.24870800  0.06893200  1
  Mn  Mn8  1  0.76303800  0.75129200  0.93106800  1
  Mn  Mn9  1  0.39369600  0.71188200  0.89577700  1
  P  P10  1  0.63945100  0.79521500  0.70160800  1
  P  P11  1  0.28738200  0.54000600  0.60093100  1
  P  P12  1  0.90932900  0.28366200  0.71307900  1
  P  P13  1  0.64196000  0.04292900  0.54724900  1
  P  P14  1  0.35804000  0.95707100  0.45275100  1
  P  P15  1  0.09067100  0.71633800  0.28692100  1
  P  P16  1  0.71261800  0.45999400  0.39906900  1
  P  P17  1  0.36054900  0.20478500  0.29839200  1
  P  P18  1  0.65183400  0.81140400  0.18311700  1
  P  P19  1  0.26456100  0.53496500  0.10063300  1
  P  P20  1  0.85749000  0.28611000  0.20602300  1
  P  P21  1  0.65040800  0.04389100  0.03675600  1
  P  P22  1  0.34959200  0.95610900  0.96324400  1
  P  P23  1  0.14251000  0.71389000  0.79397700  1
  P  P24  1  0.73543900  0.46503500  0.89936700  1
  P  P25  1  0.34816600  0.18859600  0.81688300  1
  O  O26  1  0.14337800  0.85316600  0.73259700  1
  O  O27  1  0.47236600  0.24169100  0.75013500  1
  O  O28  1  0.15673300  0.61116400  0.70942200  1
  O  O29  1  0.26074700  0.15909300  0.74515200  1
  O  O30  1  0.45243000  0.48174800  0.62131700  1
  O  O31  1  0.75045400  0.09523900  0.57707600  1
  O  O32  1  0.58146400  0.95546500  0.65074700  1
  O  O33  1  0.74901100  0.30829200  0.70207900  1
  O  O34  1  0.23395600  0.43092100  0.58122900  1
  O  O35  1  0.26438000  0.66317400  0.51814300  1
  O  O36  1  0.49486400  0.17424100  0.53178500  1
  O  O37  1  0.73060300  0.70117700  0.60759600  1
  O  O38  1  0.02808500  0.30520300  0.61022100  1
  O  O39  1  0.27853300  0.05200900  0.55148700  1
  O  O40  1  0.72146700  0.94799100  0.44851300  1
  O  O41  1  0.97191500  0.69479700  0.38977900  1
  O  O42  1  0.26939700  0.29882300  0.39240400  1
  O  O43  1  0.50513600  0.82575900  0.46821500  1
  O  O44  1  0.73562000  0.33682600  0.48185700  1
  O  O45  1  0.76604400  0.56907900  0.41877100  1
  O  O46  1  0.25098900  0.69170800  0.29792100  1
  O  O47  1  0.41853600  0.04453500  0.34925300  1
  O  O48  1  0.24954600  0.90476100  0.42292400  1
  O  O49  1  0.53266500  0.20259900  0.24223800  1
  O  O50  1  0.02284400  0.86174400  0.22853700  1
  O  O51  1  0.54757000  0.51825200  0.37868300  1
  O  O52  1  0.73925300  0.84090700  0.25484800  1
  O  O53  1  0.84326700  0.38883600  0.29057800  1
  O  O54  1  0.12411800  0.59546800  0.20629300  1
  O  O55  1  0.26810400  0.22260200  0.21678000  1
  O  O56  1  0.42414900  0.45610500  0.13099500  1
  O  O57  1  0.52763400  0.75830900  0.24986500  1
  O  O58  1  0.85662200  0.14683400  0.26740300  1
  O  O59  1  0.76685800  0.07759600  0.08147300  1
  O  O60  1  0.55977500  0.96682000  0.13323500  1
  O  O61  1  0.27111300  0.66735400  0.03146300  1
  O  O62  1  0.70155400  0.36409400  0.16942300  1
  O  O63  1  0.52403100  0.19401600  0.02541400  1
  O  O64  1  0.21649700  0.44213100  0.05188900  1
  O  O65  1  0.00302300  0.27560200  0.11709800  1
  O  O66  1  0.76731200  0.72694400  0.08527500  1
  O  O67  1  0.27975600  0.04394000  0.06128100  1
  O  O68  1  0.72024400  0.95606000  0.93871900  1
  O  O69  1  0.23268800  0.27305600  0.91472500  1
  O  O70  1  0.99697700  0.72439800  0.88290200  1
  O  O71  1  0.78350300  0.55786900  0.94811100  1
  O  O72  1  0.47596900  0.80598400  0.97458600  1
  O  O73  1  0.29844600  0.63590600  0.83057700  1
  O  O74  1  0.72888700  0.33264600  0.96853700  1
  O  O75  1  0.44022500  0.03318000  0.86676500  1
  O  O76  1  0.23314200  0.92240400  0.91852700  1
  O  O77  1  0.57585100  0.54389500  0.86900500  1
  O  O78  1  0.73189600  0.77739800  0.78322000  1
  O  O79  1  0.87588200  0.40453200  0.79370700  1
  O  O80  1  0.97715600  0.13825600  0.77146300  1
  O  O81  1  0.46733500  0.79740100  0.75776200  1
