# generated using pymatgen
data_YAl3(Si5N8)3
_symmetry_space_group_name_H-M   'P 1'
_cell_length_a   7.87656400
_cell_length_b   7.90463443
_cell_length_c   17.19440140
_cell_angle_alpha   90.19792307
_cell_angle_beta   90.10904744
_cell_angle_gamma   119.82682080
_symmetry_Int_Tables_number   1
_chemical_formula_structural   YAl3(Si5N8)3
_chemical_formula_sum   'Y2 Al6 Si30 N48'
_cell_volume   928.72074152
_cell_formula_units_Z   2
loop_
 _symmetry_equiv_pos_site_id
 _symmetry_equiv_pos_as_xyz
  1  'x, y, z'
loop_
 _atom_site_type_symbol
 _atom_site_label
 _atom_site_symmetry_multiplicity
 _atom_site_fract_x
 _atom_site_fract_y
 _atom_site_fract_z
 _atom_site_occupancy
  Y  Y0  1  0.33216800  0.66921500  0.42238900  1
  Y  Y1  1  0.33360900  0.67186700  0.08461100  1
  Al  Al2  1  0.51122100  0.09538400  0.43415400  1
  Al  Al3  1  0.51322500  0.09785700  0.09817400  1
  Al  Al4  1  0.07073600  0.50204500  0.26327600  1
  Al  Al5  1  0.16531200  0.25102800  0.83083900  1
  Al  Al6  1  0.16578100  0.24450900  0.50133400  1
  Al  Al7  1  0.17003700  0.24844200  0.16463100  1
  Si  Si8  1  0.91335900  0.75047600  0.66855800  1
  Si  Si9  1  0.92134300  0.75418500  0.33408900  1
  Si  Si10  1  0.92377000  0.75864000  0.99871500  1
  Si  Si11  1  0.91542100  0.43084400  0.76268600  1
  Si  Si12  1  0.90875200  0.42640300  0.43312600  1
  Si  Si13  1  0.91331700  0.43078100  0.09494200  1
  Si  Si14  1  0.56709000  0.48535100  0.76159500  1
  Si  Si15  1  0.57587200  0.48597200  0.43118400  1
  Si  Si16  1  0.58013800  0.48968000  0.09506500  1
  Si  Si17  1  0.83466400  0.08637200  0.66781800  1
  Si  Si18  1  0.82983100  0.08049500  0.33743000  1
  Si  Si19  1  0.83139900  0.08383500  0.99910300  1
  Si  Si20  1  0.74607100  0.90999200  0.83206400  1
  Si  Si21  1  0.74523000  0.91076500  0.50243400  1
  Si  Si22  1  0.75145300  0.91945100  0.16739200  1
  Si  Si23  1  0.51263300  0.08329000  0.76242600  1
  Si  Si24  1  0.25824300  0.16878800  0.66675700  1
  Si  Si25  1  0.25738700  0.17184200  0.33198600  1
  Si  Si26  1  0.26081600  0.17255800  0.99624800  1
  Si  Si27  1  0.43061400  0.92282300  0.92613000  1
  Si  Si28  1  0.42871800  0.91189900  0.60007800  1
  Si  Si29  1  0.43346900  0.92160600  0.26419100  1
  Si  Si30  1  0.49173600  0.56585000  0.92713200  1
  Si  Si31  1  0.48233300  0.56105900  0.60065000  1
  Si  Si32  1  0.49083000  0.56635100  0.26498200  1
  Si  Si33  1  0.08247700  0.83068000  0.83200600  1
  Si  Si34  1  0.07613200  0.82508000  0.17037000  1
  Si  Si35  1  0.07641200  0.82447200  0.50477500  1
  Si  Si36  1  0.07225300  0.50872300  0.92560600  1
  Si  Si37  1  0.07945500  0.51271300  0.59939800  1
  N  N38  1  0.99329400  0.67950900  0.75062700  1
  N  N39  1  0.01218500  0.68236800  0.41678900  1
  N  N40  1  0.01327200  0.68650300  0.08123700  1
  N  N41  1  0.95240300  0.34286800  0.67221000  1
  N  N42  1  0.94828900  0.33412200  0.34711800  1
  N  N43  1  0.95096900  0.34573800  0.00435400  1
  N  N44  1  0.65789500  0.61750300  0.67342300  1
  N  N45  1  0.66172100  0.61812300  0.34254600  1
  N  N46  1  0.66277800  0.62273600  0.00706300  1
  N  N47  1  0.00628400  0.00869400  0.99994400  1
  N  N48  1  0.99024700  0.98555600  0.83322500  1
  N  N49  1  0.00298500  0.00268600  0.66633100  1
  N  N50  1  0.98744300  0.98112300  0.50016000  1
  N  N51  1  0.00404600  0.00482700  0.33498400  1
  N  N52  1  0.66550900  0.33317800  0.77908200  1
  N  N53  1  0.99247300  0.98630200  0.16595600  1
  N  N54  1  0.67455300  0.34848000  0.45765700  1
  N  N55  1  0.67930800  0.35163000  0.12114800  1
  N  N56  1  0.68710100  0.00630100  0.75150800  1
  N  N57  1  0.67045900  0.98057800  0.41813300  1
  N  N58  1  0.68050200  0.99220900  0.08310000  1
  N  N59  1  0.67924100  0.99170200  0.91746400  1
  N  N60  1  0.68041100  0.99409000  0.58563600  1
  N  N61  1  0.68614700  0.00243400  0.25148000  1
  N  N62  1  0.32560800  0.31662900  0.74685900  1
  N  N63  1  0.32767300  0.33066700  0.41349100  1
  N  N64  1  0.33373500  0.33028400  0.07842100  1
  N  N65  1  0.38772500  0.03906400  0.67291800  1
  N  N66  1  0.38191200  0.03947600  0.33757000  1
  N  N67  1  0.38111900  0.03556800  0.00283000  1
  N  N68  1  0.34310900  0.95039300  0.83670500  1
  N  N69  1  0.33242000  0.92887600  0.50837900  1
  N  N70  1  0.33462500  0.92634300  0.17264400  1
  N  N71  1  0.60409600  0.65302500  0.83777100  1
  N  N72  1  0.58848400  0.65198600  0.50486900  1
  N  N73  1  0.59105500  0.65754900  0.16999500  1
  N  N74  1  0.33214600  0.66577600  0.94938800  1
  N  N75  1  0.33136600  0.66250000  0.61616500  1
  N  N76  1  0.34497800  0.67308300  0.28865700  1
  N  N77  1  0.00632500  0.68928800  0.91811800  1
  N  N78  1  0.99582200  0.67984600  0.58736400  1
  N  N79  1  0.99020300  0.68419700  0.25188300  1
  N  N80  1  0.32590300  0.32339500  0.91868600  1
  N  N81  1  0.32551300  0.31637000  0.58673700  1
  N  N82  1  0.32517400  0.32291300  0.25302400  1
  N  N83  1  0.03935800  0.39704500  0.83806800  1
  N  N84  1  0.05851000  0.41281700  0.50495000  1
  N  N85  1  0.06698600  0.41565900  0.16218700  1
