# generated using pymatgen
data_BaFeF5
_symmetry_space_group_name_H-M   'P 1'
_cell_length_a   11.45790382
_cell_length_b   11.45790382
_cell_length_c   11.45790382
_cell_angle_alpha   96.62131502
_cell_angle_beta   96.62131502
_cell_angle_gamma   140.29883899
_symmetry_Int_Tables_number   1
_chemical_formula_structural   BaFeF5
_chemical_formula_sum   'Ba8 Fe8 F40'
_cell_volume   903.78580143
_cell_formula_units_Z   8
loop_
 _symmetry_equiv_pos_site_id
 _symmetry_equiv_pos_as_xyz
  1  'x, y, z'
loop_
 _atom_site_type_symbol
 _atom_site_label
 _atom_site_symmetry_multiplicity
 _atom_site_fract_x
 _atom_site_fract_y
 _atom_site_fract_z
 _atom_site_occupancy
  Ba  Ba0  1  0.77291400  0.04573700  0.83176000  1
  Ba  Ba1  1  0.04573700  0.21397800  0.27282300  1
  Ba  Ba2  1  0.94115400  0.77291400  0.72717700  1
  Ba  Ba3  1  0.21397800  0.94115400  0.16824000  1
  Ba  Ba4  1  0.42360300  0.73790500  0.17833900  1
  Ba  Ba5  1  0.73790500  0.55956600  0.31430200  1
  Ba  Ba6  1  0.24526400  0.42360300  0.68569800  1
  Ba  Ba7  1  0.55956600  0.24526400  0.82166100  1
  Fe  Fe8  1  0.73669400  0.73669400  0.00000000  1
  Fe  Fe9  1  0.24058900  0.24058900  0.00000000  1
  Fe  Fe10  1  0.98669900  0.48669900  0.50000000  1
  Fe  Fe11  1  0.48669900  0.98669900  0.50000000  1
  Fe  Fe12  1  0.81003900  0.32615900  0.15032400  1
  Fe  Fe13  1  0.32615900  0.17583500  0.51612000  1
  Fe  Fe14  1  0.65971500  0.81003800  0.48388000  1
  Fe  Fe15  1  0.17583500  0.65971500  0.84967600  1
  F  F16  1  0.98855100  0.98855100  0.00000000  1
  F  F17  1  0.48849800  0.48849800  0.00000000  1
  F  F18  1  0.70457800  0.86791500  0.07533100  1
  F  F19  1  0.86791500  0.79258300  0.16333600  1
  F  F20  1  0.62924700  0.70457800  0.83666400  1
  F  F21  1  0.79258300  0.62924700  0.92466900  1
  F  F22  1  0.18124200  0.34636900  0.07152200  1
  F  F23  1  0.34636900  0.27484700  0.16512700  1
  F  F24  1  0.10972100  0.18124200  0.83487300  1
  F  F25  1  0.27484700  0.10972100  0.92847800  1
  F  F26  1  0.73682200  0.23682200  0.50000000  1
  F  F27  1  0.23682200  0.73682200  0.50000000  1
  F  F28  1  0.86918700  0.43340100  0.33102600  1
  F  F29  1  0.43340100  0.10237600  0.56421400  1
  F  F30  1  0.53816200  0.86918700  0.43578600  1
  F  F31  1  0.10237600  0.53816200  0.66897400  1
  F  F32  1  0.37931500  0.92175000  0.32371900  1
  F  F33  1  0.92175000  0.59803100  0.54243600  1
  F  F34  1  0.05559500  0.37931500  0.45756400  1
  F  F35  1  0.59803100  0.05559500  0.67628100  1
  F  F36  1  0.56772100  0.22037900  0.13667700  1
  F  F37  1  0.22037900  0.08370200  0.65265800  1
  F  F38  1  0.43104400  0.56772100  0.34734200  1
  F  F39  1  0.08370200  0.43104400  0.86332300  1
  F  F40  1  0.91262200  0.56155900  0.14279700  1
  F  F41  1  0.56155900  0.41876300  0.64893700  1
  F  F42  1  0.76982500  0.91262200  0.35106300  1
  F  F43  1  0.41876300  0.76982500  0.85720300  1
  F  F44  1  0.71939900  0.10894000  0.18594700  1
  F  F45  1  0.10894000  0.92299300  0.38954200  1
  F  F46  1  0.53345100  0.71939900  0.61045800  1
  F  F47  1  0.92299300  0.53345100  0.81405300  1
  F  F48  1  0.06244700  0.45044200  0.19033500  1
  F  F49  1  0.45044200  0.26010700  0.38799500  1
  F  F50  1  0.87211200  0.06244700  0.61200500  1
  F  F51  1  0.26010700  0.87211200  0.80966500  1
  F  F52  1  0.73954500  0.22538000  0.97286100  1
  F  F53  1  0.22538000  0.25251900  0.48583500  1
  F  F54  1  0.76668400  0.73954500  0.51416500  1
  F  F55  1  0.25251900  0.76668400  0.02713900  1
