# generated using pymatgen
data_GeSe2
_symmetry_space_group_name_H-M   'P 1'
_cell_length_a   17.25089400
_cell_length_b   7.20019800
_cell_length_c   12.89870744
_cell_angle_alpha   89.14669550
_cell_angle_beta   90.00000000
_cell_angle_gamma   90.00000000
_symmetry_Int_Tables_number   1
_chemical_formula_structural   GeSe2
_chemical_formula_sum   'Ge16 Se32'
_cell_volume   1601.96887353
_cell_formula_units_Z   16
loop_
 _symmetry_equiv_pos_site_id
 _symmetry_equiv_pos_as_xyz
  1  'x, y, z'
loop_
 _atom_site_type_symbol
 _atom_site_label
 _atom_site_symmetry_multiplicity
 _atom_site_fract_x
 _atom_site_fract_y
 _atom_site_fract_z
 _atom_site_occupancy
  Ge  Ge0  1  0.84572800  0.33972400  0.77612500  1
  Ge  Ge1  1  0.34572800  0.66027600  0.72387500  1
  Ge  Ge2  1  0.15427200  0.66027600  0.22387500  1
  Ge  Ge3  1  0.65427200  0.33972400  0.27612500  1
  Ge  Ge4  1  0.84987900  0.16541700  0.22457400  1
  Ge  Ge5  1  0.34987900  0.83458300  0.27542600  1
  Ge  Ge6  1  0.15012100  0.83458300  0.77542600  1
  Ge  Ge7  1  0.65012100  0.16541700  0.72457400  1
  Ge  Ge8  1  0.99975000  0.83791500  0.29403300  1
  Ge  Ge9  1  0.49975000  0.16208500  0.20596700  1
  Ge  Ge10  1  0.00025000  0.16208500  0.70596700  1
  Ge  Ge11  1  0.50025000  0.83791500  0.79403300  1
  Ge  Ge12  1  0.68997600  0.66781600  0.72488000  1
  Ge  Ge13  1  0.18997600  0.33218400  0.77512000  1
  Ge  Ge14  1  0.31002400  0.33218400  0.27512000  1
  Ge  Ge15  1  0.81002400  0.66781600  0.22488000  1
  Se  Se16  1  0.82054700  0.66704400  0.78850700  1
  Se  Se17  1  0.32054700  0.33295600  0.71149300  1
  Se  Se18  1  0.17945300  0.33295600  0.21149300  1
  Se  Se19  1  0.67945300  0.66704400  0.28850700  1
  Se  Se20  1  0.96216500  0.27642700  0.87258300  1
  Se  Se21  1  0.46216500  0.72357300  0.62741700  1
  Se  Se22  1  0.03783500  0.72357300  0.12741700  1
  Se  Se23  1  0.53783500  0.27642700  0.37258300  1
  Se  Se24  1  0.88495400  0.23095700  0.60871900  1
  Se  Se25  1  0.38495400  0.76904300  0.89128100  1
  Se  Se26  1  0.11504600  0.76904300  0.39128100  1
  Se  Se27  1  0.61504600  0.23095700  0.10871900  1
  Se  Se28  1  0.74484800  0.15947000  0.85947000  1
  Se  Se29  1  0.24484800  0.84053000  0.64053000  1
  Se  Se30  1  0.25515200  0.84053000  0.14053000  1
  Se  Se31  1  0.75515200  0.15947000  0.35947000  1
  Se  Se32  1  0.67043900  0.41796400  0.60555600  1
  Se  Se33  1  0.17043900  0.58203600  0.89444400  1
  Se  Se34  1  0.32956100  0.58203600  0.39444400  1
  Se  Se35  1  0.82956100  0.41796400  0.10555600  1
  Se  Se36  1  0.66176300  0.91486400  0.60446300  1
  Se  Se37  1  0.16176300  0.08513600  0.89553700  1
  Se  Se38  1  0.33823700  0.08513600  0.39553700  1
  Se  Se39  1  0.83823700  0.91486400  0.10446300  1
  Se  Se40  1  0.60651100  0.66912400  0.87238600  1
  Se  Se41  1  0.10651100  0.33087600  0.62761400  1
  Se  Se42  1  0.39348900  0.33087600  0.12761400  1
  Se  Se43  1  0.89348900  0.66912400  0.37238600  1
  Se  Se44  1  0.52407600  0.16621200  0.80336800  1
  Se  Se45  1  0.02407600  0.83378800  0.69663200  1
  Se  Se46  1  0.47592400  0.83378800  0.19663200  1
  Se  Se47  1  0.97592400  0.16621200  0.30336800  1
