# generated using pymatgen
data_FeH20S2(NO7)2
_symmetry_space_group_name_H-M   'P 1'
_cell_length_a   12.57118200
_cell_length_b   6.38034500
_cell_length_c   9.34703095
_cell_angle_alpha   73.37772644
_cell_angle_beta   90.00000000
_cell_angle_gamma   90.00000000
_symmetry_Int_Tables_number   1
_chemical_formula_structural   FeH20S2(NO7)2
_chemical_formula_sum   'Fe2 H40 S4 N4 O28'
_cell_volume   718.38178098
_cell_formula_units_Z   2
loop_
 _symmetry_equiv_pos_site_id
 _symmetry_equiv_pos_as_xyz
  1  'x, y, z'
loop_
 _atom_site_type_symbol
 _atom_site_label
 _atom_site_symmetry_multiplicity
 _atom_site_fract_x
 _atom_site_fract_y
 _atom_site_fract_z
 _atom_site_occupancy
  Fe  Fe0  1  0.00000000  0.00000000  0.00000000  1
  Fe  Fe1  1  0.50000000  0.00000000  0.50000000  1
  H  H2  1  0.32698400  0.79935200  0.06461600  1
  H  H3  1  0.82698400  0.20064800  0.43538400  1
  H  H4  1  0.67301600  0.20064800  0.93538400  1
  H  H5  1  0.17301600  0.79935200  0.56461600  1
  H  H6  1  0.29460600  0.59618800  0.22278800  1
  H  H7  1  0.79460600  0.40381200  0.27721200  1
  H  H8  1  0.70539400  0.40381200  0.77721200  1
  H  H9  1  0.20539400  0.59618800  0.72278800  1
  H  H10  1  0.33225800  0.53709700  0.06581000  1
  H  H11  1  0.83225800  0.46290300  0.43419000  1
  H  H12  1  0.66774200  0.46290300  0.93419000  1
  H  H13  1  0.16774200  0.53709700  0.56581000  1
  H  H14  1  0.42353300  0.63608700  0.16451200  1
  H  H15  1  0.92353300  0.36391300  0.33548800  1
  H  H16  1  0.57646700  0.36391300  0.83548800  1
  H  H17  1  0.07646700  0.63608700  0.66451200  1
  H  H18  1  0.08884600  0.66739900  0.22442500  1
  H  H19  1  0.58884600  0.33260100  0.27557500  1
  H  H20  1  0.91115400  0.33260100  0.77557500  1
  H  H21  1  0.41115400  0.66739900  0.72442500  1
  H  H22  1  0.12176900  0.89395400  0.25401800  1
  H  H23  1  0.62176900  0.10604600  0.24598200  1
  H  H24  1  0.87823100  0.10604600  0.74598200  1
  H  H25  1  0.37823100  0.89395400  0.75401800  1
  H  H26  1  0.10081900  0.06099100  0.72880200  1
  H  H27  1  0.60081900  0.93900900  0.77119800  1
  H  H28  1  0.89918100  0.93900900  0.27119800  1
  H  H29  1  0.39918100  0.06099100  0.22880200  1
  H  H30  1  0.19016100  0.00690800  0.85358900  1
  H  H31  1  0.69016100  0.99309200  0.64641100  1
  H  H32  1  0.80983900  0.99309200  0.14641100  1
  H  H33  1  0.30983900  0.00690800  0.35358900  1
  H  H34  1  0.93566900  0.66956500  0.89460800  1
  H  H35  1  0.43566900  0.33043500  0.60539200  1
  H  H36  1  0.06433100  0.33043500  0.10539200  1
  H  H37  1  0.56433100  0.66956500  0.39460800  1
  H  H38  1  0.85341700  0.67410300  0.02344700  1
  H  H39  1  0.35341700  0.32589700  0.47655300  1
  H  H40  1  0.14658300  0.32589700  0.97655300  1
  H  H41  1  0.64658300  0.67410300  0.52344700  1
  S  S42  1  0.13513800  0.25904600  0.40843400  1
  S  S43  1  0.63513800  0.74095400  0.09156600  1
  S  S44  1  0.86486200  0.74095400  0.59156600  1
  S  S45  1  0.36486200  0.25904600  0.90843400  1
  N  N46  1  0.34406100  0.64251400  0.13046000  1
  N  N47  1  0.84406100  0.35748600  0.36954000  1
  N  N48  1  0.65593900  0.35748600  0.86954000  1
  N  N49  1  0.15593900  0.64251400  0.63046000  1
  O  O50  1  0.22772700  0.40837900  0.40835900  1
  O  O51  1  0.72772700  0.59162100  0.09164100  1
  O  O52  1  0.77227300  0.59162100  0.59164100  1
  O  O53  1  0.27227300  0.40837900  0.90835900  1
  O  O54  1  0.07644500  0.21684600  0.55058700  1
  O  O55  1  0.57644500  0.78315400  0.94941300  1
  O  O56  1  0.92355500  0.78315400  0.44941300  1
  O  O57  1  0.42355500  0.21684600  0.05058700  1
  O  O58  1  0.06256000  0.37418000  0.28207600  1
  O  O59  1  0.56256000  0.62582000  0.21792400  1
  O  O60  1  0.93744000  0.62582000  0.71792400  1
  O  O61  1  0.43744000  0.37418000  0.78207600  1
  O  O62  1  0.17447200  0.04964300  0.38448100  1
  O  O63  1  0.67447200  0.95035700  0.11551900  1
  O  O64  1  0.82552800  0.95035700  0.61551900  1
  O  O65  1  0.32552800  0.04964300  0.88448100  1
  O  O66  1  0.10924300  0.82127000  0.17547000  1
  O  O67  1  0.60924300  0.17873000  0.32453000  1
  O  O68  1  0.89075700  0.17873000  0.82453000  1
  O  O69  1  0.39075700  0.82127000  0.67547000  1
  O  O70  1  0.11545500  0.97434100  0.83359600  1
  O  O71  1  0.61545500  0.02565900  0.66640400  1
  O  O72  1  0.88454500  0.02565900  0.16640400  1
  O  O73  1  0.38454500  0.97434100  0.33359600  1
  O  O74  1  0.92841100  0.70482100  0.99087400  1
  O  O75  1  0.42841100  0.29517900  0.50912600  1
  O  O76  1  0.07158900  0.29517900  0.00912600  1
  O  O77  1  0.57158900  0.70482100  0.49087400  1
