# generated using pymatgen
data_Na3Fe5O9
_symmetry_space_group_name_H-M   'P 1'
_cell_length_a   9.18325878
_cell_length_b   9.18325878
_cell_length_c   5.41239545
_cell_angle_alpha   89.54249870
_cell_angle_beta   89.54249870
_cell_angle_gamma   84.00392060
_symmetry_Int_Tables_number   1
_chemical_formula_structural   Na3Fe5O9
_chemical_formula_sum   'Na6 Fe10 O18'
_cell_volume   453.91607667
_cell_formula_units_Z   2
loop_
 _symmetry_equiv_pos_site_id
 _symmetry_equiv_pos_as_xyz
  1  'x, y, z'
loop_
 _atom_site_type_symbol
 _atom_site_label
 _atom_site_symmetry_multiplicity
 _atom_site_fract_x
 _atom_site_fract_y
 _atom_site_fract_z
 _atom_site_occupancy
  Na  Na0  1  0.68124600  0.83721900  0.26396900  1
  Na  Na1  1  0.16278100  0.31875400  0.23603100  1
  Na  Na2  1  0.31875400  0.16278100  0.73603100  1
  Na  Na3  1  0.83721900  0.68124600  0.76396900  1
  Na  Na4  1  0.40884100  0.59115900  0.25000000  1
  Na  Na5  1  0.59115900  0.40884100  0.75000000  1
  Fe  Fe6  1  0.56533800  0.20272800  0.28499600  1
  Fe  Fe7  1  0.79727200  0.43466200  0.21500400  1
  Fe  Fe8  1  0.43466200  0.79727200  0.71500400  1
  Fe  Fe9  1  0.20272800  0.56533800  0.78499600  1
  Fe  Fe10  1  0.30015300  0.97958600  0.21788000  1
  Fe  Fe11  1  0.02041400  0.69984700  0.28212000  1
  Fe  Fe12  1  0.69984700  0.02041400  0.78212000  1
  Fe  Fe13  1  0.97958600  0.30015300  0.71788000  1
  Fe  Fe14  1  0.93610600  0.06389400  0.25000000  1
  Fe  Fe15  1  0.06389400  0.93610600  0.75000000  1
  O  O16  1  0.72310800  0.08505700  0.11937200  1
  O  O17  1  0.91494300  0.27689200  0.38062800  1
  O  O18  1  0.27689200  0.91494300  0.88062800  1
  O  O19  1  0.08505700  0.72310800  0.61937200  1
  O  O20  1  0.43252600  0.83468200  0.36774100  1
  O  O21  1  0.16531800  0.56747400  0.13225900  1
  O  O22  1  0.56747400  0.16531800  0.63225900  1
  O  O23  1  0.83468200  0.43252600  0.86774100  1
  O  O24  1  0.37798200  0.16388100  0.17487100  1
  O  O25  1  0.83611900  0.62201800  0.32512900  1
  O  O26  1  0.62201800  0.83611900  0.82512900  1
  O  O27  1  0.16388100  0.37798200  0.67487100  1
  O  O28  1  0.13397500  0.02948100  0.42913200  1
  O  O29  1  0.97051900  0.86602500  0.07086800  1
  O  O30  1  0.86602500  0.97051900  0.57086800  1
  O  O31  1  0.02948100  0.13397500  0.92913200  1
  O  O32  1  0.59529100  0.40470900  0.25000000  1
  O  O33  1  0.40470900  0.59529100  0.75000000  1
