# generated using pymatgen
data_La15(NiO4)8
_symmetry_space_group_name_H-M   'P 1'
_cell_length_a   11.71805940
_cell_length_b   11.71805940
_cell_length_c   6.91440469
_cell_angle_alpha   77.24998167
_cell_angle_beta   77.24998167
_cell_angle_gamma   55.60084732
_symmetry_Int_Tables_number   1
_chemical_formula_structural   La15(NiO4)8
_chemical_formula_sum   'La15 Ni8 O32'
_cell_volume   758.62704385
_cell_formula_units_Z   1
loop_
 _symmetry_equiv_pos_site_id
 _symmetry_equiv_pos_as_xyz
  1  'x, y, z'
loop_
 _atom_site_type_symbol
 _atom_site_label
 _atom_site_symmetry_multiplicity
 _atom_site_fract_x
 _atom_site_fract_y
 _atom_site_fract_z
 _atom_site_occupancy
  La  La0  1  0.84472900  0.84472900  0.05835300  1
  La  La1  1  0.46400800  0.96633200  0.29177200  1
  La  La2  1  0.21038500  0.71843500  0.78735700  1
  La  La3  1  0.27580400  0.78648300  0.21104700  1
  La  La4  1  0.02938700  0.54721900  0.70235600  1
  La  La5  1  0.59084600  0.59084600  0.54152800  1
  La  La6  1  0.66096400  0.66096400  0.96129700  1
  La  La7  1  0.96633200  0.46400800  0.29177200  1
  La  La8  1  0.41006700  0.41006700  0.46230900  1
  La  La9  1  0.34095400  0.34095400  0.04061100  1
  La  La10  1  0.78648300  0.27580400  0.21104700  1
  La  La11  1  0.71843500  0.21038500  0.78735700  1
  La  La12  1  0.08617200  0.08617200  0.54525900  1
  La  La13  1  0.54721900  0.02938700  0.70235600  1
  La  La14  1  0.16068600  0.16068600  0.95769900  1
  Ni  Ni15  1  0.37601100  0.87591300  0.75492800  1
  Ni  Ni16  1  0.75279200  0.75279200  0.50818800  1
  Ni  Ni17  1  0.50007200  0.50007200  0.00059900  1
  Ni  Ni18  1  0.12517700  0.62824100  0.26060600  1
  Ni  Ni19  1  0.25068400  0.25068400  0.50318000  1
  Ni  Ni20  1  0.00055100  0.00055100  0.00824200  1
  Ni  Ni21  1  0.87591300  0.37601100  0.75492800  1
  Ni  Ni22  1  0.62824100  0.12517700  0.26060600  1
  O  O23  1  0.96336400  0.96336400  0.75938100  1
  O  O24  1  0.07063400  0.80622200  0.10999000  1
  O  O25  1  0.42021900  0.91880700  0.01281700  1
  O  O26  1  0.67586900  0.93872300  0.36426200  1
  O  O27  1  0.70065700  0.70065700  0.24616500  1
  O  O28  1  0.78192300  0.78192300  0.79462300  1
  O  O29  1  0.32575200  0.83214100  0.48563000  1
  O  O30  1  0.93872300  0.67586900  0.36426200  1
  O  O31  1  0.31117800  0.56252100  0.12318500  1
  O  O32  1  0.19041200  0.64660900  0.51401800  1
  O  O33  1  0.18963000  0.93849100  0.87581500  1
  O  O34  1  0.56104300  0.81171300  0.62346800  1
  O  O35  1  0.08314100  0.58020300  0.97740600  1
  O  O36  1  0.56252100  0.31117800  0.12318500  1
  O  O37  1  0.45655700  0.45655700  0.74156500  1
  O  O38  1  0.91880700  0.42021900  0.01281700  1
  O  O39  1  0.81171300  0.56104300  0.62346800  1
  O  O40  1  0.54274300  0.54274300  0.26783900  1
  O  O41  1  0.43528900  0.68902400  0.87507400  1
  O  O42  1  0.18677300  0.43790900  0.37080600  1
  O  O43  1  0.06111100  0.31326200  0.62318800  1
  O  O44  1  0.64660900  0.19041200  0.51401800  1
  O  O45  1  0.83214100  0.32575200  0.48563000  1
  O  O46  1  0.29480900  0.29480900  0.76220700  1
  O  O47  1  0.68902400  0.43528900  0.87507400  1
  O  O48  1  0.20869500  0.20869500  0.23152000  1
  O  O49  1  0.43790900  0.18677300  0.37080600  1
  O  O50  1  0.80622200  0.07063400  0.10999000  1
  O  O51  1  0.93849100  0.18963000  0.87581500  1
  O  O52  1  0.05575900  0.05575900  0.23971400  1
  O  O53  1  0.31326200  0.06111100  0.62318800  1
  O  O54  1  0.58020300  0.08314100  0.97740600  1
