# generated using pymatgen
data_K2Zn2O3
_symmetry_space_group_name_H-M   'P 1'
_cell_length_a   5.96555705
_cell_length_b   6.34892200
_cell_length_c   6.33362122
_cell_angle_alpha   90.00000000
_cell_angle_beta   113.54712239
_cell_angle_gamma   90.00000000
_symmetry_Int_Tables_number   1
_chemical_formula_structural   K2Zn2O3
_chemical_formula_sum   'K4 Zn4 O6'
_cell_volume   219.91020660
_cell_formula_units_Z   2
loop_
 _symmetry_equiv_pos_site_id
 _symmetry_equiv_pos_as_xyz
  1  'x, y, z'
loop_
 _atom_site_type_symbol
 _atom_site_label
 _atom_site_symmetry_multiplicity
 _atom_site_fract_x
 _atom_site_fract_y
 _atom_site_fract_z
 _atom_site_occupancy
  K  K0  1  0.19275800  0.63323500  0.93165700  1
  K  K1  1  0.19275800  0.86676500  0.43165700  1
  K  K2  1  0.80724200  0.13323500  0.56834300  1
  K  K3  1  0.80724200  0.36676500  0.06834300  1
  Zn  Zn4  1  0.32874700  0.38634400  0.56715600  1
  Zn  Zn5  1  0.67125300  0.88634400  0.93284400  1
  Zn  Zn6  1  0.32874700  0.11365600  0.06715600  1
  Zn  Zn7  1  0.67125300  0.61365600  0.43284400  1
  O  O8  1  0.00000000  0.50000000  0.50000000  1
  O  O9  1  0.00000000  0.00000000  0.00000000  1
  O  O10  1  0.41488800  0.13787900  0.79034900  1
  O  O11  1  0.58511200  0.63787900  0.70965100  1
  O  O12  1  0.41488800  0.36212100  0.29034900  1
  O  O13  1  0.58511200  0.86212100  0.20965100  1
