# generated using pymatgen
data_BaMnSnS4
_symmetry_space_group_name_H-M   'P 1'
_cell_length_a   15.59201942
_cell_length_b   12.92195672
_cell_length_c   12.67732390
_cell_angle_alpha   75.03926142
_cell_angle_beta   53.19338425
_cell_angle_gamma   51.76735433
_symmetry_Int_Tables_number   1
_chemical_formula_structural   BaMnSnS4
_chemical_formula_sum   'Ba8 Mn8 Sn8 S32'
_cell_volume   1580.44927876
_cell_formula_units_Z   8
loop_
 _symmetry_equiv_pos_site_id
 _symmetry_equiv_pos_as_xyz
  1  'x, y, z'
loop_
 _atom_site_type_symbol
 _atom_site_label
 _atom_site_symmetry_multiplicity
 _atom_site_fract_x
 _atom_site_fract_y
 _atom_site_fract_z
 _atom_site_occupancy
  Ba  Ba0  1  0.74992800  0.25427900  0.74891100  1
  Ba  Ba1  1  0.99572100  0.50007200  0.00311700  1
  Ba  Ba2  1  0.50108900  0.00311700  0.50007200  1
  Ba  Ba3  1  0.24823300  0.75176700  0.75176700  1
  Ba  Ba4  1  0.99950100  0.50049900  0.50049900  1
  Ba  Ba5  1  0.49823300  0.00176700  0.00176700  1
  Ba  Ba6  1  0.24688300  0.74891100  0.25427900  1
  Ba  Ba7  1  0.74950100  0.25049900  0.25049900  1
  Mn  Mn8  1  0.73554400  0.51561600  0.41197100  1
  Mn  Mn9  1  0.23856000  0.01020700  0.98536100  1
  Mn  Mn10  1  0.23979300  0.01144000  0.48412800  1
  Mn  Mn11  1  0.83802900  0.91313100  0.51445600  1
  Mn  Mn12  1  0.76587200  0.98536100  0.01020700  1
  Mn  Mn13  1  0.73438400  0.51445600  0.91313100  1
  Mn  Mn14  1  0.33686900  0.41197100  0.51561600  1
  Mn  Mn15  1  0.26463900  0.48412800  0.01144000  1
  Sn  Sn16  1  0.98557000  0.76321900  0.73903200  1
  Sn  Sn17  1  0.51217900  0.73903200  0.76321900  1
  Sn  Sn18  1  0.01557400  0.23484900  0.84545400  1
  Sn  Sn19  1  0.90412200  0.84545400  0.23484900  1
  Sn  Sn20  1  0.51096800  0.73782100  0.26443000  1
  Sn  Sn21  1  0.48678100  0.26443000  0.73782100  1
  Sn  Sn22  1  0.40454600  0.34587800  0.23442600  1
  Sn  Sn23  1  0.01515100  0.23442600  0.34587800  1
  S  S24  1  0.95865600  0.95563700  0.28885700  1
  S  S25  1  0.22181700  0.52747300  0.21543100  1
  S  S26  1  0.21989500  0.03276300  0.68396700  1
  S  S27  1  0.29436300  0.29134400  0.45315000  1
  S  S28  1  0.21723700  0.03010500  0.18662400  1
  S  S29  1  0.96114300  0.45315000  0.29134400  1
  S  S30  1  0.68776600  0.06432500  0.71860200  1
  S  S31  1  0.45778100  0.95547800  0.79493900  1
  S  S32  1  0.71588400  0.53646800  0.73066000  1
  S  S33  1  0.03456900  0.21472000  0.02818300  1
  S  S34  1  0.52930700  0.71860200  0.06432500  1
  S  S35  1  0.71353200  0.53411600  0.23301200  1
  S  S36  1  0.29729700  0.78939600  0.95608400  1
  S  S37  1  0.79343600  0.79326600  0.45528900  1
  S  S38  1  0.95800900  0.45528900  0.79326600  1
  S  S39  1  0.03528000  0.21543100  0.52747300  1
  S  S40  1  0.06337600  0.68396700  0.03276300  1
  S  S41  1  0.53139800  0.72069300  0.56223400  1
  S  S42  1  0.18567500  0.56223400  0.72069300  1
  S  S43  1  0.29391600  0.29277700  0.95270300  1
  S  S44  1  0.79180100  0.79493900  0.95547800  1
  S  S45  1  0.79685000  0.28885700  0.95563700  1
  S  S46  1  0.45506100  0.45819900  0.79221900  1
  S  S47  1  0.79471100  0.29199100  0.45656400  1
  S  S48  1  0.01698800  0.73066000  0.53646800  1
  S  S49  1  0.29452200  0.79221900  0.45819900  1
  S  S50  1  0.56603300  0.18662400  0.03010500  1
  S  S51  1  0.45673400  0.45656400  0.29199100  1
  S  S52  1  0.46060400  0.95270300  0.29277700  1
  S  S53  1  0.51934000  0.23301200  0.53411600  1
  S  S54  1  0.95722300  0.95608400  0.78939600  1
  S  S55  1  0.72252700  0.02818400  0.21472000  1
