# generated using pymatgen
data_WOF4
_symmetry_space_group_name_H-M   'P 1'
_cell_length_a   8.75854621
_cell_length_b   8.75854621
_cell_length_c   5.43221949
_cell_angle_alpha   88.23357015
_cell_angle_beta   88.23357015
_cell_angle_gamma   112.11093698
_symmetry_Int_Tables_number   1
_chemical_formula_structural   WOF4
_chemical_formula_sum   'W4 O4 F16'
_cell_volume   385.48171248
_cell_formula_units_Z   4
loop_
 _symmetry_equiv_pos_site_id
 _symmetry_equiv_pos_as_xyz
  1  'x, y, z'
loop_
 _atom_site_type_symbol
 _atom_site_label
 _atom_site_symmetry_multiplicity
 _atom_site_fract_x
 _atom_site_fract_y
 _atom_site_fract_z
 _atom_site_occupancy
  W  W0  1  0.76059400  0.76059400  0.76720600  1
  W  W1  1  0.23940600  0.23940600  0.23279400  1
  W  W2  1  0.81360000  0.18640000  0.00000000  1
  W  W3  1  0.18640000  0.81360000  0.00000000  1
  O  O4  1  0.02585300  0.21307800  0.11907200  1
  O  O5  1  0.78692200  0.97414700  0.88092800  1
  O  O6  1  0.97414700  0.78692200  0.88092800  1
  O  O7  1  0.21307800  0.02585300  0.11907200  1
  F  F8  1  0.26541500  0.44800100  0.34828300  1
  F  F9  1  0.65850300  0.65850300  0.07152900  1
  F  F10  1  0.08691100  0.70873200  0.30463600  1
  F  F11  1  0.39324000  0.83522200  0.11947500  1
  F  F12  1  0.60676000  0.16477800  0.88052500  1
  F  F13  1  0.83522200  0.39324000  0.11947500  1
  F  F14  1  0.73458500  0.55199900  0.65171700  1
  F  F15  1  0.14345600  0.14345600  0.54514000  1
  F  F16  1  0.55199900  0.73458500  0.65171700  1
  F  F17  1  0.44800100  0.26541500  0.34828300  1
  F  F18  1  0.16477800  0.60676000  0.88052500  1
  F  F19  1  0.85654400  0.85654400  0.45486000  1
  F  F20  1  0.34149700  0.34149700  0.92847100  1
  F  F21  1  0.91308900  0.29126800  0.69536400  1
  F  F22  1  0.29126800  0.91308900  0.69536400  1
  F  F23  1  0.70873200  0.08691100  0.30463600  1
