# generated using pymatgen
data_KNa3Al4(SiO4)4
_symmetry_space_group_name_H-M   'P 1'
_cell_length_a   9.83740197
_cell_length_b   9.83740197
_cell_length_c   9.82908100
_cell_angle_alpha   90.00000000
_cell_angle_beta   90.00000000
_cell_angle_gamma   119.99999977
_symmetry_Int_Tables_number   1
_chemical_formula_structural   KNa3Al4(SiO4)4
_chemical_formula_sum   'K2 Na6 Al8 Si8 O32'
_cell_volume   823.76698380
_cell_formula_units_Z   2
loop_
 _symmetry_equiv_pos_site_id
 _symmetry_equiv_pos_as_xyz
  1  'x, y, z'
loop_
 _atom_site_type_symbol
 _atom_site_label
 _atom_site_symmetry_multiplicity
 _atom_site_fract_x
 _atom_site_fract_y
 _atom_site_fract_z
 _atom_site_occupancy
  K  K0  1  0.00000000  0.00000000  0.98709000  1
  K  K1  1  0.00000000  0.00000000  0.48709000  1
  Na  Na2  1  0.01955200  0.44130000  0.98862400  1
  Na  Na3  1  0.57825200  0.01955200  0.48862400  1
  Na  Na4  1  0.44130000  0.42174800  0.48862400  1
  Na  Na5  1  0.55870000  0.57825200  0.98862400  1
  Na  Na6  1  0.42174800  0.98044800  0.98862400  1
  Na  Na7  1  0.98044800  0.55870000  0.48862400  1
  Al  Al8  1  0.33333300  0.66666700  0.16567700  1
  Al  Al9  1  0.66666700  0.33333300  0.66567700  1
  Al  Al10  1  0.08632900  0.32927200  0.68478400  1
  Al  Al11  1  0.75705700  0.08632900  0.18478400  1
  Al  Al12  1  0.32927200  0.24294300  0.18478400  1
  Al  Al13  1  0.67072800  0.75705700  0.68478400  1
  Al  Al14  1  0.24294300  0.91367100  0.68478400  1
  Al  Al15  1  0.91367100  0.67072800  0.18478400  1
  Si  Si16  1  0.33333300  0.66666700  0.82346200  1
  Si  Si17  1  0.66666700  0.33333300  0.32346200  1
  Si  Si18  1  0.12083300  0.31630200  0.25420900  1
  Si  Si19  1  0.80453100  0.12083300  0.75420900  1
  Si  Si20  1  0.31630200  0.19546900  0.75420900  1
  Si  Si21  1  0.68369800  0.80453100  0.25420900  1
  Si  Si22  1  0.19546900  0.87916700  0.25420900  1
  Si  Si23  1  0.87916700  0.68369800  0.75420900  1
  O  O24  1  0.33333300  0.66666700  0.98879900  1
  O  O25  1  0.66666700  0.33333300  0.48879900  1
  O  O26  1  0.09882800  0.40671700  0.51339700  1
  O  O27  1  0.69211100  0.09882800  0.01339700  1
  O  O28  1  0.40671700  0.30788900  0.01339700  1
  O  O29  1  0.59328300  0.69211100  0.51339700  1
  O  O30  1  0.30788900  0.90117200  0.51339700  1
  O  O31  1  0.90117200  0.59328300  0.01339700  1
  O  O32  1  0.17487900  0.50508600  0.77691300  1
  O  O33  1  0.66979300  0.17487900  0.27691300  1
  O  O34  1  0.50508600  0.33020700  0.27691300  1
  O  O35  1  0.49491400  0.66979300  0.77691300  1
  O  O36  1  0.33020700  0.82512100  0.77691300  1
  O  O37  1  0.82512100  0.49491400  0.27691300  1
  O  O38  1  0.16327900  0.49474700  0.21458600  1
  O  O39  1  0.66853200  0.16327900  0.71458600  1
  O  O40  1  0.49474700  0.33146800  0.71458600  1
  O  O41  1  0.50525300  0.66853200  0.21458600  1
  O  O42  1  0.33146800  0.83672100  0.21458600  1
  O  O43  1  0.83672100  0.50525300  0.71458600  1
  O  O44  1  0.02973200  0.27500100  0.41287400  1
  O  O45  1  0.75473100  0.02973200  0.91287400  1
  O  O46  1  0.27500100  0.24526900  0.91287400  1
  O  O47  1  0.72499900  0.75473100  0.41287400  1
  O  O48  1  0.24526900  0.97026800  0.41287400  1
  O  O49  1  0.97026800  0.72499900  0.91287400  1
  O  O50  1  0.19185800  0.22745600  0.66626900  1
  O  O51  1  0.96440200  0.19185800  0.16626900  1
  O  O52  1  0.22745600  0.03559800  0.16626900  1
  O  O53  1  0.77254400  0.96440200  0.66626900  1
  O  O54  1  0.03559800  0.80814200  0.66626900  1
  O  O55  1  0.80814200  0.77254400  0.16626900  1
