# generated using pymatgen
data_RbIn(MoO4)2
_symmetry_space_group_name_H-M   'P 1'
_cell_length_a   5.95956100
_cell_length_b   9.12396200
_cell_length_c   15.63512200
_cell_angle_alpha   90.00000000
_cell_angle_beta   90.00000000
_cell_angle_gamma   90.00000000
_symmetry_Int_Tables_number   1
_chemical_formula_structural   RbIn(MoO4)2
_chemical_formula_sum   'Rb4 In4 Mo8 O32'
_cell_volume   850.15675838
_cell_formula_units_Z   4
loop_
 _symmetry_equiv_pos_site_id
 _symmetry_equiv_pos_as_xyz
  1  'x, y, z'
loop_
 _atom_site_type_symbol
 _atom_site_label
 _atom_site_symmetry_multiplicity
 _atom_site_fract_x
 _atom_site_fract_y
 _atom_site_fract_z
 _atom_site_occupancy
  Rb  Rb0  1  0.75000000  0.44999000  0.87575500  1
  Rb  Rb1  1  0.25000000  0.55001000  0.12424500  1
  Rb  Rb2  1  0.25000000  0.94999000  0.62424500  1
  Rb  Rb3  1  0.75000000  0.05001000  0.37575500  1
  In  In4  1  0.25000000  0.81212600  0.88604300  1
  In  In5  1  0.75000000  0.18787400  0.11395700  1
  In  In6  1  0.75000000  0.31212600  0.61395700  1
  In  In7  1  0.25000000  0.68787400  0.38604300  1
  Mo  Mo8  1  0.25000000  0.50871900  0.71629000  1
  Mo  Mo9  1  0.75000000  0.49128100  0.28371000  1
  Mo  Mo10  1  0.75000000  0.00871900  0.78371000  1
  Mo  Mo11  1  0.25000000  0.99128100  0.21629000  1
  Mo  Mo12  1  0.25000000  0.21156500  0.96895700  1
  Mo  Mo13  1  0.75000000  0.78843500  0.03104300  1
  Mo  Mo14  1  0.75000000  0.71156500  0.53104300  1
  Mo  Mo15  1  0.25000000  0.28843500  0.46895700  1
  O  O16  1  0.75000000  0.14002200  0.86428000  1
  O  O17  1  0.25000000  0.85997800  0.13572000  1
  O  O18  1  0.25000000  0.64002200  0.63572000  1
  O  O19  1  0.75000000  0.35997800  0.36428000  1
  O  O20  1  0.00211300  0.89898400  0.79717800  1
  O  O21  1  0.50211300  0.10101600  0.20282200  1
  O  O22  1  0.99788700  0.39898400  0.70282200  1
  O  O23  1  0.49788700  0.60101600  0.29717800  1
  O  O24  1  0.99788700  0.10101600  0.20282200  1
  O  O25  1  0.49788700  0.89898400  0.79717800  1
  O  O26  1  0.00211300  0.60101600  0.29717800  1
  O  O27  1  0.50211300  0.39898400  0.70282200  1
  O  O28  1  0.25000000  0.60463900  0.81854200  1
  O  O29  1  0.75000000  0.39536100  0.18145800  1
  O  O30  1  0.75000000  0.10463900  0.68145800  1
  O  O31  1  0.25000000  0.89536100  0.31854200  1
  O  O32  1  0.25000000  0.29927300  0.86969100  1
  O  O33  1  0.75000000  0.70072700  0.13030900  1
  O  O34  1  0.75000000  0.79927300  0.63030900  1
  O  O35  1  0.25000000  0.20072700  0.36969100  1
  O  O36  1  0.25000000  0.01624700  0.95674900  1
  O  O37  1  0.75000000  0.98375300  0.04325100  1
  O  O38  1  0.75000000  0.51624700  0.54325100  1
  O  O39  1  0.25000000  0.48375300  0.45674900  1
  O  O40  1  0.50594800  0.72303300  0.97122300  1
  O  O41  1  0.00594800  0.27696700  0.02877700  1
  O  O42  1  0.49405200  0.22303300  0.52877700  1
  O  O43  1  0.99405200  0.77696700  0.47122300  1
  O  O44  1  0.49405200  0.27696700  0.02877700  1
  O  O45  1  0.99405200  0.72303300  0.97122300  1
  O  O46  1  0.50594800  0.77696700  0.47122300  1
  O  O47  1  0.00594800  0.22303300  0.52877700  1
