# generated using pymatgen
data_K2Co(PO3)4
_symmetry_space_group_name_H-M   'P 1'
_cell_length_a   8.50741173
_cell_length_b   8.50741173
_cell_length_c   7.77578349
_cell_angle_alpha   81.56986292
_cell_angle_beta   81.56986292
_cell_angle_gamma   97.02200348
_symmetry_Int_Tables_number   1
_chemical_formula_structural   K2Co(PO3)4
_chemical_formula_sum   'K4 Co2 P8 O24'
_cell_volume   544.71072868
_cell_formula_units_Z   2
loop_
 _symmetry_equiv_pos_site_id
 _symmetry_equiv_pos_as_xyz
  1  'x, y, z'
loop_
 _atom_site_type_symbol
 _atom_site_label
 _atom_site_symmetry_multiplicity
 _atom_site_fract_x
 _atom_site_fract_y
 _atom_site_fract_z
 _atom_site_occupancy
  K  K0  1  0.49296700  0.24138600  0.07989200  1
  K  K1  1  0.24138600  0.49296700  0.57989200  1
  K  K2  1  0.52965700  0.79723000  0.91572700  1
  K  K3  1  0.79723000  0.52965700  0.41572700  1
  Co  Co4  1  0.84594600  0.15330100  0.74950000  1
  Co  Co5  1  0.15330100  0.84594600  0.24950000  1
  P  P6  1  0.18239500  0.03009700  0.83491200  1
  P  P7  1  0.03009700  0.18239500  0.33491200  1
  P  P8  1  0.49537200  0.17181800  0.57416100  1
  P  P9  1  0.17181800  0.49537200  0.07416100  1
  P  P10  1  0.49315800  0.86756300  0.41923700  1
  P  P11  1  0.86756300  0.49315800  0.91923700  1
  P  P12  1  0.81070900  0.96462100  0.17972500  1
  P  P13  1  0.96462100  0.81070900  0.67972500  1
  O  O14  1  0.50884400  0.33977200  0.47854600  1
  O  O15  1  0.33977200  0.50884400  0.97854600  1
  O  O16  1  0.60266100  0.12975300  0.70666300  1
  O  O17  1  0.12975300  0.60266100  0.20666300  1
  O  O18  1  0.31030600  0.12007900  0.66590100  1
  O  O19  1  0.12007900  0.31030600  0.16590100  1
  O  O20  1  0.50822000  0.05932500  0.42179900  1
  O  O21  1  0.05932500  0.50822000  0.92179900  1
  O  O22  1  0.38765900  0.83279400  0.28486700  1
  O  O23  1  0.83279400  0.38765900  0.78486700  1
  O  O24  1  0.45756900  0.76738600  0.59769300  1
  O  O25  1  0.76738600  0.45756900  0.09769300  1
  O  O26  1  0.67580700  0.85300200  0.33290600  1
  O  O27  1  0.85300200  0.67580700  0.83290600  1
  O  O28  1  0.73129700  0.02686300  0.02769500  1
  O  O29  1  0.02686300  0.73129700  0.52769500  1
  O  O30  1  0.94055400  0.86143900  0.15504200  1
  O  O31  1  0.86143900  0.94055400  0.65504200  1
  O  O32  1  0.86580700  0.11583500  0.27129600  1
  O  O33  1  0.11583500  0.86580700  0.77129600  1
  O  O34  1  0.26896500  0.98224700  0.98578400  1
  O  O35  1  0.98224700  0.26896500  0.48578400  1
  O  O36  1  0.05623400  0.13836300  0.85305400  1
  O  O37  1  0.13836300  0.05623400  0.35305400  1
