# generated using pymatgen
data_VBiO4
_symmetry_space_group_name_H-M   'P 1'
_cell_length_a   5.10886300
_cell_length_b   5.37160200
_cell_length_c   12.05569000
_cell_angle_alpha   90.00000000
_cell_angle_beta   90.00000000
_cell_angle_gamma   90.00000000
_symmetry_Int_Tables_number   1
_chemical_formula_structural   VBiO4
_chemical_formula_sum   'V4 Bi4 O16'
_cell_volume   330.84163285
_cell_formula_units_Z   4
loop_
 _symmetry_equiv_pos_site_id
 _symmetry_equiv_pos_as_xyz
  1  'x, y, z'
loop_
 _atom_site_type_symbol
 _atom_site_label
 _atom_site_symmetry_multiplicity
 _atom_site_fract_x
 _atom_site_fract_y
 _atom_site_fract_z
 _atom_site_occupancy
  V  V0  1  0.00000000  0.75000000  0.39421500  1
  V  V1  1  0.50000000  0.25000000  0.10578500  1
  V  V2  1  0.00000000  0.25000000  0.60578500  1
  V  V3  1  0.50000000  0.75000000  0.89421500  1
  Bi  Bi4  1  0.00000000  0.75000000  0.11585300  1
  Bi  Bi5  1  0.50000000  0.25000000  0.38414700  1
  Bi  Bi6  1  0.00000000  0.25000000  0.88414700  1
  Bi  Bi7  1  0.50000000  0.75000000  0.61585300  1
  O  O8  1  0.24407900  0.08113900  0.03392000  1
  O  O9  1  0.74407900  0.91886100  0.46608000  1
  O  O10  1  0.25592100  0.58113900  0.46608000  1
  O  O11  1  0.75592100  0.41886100  0.03392000  1
  O  O12  1  0.75592100  0.91886100  0.96608000  1
  O  O13  1  0.25592100  0.08113900  0.53392000  1
  O  O14  1  0.74407900  0.41886100  0.53392000  1
  O  O15  1  0.24407900  0.58113900  0.96608000  1
  O  O16  1  0.64934900  0.04391100  0.19366100  1
  O  O17  1  0.14934900  0.95608900  0.30633900  1
  O  O18  1  0.85065100  0.54391100  0.30633900  1
  O  O19  1  0.35065100  0.45608900  0.19366100  1
  O  O20  1  0.35065100  0.95608900  0.80633900  1
  O  O21  1  0.85065100  0.04391100  0.69366100  1
  O  O22  1  0.14934900  0.45608900  0.69366100  1
  O  O23  1  0.64934900  0.54391100  0.80633900  1
