# generated using pymatgen
data_CuAs4(H5O8)2
_symmetry_space_group_name_H-M   'P 1'
_cell_length_a   5.47198400
_cell_length_b   7.71509669
_cell_length_c   8.62467286
_cell_angle_alpha   107.77565859
_cell_angle_beta   98.54817875
_cell_angle_gamma   92.94246448
_symmetry_Int_Tables_number   1
_chemical_formula_structural   CuAs4(H5O8)2
_chemical_formula_sum   'Cu1 As4 H10 O16'
_cell_volume   341.05936149
_cell_formula_units_Z   1
loop_
 _symmetry_equiv_pos_site_id
 _symmetry_equiv_pos_as_xyz
  1  'x, y, z'
loop_
 _atom_site_type_symbol
 _atom_site_label
 _atom_site_symmetry_multiplicity
 _atom_site_fract_x
 _atom_site_fract_y
 _atom_site_fract_z
 _atom_site_occupancy
  Cu  Cu0  1  0.00000000  0.00000000  0.00000000  1
  As  As1  1  0.03428600  0.28184500  0.69892200  1
  As  As2  1  0.96571400  0.71815500  0.30107800  1
  As  As3  1  0.42136200  0.81516300  0.79749900  1
  As  As4  1  0.57863800  0.18483700  0.20250100  1
  H  H5  1  0.11029000  0.10735000  0.44160300  1
  H  H6  1  0.88971000  0.89265000  0.55839700  1
  H  H7  1  0.98497100  0.59156900  0.77626800  1
  H  H8  1  0.01502900  0.40843100  0.22373200  1
  H  H9  1  0.31390900  0.28404400  0.92583800  1
  H  H10  1  0.68609100  0.71595600  0.07416200  1
  H  H11  1  0.57605900  0.54764200  0.66435700  1
  H  H12  1  0.42394100  0.45235800  0.33564300  1
  H  H13  1  0.59105300  0.03901000  0.70385600  1
  H  H14  1  0.40894700  0.96099000  0.29614400  1
  O  O15  1  0.86842900  0.47361100  0.72555000  1
  O  O16  1  0.13157100  0.52638900  0.27445000  1
  O  O17  1  0.12038200  0.24150100  0.50565400  1
  O  O18  1  0.87961800  0.75849900  0.49434600  1
  O  O19  1  0.87134400  0.09684100  0.71188100  1
  O  O20  1  0.12865600  0.90315900  0.28811900  1
  O  O21  1  0.29537400  0.36453900  0.85275000  1
  O  O22  1  0.70462600  0.63546100  0.14725000  1
  O  O23  1  0.67488900  0.84889400  0.95119300  1
  O  O24  1  0.32511100  0.15110600  0.04880700  1
  O  O25  1  0.41897600  0.60435800  0.64654700  1
  O  O26  1  0.58102400  0.39564200  0.35345300  1
  O  O27  1  0.14066400  0.79447600  0.85919400  1
  O  O28  1  0.85933600  0.20552400  0.14080600  1
  O  O29  1  0.41614000  0.97955700  0.69654300  1
  O  O30  1  0.58386000  0.02044300  0.30345700  1
