# generated using pymatgen
data_CaFe3Si2HO9
_symmetry_space_group_name_H-M   'P 1'
_cell_length_a   5.91470400
_cell_length_b   8.90872800
_cell_length_c   13.17787300
_cell_angle_alpha   90.00000000
_cell_angle_beta   90.00000000
_cell_angle_gamma   90.00000000
_symmetry_Int_Tables_number   1
_chemical_formula_structural   CaFe3Si2HO9
_chemical_formula_sum   'Ca4 Fe12 Si8 H4 O36'
_cell_volume   694.37492989
_cell_formula_units_Z   4
loop_
 _symmetry_equiv_pos_site_id
 _symmetry_equiv_pos_as_xyz
  1  'x, y, z'
loop_
 _atom_site_type_symbol
 _atom_site_label
 _atom_site_symmetry_multiplicity
 _atom_site_fract_x
 _atom_site_fract_y
 _atom_site_fract_z
 _atom_site_occupancy
  Ca  Ca0  1  0.75000000  0.13072100  0.68708700  1
  Ca  Ca1  1  0.75000000  0.36927900  0.18708700  1
  Ca  Ca2  1  0.25000000  0.86927900  0.31291300  1
  Ca  Ca3  1  0.25000000  0.63072100  0.81291300  1
  Fe  Fe4  1  0.01089800  0.44927900  0.60998600  1
  Fe  Fe5  1  0.48910200  0.05072100  0.10998600  1
  Fe  Fe6  1  0.51089800  0.55072100  0.39001400  1
  Fe  Fe7  1  0.98910200  0.94927900  0.89001400  1
  Fe  Fe8  1  0.98910200  0.55072100  0.39001400  1
  Fe  Fe9  1  0.51089800  0.94927900  0.89001400  1
  Fe  Fe10  1  0.48910200  0.44927900  0.60998600  1
  Fe  Fe11  1  0.01089800  0.05072100  0.10998600  1
  Fe  Fe12  1  0.25000000  0.75945200  0.55861700  1
  Fe  Fe13  1  0.25000000  0.74054800  0.05861700  1
  Fe  Fe14  1  0.75000000  0.24054800  0.44138300  1
  Fe  Fe15  1  0.75000000  0.25945200  0.94138300  1
  Si  Si16  1  0.25000000  0.13086700  0.54063700  1
  Si  Si17  1  0.25000000  0.36913300  0.04063700  1
  Si  Si18  1  0.75000000  0.86913300  0.45936300  1
  Si  Si19  1  0.75000000  0.63086700  0.95936300  1
  Si  Si20  1  0.25000000  0.27251100  0.82092000  1
  Si  Si21  1  0.25000000  0.22748900  0.32092000  1
  Si  Si22  1  0.75000000  0.72748900  0.17908000  1
  Si  Si23  1  0.75000000  0.77251100  0.67908000  1
  H  H24  1  0.75000000  0.43471900  0.77184300  1
  H  H25  1  0.75000000  0.06528100  0.27184300  1
  H  H26  1  0.25000000  0.56528100  0.22815700  1
  H  H27  1  0.25000000  0.93471900  0.72815700  1
  O  O28  1  0.75000000  0.46870500  0.49089400  1
  O  O29  1  0.75000000  0.03129500  0.99089400  1
  O  O30  1  0.25000000  0.53129500  0.50910600  1
  O  O31  1  0.25000000  0.96870500  0.00910600  1
  O  O32  1  0.01704300  0.22740900  0.56446900  1
  O  O33  1  0.48295700  0.27259100  0.06446900  1
  O  O34  1  0.51704300  0.77259100  0.43553100  1
  O  O35  1  0.98295700  0.72740900  0.93553100  1
  O  O36  1  0.98295700  0.77259100  0.43553100  1
  O  O37  1  0.51704300  0.72740900  0.93553100  1
  O  O38  1  0.48295700  0.22740900  0.56446900  1
  O  O39  1  0.01704300  0.27259100  0.06446900  1
  O  O40  1  0.25000000  0.39119300  0.72345000  1
  O  O41  1  0.25000000  0.10880700  0.22345000  1
  O  O42  1  0.75000000  0.60880700  0.27655000  1
  O  O43  1  0.75000000  0.89119300  0.77655000  1
  O  O44  1  0.01812500  0.17006100  0.82916100  1
  O  O45  1  0.48187500  0.32993900  0.32916100  1
  O  O46  1  0.51812500  0.82993900  0.17083900  1
  O  O47  1  0.98187500  0.67006100  0.67083900  1
  O  O48  1  0.98187500  0.82993900  0.17083900  1
  O  O49  1  0.51812500  0.67006100  0.67083900  1
  O  O50  1  0.48187500  0.17006100  0.82916100  1
  O  O51  1  0.01812500  0.32993900  0.32916100  1
  O  O52  1  0.25000000  0.39901100  0.91513500  1
  O  O53  1  0.25000000  0.10098900  0.41513500  1
  O  O54  1  0.75000000  0.60098900  0.08486500  1
  O  O55  1  0.75000000  0.89901100  0.58486500  1
  O  O56  1  0.75000000  0.47386900  0.89856900  1
  O  O57  1  0.75000000  0.02613100  0.39856900  1
  O  O58  1  0.25000000  0.52613100  0.10143100  1
  O  O59  1  0.25000000  0.97386900  0.60143100  1
  O  O60  1  0.75000000  0.39048800  0.70187800  1
  O  O61  1  0.75000000  0.10951200  0.20187800  1
  O  O62  1  0.25000000  0.60951200  0.29812200  1
  O  O63  1  0.25000000  0.89048800  0.79812200  1
