# generated using pymatgen
data_NaMg2H3(SO4)2
_symmetry_space_group_name_H-M   'P 1'
_cell_length_a   6.39511400
_cell_length_b   7.92725435
_cell_length_c   9.01817556
_cell_angle_alpha   97.58167597
_cell_angle_beta   110.69815129
_cell_angle_gamma   113.57000295
_symmetry_Int_Tables_number   1
_chemical_formula_structural   NaMg2H3(SO4)2
_chemical_formula_sum   'Na2 Mg4 H6 S4 O16'
_cell_volume   371.55173767
_cell_formula_units_Z   2
loop_
 _symmetry_equiv_pos_site_id
 _symmetry_equiv_pos_as_xyz
  1  'x, y, z'
loop_
 _atom_site_type_symbol
 _atom_site_label
 _atom_site_symmetry_multiplicity
 _atom_site_fract_x
 _atom_site_fract_y
 _atom_site_fract_z
 _atom_site_occupancy
  Na  Na0  1  0.45945100  0.83052800  0.09398600  1
  Na  Na1  1  0.54054900  0.16947200  0.90601400  1
  Mg  Mg2  1  0.00000000  0.00000000  0.50000000  1
  Mg  Mg3  1  0.50000000  0.00000000  0.50000000  1
  Mg  Mg4  1  0.82041800  0.82698400  0.81272700  1
  Mg  Mg5  1  0.17958200  0.17301600  0.18727300  1
  H  H6  1  0.61319900  0.71852700  0.50432100  1
  H  H7  1  0.38680100  0.28147300  0.49567900  1
  H  H8  1  0.70892000  0.44041700  0.72639700  1
  H  H9  1  0.29108000  0.55958300  0.27360300  1
  H  H10  1  0.45951800  0.44057700  0.72755600  1
  H  H11  1  0.54048200  0.55942300  0.27244400  1
  S  S12  1  0.93394400  0.70444500  0.16264100  1
  S  S13  1  0.06605600  0.29555500  0.83735900  1
  S  S14  1  0.77039600  0.25339300  0.29234200  1
  S  S15  1  0.22960400  0.74660700  0.70765800  1
  O  O16  1  0.81972400  0.75270700  0.27772700  1
  O  O17  1  0.18027600  0.24729300  0.72227300  1
  O  O18  1  0.78957800  0.24760500  0.72152200  1
  O  O19  1  0.21042200  0.75239500  0.27847800  1
  O  O20  1  0.97129500  0.86410900  0.07676100  1
  O  O21  1  0.02870500  0.13589100  0.92323900  1
  O  O22  1  0.72816200  0.08453400  0.37231500  1
  O  O23  1  0.27183800  0.91546600  0.62768500  1
  O  O24  1  0.50203500  0.80271400  0.83242300  1
  O  O25  1  0.49796500  0.19728600  0.16757700  1
  O  O26  1  0.12877900  0.79642800  0.82888400  1
  O  O27  1  0.87122100  0.20357200  0.17111600  1
  O  O28  1  0.71494200  0.85514500  0.57357600  1
  O  O29  1  0.28505800  0.14485500  0.42642400  1
  O  O30  1  0.61527800  0.51611100  0.71461000  1
  O  O31  1  0.38472200  0.48388900  0.28539000  1
