# generated using pymatgen
data_ZrI4
_symmetry_space_group_name_H-M   'P 1'
_cell_length_a   8.65009000
_cell_length_b   8.72100104
_cell_length_c   27.59240694
_cell_angle_alpha   89.58237972
_cell_angle_beta   85.27414663
_cell_angle_gamma   87.45202448
_symmetry_Int_Tables_number   1
_chemical_formula_structural   ZrI4
_chemical_formula_sum   'Zr4 I16'
_cell_volume   2072.35956908
_cell_formula_units_Z   4
loop_
 _symmetry_equiv_pos_site_id
 _symmetry_equiv_pos_as_xyz
  1  'x, y, z'
loop_
 _atom_site_type_symbol
 _atom_site_label
 _atom_site_symmetry_multiplicity
 _atom_site_fract_x
 _atom_site_fract_y
 _atom_site_fract_z
 _atom_site_occupancy
  Zr  Zr0  1  0.87539800  0.15218100  0.05900200  1
  Zr  Zr1  1  0.12460200  0.84781900  0.94099800  1
  Zr  Zr2  1  0.61143700  0.86251400  0.17343400  1
  Zr  Zr3  1  0.38856300  0.13748600  0.82656600  1
  I  I4  1  0.11871000  0.88773000  0.04584800  1
  I  I5  1  0.88129000  0.11227000  0.95415200  1
  I  I6  1  0.65208600  0.88663900  0.06890700  1
  I  I7  1  0.34791400  0.11336100  0.93109300  1
  I  I8  1  0.87108200  0.09262500  0.16239700  1
  I  I9  1  0.12891800  0.90737500  0.83760300  1
  I  I10  1  0.80477800  0.68288400  0.22462300  1
  I  I11  1  0.19522200  0.31711600  0.77537700  1
  I  I12  1  0.10541200  0.35474900  0.06206200  1
  I  I13  1  0.89458800  0.64525100  0.93793800  1
  I  I14  1  0.62517200  0.35308200  0.05644400  1
  I  I15  1  0.37482800  0.64691800  0.94355600  1
  I  I16  1  0.43820600  0.07730900  0.22712100  1
  I  I17  1  0.56179400  0.92269100  0.77287900  1
  I  I18  1  0.38900800  0.65596900  0.16170900  1
  I  I19  1  0.61099200  0.34403100  0.83829100  1
