# generated using pymatgen
data_Ge2N2O
_symmetry_space_group_name_H-M   'P 1'
_cell_length_a   3.05444400
_cell_length_b   6.37692731
_cell_length_c   5.77413502
_cell_angle_alpha   76.49807564
_cell_angle_beta   90.00000000
_cell_angle_gamma   76.14345022
_symmetry_Int_Tables_number   1
_chemical_formula_structural   Ge2N2O
_chemical_formula_sum   'Ge4 N4 O2'
_cell_volume   105.99106329
_cell_formula_units_Z   2
loop_
 _symmetry_equiv_pos_site_id
 _symmetry_equiv_pos_as_xyz
  1  'x, y, z'
loop_
 _atom_site_type_symbol
 _atom_site_label
 _atom_site_symmetry_multiplicity
 _atom_site_fract_x
 _atom_site_fract_y
 _atom_site_fract_z
 _atom_site_occupancy
  Ge  Ge0  1  0.08361200  0.83277400  0.78860900  1
  Ge  Ge1  1  0.65708600  0.68582700  0.33510900  1
  Ge  Ge2  1  0.34291400  0.31417300  0.66489100  1
  Ge  Ge3  1  0.91638800  0.16722600  0.21139100  1
  N  N4  1  0.50125500  0.99748900  0.74967500  1
  N  N5  1  0.17587900  0.64824100  0.57167800  1
  N  N6  1  0.82412100  0.35175900  0.42832200  1
  N  N7  1  0.49874500  0.00251100  0.25032500  1
  O  O8  1  0.16324200  0.67351700  0.10360100  1
  O  O9  1  0.83675800  0.32648300  0.89639900  1
