# generated using pymatgen
data_Ce2Sn5
_symmetry_space_group_name_H-M   'P 1'
_cell_length_a   17.53071534
_cell_length_b   17.53071534
_cell_length_c   4.66437700
_cell_angle_alpha   90.00000000
_cell_angle_beta   90.00000000
_cell_angle_gamma   164.80284310
_symmetry_Int_Tables_number   1
_chemical_formula_structural   Ce2Sn5
_chemical_formula_sum   'Ce4 Sn10'
_cell_volume   375.77541046
_cell_formula_units_Z   2
loop_
 _symmetry_equiv_pos_site_id
 _symmetry_equiv_pos_as_xyz
  1  'x, y, z'
loop_
 _atom_site_type_symbol
 _atom_site_label
 _atom_site_symmetry_multiplicity
 _atom_site_fract_x
 _atom_site_fract_y
 _atom_site_fract_z
 _atom_site_occupancy
  Ce  Ce0  1  0.43162200  0.56837800  0.00000000  1
  Ce  Ce1  1  0.56837800  0.43162200  0.00000000  1
  Ce  Ce2  1  0.29721900  0.70278100  0.00000000  1
  Ce  Ce3  1  0.70278100  0.29721900  0.00000000  1
  Sn  Sn4  1  0.00000000  0.00000000  0.00000000  1
  Sn  Sn5  1  0.50000000  0.50000000  0.50000000  1
  Sn  Sn6  1  0.13747300  0.86252700  0.00000000  1
  Sn  Sn7  1  0.86252700  0.13747300  0.00000000  1
  Sn  Sn8  1  0.36214000  0.63786000  0.50000000  1
  Sn  Sn9  1  0.63786000  0.36214000  0.50000000  1
  Sn  Sn10  1  0.07042700  0.92957300  0.50000000  1
  Sn  Sn11  1  0.92957300  0.07042700  0.50000000  1
  Sn  Sn12  1  0.21985200  0.78014800  0.50000000  1
  Sn  Sn13  1  0.78014800  0.21985200  0.50000000  1
