# generated using pymatgen
data_NaMn3F10
_symmetry_space_group_name_H-M   'P 1'
_cell_length_a   10.42616047
_cell_length_b   8.81496003
_cell_length_c   7.68163054
_cell_angle_alpha   78.06513672
_cell_angle_beta   55.81110006
_cell_angle_gamma   46.12376322
_symmetry_Int_Tables_number   1
_chemical_formula_structural   NaMn3F10
_chemical_formula_sum   'Na2 Mn6 F20'
_cell_volume   400.71931671
_cell_formula_units_Z   2
loop_
 _symmetry_equiv_pos_site_id
 _symmetry_equiv_pos_as_xyz
  1  'x, y, z'
loop_
 _atom_site_type_symbol
 _atom_site_label
 _atom_site_symmetry_multiplicity
 _atom_site_fract_x
 _atom_site_fract_y
 _atom_site_fract_z
 _atom_site_occupancy
  Na  Na0  1  0.98611700  0.01388300  0.01388300  1
  Na  Na1  1  0.23611700  0.26388300  0.26388300  1
  Mn  Mn2  1  0.50538500  0.49461500  0.49461500  1
  Mn  Mn3  1  0.75538500  0.74461500  0.74461500  1
  Mn  Mn4  1  0.25817600  0.24235600  0.74123400  1
  Mn  Mn5  1  0.75823400  0.74123400  0.24235600  1
  Mn  Mn6  1  0.50876600  0.49176600  0.99182400  1
  Mn  Mn7  1  0.00764400  0.99182400  0.49176600  1
  F  F8  1  0.14885700  0.12418100  0.84463000  1
  F  F9  1  0.88233200  0.84463000  0.12418100  1
  F  F10  1  0.40537000  0.36766800  0.10114300  1
  F  F11  1  0.12581900  0.10114300  0.36766800  1
  F  F12  1  0.80863500  0.19918900  0.78405600  1
  F  F13  1  0.20811900  0.78405600  0.19918900  1
  F  F14  1  0.46594400  0.04188100  0.44136500  1
  F  F15  1  0.05081100  0.44136500  0.04188100  1
  F  F16  1  0.84185900  0.65478600  0.46386600  1
  F  F17  1  0.03948900  0.46386600  0.65478600  1
  F  F18  1  0.78613400  0.21051100  0.40814100  1
  F  F19  1  0.59521400  0.40814100  0.21051100  1
  F  F20  1  0.63540700  0.63062800  0.36442700  1
  F  F21  1  0.36953700  0.36442700  0.63062800  1
  F  F22  1  0.88557300  0.88046300  0.61459300  1
  F  F23  1  0.61937200  0.61459300  0.88046300  1
  F  F24  1  0.47744600  0.02447300  0.82487400  1
  F  F25  1  0.67320700  0.82487400  0.02447300  1
  F  F26  1  0.42512600  0.57679300  0.77255400  1
  F  F27  1  0.22552700  0.77255400  0.57679300  1
