# generated using pymatgen
data_VO2
_symmetry_space_group_name_H-M   'P 1'
_cell_length_a   6.47350591
_cell_length_b   6.47350591
_cell_length_c   6.49009608
_cell_angle_alpha   73.84422003
_cell_angle_beta   73.84422003
_cell_angle_gamma   33.64219757
_symmetry_Int_Tables_number   1
_chemical_formula_structural   VO2
_chemical_formula_sum   'V4 O8'
_cell_volume   144.16941364
_cell_formula_units_Z   4
loop_
 _symmetry_equiv_pos_site_id
 _symmetry_equiv_pos_as_xyz
  1  'x, y, z'
loop_
 _atom_site_type_symbol
 _atom_site_label
 _atom_site_symmetry_multiplicity
 _atom_site_fract_x
 _atom_site_fract_y
 _atom_site_fract_z
 _atom_site_occupancy
  V  V0  1  0.30381900  0.30381900  0.27562300  1
  V  V1  1  0.69618100  0.69618100  0.72437700  1
  V  V2  1  0.39880100  0.39880100  0.68528700  1
  V  V3  1  0.60119900  0.60119900  0.31471300  1
  O  O4  1  0.36087200  0.36087200  0.00419000  1
  O  O5  1  0.63912800  0.63912800  0.99581000  1
  O  O6  1  0.23787400  0.23787400  0.64900600  1
  O  O7  1  0.76212600  0.76212600  0.35099400  1
  O  O8  1  0.44253400  0.44253400  0.36840700  1
  O  O9  1  0.55746600  0.55746600  0.63159300  1
  O  O10  1  0.13468600  0.13468600  0.29918200  1
  O  O11  1  0.86531400  0.86531400  0.70081800  1
