# generated using pymatgen
data_LaAl33O51
_symmetry_space_group_name_H-M   'P 1'
_cell_length_a   9.80311158
_cell_length_b   9.80311158
_cell_length_c   11.80250334
_cell_angle_alpha   82.01394646
_cell_angle_beta   82.01394646
_cell_angle_gamma   120.11871400
_symmetry_Int_Tables_number   1
_chemical_formula_structural   LaAl33O51
_chemical_formula_sum   'La1 Al33 O51'
_cell_volume   942.31973298
_cell_formula_units_Z   1
loop_
 _symmetry_equiv_pos_site_id
 _symmetry_equiv_pos_as_xyz
  1  'x, y, z'
loop_
 _atom_site_type_symbol
 _atom_site_label
 _atom_site_symmetry_multiplicity
 _atom_site_fract_x
 _atom_site_fract_y
 _atom_site_fract_z
 _atom_site_occupancy
  La  La0  1  0.00000000  0.00000000  0.50000000  1
  Al  Al1  1  0.66577000  0.33423000  0.00000000  1
  Al  Al2  1  0.57017700  0.23859500  0.78409800  1
  Al  Al3  1  0.24054700  0.07220800  0.78316800  1
  Al  Al4  1  0.42742900  0.26202300  0.21553200  1
  Al  Al5  1  0.00000000  0.00000000  0.00000000  1
  Al  Al6  1  0.11829400  0.78097300  0.64978900  1
  Al  Al7  1  0.01768200  0.68286400  0.95032400  1
  Al  Al8  1  0.31713600  0.98231800  0.04967600  1
  Al  Al9  1  0.21902700  0.88170600  0.35021100  1
  Al  Al10  1  0.07220800  0.24054700  0.78316800  1
  Al  Al11  1  0.09985900  0.09985900  0.20510700  1
  Al  Al12  1  0.90014100  0.90014100  0.79489300  1
  Al  Al13  1  0.92779200  0.75945300  0.21683200  1
  Al  Al14  1  0.98231800  0.31713600  0.04967600  1
  Al  Al15  1  0.78097300  0.11829400  0.64978900  1
  Al  Al16  1  0.88170600  0.21902700  0.35021100  1
  Al  Al17  1  0.68286400  0.01768200  0.95032400  1
  Al  Al18  1  0.73797700  0.57257100  0.78446800  1
  Al  Al19  1  0.57257100  0.73797700  0.78446800  1
  Al  Al20  1  0.76140500  0.42982300  0.21590200  1
  Al  Al21  1  0.75945300  0.92779200  0.21683200  1
  Al  Al22  1  0.59533900  0.09432200  0.21478400  1
  Al  Al23  1  0.54792000  0.54792000  0.35273900  1
  Al  Al24  1  0.65027200  0.65027200  0.05268600  1
  Al  Al25  1  0.34972800  0.34972800  0.94731400  1
  Al  Al26  1  0.33423000  0.66577000  0.00000000  1
  Al  Al27  1  0.45208000  0.45208000  0.64726100  1
  Al  Al28  1  0.40466100  0.90567800  0.78521600  1
  Al  Al29  1  0.42982300  0.76140500  0.21590200  1
  Al  Al30  1  0.23859500  0.57017700  0.78409800  1
  Al  Al31  1  0.26202300  0.42742900  0.21553200  1
  Al  Al32  1  0.90567800  0.40466100  0.78521600  1
  Al  Al33  1  0.09432200  0.59533900  0.21478400  1
  O  O34  1  0.57102000  0.23775500  0.28350500  1
  O  O35  1  0.36931600  0.03523400  0.88888100  1
  O  O36  1  0.42844400  0.26231500  0.71203500  1
  O  O37  1  0.47264900  0.14222600  0.10146800  1
  O  O38  1  0.26302800  0.92937100  0.71012000  1
  O  O39  1  0.18703300  0.18703300  0.89867100  1
  O  O40  1  0.14266300  0.85733700  0.50000000  1
  O  O41  1  0.03181600  0.87596600  0.89931800  1
  O  O42  1  0.09172300  0.09172300  0.70887000  1
  O  O43  1  0.22820000  0.07042800  0.29770200  1
  O  O44  1  0.29423700  0.29423700  0.11021100  1
  O  O45  1  0.87596600  0.03181600  0.89931800  1
  O  O46  1  0.92937100  0.26302800  0.71012000  1
  O  O47  1  0.07042800  0.22820000  0.29770200  1
  O  O48  1  0.07062900  0.73697200  0.28988000  1
  O  O49  1  0.92957200  0.77180000  0.70229800  1
  O  O50  1  0.85777400  0.52735100  0.89853200  1
  O  O51  1  0.12403400  0.96818400  0.10068200  1
  O  O52  1  0.85733700  0.14266300  0.50000000  1
  O  O53  1  0.69861200  0.20966200  0.90118800  1
  O  O54  1  0.96818400  0.12403400  0.10068200  1
  O  O55  1  0.70576300  0.70576300  0.88978900  1
  O  O56  1  0.77180000  0.92957200  0.70229800  1
  O  O57  1  0.76224500  0.42898000  0.71649500  1
  O  O58  1  0.96476600  0.63068400  0.11111900  1
  O  O59  1  0.90827700  0.90827700  0.29113000  1
  O  O60  1  0.54246700  0.36651700  0.90086700  1
  O  O61  1  0.81296700  0.81296700  0.10132900  1
  O  O62  1  0.59986500  0.59986500  0.71000000  1
  O  O63  1  0.73768500  0.57155600  0.28796500  1
  O  O64  1  0.73697200  0.07062900  0.28988000  1
  O  O65  1  0.59510600  0.09761300  0.70806100  1
  O  O66  1  0.52735100  0.85777400  0.89853200  1
  O  O67  1  0.79033800  0.30138800  0.09881200  1
  O  O68  1  0.50000000  0.50000000  0.50000000  1
  O  O69  1  0.63348300  0.45753300  0.09913300  1
  O  O70  1  0.36651700  0.54246700  0.90086700  1
  O  O71  1  0.63068400  0.96476600  0.11111900  1
  O  O72  1  0.57155600  0.73768500  0.28796500  1
  O  O73  1  0.42898000  0.76224500  0.71649500  1
  O  O74  1  0.20966200  0.69861200  0.90118800  1
  O  O75  1  0.40489400  0.90238700  0.29193900  1
  O  O76  1  0.40013500  0.40013500  0.29000000  1
  O  O77  1  0.26231500  0.42844400  0.71203500  1
  O  O78  1  0.45753300  0.63348300  0.09913300  1
  O  O79  1  0.30138800  0.79033800  0.09881200  1
  O  O80  1  0.03523400  0.36931600  0.88888100  1
  O  O81  1  0.23775500  0.57102000  0.28350500  1
  O  O82  1  0.09761300  0.59510600  0.70806100  1
  O  O83  1  0.14222600  0.47264900  0.10146800  1
  O  O84  1  0.90238700  0.40489400  0.29193900  1
