# generated using pymatgen
data_K2Th(MoO4)3
_symmetry_space_group_name_H-M   'P 1'
_cell_length_a   11.14043851
_cell_length_b   11.14043851
_cell_length_c   5.54003850
_cell_angle_alpha   79.67516634
_cell_angle_beta   79.67516634
_cell_angle_gamma   66.03477795
_symmetry_Int_Tables_number   1
_chemical_formula_structural   K2Th(MoO4)3
_chemical_formula_sum   'K4 Th2 Mo6 O24'
_cell_volume   613.77607340
_cell_formula_units_Z   2
loop_
 _symmetry_equiv_pos_site_id
 _symmetry_equiv_pos_as_xyz
  1  'x, y, z'
loop_
 _atom_site_type_symbol
 _atom_site_label
 _atom_site_symmetry_multiplicity
 _atom_site_fract_x
 _atom_site_fract_y
 _atom_site_fract_z
 _atom_site_occupancy
  K  K0  1  0.43118800  0.19835900  0.48887400  1
  K  K1  1  0.80164100  0.56881200  0.01112600  1
  K  K2  1  0.56881200  0.80164100  0.51112600  1
  K  K3  1  0.19835900  0.43118800  0.98887400  1
  Th  Th4  1  0.13150400  0.86849600  0.75000000  1
  Th  Th5  1  0.86849600  0.13150400  0.25000000  1
  Mo  Mo6  1  0.40284000  0.59716000  0.75000000  1
  Mo  Mo7  1  0.59716000  0.40284000  0.25000000  1
  Mo  Mo8  1  0.25368800  0.04195500  0.12683000  1
  Mo  Mo9  1  0.95804500  0.74631200  0.37317000  1
  Mo  Mo10  1  0.74631200  0.95804500  0.87317000  1
  Mo  Mo11  1  0.04195500  0.25368800  0.62683000  1
  O  O12  1  0.11468000  0.02058900  0.36792500  1
  O  O13  1  0.97941100  0.88532000  0.13207500  1
  O  O14  1  0.88532000  0.97941100  0.63207500  1
  O  O15  1  0.02058900  0.11468000  0.86792500  1
  O  O16  1  0.54500400  0.59304200  0.86365400  1
  O  O17  1  0.40695800  0.45499600  0.63634600  1
  O  O18  1  0.45499600  0.40695800  0.13634600  1
  O  O19  1  0.59304200  0.54500400  0.36365400  1
  O  O20  1  0.22593600  0.18962400  0.91684000  1
  O  O21  1  0.81037600  0.77406400  0.58316000  1
  O  O22  1  0.77406400  0.81037600  0.08316000  1
  O  O23  1  0.18962400  0.22593600  0.41684000  1
  O  O24  1  0.40173700  0.99942000  0.24916300  1
  O  O25  1  0.00058000  0.59826300  0.25083700  1
  O  O26  1  0.59826300  0.00058000  0.75083700  1
  O  O27  1  0.99942000  0.40173700  0.74916300  1
  O  O28  1  0.33850000  0.75123300  0.53687700  1
  O  O29  1  0.24876700  0.66150000  0.96312300  1
  O  O30  1  0.66150000  0.24876700  0.46312300  1
  O  O31  1  0.75123300  0.33850000  0.03687700  1
  O  O32  1  0.71693600  0.08097800  0.07545100  1
  O  O33  1  0.91902200  0.28306400  0.42454900  1
  O  O34  1  0.28306400  0.91902200  0.92454900  1
  O  O35  1  0.08097800  0.71693600  0.57545100  1
