# generated using pymatgen
data_Te3Pt2
_symmetry_space_group_name_H-M   'P 1'
_cell_length_a   17.69118088
_cell_length_b   17.69118088
_cell_length_c   17.69118122
_cell_angle_alpha   13.18044610
_cell_angle_beta   13.18044610
_cell_angle_gamma   13.18044562
_symmetry_Int_Tables_number   1
_chemical_formula_structural   Te3Pt2
_chemical_formula_sum   'Te6 Pt4'
_cell_volume   250.41049869
_cell_formula_units_Z   2
loop_
 _symmetry_equiv_pos_site_id
 _symmetry_equiv_pos_as_xyz
  1  'x, y, z'
loop_
 _atom_site_type_symbol
 _atom_site_label
 _atom_site_symmetry_multiplicity
 _atom_site_fract_x
 _atom_site_fract_y
 _atom_site_fract_z
 _atom_site_occupancy
  Te  Te0  1  0.03701700  0.03701700  0.03701700  1
  Te  Te1  1  0.96298300  0.96298300  0.96298300  1
  Te  Te2  1  0.14256200  0.14256200  0.14256200  1
  Te  Te3  1  0.85743800  0.85743800  0.85743800  1
  Te  Te4  1  0.24289500  0.24289500  0.24289500  1
  Te  Te5  1  0.75710500  0.75710500  0.75710500  1
  Pt  Pt6  1  0.34744200  0.34744200  0.34744200  1
  Pt  Pt7  1  0.65255800  0.65255800  0.65255800  1
  Pt  Pt8  1  0.45014200  0.45014200  0.45014200  1
  Pt  Pt9  1  0.54985800  0.54985800  0.54985800  1
