# generated using pymatgen
data_Hg9(PO4)4
_symmetry_space_group_name_H-M   'P 1'
_cell_length_a   10.39894170
_cell_length_b   10.39894170
_cell_length_c   10.39894093
_cell_angle_alpha   108.46393720
_cell_angle_beta   108.46393720
_cell_angle_gamma   108.46393568
_symmetry_Int_Tables_number   1
_chemical_formula_structural   Hg9(PO4)4
_chemical_formula_sum   'Hg18 P8 O32'
_cell_volume   896.48677076
_cell_formula_units_Z   2
loop_
 _symmetry_equiv_pos_site_id
 _symmetry_equiv_pos_as_xyz
  1  'x, y, z'
loop_
 _atom_site_type_symbol
 _atom_site_label
 _atom_site_symmetry_multiplicity
 _atom_site_fract_x
 _atom_site_fract_y
 _atom_site_fract_z
 _atom_site_occupancy
  Hg  Hg0  1  0.45619300  0.40461900  0.17919100  1
  Hg  Hg1  1  0.40461900  0.17919100  0.45619300  1
  Hg  Hg2  1  0.17919100  0.45619300  0.40461900  1
  Hg  Hg3  1  0.90461900  0.95619300  0.67919100  1
  Hg  Hg4  1  0.95619300  0.67919100  0.90461900  1
  Hg  Hg5  1  0.67919100  0.90461900  0.95619300  1
  Hg  Hg6  1  0.28083600  0.18073800  0.65214700  1
  Hg  Hg7  1  0.18073800  0.65214700  0.28083600  1
  Hg  Hg8  1  0.65214700  0.28083600  0.18073800  1
  Hg  Hg9  1  0.68073800  0.78083600  0.15214700  1
  Hg  Hg10  1  0.78083600  0.15214700  0.68073800  1
  Hg  Hg11  1  0.15214700  0.68073800  0.78083600  1
  Hg  Hg12  1  0.98258200  0.34767600  0.09334700  1
  Hg  Hg13  1  0.34767600  0.09334700  0.98258200  1
  Hg  Hg14  1  0.09334700  0.98258200  0.34767600  1
  Hg  Hg15  1  0.84767600  0.48258200  0.59334700  1
  Hg  Hg16  1  0.48258200  0.59334700  0.84767600  1
  Hg  Hg17  1  0.59334700  0.84767600  0.48258200  1
  P  P18  1  0.17372700  0.37866800  0.88187700  1
  P  P19  1  0.37866800  0.88187700  0.17372700  1
  P  P20  1  0.88187700  0.17372700  0.37866800  1
  P  P21  1  0.87866800  0.67372700  0.38187700  1
  P  P22  1  0.67372700  0.38187700  0.87866800  1
  P  P23  1  0.38187700  0.87866800  0.67372700  1
  P  P24  1  0.05581000  0.05581000  0.05581000  1
  P  P25  1  0.55581000  0.55581000  0.55581000  1
  O  O26  1  0.91722300  0.09004300  0.99160100  1
  O  O27  1  0.09004300  0.99160100  0.91722300  1
  O  O28  1  0.99160100  0.91722300  0.09004300  1
  O  O29  1  0.59004300  0.41722300  0.49160100  1
  O  O30  1  0.41722300  0.49160100  0.59004300  1
  O  O31  1  0.49160100  0.59004300  0.41722300  1
  O  O32  1  0.15773000  0.21582400  0.79354300  1
  O  O33  1  0.21582400  0.79354300  0.15773000  1
  O  O34  1  0.79354300  0.15773000  0.21582400  1
  O  O35  1  0.71582400  0.65773000  0.29354300  1
  O  O36  1  0.65773000  0.29354300  0.71582400  1
  O  O37  1  0.29354300  0.71582400  0.65773000  1
  O  O38  1  0.27970200  0.45391700  0.05626500  1
  O  O39  1  0.45391700  0.05626500  0.27970200  1
  O  O40  1  0.05626500  0.27970200  0.45391700  1
  O  O41  1  0.95391700  0.77970200  0.55626500  1
  O  O42  1  0.77970200  0.55626500  0.95391700  1
  O  O43  1  0.55626500  0.95391700  0.77970200  1
  O  O44  1  0.01327900  0.36255700  0.86695100  1
  O  O45  1  0.36255700  0.86695100  0.01327900  1
  O  O46  1  0.86695100  0.01327900  0.36255700  1
  O  O47  1  0.86255700  0.51327900  0.36695100  1
  O  O48  1  0.51327900  0.36695100  0.86255700  1
  O  O49  1  0.36695100  0.86255700  0.51327900  1
  O  O50  1  0.73238200  0.31175900  0.98229500  1
  O  O51  1  0.31175900  0.98229500  0.73238200  1
  O  O52  1  0.98229500  0.73238200  0.31175900  1
  O  O53  1  0.81175900  0.23238200  0.48229500  1
  O  O54  1  0.23238200  0.48229500  0.81175900  1
  O  O55  1  0.48229500  0.81175900  0.23238200  1
  O  O56  1  0.19548900  0.19548900  0.19548900  1
  O  O57  1  0.69548900  0.69548900  0.69548900  1
