# generated using pymatgen
data_V2Ni(HO2)4
_symmetry_space_group_name_H-M   'P 1'
_cell_length_a   5.64973800
_cell_length_b   10.78896400
_cell_length_c   11.96045500
_cell_angle_alpha   90.00000000
_cell_angle_beta   90.00000000
_cell_angle_gamma   90.00000000
_symmetry_Int_Tables_number   1
_chemical_formula_structural   V2Ni(HO2)4
_chemical_formula_sum   'V8 Ni4 H16 O32'
_cell_volume   729.04738034
_cell_formula_units_Z   4
loop_
 _symmetry_equiv_pos_site_id
 _symmetry_equiv_pos_as_xyz
  1  'x, y, z'
loop_
 _atom_site_type_symbol
 _atom_site_label
 _atom_site_symmetry_multiplicity
 _atom_site_fract_x
 _atom_site_fract_y
 _atom_site_fract_z
 _atom_site_occupancy
  V  V0  1  0.19777800  0.53169000  0.32555300  1
  V  V1  1  0.69777800  0.96831000  0.17444700  1
  V  V2  1  0.80222200  0.03169000  0.67444700  1
  V  V3  1  0.30222200  0.46831000  0.82555300  1
  V  V4  1  0.80222200  0.46831000  0.67444700  1
  V  V5  1  0.30222200  0.03169000  0.82555300  1
  V  V6  1  0.19777800  0.96831000  0.32555300  1
  V  V7  1  0.69777800  0.53169000  0.17444700  1
  Ni  Ni8  1  0.02029000  0.25000000  0.45896800  1
  Ni  Ni9  1  0.52029000  0.25000000  0.04103200  1
  Ni  Ni10  1  0.97971000  0.75000000  0.54103200  1
  Ni  Ni11  1  0.47971000  0.75000000  0.95896800  1
  H  H12  1  0.37067600  0.32227000  0.59226200  1
  H  H13  1  0.87067600  0.17773000  0.90773800  1
  H  H14  1  0.62932400  0.82227000  0.40773800  1
  H  H15  1  0.12932400  0.67773000  0.09226200  1
  H  H16  1  0.62932400  0.67773000  0.40773800  1
  H  H17  1  0.12932400  0.82227000  0.09226200  1
  H  H18  1  0.37067600  0.17773000  0.59226200  1
  H  H19  1  0.87067600  0.32227000  0.90773800  1
  H  H20  1  0.55957400  0.25000000  0.41430100  1
  H  H21  1  0.05957400  0.25000000  0.08569900  1
  H  H22  1  0.44042600  0.75000000  0.58570000  1
  H  H23  1  0.94042600  0.75000000  0.91430000  1
  H  H24  1  0.68935600  0.25000000  0.29378300  1
  H  H25  1  0.18935600  0.25000000  0.20621700  1
  H  H26  1  0.31064400  0.75000000  0.70621700  1
  H  H27  1  0.81064400  0.75000000  0.79378300  1
  O  O28  1  0.11546300  0.61487200  0.43623300  1
  O  O29  1  0.61546300  0.88512800  0.06376700  1
  O  O30  1  0.88453700  0.11487200  0.56376700  1
  O  O31  1  0.38453700  0.38512800  0.93623300  1
  O  O32  1  0.88453700  0.38512800  0.56376700  1
  O  O33  1  0.38453700  0.11487200  0.93623300  1
  O  O34  1  0.11546300  0.88512800  0.43623300  1
  O  O35  1  0.61546300  0.61487200  0.06376700  1
  O  O36  1  0.16797100  0.37946100  0.35289900  1
  O  O37  1  0.66797100  0.12053900  0.14710100  1
  O  O38  1  0.83202900  0.87946100  0.64710100  1
  O  O39  1  0.33202900  0.62053900  0.85289900  1
  O  O40  1  0.83202900  0.62053900  0.64710100  1
  O  O41  1  0.33202900  0.87946100  0.85289900  1
  O  O42  1  0.16797100  0.12053900  0.35289900  1
  O  O43  1  0.66797100  0.37946100  0.14710100  1
  O  O44  1  0.00617200  0.57242300  0.20754100  1
  O  O45  1  0.50617200  0.92757700  0.29245900  1
  O  O46  1  0.99382800  0.07242300  0.79245900  1
  O  O47  1  0.49382800  0.42757700  0.70754100  1
  O  O48  1  0.99382800  0.42757700  0.79245900  1
  O  O49  1  0.49382800  0.07242300  0.70754100  1
  O  O50  1  0.00617200  0.92757700  0.20754100  1
  O  O51  1  0.50617200  0.57242300  0.29245900  1
  O  O52  1  0.34034300  0.25000000  0.54376000  1
  O  O53  1  0.84034300  0.25000000  0.95624000  1
  O  O54  1  0.65965700  0.75000000  0.45624000  1
  O  O55  1  0.15965700  0.75000000  0.04376000  1
  O  O56  1  0.71121700  0.25000000  0.37502600  1
  O  O57  1  0.21121700  0.25000000  0.12497400  1
  O  O58  1  0.28878300  0.75000000  0.62497400  1
  O  O59  1  0.78878300  0.75000000  0.87502600  1
