# generated using pymatgen
data_BaV2CuO7
_symmetry_space_group_name_H-M   'P 1'
_cell_length_a   5.58664400
_cell_length_b   7.59745400
_cell_length_c   15.35348800
_cell_angle_alpha   90.00000000
_cell_angle_beta   90.00000000
_cell_angle_gamma   90.00000000
_symmetry_Int_Tables_number   1
_chemical_formula_structural   BaV2CuO7
_chemical_formula_sum   'Ba4 V8 Cu4 O28'
_cell_volume   651.66760246
_cell_formula_units_Z   4
loop_
 _symmetry_equiv_pos_site_id
 _symmetry_equiv_pos_as_xyz
  1  'x, y, z'
loop_
 _atom_site_type_symbol
 _atom_site_label
 _atom_site_symmetry_multiplicity
 _atom_site_fract_x
 _atom_site_fract_y
 _atom_site_fract_z
 _atom_site_occupancy
  Ba  Ba0  1  0.25000000  0.88367800  0.29979700  1
  Ba  Ba1  1  0.75000000  0.11632200  0.70020300  1
  Ba  Ba2  1  0.75000000  0.38367800  0.20020300  1
  Ba  Ba3  1  0.25000000  0.61632200  0.79979700  1
  V  V4  1  0.25000000  0.88646900  0.59076100  1
  V  V5  1  0.75000000  0.11353100  0.40923900  1
  V  V6  1  0.75000000  0.38646900  0.90923900  1
  V  V7  1  0.25000000  0.61353100  0.09076100  1
  V  V8  1  0.25000000  0.14295900  0.10674900  1
  V  V9  1  0.75000000  0.85704100  0.89325100  1
  V  V10  1  0.75000000  0.64295900  0.39325100  1
  V  V11  1  0.25000000  0.35704100  0.60674900  1
  Cu  Cu12  1  0.25000000  0.38562400  0.36801400  1
  Cu  Cu13  1  0.75000000  0.61437600  0.63198600  1
  Cu  Cu14  1  0.75000000  0.88562400  0.13198600  1
  Cu  Cu15  1  0.25000000  0.11437600  0.86801400  1
  O  O16  1  0.25000000  0.41758700  0.50365600  1
  O  O17  1  0.75000000  0.58241300  0.49634400  1
  O  O18  1  0.75000000  0.91758700  0.99634400  1
  O  O19  1  0.25000000  0.08241300  0.00365600  1
  O  O20  1  0.25000000  0.11860300  0.62738200  1
  O  O21  1  0.75000000  0.88139700  0.37261800  1
  O  O22  1  0.75000000  0.61860300  0.87261800  1
  O  O23  1  0.25000000  0.38139700  0.12738200  1
  O  O24  1  0.25000000  0.86275200  0.48267300  1
  O  O25  1  0.75000000  0.13724800  0.51732700  1
  O  O26  1  0.75000000  0.36275200  0.01732700  1
  O  O27  1  0.25000000  0.63724800  0.98267300  1
  O  O28  1  0.50152900  0.79718800  0.64229700  1
  O  O29  1  0.00152900  0.20281200  0.35770300  1
  O  O30  1  0.49847100  0.29718800  0.85770300  1
  O  O31  1  0.99847100  0.70281200  0.14229700  1
  O  O32  1  0.49847100  0.20281200  0.35770300  1
  O  O33  1  0.99847100  0.79718800  0.64229700  1
  O  O34  1  0.50152900  0.70281200  0.14229700  1
  O  O35  1  0.00152900  0.29718800  0.85770300  1
  O  O36  1  0.49831100  0.56183200  0.33703400  1
  O  O37  1  0.99831100  0.43816800  0.66296600  1
  O  O38  1  0.50168900  0.06183200  0.16296600  1
  O  O39  1  0.00168900  0.93816800  0.83703400  1
  O  O40  1  0.50168900  0.43816800  0.66296600  1
  O  O41  1  0.00168900  0.56183200  0.33703400  1
  O  O42  1  0.49831100  0.93816800  0.83703400  1
  O  O43  1  0.99831100  0.06183200  0.16296600  1
