# generated using pymatgen
data_KPr(PO3)4
_symmetry_space_group_name_H-M   'P 1'
_cell_length_a   7.51669440
_cell_length_b   7.51669440
_cell_length_c   10.79411491
_cell_angle_alpha   79.33146353
_cell_angle_beta   79.33146353
_cell_angle_gamma   115.41153012
_symmetry_Int_Tables_number   1
_chemical_formula_structural   KPr(PO3)4
_chemical_formula_sum   'K2 Pr2 P8 O24'
_cell_volume   516.74131689
_cell_formula_units_Z   2
loop_
 _symmetry_equiv_pos_site_id
 _symmetry_equiv_pos_as_xyz
  1  'x, y, z'
loop_
 _atom_site_type_symbol
 _atom_site_label
 _atom_site_symmetry_multiplicity
 _atom_site_fract_x
 _atom_site_fract_y
 _atom_site_fract_z
 _atom_site_occupancy
  K  K0  1  0.68385500  0.31614500  0.75000000  1
  K  K1  1  0.31614500  0.68385500  0.25000000  1
  Pr  Pr2  1  0.62112700  0.37887300  0.25000000  1
  Pr  Pr3  1  0.37887300  0.62112700  0.75000000  1
  P  P4  1  0.12656900  0.78806000  0.00026600  1
  P  P5  1  0.21194000  0.87343100  0.49973400  1
  P  P6  1  0.87343100  0.21194000  0.99973400  1
  P  P7  1  0.78806000  0.12656900  0.50026600  1
  P  P8  1  0.75956200  0.80500600  0.94449200  1
  P  P9  1  0.19499400  0.24043800  0.55550800  1
  P  P10  1  0.24043800  0.19499400  0.05550800  1
  P  P11  1  0.80500600  0.75956200  0.44449200  1
  O  O12  1  0.30953500  0.80524200  0.90390000  1
  O  O13  1  0.19475800  0.69046500  0.59610000  1
  O  O14  1  0.69046500  0.19475800  0.09610000  1
  O  O15  1  0.80524200  0.30953500  0.40390000  1
  O  O16  1  0.99836600  0.85360100  0.91545500  1
  O  O17  1  0.14639900  0.00163400  0.58454500  1
  O  O18  1  0.00163400  0.14639900  0.08454500  1
  O  O19  1  0.85360100  0.99836600  0.41545500  1
  O  O20  1  0.99322200  0.59310600  0.11285400  1
  O  O21  1  0.40689400  0.00677800  0.38714600  1
  O  O22  1  0.00677800  0.40689400  0.88714600  1
  O  O23  1  0.59310600  0.99322200  0.61285400  1
  O  O24  1  0.21584200  0.96729500  0.07095400  1
  O  O25  1  0.03270500  0.78415800  0.42904600  1
  O  O26  1  0.78415800  0.03270500  0.92904600  1
  O  O27  1  0.96729500  0.21584200  0.57095400  1
  O  O28  1  0.64137900  0.67115700  0.08468800  1
  O  O29  1  0.32884300  0.35862100  0.41531200  1
  O  O30  1  0.35862100  0.32884300  0.91531200  1
  O  O31  1  0.67115700  0.64137900  0.58468800  1
  O  O32  1  0.68754000  0.74059500  0.83251500  1
  O  O33  1  0.25940500  0.31246000  0.66748500  1
  O  O34  1  0.31246000  0.25940500  0.16748500  1
  O  O35  1  0.74059500  0.68754000  0.33251500  1
