# generated using pymatgen
data_Pr5Co19B6
_symmetry_space_group_name_H-M   'P 1'
_cell_length_a   5.13873967
_cell_length_b   5.13873967
_cell_length_c   16.57020400
_cell_angle_alpha   90.00000000
_cell_angle_beta   90.00000000
_cell_angle_gamma   119.99999572
_symmetry_Int_Tables_number   1
_chemical_formula_structural   Pr5Co19B6
_chemical_formula_sum   'Pr5 Co19 B6'
_cell_volume   378.94112380
_cell_formula_units_Z   1
loop_
 _symmetry_equiv_pos_site_id
 _symmetry_equiv_pos_as_xyz
  1  'x, y, z'
loop_
 _atom_site_type_symbol
 _atom_site_label
 _atom_site_symmetry_multiplicity
 _atom_site_fract_x
 _atom_site_fract_y
 _atom_site_fract_z
 _atom_site_occupancy
  Pr  Pr0  1  0.00000000  0.00000000  0.50000000  1
  Pr  Pr1  1  0.00000000  0.00000000  0.29533500  1
  Pr  Pr2  1  0.00000000  0.00000000  0.70466500  1
  Pr  Pr3  1  0.00000000  0.00000000  0.09351500  1
  Pr  Pr4  1  0.00000000  0.00000000  0.90648500  1
  Co  Co5  1  0.50000000  0.00000000  0.41348400  1
  Co  Co6  1  0.50000000  0.50000000  0.41348400  1
  Co  Co7  1  0.00000000  0.50000000  0.41348400  1
  Co  Co8  1  0.50000000  0.00000000  0.58651600  1
  Co  Co9  1  0.50000000  0.50000000  0.58651600  1
  Co  Co10  1  0.00000000  0.50000000  0.58651600  1
  Co  Co11  1  0.33333300  0.66666700  0.29419600  1
  Co  Co12  1  0.66666700  0.33333300  0.29419600  1
  Co  Co13  1  0.66666700  0.33333300  0.70580400  1
  Co  Co14  1  0.33333300  0.66666700  0.70580400  1
  Co  Co15  1  0.50000000  0.00000000  0.17409200  1
  Co  Co16  1  0.50000000  0.50000000  0.17409200  1
  Co  Co17  1  0.00000000  0.50000000  0.17409200  1
  Co  Co18  1  0.50000000  0.00000000  0.82590800  1
  Co  Co19  1  0.50000000  0.50000000  0.82590800  1
  Co  Co20  1  0.00000000  0.50000000  0.82590800  1
  Co  Co21  1  0.50000000  0.00000000  0.00000000  1
  Co  Co22  1  0.50000000  0.50000000  0.00000000  1
  Co  Co23  1  0.00000000  0.50000000  0.00000000  1
  B  B24  1  0.33333300  0.66666700  0.50000000  1
  B  B25  1  0.66666700  0.33333300  0.50000000  1
  B  B26  1  0.33333300  0.66666700  0.08835900  1
  B  B27  1  0.66666700  0.33333300  0.08835900  1
  B  B28  1  0.66666700  0.33333300  0.91164100  1
  B  B29  1  0.33333300  0.66666700  0.91164100  1
