# generated using pymatgen
data_P4O9
_symmetry_space_group_name_H-M   'P 1'
_cell_length_a   10.45276154
_cell_length_b   10.45276154
_cell_length_c   10.45276150
_cell_angle_alpha   57.78498093
_cell_angle_beta   57.78498093
_cell_angle_gamma   57.78497997
_symmetry_Int_Tables_number   1
_chemical_formula_structural   P4O9
_chemical_formula_sum   'P16 O36'
_cell_volume   766.48659528
_cell_formula_units_Z   4
loop_
 _symmetry_equiv_pos_site_id
 _symmetry_equiv_pos_as_xyz
  1  'x, y, z'
loop_
 _atom_site_type_symbol
 _atom_site_label
 _atom_site_symmetry_multiplicity
 _atom_site_fract_x
 _atom_site_fract_y
 _atom_site_fract_z
 _atom_site_occupancy
  P  P0  1  0.57722200  0.57722200  0.57722200  1
  P  P1  1  0.92277800  0.92277800  0.92277800  1
  P  P2  1  0.42277800  0.42277800  0.42277800  1
  P  P3  1  0.07722200  0.07722200  0.07722200  1
  P  P4  1  0.72719800  0.79635400  0.48595300  1
  P  P5  1  0.79635400  0.48595300  0.72719800  1
  P  P6  1  0.48595300  0.72719800  0.79635400  1
  P  P7  1  0.70364600  0.77280200  0.01404700  1
  P  P8  1  0.77280200  0.01404700  0.70364600  1
  P  P9  1  0.01404700  0.70364600  0.77280200  1
  P  P10  1  0.27280200  0.20364600  0.51404700  1
  P  P11  1  0.20364600  0.51404700  0.27280200  1
  P  P12  1  0.51404700  0.27280200  0.20364600  1
  P  P13  1  0.29635400  0.22719800  0.98595300  1
  P  P14  1  0.22719800  0.98595300  0.29635400  1
  P  P15  1  0.98595300  0.29635400  0.22719800  1
  O  O16  1  0.65940200  0.72301800  0.44415100  1
  O  O17  1  0.72301800  0.44415100  0.65940200  1
  O  O18  1  0.44415100  0.65940200  0.72301800  1
  O  O19  1  0.77698200  0.84059800  0.05584900  1
  O  O20  1  0.84059800  0.05584900  0.77698200  1
  O  O21  1  0.05584900  0.77698200  0.84059800  1
  O  O22  1  0.34059800  0.27698200  0.55584900  1
  O  O23  1  0.27698200  0.55584900  0.34059800  1
  O  O24  1  0.55584900  0.34059800  0.27698200  1
  O  O25  1  0.22301800  0.15940200  0.94415100  1
  O  O26  1  0.15940200  0.94415100  0.22301800  1
  O  O27  1  0.94415100  0.22301800  0.15940200  1
  O  O28  1  0.57576000  0.85020300  0.63765200  1
  O  O29  1  0.85020300  0.63765200  0.57576000  1
  O  O30  1  0.63765200  0.57576000  0.85020300  1
  O  O31  1  0.64979700  0.92424000  0.86234800  1
  O  O32  1  0.92424000  0.86234800  0.64979700  1
  O  O33  1  0.86234800  0.64979700  0.92424000  1
  O  O34  1  0.42424000  0.14979700  0.36234800  1
  O  O35  1  0.14979700  0.36234800  0.42424000  1
  O  O36  1  0.36234800  0.42424000  0.14979700  1
  O  O37  1  0.35020300  0.07576000  0.13765200  1
  O  O38  1  0.07576000  0.13765200  0.35020300  1
  O  O39  1  0.13765200  0.35020300  0.07576000  1
  O  O40  1  0.79223000  0.92300600  0.35733400  1
  O  O41  1  0.92300600  0.35733400  0.79223000  1
  O  O42  1  0.35733400  0.79223000  0.92300600  1
  O  O43  1  0.57699400  0.70777000  0.14266600  1
  O  O44  1  0.70777000  0.14266600  0.57699400  1
  O  O45  1  0.14266600  0.57699400  0.70777000  1
  O  O46  1  0.20777000  0.07699400  0.64266600  1
  O  O47  1  0.07699400  0.64266600  0.20777000  1
  O  O48  1  0.64266600  0.20777000  0.07699400  1
  O  O49  1  0.42300600  0.29223000  0.85733400  1
  O  O50  1  0.29223000  0.85733400  0.42300600  1
  O  O51  1  0.85733400  0.42300600  0.29223000  1
