# generated using pymatgen
data_Tl(MoO3)3
_symmetry_space_group_name_H-M   'P 1'
_cell_length_a   8.64807498
_cell_length_b   8.64807498
_cell_length_c   6.57871766
_cell_angle_alpha   87.52736704
_cell_angle_beta   87.52736704
_cell_angle_gamma   53.99084118
_symmetry_Int_Tables_number   1
_chemical_formula_structural   Tl(MoO3)3
_chemical_formula_sum   'Tl2 Mo6 O18'
_cell_volume   397.53712194
_cell_formula_units_Z   2
loop_
 _symmetry_equiv_pos_site_id
 _symmetry_equiv_pos_as_xyz
  1  'x, y, z'
loop_
 _atom_site_type_symbol
 _atom_site_label
 _atom_site_symmetry_multiplicity
 _atom_site_fract_x
 _atom_site_fract_y
 _atom_site_fract_z
 _atom_site_occupancy
  Tl  Tl0  1  0.69849800  0.69849800  0.17705200  1
  Tl  Tl1  1  0.30150200  0.30150200  0.82294800  1
  Mo  Mo2  1  0.88296700  0.88296700  0.63804200  1
  Mo  Mo3  1  0.11703300  0.11703300  0.36195800  1
  Mo  Mo4  1  0.68440700  0.20409900  0.26837800  1
  Mo  Mo5  1  0.79590100  0.31559300  0.73162200  1
  Mo  Mo6  1  0.31559300  0.79590100  0.73162200  1
  Mo  Mo7  1  0.20409900  0.68440700  0.26837800  1
  O  O8  1  0.74832100  0.25167900  0.00000000  1
  O  O9  1  0.25167900  0.74832100  0.00000000  1
  O  O10  1  0.78533200  0.78533200  0.51624900  1
  O  O11  1  0.21466800  0.21466800  0.48375100  1
  O  O12  1  0.85224200  0.85224200  0.89449200  1
  O  O13  1  0.14775800  0.14775800  0.10550800  1
  O  O14  1  0.46332000  0.46332000  0.29591500  1
  O  O15  1  0.53668000  0.53668000  0.70408500  1
  O  O16  1  0.96463800  0.96463800  0.30665500  1
  O  O17  1  0.03536200  0.03536200  0.69334500  1
  O  O18  1  0.57614500  0.09705600  0.21110400  1
  O  O19  1  0.90294400  0.42385500  0.78889600  1
  O  O20  1  0.42385500  0.90294400  0.78889600  1
  O  O21  1  0.09705600  0.57614500  0.21110400  1
  O  O22  1  0.68474700  0.15698900  0.58652700  1
  O  O23  1  0.84301100  0.31525300  0.41347300  1
  O  O24  1  0.31525300  0.84301100  0.41347300  1
  O  O25  1  0.15698900  0.68474700  0.58652700  1
