# generated using pymatgen
data_Ba5Yb8Ni4O21
_symmetry_space_group_name_H-M   'P 1'
_cell_length_a   9.97015491
_cell_length_b   9.97015491
_cell_length_c   9.97015491
_cell_angle_alpha   94.61920278
_cell_angle_beta   94.61920278
_cell_angle_gamma   147.02772493
_symmetry_Int_Tables_number   1
_chemical_formula_structural   Ba5Yb8Ni4O21
_chemical_formula_sum   'Ba5 Yb8 Ni4 O21'
_cell_volume   517.20031604
_cell_formula_units_Z   1
loop_
 _symmetry_equiv_pos_site_id
 _symmetry_equiv_pos_as_xyz
  1  'x, y, z'
loop_
 _atom_site_type_symbol
 _atom_site_label
 _atom_site_symmetry_multiplicity
 _atom_site_fract_x
 _atom_site_fract_y
 _atom_site_fract_z
 _atom_site_occupancy
  Ba  Ba0  1  0.53209400  0.85262400  0.38471800  1
  Ba  Ba1  1  0.85262400  0.46790600  0.32052900  1
  Ba  Ba2  1  0.14737600  0.53209400  0.67947100  1
  Ba  Ba3  1  0.46790600  0.14737600  0.61528200  1
  Ba  Ba4  1  0.00000000  0.00000000  0.00000000  1
  Yb  Yb5  1  0.83014200  0.74950600  0.57964800  1
  Yb  Yb6  1  0.74950600  0.16985800  0.91936400  1
  Yb  Yb7  1  0.25049400  0.83014200  0.08063600  1
  Yb  Yb8  1  0.16985800  0.25049400  0.42035200  1
  Yb  Yb9  1  0.63910400  0.59266200  0.23176600  1
  Yb  Yb10  1  0.59266200  0.36089600  0.95355900  1
  Yb  Yb11  1  0.40733800  0.63910400  0.04644100  1
  Yb  Yb12  1  0.36089600  0.40733800  0.76823400  1
  Ni  Ni13  1  0.75668100  0.95861600  0.71529700  1
  Ni  Ni14  1  0.95861600  0.24331900  0.20193400  1
  Ni  Ni15  1  0.04138400  0.75668100  0.79806600  1
  Ni  Ni16  1  0.24331900  0.04138400  0.28470300  1
  O  O17  1  0.50000000  0.50000000  0.00000000  1
  O  O18  1  0.97478600  0.63871000  0.61349600  1
  O  O19  1  0.63871000  0.02521400  0.66392400  1
  O  O20  1  0.36129000  0.97478600  0.33607600  1
  O  O21  1  0.02521400  0.36129000  0.38650400  1
  O  O22  1  0.50297200  0.63329500  0.59507800  1
  O  O23  1  0.63329500  0.03821700  0.13032200  1
  O  O24  1  0.90789500  0.50297200  0.86967800  1
  O  O25  1  0.03821700  0.90789500  0.40492200  1
  O  O26  1  0.49702800  0.36670500  0.40492200  1
  O  O27  1  0.36670500  0.96178300  0.86967800  1
  O  O28  1  0.09210500  0.49702800  0.13032200  1
  O  O29  1  0.96178300  0.09210500  0.59507800  1
  O  O30  1  0.72680100  0.58166900  0.77447600  1
  O  O31  1  0.58166900  0.80719300  0.85486800  1
  O  O32  1  0.95232400  0.72680100  0.14513200  1
  O  O33  1  0.80719300  0.95232400  0.22552400  1
  O  O34  1  0.27319900  0.41833100  0.22552400  1
  O  O35  1  0.41833100  0.19280700  0.14513200  1
  O  O36  1  0.04767600  0.27319900  0.85486800  1
  O  O37  1  0.19280700  0.04767600  0.77447600  1
