# generated using pymatgen
data_Cu3As4H18C8I3(NO2)2
_symmetry_space_group_name_H-M   'P 1'
_cell_length_a   11.31775772
_cell_length_b   11.31775772
_cell_length_c   11.25749371
_cell_angle_alpha   81.66748147
_cell_angle_beta   81.66748147
_cell_angle_gamma   112.45988730
_symmetry_Int_Tables_number   1
_chemical_formula_structural   Cu3As4H18C8I3(NO2)2
_chemical_formula_sum   'Cu6 As8 H36 C16 I6 N4 O8'
_cell_volume   1286.52683724
_cell_formula_units_Z   2
loop_
 _symmetry_equiv_pos_site_id
 _symmetry_equiv_pos_as_xyz
  1  'x, y, z'
loop_
 _atom_site_type_symbol
 _atom_site_label
 _atom_site_symmetry_multiplicity
 _atom_site_fract_x
 _atom_site_fract_y
 _atom_site_fract_z
 _atom_site_occupancy
  Cu  Cu0  1  0.87385000  0.12615000  0.75000000  1
  Cu  Cu1  1  0.12615000  0.87385000  0.25000000  1
  Cu  Cu2  1  0.14637100  0.45656300  0.74570000  1
  Cu  Cu3  1  0.54343700  0.85362900  0.75430000  1
  Cu  Cu4  1  0.85362900  0.54343700  0.25430000  1
  Cu  Cu5  1  0.45656300  0.14637100  0.24570000  1
  As  As6  1  0.88147600  0.25980900  0.56219700  1
  As  As7  1  0.74019100  0.11852400  0.93780300  1
  As  As8  1  0.11852400  0.74019100  0.43780300  1
  As  As9  1  0.25980900  0.88147600  0.06219700  1
  As  As10  1  0.17096500  0.48237800  0.52954100  1
  As  As11  1  0.51762200  0.82903500  0.97045900  1
  As  As12  1  0.82903500  0.51762200  0.47045900  1
  As  As13  1  0.48237800  0.17096500  0.02954100  1
  H  H14  1  0.86803200  0.12072100  0.40392000  1
  H  H15  1  0.87927900  0.13196800  0.09608000  1
  H  H16  1  0.13196800  0.87927900  0.59608000  1
  H  H17  1  0.12072100  0.86803200  0.90392000  1
  H  H18  1  0.71333500  0.12877800  0.45324200  1
  H  H19  1  0.87122200  0.28666500  0.04675800  1
  H  H20  1  0.28666500  0.87122200  0.54675800  1
  H  H21  1  0.12877800  0.71333500  0.95324200  1
  H  H22  1  0.84396800  0.26558100  0.34578500  1
  H  H23  1  0.73441900  0.15603200  0.15421500  1
  H  H24  1  0.15603200  0.73441900  0.65421500  1
  H  H25  1  0.26558100  0.84396800  0.84578500  1
  H  H26  1  0.40253700  0.50104400  0.46596400  1
  H  H27  1  0.49895600  0.59746300  0.03403600  1
  H  H28  1  0.59746300  0.49895600  0.53403600  1
  H  H29  1  0.50104400  0.40253700  0.96596400  1
  H  H30  1  0.28476900  0.34549900  0.45387900  1
  H  H31  1  0.65450100  0.71523100  0.04612100  1
  H  H32  1  0.71523100  0.65450100  0.54612100  1
  H  H33  1  0.34549900  0.28476900  0.95387900  1
  H  H34  1  0.32309300  0.48921500  0.33776400  1
  H  H35  1  0.51078500  0.67690700  0.16223600  1
  H  H36  1  0.67690700  0.51078500  0.66223600  1
  H  H37  1  0.48921500  0.32309300  0.83776400  1
  H  H38  1  0.84311000  0.66520300  0.82944600  1
  H  H39  1  0.33479700  0.15689000  0.67055400  1
  H  H40  1  0.15689000  0.33479700  0.17055400  1
  H  H41  1  0.66520300  0.84311000  0.32944600  1
  H  H42  1  0.73065300  0.49669700  0.88317600  1
  H  H43  1  0.50330300  0.26934700  0.61682400  1
  H  H44  1  0.26934700  0.50330300  0.11682400  1
  H  H45  1  0.49669700  0.73065300  0.38317600  1
  H  H46  1  0.81634300  0.58345900  0.98655000  1
  H  H47  1  0.41654100  0.18365700  0.51345000  1
  H  H48  1  0.18365700  0.41654100  0.01345000  1
  H  H49  1  0.58345900  0.81634300  0.48655000  1
  C  C50  1  0.81963100  0.18507900  0.42488800  1
  C  C51  1  0.81492100  0.18036900  0.07511200  1
  C  C52  1  0.18036900  0.81492100  0.57511200  1
  C  C53  1  0.18507900  0.81963100  0.92488800  1
  C  C54  1  0.31180900  0.45134900  0.43583000  1
  C  C55  1  0.54865100  0.68819100  0.06417000  1
  C  C56  1  0.68819100  0.54865100  0.56417000  1
  C  C57  1  0.45134900  0.31180900  0.93583000  1
  C  C58  1  0.92768400  0.53059000  0.85640900  1
  C  C59  1  0.46941000  0.07231600  0.64359100  1
  C  C60  1  0.07231600  0.46941000  0.14359100  1
  C  C61  1  0.53059000  0.92768400  0.35640900  1
  C  C62  1  0.82407300  0.57164400  0.89071300  1
  C  C63  1  0.42835600  0.17592700  0.60928700  1
  C  C64  1  0.17592700  0.42835600  0.10928700  1
  C  C65  1  0.57164400  0.82407300  0.39071300  1
  I  I66  1  0.39473300  0.60526700  0.75000000  1
  I  I67  1  0.60526700  0.39473300  0.25000000  1
  I  I68  1  0.10624000  0.20785100  0.80291500  1
  I  I69  1  0.79214900  0.89376000  0.69708500  1
  I  I70  1  0.89376000  0.79214900  0.19708500  1
  I  I71  1  0.20785100  0.10624000  0.30291500  1
  N  N72  1  0.01205800  0.49836100  0.82809000  1
  N  N73  1  0.50163900  0.98794200  0.67191000  1
  N  N74  1  0.98794200  0.50163900  0.17191000  1
  N  N75  1  0.49836100  0.01205800  0.32809000  1
  O  O76  1  0.79372500  0.36442000  0.57869600  1
  O  O77  1  0.63558000  0.20627500  0.92130400  1
  O  O78  1  0.20627500  0.63558000  0.42130400  1
  O  O79  1  0.36442000  0.79372500  0.07869600  1
  O  O80  1  0.04002700  0.37393900  0.46591400  1
  O  O81  1  0.62606100  0.95997300  0.03408600  1
  O  O82  1  0.95997300  0.62606100  0.53408600  1
  O  O83  1  0.37393900  0.04002700  0.96591400  1
