# generated using pymatgen
data_Fe2AgS3
_symmetry_space_group_name_H-M   'P 1'
_cell_length_a   6.30803404
_cell_length_b   6.30803404
_cell_length_c   12.83969900
_cell_angle_alpha   90.00000000
_cell_angle_beta   90.00000000
_cell_angle_gamma   118.67891604
_symmetry_Int_Tables_number   1
_chemical_formula_structural   Fe2AgS3
_chemical_formula_sum   'Fe8 Ag4 S12'
_cell_volume   448.23144979
_cell_formula_units_Z   4
loop_
 _symmetry_equiv_pos_site_id
 _symmetry_equiv_pos_as_xyz
  1  'x, y, z'
loop_
 _atom_site_type_symbol
 _atom_site_label
 _atom_site_symmetry_multiplicity
 _atom_site_fract_x
 _atom_site_fract_y
 _atom_site_fract_z
 _atom_site_occupancy
  Fe  Fe0  1  0.50292400  0.16623800  0.44105900  1
  Fe  Fe1  1  0.66623800  0.00292400  0.05894100  1
  Fe  Fe2  1  0.99707600  0.33376200  0.94105900  1
  Fe  Fe3  1  0.83376200  0.49707600  0.55894100  1
  Fe  Fe4  1  0.49707600  0.83376200  0.55894100  1
  Fe  Fe5  1  0.33376200  0.99707600  0.94105900  1
  Fe  Fe6  1  0.00292400  0.66623800  0.05894100  1
  Fe  Fe7  1  0.16623800  0.50292400  0.44105900  1
  Ag  Ag8  1  0.85064200  0.85064200  0.29501300  1
  Ag  Ag9  1  0.35064200  0.35064200  0.20498700  1
  Ag  Ag10  1  0.64935800  0.64935800  0.79501300  1
  Ag  Ag11  1  0.14935800  0.14935800  0.70498700  1
  S  S12  1  0.70119800  0.70119800  0.11470300  1
  S  S13  1  0.20119800  0.20119800  0.38529700  1
  S  S14  1  0.79880200  0.79880200  0.61470300  1
  S  S15  1  0.29880200  0.29880200  0.88529700  1
  S  S16  1  0.47621200  0.83173700  0.39216000  1
  S  S17  1  0.33173700  0.97621200  0.10784000  1
  S  S18  1  0.02378800  0.66826300  0.89216000  1
  S  S19  1  0.16826300  0.52378800  0.60784000  1
  S  S20  1  0.52378800  0.16826300  0.60784000  1
  S  S21  1  0.66826300  0.02378800  0.89216000  1
  S  S22  1  0.97621200  0.33173700  0.10784000  1
  S  S23  1  0.83173700  0.47621200  0.39216000  1
