# generated using pymatgen
data_Dy5Ga3
_symmetry_space_group_name_H-M   'P 1'
_cell_length_a   8.92186154
_cell_length_b   8.92186154
_cell_length_c   8.92186154
_cell_angle_alpha   129.33388334
_cell_angle_beta   129.33388334
_cell_angle_gamma   74.47393136
_symmetry_Int_Tables_number   1
_chemical_formula_structural   Dy5Ga3
_chemical_formula_sum   'Dy10 Ga6'
_cell_volume   414.05545365
_cell_formula_units_Z   2
loop_
 _symmetry_equiv_pos_site_id
 _symmetry_equiv_pos_as_xyz
  1  'x, y, z'
loop_
 _atom_site_type_symbol
 _atom_site_label
 _atom_site_symmetry_multiplicity
 _atom_site_fract_x
 _atom_site_fract_y
 _atom_site_fract_z
 _atom_site_occupancy
  Dy  Dy0  1  0.50000000  0.50000000  0.00000000  1
  Dy  Dy1  1  0.00000000  0.00000000  0.00000000  1
  Dy  Dy2  1  0.31731700  0.81731700  0.84015800  1
  Dy  Dy3  1  0.81731700  0.97716000  0.50000000  1
  Dy  Dy4  1  0.47716000  0.31731700  0.50000000  1
  Dy  Dy5  1  0.18268300  0.02284000  0.50000000  1
  Dy  Dy6  1  0.52284000  0.68268300  0.50000000  1
  Dy  Dy7  1  0.02284000  0.52284000  0.84015800  1
  Dy  Dy8  1  0.68268300  0.18268300  0.15984200  1
  Dy  Dy9  1  0.97716000  0.47716000  0.15984200  1
  Ga  Ga10  1  0.75000000  0.75000000  0.00000000  1
  Ga  Ga11  1  0.25000000  0.25000000  0.00000000  1
  Ga  Ga12  1  0.37782900  0.87782900  0.25565800  1
  Ga  Ga13  1  0.87782900  0.62217100  0.50000000  1
  Ga  Ga14  1  0.12217100  0.37782900  0.50000000  1
  Ga  Ga15  1  0.62217100  0.12217100  0.74434200  1
