# generated using pymatgen
data_BaGa2(GeO4)2
_symmetry_space_group_name_H-M   'P 1'
_cell_length_a   9.80093881
_cell_length_b   9.80093881
_cell_length_c   9.02411909
_cell_angle_alpha   82.20669063
_cell_angle_beta   82.20669063
_cell_angle_gamma   88.87195032
_symmetry_Int_Tables_number   1
_chemical_formula_structural   BaGa2(GeO4)2
_chemical_formula_sum   'Ba4 Ga8 Ge8 O32'
_cell_volume   850.90279327
_cell_formula_units_Z   4
loop_
 _symmetry_equiv_pos_site_id
 _symmetry_equiv_pos_as_xyz
  1  'x, y, z'
loop_
 _atom_site_type_symbol
 _atom_site_label
 _atom_site_symmetry_multiplicity
 _atom_site_fract_x
 _atom_site_fract_y
 _atom_site_fract_z
 _atom_site_occupancy
  Ba  Ba0  1  0.93274200  0.43343900  0.79225300  1
  Ba  Ba1  1  0.56656100  0.06725800  0.70774700  1
  Ba  Ba2  1  0.06725800  0.56656100  0.20774700  1
  Ba  Ba3  1  0.43343900  0.93274200  0.29225300  1
  Ga  Ga4  1  0.20193300  0.06733300  0.61427500  1
  Ga  Ga5  1  0.93266700  0.79806700  0.88572500  1
  Ga  Ga6  1  0.79806700  0.93266700  0.38572500  1
  Ga  Ga7  1  0.06733300  0.20193300  0.11427500  1
  Ga  Ga8  1  0.70367500  0.44854600  0.47301800  1
  Ga  Ga9  1  0.55145400  0.29632500  0.02698200  1
  Ga  Ga10  1  0.29632500  0.55145400  0.52698200  1
  Ga  Ga11  1  0.44854600  0.70367500  0.97301800  1
  Ge  Ge12  1  0.71194000  0.57160300  0.10315000  1
  Ge  Ge13  1  0.42839700  0.28806000  0.39685000  1
  Ge  Ge14  1  0.28806000  0.42839700  0.89685000  1
  Ge  Ge15  1  0.57160300  0.71194000  0.60315000  1
  Ge  Ge16  1  0.21168200  0.94205200  0.98066300  1
  Ge  Ge17  1  0.05794800  0.78831800  0.51933700  1
  Ge  Ge18  1  0.78831800  0.05794800  0.01933700  1
  Ge  Ge19  1  0.94205200  0.21168200  0.48066300  1
  O  O20  1  0.87232300  0.63011800  0.99720600  1
  O  O21  1  0.36988200  0.12767700  0.50279400  1
  O  O22  1  0.12767700  0.36988200  0.00279400  1
  O  O23  1  0.63011800  0.87232300  0.49720600  1
  O  O24  1  0.85223300  0.35473100  0.54765400  1
  O  O25  1  0.64526900  0.14776700  0.95234600  1
  O  O26  1  0.14776700  0.64526900  0.45234600  1
  O  O27  1  0.35473100  0.85223300  0.04765400  1
  O  O28  1  0.77119500  0.52166700  0.27858000  1
  O  O29  1  0.47833300  0.22880500  0.22142000  1
  O  O30  1  0.22880500  0.47833300  0.72142000  1
  O  O31  1  0.52166700  0.77119500  0.77858000  1
  O  O32  1  0.26789500  0.02620100  0.79778500  1
  O  O33  1  0.97379900  0.73210500  0.70221500  1
  O  O34  1  0.73210500  0.97379900  0.20221500  1
  O  O35  1  0.02620100  0.26789500  0.29778500  1
  O  O36  1  0.57403100  0.68763500  0.11143500  1
  O  O37  1  0.31236500  0.42596900  0.38856500  1
  O  O38  1  0.42596900  0.31236500  0.88856500  1
  O  O39  1  0.68763500  0.57403100  0.61143500  1
  O  O40  1  0.05509000  0.18498900  0.61961900  1
  O  O41  1  0.81501100  0.94491000  0.88038100  1
  O  O42  1  0.94491000  0.81501100  0.38038100  1
  O  O43  1  0.18498900  0.05509000  0.11961900  1
  O  O44  1  0.67919200  0.43572700  0.00135200  1
  O  O45  1  0.56427300  0.32080800  0.49864800  1
  O  O46  1  0.32080800  0.56427300  0.99864800  1
  O  O47  1  0.43572700  0.67919200  0.50135200  1
  O  O48  1  0.17864200  0.92162500  0.50766300  1
  O  O49  1  0.07837500  0.82135800  0.99233700  1
  O  O50  1  0.82135800  0.07837500  0.49233700  1
  O  O51  1  0.92162500  0.17864200  0.00766300  1
