# generated using pymatgen
data_Hg3S2ICl
_symmetry_space_group_name_H-M   'P 1'
_cell_length_a   10.54661549
_cell_length_b   10.54661549
_cell_length_c   13.37740752
_cell_angle_alpha   52.67604603
_cell_angle_beta   52.67604603
_cell_angle_gamma   53.71686375
_symmetry_Int_Tables_number   1
_chemical_formula_structural   Hg3S2ICl
_chemical_formula_sum   'Hg12 S8 I4 Cl4'
_cell_volume   879.86838512
_cell_formula_units_Z   4
loop_
 _symmetry_equiv_pos_site_id
 _symmetry_equiv_pos_as_xyz
  1  'x, y, z'
loop_
 _atom_site_type_symbol
 _atom_site_label
 _atom_site_symmetry_multiplicity
 _atom_site_fract_x
 _atom_site_fract_y
 _atom_site_fract_z
 _atom_site_occupancy
  Hg  Hg0  1  0.71432300  0.28567700  0.50000000  1
  Hg  Hg1  1  0.28567700  0.71432300  0.50000000  1
  Hg  Hg2  1  0.88904600  0.88904600  0.75314500  1
  Hg  Hg3  1  0.11095400  0.11095400  0.24685500  1
  Hg  Hg4  1  0.00000000  0.50000000  0.50000000  1
  Hg  Hg5  1  0.50000000  0.00000000  0.50000000  1
  Hg  Hg6  1  0.59586900  0.59586900  0.78821800  1
  Hg  Hg7  1  0.40413100  0.40413100  0.21178200  1
  Hg  Hg8  1  0.44789800  0.01316300  0.79492200  1
  Hg  Hg9  1  0.98683700  0.55210200  0.20507800  1
  Hg  Hg10  1  0.55210200  0.98683700  0.20507800  1
  Hg  Hg11  1  0.01316300  0.44789800  0.79492200  1
  S  S12  1  0.36945800  0.87971500  0.74761800  1
  S  S13  1  0.12028500  0.63054200  0.25238200  1
  S  S14  1  0.63054200  0.12028500  0.25238200  1
  S  S15  1  0.87971500  0.36945800  0.74761800  1
  S  S16  1  0.62508600  0.13790600  0.74931500  1
  S  S17  1  0.86209400  0.37491400  0.25068500  1
  S  S18  1  0.37491400  0.86209400  0.25068500  1
  S  S19  1  0.13790600  0.62508600  0.74931500  1
  I  I20  1  0.37295000  0.37295000  0.00046700  1
  I  I21  1  0.62705000  0.62705000  0.99953300  1
  I  I22  1  0.12261000  0.12261000  0.50617100  1
  I  I23  1  0.87739000  0.87739000  0.49382900  1
  Cl  Cl24  1  0.14576800  0.14576800  0.97681900  1
  Cl  Cl25  1  0.85423200  0.85423200  0.02318100  1
  Cl  Cl26  1  0.62786100  0.62786100  0.47824300  1
  Cl  Cl27  1  0.37213900  0.37213900  0.52175700  1
