# generated using pymatgen
data_Fe5O7F3
_symmetry_space_group_name_H-M   'P 1'
_cell_length_a   4.67999600
_cell_length_b   4.68722900
_cell_length_c   15.21368200
_cell_angle_alpha   90.00000000
_cell_angle_beta   90.00000000
_cell_angle_gamma   90.00000000
_symmetry_Int_Tables_number   1
_chemical_formula_structural   Fe5O7F3
_chemical_formula_sum   'Fe10 O14 F6'
_cell_volume   333.73056843
_cell_formula_units_Z   2
loop_
 _symmetry_equiv_pos_site_id
 _symmetry_equiv_pos_as_xyz
  1  'x, y, z'
loop_
 _atom_site_type_symbol
 _atom_site_label
 _atom_site_symmetry_multiplicity
 _atom_site_fract_x
 _atom_site_fract_y
 _atom_site_fract_z
 _atom_site_occupancy
  Fe  Fe0  1  0.78077400  0.00939100  0.80602100  1
  Fe  Fe1  1  0.76869200  0.01064800  0.00000000  1
  Fe  Fe2  1  0.78077400  0.00939100  0.19397900  1
  Fe  Fe3  1  0.75967700  0.97815300  0.39943400  1
  Fe  Fe4  1  0.75967700  0.97815300  0.60056600  1
  Fe  Fe5  1  0.24032300  0.47815300  0.89943400  1
  Fe  Fe6  1  0.21922600  0.50939100  0.30602100  1
  Fe  Fe7  1  0.24032300  0.47815300  0.10056600  1
  Fe  Fe8  1  0.23130800  0.51064800  0.50000000  1
  Fe  Fe9  1  0.21922600  0.50939100  0.69397900  1
  O  O10  1  0.95251800  0.80245000  0.90405800  1
  O  O11  1  0.95251800  0.80245000  0.09594200  1
  O  O12  1  0.93772300  0.81578100  0.29689400  1
  O  O13  1  0.93066600  0.80252600  0.50000000  1
  O  O14  1  0.93772300  0.81578100  0.70310600  1
  O  O15  1  0.06227700  0.31578100  0.79689400  1
  O  O16  1  0.06933400  0.30252600  0.00000000  1
  O  O17  1  0.06227700  0.31578100  0.20310600  1
  O  O18  1  0.04748200  0.30245000  0.40405800  1
  O  O19  1  0.04748200  0.30245000  0.59594200  1
  O  O20  1  0.43488700  0.69188300  0.40214800  1
  O  O21  1  0.43488700  0.69188300  0.59785200  1
  O  O22  1  0.56511300  0.19188300  0.90214800  1
  O  O23  1  0.56511300  0.19188300  0.09785200  1
  F  F24  1  0.45038300  0.70005400  0.79873000  1
  F  F25  1  0.45200400  0.69139700  0.00000000  1
  F  F26  1  0.45038300  0.70005400  0.20127000  1
  F  F27  1  0.54961700  0.20005400  0.29873000  1
  F  F28  1  0.54961700  0.20005400  0.70127000  1
  F  F29  1  0.54799600  0.19139700  0.50000000  1
