# generated using pymatgen
data_SbPd2
_symmetry_space_group_name_H-M   'P 1'
_cell_length_a   9.04719894
_cell_length_b   9.04719894
_cell_length_c   7.03518500
_cell_angle_alpha   90.00000000
_cell_angle_beta   90.00000000
_cell_angle_gamma   157.92938958
_symmetry_Int_Tables_number   1
_chemical_formula_structural   SbPd2
_chemical_formula_sum   'Sb4 Pd8'
_cell_volume   216.37226152
_cell_formula_units_Z   4
loop_
 _symmetry_equiv_pos_site_id
 _symmetry_equiv_pos_as_xyz
  1  'x, y, z'
loop_
 _atom_site_type_symbol
 _atom_site_label
 _atom_site_symmetry_multiplicity
 _atom_site_fract_x
 _atom_site_fract_y
 _atom_site_fract_z
 _atom_site_occupancy
  Sb  Sb0  1  0.55692900  0.44307100  0.80286900  1
  Sb  Sb1  1  0.44307100  0.55692900  0.30286900  1
  Sb  Sb2  1  0.20571400  0.79428600  0.27176700  1
  Sb  Sb3  1  0.79428600  0.20571400  0.77176700  1
  Pd  Pd4  1  0.96158500  0.03841500  0.99699800  1
  Pd  Pd5  1  0.03841500  0.96158500  0.49699800  1
  Pd  Pd6  1  0.17496500  0.82503500  0.89381300  1
  Pd  Pd7  1  0.82503500  0.17496500  0.39381300  1
  Pd  Pd8  1  0.33020900  0.66979100  0.04644200  1
  Pd  Pd9  1  0.66979100  0.33020900  0.54644200  1
  Pd  Pd10  1  0.58695600  0.41304400  0.17381000  1
  Pd  Pd11  1  0.41304400  0.58695600  0.67381000  1
