# generated using pymatgen
data_CdHgC4(SeN)4
_symmetry_space_group_name_H-M   'P 1'
_cell_length_a   8.72212584
_cell_length_b   8.72212584
_cell_length_c   8.72212584
_cell_angle_alpha   94.45434224
_cell_angle_beta   94.45434224
_cell_angle_gamma   147.63667142
_symmetry_Int_Tables_number   1
_chemical_formula_structural   CdHgC4(SeN)4
_chemical_formula_sum   'Cd1 Hg1 C4 Se4 N4'
_cell_volume   341.11246363
_cell_formula_units_Z   1
loop_
 _symmetry_equiv_pos_site_id
 _symmetry_equiv_pos_as_xyz
  1  'x, y, z'
loop_
 _atom_site_type_symbol
 _atom_site_label
 _atom_site_symmetry_multiplicity
 _atom_site_fract_x
 _atom_site_fract_y
 _atom_site_fract_z
 _atom_site_occupancy
  Cd  Cd0  1  0.25000000  0.75000000  0.50000000  1
  Hg  Hg1  1  0.00000000  0.00000000  0.00000000  1
  C  C2  1  0.95802000  0.60572600  0.80602300  1
  C  C3  1  0.39427400  0.20029700  0.35229400  1
  C  C4  1  0.84800300  0.04198000  0.64770600  1
  C  C5  1  0.79970300  0.15199700  0.19397700  1
  Se  Se6  1  0.80684700  0.53717800  0.97167400  1
  Se  Se7  1  0.46282200  0.43449600  0.26966900  1
  Se  Se8  1  0.16482700  0.19315300  0.73033100  1
  Se  Se9  1  0.56550400  0.83517300  0.02832600  1
  N  N10  1  0.05136700  0.64243500  0.69784600  1
  N  N11  1  0.35756500  0.05541100  0.40893100  1
  N  N12  1  0.64647900  0.94863300  0.59106900  1
  N  N13  1  0.94458900  0.35352100  0.30215400  1
