# generated using pymatgen
data_Tm5Sb3
_symmetry_space_group_name_H-M   'P 1'
_cell_length_a   8.05490800
_cell_length_b   9.19152000
_cell_length_c   11.69273500
_cell_angle_alpha   90.00000000
_cell_angle_beta   90.00000000
_cell_angle_gamma   90.00000000
_symmetry_Int_Tables_number   1
_chemical_formula_structural   Tm5Sb3
_chemical_formula_sum   'Tm20 Sb12'
_cell_volume   865.69324367
_cell_formula_units_Z   4
loop_
 _symmetry_equiv_pos_site_id
 _symmetry_equiv_pos_as_xyz
  1  'x, y, z'
loop_
 _atom_site_type_symbol
 _atom_site_label
 _atom_site_symmetry_multiplicity
 _atom_site_fract_x
 _atom_site_fract_y
 _atom_site_fract_z
 _atom_site_occupancy
  Tm  Tm0  1  0.80886300  0.94082500  0.06628300  1
  Tm  Tm1  1  0.30886300  0.05917500  0.43371700  1
  Tm  Tm2  1  0.19113700  0.44082500  0.93371700  1
  Tm  Tm3  1  0.69113700  0.55917500  0.56628300  1
  Tm  Tm4  1  0.19113700  0.05917500  0.93371700  1
  Tm  Tm5  1  0.69113700  0.94082500  0.56628300  1
  Tm  Tm6  1  0.80886300  0.55917500  0.06628300  1
  Tm  Tm7  1  0.30886300  0.44082500  0.43371700  1
  Tm  Tm8  1  0.52456700  0.25000000  0.99516700  1
  Tm  Tm9  1  0.02456700  0.75000000  0.50483300  1
  Tm  Tm10  1  0.47543300  0.75000000  0.00483300  1
  Tm  Tm11  1  0.97543300  0.25000000  0.49516700  1
  Tm  Tm12  1  0.17486600  0.75000000  0.22865500  1
  Tm  Tm13  1  0.67486600  0.25000000  0.27134500  1
  Tm  Tm14  1  0.82513400  0.25000000  0.77134500  1
  Tm  Tm15  1  0.32513400  0.75000000  0.72865500  1
  Tm  Tm16  1  0.65680500  0.75000000  0.29093800  1
  Tm  Tm17  1  0.15680500  0.25000000  0.20906200  1
  Tm  Tm18  1  0.34319500  0.25000000  0.70906200  1
  Tm  Tm19  1  0.84319500  0.75000000  0.79093800  1
  Sb  Sb20  1  0.93637900  0.99079100  0.32552700  1
  Sb  Sb21  1  0.43637900  0.00920900  0.17447300  1
  Sb  Sb22  1  0.06362100  0.49079100  0.67447300  1
  Sb  Sb23  1  0.56362100  0.50920900  0.82552700  1
  Sb  Sb24  1  0.06362100  0.00920900  0.67447300  1
  Sb  Sb25  1  0.56362100  0.99079100  0.82552700  1
  Sb  Sb26  1  0.93637900  0.50920900  0.32552700  1
  Sb  Sb27  1  0.43637900  0.49079100  0.17447300  1
  Sb  Sb28  1  0.90384900  0.25000000  0.02370500  1
  Sb  Sb29  1  0.40384900  0.75000000  0.47629500  1
  Sb  Sb30  1  0.09615100  0.75000000  0.97629500  1
  Sb  Sb31  1  0.59615100  0.25000000  0.52370500  1
