# generated using pymatgen
data_Rh2O3
_symmetry_space_group_name_H-M   'P 1'
_cell_length_a   5.57731683
_cell_length_b   5.57731683
_cell_length_c   5.57731693
_cell_angle_alpha   55.69034528
_cell_angle_beta   55.69034528
_cell_angle_gamma   55.69034647
_symmetry_Int_Tables_number   1
_chemical_formula_structural   Rh2O3
_chemical_formula_sum   'Rh4 O6'
_cell_volume   110.41123091
_cell_formula_units_Z   2
loop_
 _symmetry_equiv_pos_site_id
 _symmetry_equiv_pos_as_xyz
  1  'x, y, z'
loop_
 _atom_site_type_symbol
 _atom_site_label
 _atom_site_symmetry_multiplicity
 _atom_site_fract_x
 _atom_site_fract_y
 _atom_site_fract_z
 _atom_site_occupancy
  Rh  Rh0  1  0.84943500  0.84943500  0.84943500  1
  Rh  Rh1  1  0.65056500  0.65056500  0.65056500  1
  Rh  Rh2  1  0.15056500  0.15056500  0.15056500  1
  Rh  Rh3  1  0.34943500  0.34943500  0.34943500  1
  O  O4  1  0.45040300  0.04959700  0.75000000  1
  O  O5  1  0.04959700  0.75000000  0.45040300  1
  O  O6  1  0.75000000  0.45040300  0.04959700  1
  O  O7  1  0.54959700  0.95040300  0.25000000  1
  O  O8  1  0.95040300  0.25000000  0.54959700  1
  O  O9  1  0.25000000  0.54959700  0.95040300  1
