# generated using pymatgen
data_MnVAgO4
_symmetry_space_group_name_H-M   'P 1'
_cell_length_a   5.45188400
_cell_length_b   6.92034000
_cell_length_c   9.76351100
_cell_angle_alpha   90.00000000
_cell_angle_beta   90.00000000
_cell_angle_gamma   90.00000000
_symmetry_Int_Tables_number   1
_chemical_formula_structural   MnVAgO4
_chemical_formula_sum   'Mn4 V4 Ag4 O16'
_cell_volume   368.36644152
_cell_formula_units_Z   4
loop_
 _symmetry_equiv_pos_site_id
 _symmetry_equiv_pos_as_xyz
  1  'x, y, z'
loop_
 _atom_site_type_symbol
 _atom_site_label
 _atom_site_symmetry_multiplicity
 _atom_site_fract_x
 _atom_site_fract_y
 _atom_site_fract_z
 _atom_site_occupancy
  Mn  Mn0  1  0.00000000  0.50000000  0.00000000  1
  Mn  Mn1  1  0.50000000  0.00000000  0.50000000  1
  Mn  Mn2  1  0.50000000  0.50000000  0.50000000  1
  Mn  Mn3  1  0.00000000  0.00000000  0.00000000  1
  V  V4  1  0.97864200  0.75000000  0.32204800  1
  V  V5  1  0.47864200  0.25000000  0.17795200  1
  V  V6  1  0.02135800  0.25000000  0.67795200  1
  V  V7  1  0.52135800  0.75000000  0.82204800  1
  Ag  Ag8  1  0.99940200  0.75000000  0.65133300  1
  Ag  Ag9  1  0.49940200  0.25000000  0.84866700  1
  Ag  Ag10  1  0.00059800  0.25000000  0.34866700  1
  Ag  Ag11  1  0.50059800  0.75000000  0.15133300  1
  O  O12  1  0.93947500  0.75000000  0.13848700  1
  O  O13  1  0.43947500  0.25000000  0.36151300  1
  O  O14  1  0.06052500  0.25000000  0.86151300  1
  O  O15  1  0.56052500  0.75000000  0.63848700  1
  O  O16  1  0.28575700  0.75000000  0.38211000  1
  O  O17  1  0.78575700  0.25000000  0.11789000  1
  O  O18  1  0.71424300  0.25000000  0.61789000  1
  O  O19  1  0.21424300  0.75000000  0.88211000  1
  O  O20  1  0.82261500  0.55088100  0.38499100  1
  O  O21  1  0.32261500  0.44911900  0.11500900  1
  O  O22  1  0.17738500  0.05088100  0.61500900  1
  O  O23  1  0.67738500  0.94911900  0.88499100  1
  O  O24  1  0.17738500  0.44911900  0.61500900  1
  O  O25  1  0.67738500  0.55088100  0.88499100  1
  O  O26  1  0.82261500  0.94911900  0.38499100  1
  O  O27  1  0.32261500  0.05088100  0.11500900  1
