# generated using pymatgen
data_ZnAu2(CN)4
_symmetry_space_group_name_H-M   'P 1'
_cell_length_a   8.77613178
_cell_length_b   8.77613178
_cell_length_c   20.26545700
_cell_angle_alpha   90.00000000
_cell_angle_beta   90.00000000
_cell_angle_gamma   119.99999831
_symmetry_Int_Tables_number   1
_chemical_formula_structural   ZnAu2(CN)4
_chemical_formula_sum   'Zn6 Au12 C24 N24'
_cell_volume   1351.74045698
_cell_formula_units_Z   6
loop_
 _symmetry_equiv_pos_site_id
 _symmetry_equiv_pos_as_xyz
  1  'x, y, z'
loop_
 _atom_site_type_symbol
 _atom_site_label
 _atom_site_symmetry_multiplicity
 _atom_site_fract_x
 _atom_site_fract_y
 _atom_site_fract_z
 _atom_site_occupancy
  Zn  Zn0  1  0.50000000  0.50000000  0.04127600  1
  Zn  Zn1  1  0.00000000  0.50000000  0.70794200  1
  Zn  Zn2  1  0.50000000  0.00000000  0.37460900  1
  Zn  Zn3  1  0.00000000  0.50000000  0.95872400  1
  Zn  Zn4  1  0.50000000  0.00000000  0.62539100  1
  Zn  Zn5  1  0.50000000  0.50000000  0.29205800  1
  Au  Au6  1  0.00243000  0.68443800  0.20700400  1
  Au  Au7  1  0.31799300  0.00243000  0.87367000  1
  Au  Au8  1  0.68443800  0.68200700  0.54033700  1
  Au  Au9  1  0.31556200  0.31799300  0.54033700  1
  Au  Au10  1  0.68200700  0.99757000  0.87367000  1
  Au  Au11  1  0.31799300  0.31556200  0.79299600  1
  Au  Au12  1  0.99757000  0.68200700  0.45966300  1
  Au  Au13  1  0.99757000  0.31556200  0.20700400  1
  Au  Au14  1  0.68443800  0.00243000  0.12633000  1
  Au  Au15  1  0.31556200  0.99757000  0.12633000  1
  Au  Au16  1  0.68200700  0.68443800  0.79299600  1
  Au  Au17  1  0.00243000  0.31799300  0.45966300  1
  C  C18  1  0.21523400  0.39989400  0.86182100  1
  C  C19  1  0.81534000  0.21523400  0.52848700  1
  C  C20  1  0.39989400  0.18466000  0.19515400  1
  C  C21  1  0.60010600  0.81534000  0.19515400  1
  C  C22  1  0.18466000  0.78476600  0.52848700  1
  C  C23  1  0.81534000  0.60010600  0.13817900  1
  C  C24  1  0.78476600  0.18466000  0.80484600  1
  C  C25  1  0.78476600  0.60010600  0.86182100  1
  C  C26  1  0.39989400  0.21523400  0.47151300  1
  C  C27  1  0.60010600  0.78476600  0.47151300  1
  C  C28  1  0.18466000  0.39989400  0.13817900  1
  C  C29  1  0.21523400  0.81534000  0.80484600  1
  C  C30  1  0.78637000  0.18495700  0.05585000  1
  C  C31  1  0.60141200  0.78637000  0.72251700  1
  C  C32  1  0.18495700  0.39858800  0.38918300  1
  C  C33  1  0.81504300  0.60141200  0.38918300  1
  C  C34  1  0.39858800  0.21363000  0.72251700  1
  C  C35  1  0.60141200  0.81504300  0.94415000  1
  C  C36  1  0.21363000  0.39858800  0.61081700  1
  C  C37  1  0.21363000  0.81504300  0.05585000  1
  C  C38  1  0.18495700  0.78637000  0.27748300  1
  C  C39  1  0.81504300  0.21363000  0.27748300  1
  C  C40  1  0.39858800  0.18495700  0.94415000  1
  C  C41  1  0.78637000  0.60141200  0.61081700  1
  N  N42  1  0.14719500  0.44278500  0.90138000  1
  N  N43  1  0.70441000  0.14719500  0.56804600  1
  N  N44  1  0.44278500  0.29559000  0.23471300  1
  N  N45  1  0.55721500  0.70441000  0.23471300  1
  N  N46  1  0.29559000  0.85280500  0.56804600  1
  N  N47  1  0.70441000  0.55721500  0.09862000  1
  N  N48  1  0.85280500  0.29559000  0.76528700  1
  N  N49  1  0.85280500  0.55721500  0.90138000  1
  N  N50  1  0.44278500  0.14719500  0.43195400  1
  N  N51  1  0.55721500  0.85280500  0.43195400  1
  N  N52  1  0.29559000  0.44278500  0.09862000  1
  N  N53  1  0.14719500  0.70441000  0.76528700  1
  N  N54  1  0.85540200  0.29557800  0.01624300  1
  N  N55  1  0.55982400  0.85540200  0.68291000  1
  N  N56  1  0.29557800  0.44017600  0.34957600  1
  N  N57  1  0.70442200  0.55982400  0.34957600  1
  N  N58  1  0.44017600  0.14459800  0.68291000  1
  N  N59  1  0.55982400  0.70442200  0.98375700  1
  N  N60  1  0.14459800  0.44017600  0.65042400  1
  N  N61  1  0.14459800  0.70442200  0.01624300  1
  N  N62  1  0.29557800  0.85540200  0.31709000  1
  N  N63  1  0.70442200  0.14459800  0.31709000  1
  N  N64  1  0.44017600  0.29557800  0.98375700  1
  N  N65  1  0.85540200  0.55982400  0.65042400  1
