# generated using pymatgen
data_V2O5
_symmetry_space_group_name_H-M   'P 1'
_cell_length_a   6.47206057
_cell_length_b   6.47206057
_cell_length_c   5.39244706
_cell_angle_alpha   77.31237967
_cell_angle_beta   77.31237967
_cell_angle_gamma   42.81206347
_symmetry_Int_Tables_number   1
_chemical_formula_structural   V2O5
_chemical_formula_sum   'V4 O10'
_cell_volume   149.17206141
_cell_formula_units_Z   2
loop_
 _symmetry_equiv_pos_site_id
 _symmetry_equiv_pos_as_xyz
  1  'x, y, z'
loop_
 _atom_site_type_symbol
 _atom_site_label
 _atom_site_symmetry_multiplicity
 _atom_site_fract_x
 _atom_site_fract_y
 _atom_site_fract_z
 _atom_site_occupancy
  V  V0  1  0.38314200  0.90261200  0.75266300  1
  V  V1  1  0.90261200  0.38314200  0.25266300  1
  V  V2  1  0.61685800  0.09738800  0.24733700  1
  V  V3  1  0.09738800  0.61685800  0.74733700  1
  O  O4  1  0.67013200  0.54978700  0.51755300  1
  O  O5  1  0.45021300  0.32986800  0.98244700  1
  O  O6  1  0.54978700  0.67013200  0.01755300  1
  O  O7  1  0.32986800  0.45021300  0.48244700  1
  O  O8  1  0.86674500  0.72637700  0.13158300  1
  O  O9  1  0.72637700  0.86674500  0.63158300  1
  O  O10  1  0.13325500  0.27362300  0.86841700  1
  O  O11  1  0.27362300  0.13325500  0.36841700  1
  O  O12  1  0.11477100  0.88522900  0.75000000  1
  O  O13  1  0.88522900  0.11477100  0.25000000  1
