# generated using pymatgen
data_Co5P4(HO2)10
_symmetry_space_group_name_H-M   'P 1'
_cell_length_a   9.81028294
_cell_length_b   9.81028294
_cell_length_c   9.41172035
_cell_angle_alpha   84.03936862
_cell_angle_beta   84.03936862
_cell_angle_gamma   54.60238057
_symmetry_Int_Tables_number   1
_chemical_formula_structural   Co5P4(HO2)10
_chemical_formula_sum   'Co10 P8 H20 O40'
_cell_volume   733.30494526
_cell_formula_units_Z   2
loop_
 _symmetry_equiv_pos_site_id
 _symmetry_equiv_pos_as_xyz
  1  'x, y, z'
loop_
 _atom_site_type_symbol
 _atom_site_label
 _atom_site_symmetry_multiplicity
 _atom_site_fract_x
 _atom_site_fract_y
 _atom_site_fract_z
 _atom_site_occupancy
  Co  Co0  1  0.72863900  0.90105200  0.81197400  1
  Co  Co1  1  0.09894800  0.27136100  0.68802600  1
  Co  Co2  1  0.27136100  0.09894800  0.18802600  1
  Co  Co3  1  0.90105200  0.72863900  0.31197400  1
  Co  Co4  1  0.59699900  0.40300100  0.25000000  1
  Co  Co5  1  0.40300100  0.59699900  0.75000000  1
  Co  Co6  1  0.34848700  0.30199300  0.86968700  1
  Co  Co7  1  0.69800700  0.65151300  0.63031300  1
  Co  Co8  1  0.65151300  0.69800700  0.13031300  1
  Co  Co9  1  0.30199300  0.34848700  0.36968700  1
  P  P10  1  0.40359800  0.76271300  0.41066300  1
  P  P11  1  0.23728700  0.59640200  0.08933700  1
  P  P12  1  0.59640200  0.23728700  0.58933700  1
  P  P13  1  0.76271300  0.40359800  0.91066300  1
  P  P14  1  0.59828600  0.07943600  0.12858300  1
  P  P15  1  0.92056400  0.40171400  0.37141700  1
  P  P16  1  0.40171400  0.92056400  0.87141700  1
  P  P17  1  0.07943600  0.59828600  0.62858300  1
  H  H18  1  0.88195000  0.58739600  0.91066300  1
  H  H19  1  0.41260400  0.11805000  0.58933700  1
  H  H20  1  0.11805000  0.41260400  0.08933700  1
  H  H21  1  0.58739600  0.88195000  0.41066300  1
  H  H22  1  0.92405700  0.67236000  0.02234500  1
  H  H23  1  0.32764000  0.07594300  0.47765500  1
  H  H24  1  0.07594300  0.32764000  0.97765500  1
  H  H25  1  0.67236000  0.92405700  0.52234500  1
  H  H26  1  0.01670800  0.84749600  0.77632600  1
  H  H27  1  0.15250400  0.98329200  0.72367400  1
  H  H28  1  0.98329200  0.15250400  0.22367400  1
  H  H29  1  0.84749600  0.01670800  0.27632600  1
  H  H30  1  0.89651700  0.02803900  0.85497500  1
  H  H31  1  0.97196100  0.10348300  0.64502500  1
  H  H32  1  0.10348300  0.97196100  0.14502500  1
  H  H33  1  0.02803900  0.89651700  0.35497500  1
  H  H34  1  0.19754200  0.75424000  0.52004100  1
  H  H35  1  0.24576000  0.80245800  0.97995900  1
  H  H36  1  0.80245800  0.24576000  0.47995900  1
  H  H37  1  0.75424000  0.19754200  0.02004100  1
  O  O38  1  0.56754500  0.10349200  0.96551000  1
  O  O39  1  0.89650800  0.43245500  0.53449000  1
  O  O40  1  0.43245500  0.89650800  0.03449000  1
  O  O41  1  0.10349200  0.56754500  0.46551000  1
  O  O42  1  0.69225800  0.15896400  0.16030100  1
  O  O43  1  0.84103600  0.30774200  0.33969900  1
  O  O44  1  0.30774200  0.84103600  0.83969900  1
  O  O45  1  0.15896400  0.69225800  0.66030100  1
  O  O46  1  0.50975500  0.64607400  0.28836000  1
  O  O47  1  0.35392600  0.49024500  0.21164000  1
  O  O48  1  0.49024500  0.35392600  0.71164000  1
  O  O49  1  0.64607400  0.50975500  0.78836000  1
  O  O50  1  0.57284600  0.83134100  0.78336600  1
  O  O51  1  0.16865900  0.42715400  0.71663400  1
  O  O52  1  0.42715400  0.16865900  0.21663400  1
  O  O53  1  0.83134100  0.57284600  0.28336600  1
  O  O54  1  0.89120000  0.70169400  0.67449700  1
  O  O55  1  0.29830600  0.10880000  0.82550300  1
  O  O56  1  0.10880000  0.29830600  0.32550300  1
  O  O57  1  0.70169400  0.89120000  0.17449700  1
  O  O58  1  0.83166500  0.68651700  0.96896800  1
  O  O59  1  0.31348300  0.16833500  0.53103200  1
  O  O60  1  0.16833500  0.31348300  0.03103200  1
  O  O61  1  0.68651700  0.83166500  0.46896800  1
  O  O62  1  0.91931600  0.91739700  0.84378800  1
  O  O63  1  0.08260300  0.08068400  0.65621200  1
  O  O64  1  0.08068400  0.08260300  0.15621200  1
  O  O65  1  0.91739700  0.91931600  0.34378800  1
  O  O66  1  0.48067600  0.68565200  0.55783600  1
  O  O67  1  0.31434800  0.51932400  0.94216400  1
  O  O68  1  0.51932400  0.31434800  0.44216400  1
  O  O69  1  0.68565200  0.48067600  0.05783600  1
  O  O70  1  0.61660400  0.06933800  0.62984400  1
  O  O71  1  0.93066200  0.38339600  0.87015600  1
  O  O72  1  0.38339600  0.93066200  0.37015600  1
  O  O73  1  0.06933800  0.61660400  0.12984400  1
  O  O74  1  0.22368500  0.79848600  0.42367800  1
  O  O75  1  0.20151400  0.77631500  0.07632200  1
  O  O76  1  0.77631500  0.20151400  0.57632200  1
  O  O77  1  0.79848600  0.22368500  0.92367800  1
