# generated using pymatgen
data_BaCO3
_symmetry_space_group_name_H-M   'P 1'
_cell_length_a   5.51293856
_cell_length_b   5.51293856
_cell_length_c   5.69080200
_cell_angle_alpha   90.00000000
_cell_angle_beta   90.00000000
_cell_angle_gamma   120.00000668
_symmetry_Int_Tables_number   1
_chemical_formula_structural   BaCO3
_chemical_formula_sum   'Ba2 C2 O6'
_cell_volume   149.78570996
_cell_formula_units_Z   2
loop_
 _symmetry_equiv_pos_site_id
 _symmetry_equiv_pos_as_xyz
  1  'x, y, z'
loop_
 _atom_site_type_symbol
 _atom_site_label
 _atom_site_symmetry_multiplicity
 _atom_site_fract_x
 _atom_site_fract_y
 _atom_site_fract_z
 _atom_site_occupancy
  Ba  Ba0  1  0.66666700  0.33333300  0.25000000  1
  Ba  Ba1  1  0.33333300  0.66666700  0.75000000  1
  C  C2  1  0.00000000  0.00000000  0.25000000  1
  C  C3  1  0.00000000  0.00000000  0.75000000  1
  O  O4  1  0.72637200  0.86318600  0.25000000  1
  O  O5  1  0.13681400  0.86318600  0.25000000  1
  O  O6  1  0.86318600  0.13681400  0.75000000  1
  O  O7  1  0.86318600  0.72637200  0.75000000  1
  O  O8  1  0.27362800  0.13681400  0.75000000  1
  O  O9  1  0.13681400  0.27362800  0.25000000  1
