# generated using pymatgen
data_CaCO3
_symmetry_space_group_name_H-M   'P 1'
_cell_length_a   5.41857184
_cell_length_b   5.41857184
_cell_length_c   3.78627000
_cell_angle_alpha   90.00000000
_cell_angle_beta   90.00000000
_cell_angle_gamma   109.56616880
_symmetry_Int_Tables_number   1
_chemical_formula_structural   CaCO3
_chemical_formula_sum   'Ca2 C2 O6'
_cell_volume   104.74899597
_cell_formula_units_Z   2
loop_
 _symmetry_equiv_pos_site_id
 _symmetry_equiv_pos_as_xyz
  1  'x, y, z'
loop_
 _atom_site_type_symbol
 _atom_site_label
 _atom_site_symmetry_multiplicity
 _atom_site_fract_x
 _atom_site_fract_y
 _atom_site_fract_z
 _atom_site_occupancy
  Ca  Ca0  1  0.19494900  0.80505100  0.75000000  1
  Ca  Ca1  1  0.80505100  0.19494900  0.25000000  1
  C  C2  1  0.64075900  0.64075900  0.00000000  1
  C  C3  1  0.35924100  0.35924100  0.50000000  1
  O  O4  1  0.58349600  0.41650400  0.75000000  1
  O  O5  1  0.41650400  0.58349600  0.25000000  1
  O  O6  1  0.13429300  0.35178900  0.66258400  1
  O  O7  1  0.35178900  0.13429300  0.33741600  1
  O  O8  1  0.86570700  0.64821100  0.16258400  1
  O  O9  1  0.64821100  0.86570700  0.83741600  1
