# generated using pymatgen
data_Na4CO4
_symmetry_space_group_name_H-M   'P 1'
_cell_length_a   5.80716895
_cell_length_b   5.80716895
_cell_length_c   5.80716895
_cell_angle_alpha   99.92971695
_cell_angle_beta   99.92971695
_cell_angle_gamma   130.92874772
_symmetry_Int_Tables_number   1
_chemical_formula_structural   Na4CO4
_chemical_formula_sum   'Na4 C1 O4'
_cell_volume   134.59901670
_cell_formula_units_Z   1
loop_
 _symmetry_equiv_pos_site_id
 _symmetry_equiv_pos_as_xyz
  1  'x, y, z'
loop_
 _atom_site_type_symbol
 _atom_site_label
 _atom_site_symmetry_multiplicity
 _atom_site_fract_x
 _atom_site_fract_y
 _atom_site_fract_z
 _atom_site_occupancy
  Na  Na0  1  0.67410400  0.67410400  0.65179100  1
  Na  Na1  1  0.32589600  0.97768800  0.00000000  1
  Na  Na2  1  0.02231200  0.02231200  0.34820900  1
  Na  Na3  1  0.97768800  0.32589600  0.00000000  1
  C  C4  1  0.50000000  0.50000000  0.00000000  1
  O  O5  1  0.78125300  0.55809600  0.00000000  1
  O  O6  1  0.21874700  0.21874700  0.77684300  1
  O  O7  1  0.55809600  0.78125300  0.00000000  1
  O  O8  1  0.44190400  0.44190400  0.22315700  1
