# generated using pymatgen
data_Co2As2O7
_symmetry_space_group_name_H-M   'P 1'
_cell_length_a   4.90623146
_cell_length_b   5.34830392
_cell_length_c   5.46262714
_cell_angle_alpha   107.04163967
_cell_angle_beta   95.91419517
_cell_angle_gamma   97.26359609
_symmetry_Int_Tables_number   1
_chemical_formula_structural   Co2As2O7
_chemical_formula_sum   'Co2 As2 O7'
_cell_volume   134.45462512
_cell_formula_units_Z   1
loop_
 _symmetry_equiv_pos_site_id
 _symmetry_equiv_pos_as_xyz
  1  'x, y, z'
loop_
 _atom_site_type_symbol
 _atom_site_label
 _atom_site_symmetry_multiplicity
 _atom_site_fract_x
 _atom_site_fract_y
 _atom_site_fract_z
 _atom_site_occupancy
  Co  Co0  1  0.50563800  0.68735200  0.30845500  1
  Co  Co1  1  0.49453600  0.31487400  0.69496100  1
  As  As2  1  0.10446800  0.75333300  0.75445600  1
  As  As3  1  0.89538900  0.24312600  0.24154400  1
  O  O4  1  0.29496200  0.93734400  0.59830300  1
  O  O5  1  0.77413900  0.58546900  0.59415300  1
  O  O6  1  0.22185600  0.41643800  0.40792200  1
  O  O7  1  0.00228900  0.00071000  0.99849100  1
  O  O8  1  0.29504000  0.59187800  0.92687600  1
  O  O9  1  0.70432300  0.40753600  0.07367600  1
  O  O10  1  0.70735900  0.06193900  0.40116200  1
