# generated using pymatgen
data_Co2P2O7
_symmetry_space_group_name_H-M   'P 1'
_cell_length_a   5.32359097
_cell_length_b   5.38433691
_cell_length_c   9.07887465
_cell_angle_alpha   98.19947650
_cell_angle_beta   98.37801247
_cell_angle_gamma   104.01356873
_symmetry_Int_Tables_number   1
_chemical_formula_structural   Co2P2O7
_chemical_formula_sum   'Co4 P4 O14'
_cell_volume   245.46961194
_cell_formula_units_Z   2
loop_
 _symmetry_equiv_pos_site_id
 _symmetry_equiv_pos_as_xyz
  1  'x, y, z'
loop_
 _atom_site_type_symbol
 _atom_site_label
 _atom_site_symmetry_multiplicity
 _atom_site_fract_x
 _atom_site_fract_y
 _atom_site_fract_z
 _atom_site_occupancy
  Co  Co0  1  0.31138800  0.68767600  0.74707000  1
  Co  Co1  1  0.68333200  0.31257500  0.25277000  1
  Co  Co2  1  0.31247200  0.68812200  0.24645900  1
  Co  Co3  1  0.68830300  0.31159500  0.75314300  1
  P  P4  1  0.78252500  0.78482500  0.04711000  1
  P  P5  1  0.78262400  0.78477100  0.54707300  1
  P  P6  1  0.21768200  0.21601800  0.45259800  1
  P  P7  1  0.21799400  0.21515100  0.95312400  1
  O  O8  1  0.00003100  0.00025200  0.99997400  1
  O  O9  1  0.00005400  0.99992800  0.49977100  1
  O  O10  1  0.07236900  0.37338000  0.35997300  1
  O  O11  1  0.07255400  0.37285300  0.85994100  1
  O  O12  1  0.92940400  0.62674700  0.13932100  1
  O  O13  1  0.92763900  0.62633300  0.63992100  1
  O  O14  1  0.62221300  0.92661900  0.13944100  1
  O  O15  1  0.62091100  0.92565600  0.63901000  1
  O  O16  1  0.37976000  0.07369500  0.36114700  1
  O  O17  1  0.37971700  0.07352500  0.86164500  1
  O  O18  1  0.37926800  0.37763700  0.10600800  1
  O  O19  1  0.38006200  0.37621400  0.60596200  1
  O  O20  1  0.61920100  0.62297100  0.39433900  1
  O  O21  1  0.62050000  0.62345500  0.89419700  1
