# generated using pymatgen
data_TiFe(BiO3)2
_symmetry_space_group_name_H-M   'P 1'
_cell_length_a   5.70885582
_cell_length_b   9.97085935
_cell_length_c   9.90784619
_cell_angle_alpha   79.48644687
_cell_angle_beta   106.69170436
_cell_angle_gamma   89.75455272
_symmetry_Int_Tables_number   1
_chemical_formula_structural   TiFe(BiO3)2
_chemical_formula_sum   'Ti4 Fe4 Bi8 O24'
_cell_volume   530.18028989
_cell_formula_units_Z   4
loop_
 _symmetry_equiv_pos_site_id
 _symmetry_equiv_pos_as_xyz
  1  'x, y, z'
loop_
 _atom_site_type_symbol
 _atom_site_label
 _atom_site_symmetry_multiplicity
 _atom_site_fract_x
 _atom_site_fract_y
 _atom_site_fract_z
 _atom_site_occupancy
  Ti  Ti0  1  0.18254200  0.91172200  0.36412200  1
  Ti  Ti1  1  0.43088800  0.16182600  0.86381500  1
  Ti  Ti2  1  0.68224900  0.41129800  0.36508000  1
  Ti  Ti3  1  0.93187800  0.66144900  0.86446300  1
  Fe  Fe4  1  0.55868700  0.78885500  0.11546700  1
  Fe  Fe5  1  0.80663400  0.03841000  0.61615600  1
  Fe  Fe6  1  0.05586800  0.28912300  0.11368800  1
  Fe  Fe7  1  0.30543800  0.53838300  0.61487700  1
  Bi  Bi8  1  0.12869300  0.63685200  0.25480300  1
  Bi  Bi9  1  0.37651100  0.88749100  0.75463900  1
  Bi  Bi10  1  0.62915200  0.13823300  0.25458500  1
  Bi  Bi11  1  0.87680100  0.38813200  0.75374600  1
  Bi  Bi12  1  0.00070600  0.00816800  0.00278100  1
  Bi  Bi13  1  0.25115600  0.25797200  0.50234500  1
  Bi  Bi14  1  0.50054900  0.50856600  0.00405600  1
  Bi  Bi15  1  0.75185600  0.75824300  0.50356500  1
  O  O16  1  0.91845500  0.84341000  0.19359400  1
  O  O17  1  0.17192200  0.09480400  0.69331700  1
  O  O18  1  0.42011300  0.34461400  0.19382000  1
  O  O19  1  0.67185000  0.59535300  0.69445400  1
  O  O20  1  0.14200000  0.70785000  0.46345300  1
  O  O21  1  0.38955800  0.95849600  0.96118700  1
  O  O22  1  0.63983800  0.20839100  0.46183700  1
  O  O23  1  0.89073700  0.45748000  0.96374100  1
  O  O24  1  0.40985300  0.79780900  0.28466700  1
  O  O25  1  0.66400100  0.04673000  0.78420600  1
  O  O26  1  0.91170900  0.29728200  0.28628100  1
  O  O27  1  0.16301900  0.54627900  0.78709400  1
  O  O28  1  0.21925200  0.67826600  0.01593000  1
  O  O29  1  0.46714200  0.92785000  0.51396800  1
  O  O30  1  0.71784400  0.17695500  0.01448800  1
  O  O31  1  0.96724300  0.42703200  0.51660800  1
  O  O32  1  0.43493400  0.46529000  0.44175200  1
  O  O33  1  0.68641900  0.71601500  0.94112100  1
  O  O34  1  0.93565600  0.96536800  0.44233000  1
  O  O35  1  0.18596800  0.21508400  0.94065800  1
  O  O36  1  0.68949300  0.57189600  0.23026800  1
  O  O37  1  0.94018000  0.82153500  0.72913300  1
  O  O38  1  0.18520200  0.07317800  0.22788300  1
  O  O39  1  0.43699700  0.32331000  0.72802500  1
