# generated using pymatgen
data_PdSeO3
_symmetry_space_group_name_H-M   'P 1'
_cell_length_a   5.07771697
_cell_length_b   5.07771697
_cell_length_c   7.26816561
_cell_angle_alpha   69.67270745
_cell_angle_beta   69.67270745
_cell_angle_gamma   89.12112339
_symmetry_Int_Tables_number   1
_chemical_formula_structural   PdSeO3
_chemical_formula_sum   'Pd2 Se2 O6'
_cell_volume   163.59604942
_cell_formula_units_Z   2
loop_
 _symmetry_equiv_pos_site_id
 _symmetry_equiv_pos_as_xyz
  1  'x, y, z'
loop_
 _atom_site_type_symbol
 _atom_site_label
 _atom_site_symmetry_multiplicity
 _atom_site_fract_x
 _atom_site_fract_y
 _atom_site_fract_z
 _atom_site_occupancy
  Pd  Pd0  1  0.00000000  0.50000000  0.50000000  1
  Pd  Pd1  1  0.50000000  0.00000000  0.50000000  1
  Se  Se2  1  0.66652800  0.66652800  0.15560200  1
  Se  Se3  1  0.33347200  0.33347200  0.84439800  1
  O  O4  1  0.43461100  0.04395900  0.77996500  1
  O  O5  1  0.04395900  0.43461100  0.77996500  1
  O  O6  1  0.61075500  0.61075500  0.63471500  1
  O  O7  1  0.56538900  0.95604100  0.22003500  1
  O  O8  1  0.38924500  0.38924500  0.36528500  1
  O  O9  1  0.95604100  0.56538900  0.22003500  1
