# generated using pymatgen
data_Ag2O3
_symmetry_space_group_name_H-M   'P 1'
_cell_length_a   8.47197688
_cell_length_b   6.83784460
_cell_length_c   5.67218360
_cell_angle_alpha   84.70733445
_cell_angle_beta   53.48220788
_cell_angle_gamma   41.81045767
_symmetry_Int_Tables_number   1
_chemical_formula_structural   Ag2O3
_chemical_formula_sum   'Ag4 O6'
_cell_volume   132.92833059
_cell_formula_units_Z   2
loop_
 _symmetry_equiv_pos_site_id
 _symmetry_equiv_pos_as_xyz
  1  'x, y, z'
loop_
 _atom_site_type_symbol
 _atom_site_label
 _atom_site_symmetry_multiplicity
 _atom_site_fract_x
 _atom_site_fract_y
 _atom_site_fract_z
 _atom_site_occupancy
  Ag  Ag0  1  0.41456700  0.17956000  0.81935200  1
  Ag  Ag1  1  0.43064800  0.66347900  0.83543300  1
  Ag  Ag2  1  0.07044000  0.83543300  0.66347900  1
  Ag  Ag3  1  0.58652100  0.81935200  0.17956000  1
  O  O4  1  0.21666300  0.94795400  0.31673900  1
  O  O5  1  0.93326100  0.73135500  0.03333700  1
  O  O6  1  0.30204600  0.03333700  0.73135500  1
  O  O7  1  0.58462700  0.41537300  0.41537300  1
  O  O8  1  0.51864500  0.31673900  0.94795400  1
  O  O9  1  0.83462700  0.66537300  0.66537300  1
