# generated using pymatgen
data_SrAl2O4
_symmetry_space_group_name_H-M   'P 1'
_cell_length_a   9.00102138
_cell_length_b   9.00102138
_cell_length_c   8.50146700
_cell_angle_alpha   90.00000000
_cell_angle_beta   90.00000000
_cell_angle_gamma   119.99999547
_symmetry_Int_Tables_number   1
_chemical_formula_structural   SrAl2O4
_chemical_formula_sum   'Sr6 Al12 O24'
_cell_volume   596.49679121
_cell_formula_units_Z   6
loop_
 _symmetry_equiv_pos_site_id
 _symmetry_equiv_pos_as_xyz
  1  'x, y, z'
loop_
 _atom_site_type_symbol
 _atom_site_label
 _atom_site_symmetry_multiplicity
 _atom_site_fract_x
 _atom_site_fract_y
 _atom_site_fract_z
 _atom_site_occupancy
  Sr  Sr0  1  0.66666700  0.33333300  0.28685500  1
  Sr  Sr1  1  0.33333300  0.66666700  0.78685500  1
  Sr  Sr2  1  0.66666700  0.33333300  0.74510300  1
  Sr  Sr3  1  0.33333300  0.66666700  0.24510300  1
  Sr  Sr4  1  0.00000000  0.00000000  0.75279600  1
  Sr  Sr5  1  0.00000000  0.00000000  0.25279600  1
  Al  Al6  1  0.67762400  0.66152500  0.44644700  1
  Al  Al7  1  0.01609900  0.67762400  0.94644700  1
  Al  Al8  1  0.66152500  0.98390100  0.94644700  1
  Al  Al9  1  0.33847500  0.01609900  0.44644700  1
  Al  Al10  1  0.98390100  0.32237600  0.44644700  1
  Al  Al11  1  0.32237600  0.33847500  0.94644700  1
  Al  Al12  1  0.68251500  0.66188200  0.05472400  1
  Al  Al13  1  0.02063300  0.68251500  0.55472400  1
  Al  Al14  1  0.66188200  0.97936700  0.55472400  1
  Al  Al15  1  0.33811800  0.02063300  0.05472400  1
  Al  Al16  1  0.97936700  0.31748500  0.05472400  1
  Al  Al17  1  0.31748500  0.33811800  0.55472400  1
  O  O18  1  0.54301700  0.45000200  0.52015000  1
  O  O19  1  0.09301400  0.54301700  0.02015000  1
  O  O20  1  0.45000200  0.90698600  0.02015000  1
  O  O21  1  0.54999800  0.09301400  0.52015000  1
  O  O22  1  0.90698600  0.45698300  0.52015000  1
  O  O23  1  0.45698300  0.54999800  0.02015000  1
  O  O24  1  0.20767800  0.79047200  0.43748500  1
  O  O25  1  0.41720600  0.20767800  0.93748500  1
  O  O26  1  0.79047200  0.58279400  0.93748500  1
  O  O27  1  0.20952800  0.41720600  0.43748500  1
  O  O28  1  0.58279400  0.79232200  0.43748500  1
  O  O29  1  0.79232200  0.20952800  0.93748500  1
  O  O30  1  0.88689000  0.11921000  0.53829600  1
  O  O31  1  0.76768000  0.88689000  0.03829600  1
  O  O32  1  0.11921000  0.23232000  0.03829600  1
  O  O33  1  0.88079000  0.76768000  0.53829600  1
  O  O34  1  0.23232000  0.11311000  0.53829600  1
  O  O35  1  0.11311000  0.88079000  0.03829600  1
  O  O36  1  0.27467100  0.36952300  0.75098000  1
  O  O37  1  0.90514800  0.27467100  0.25098000  1
  O  O38  1  0.36952300  0.09485200  0.25098000  1
  O  O39  1  0.63047700  0.90514800  0.75098000  1
  O  O40  1  0.09485200  0.72532900  0.75098000  1
  O  O41  1  0.72532900  0.63047700  0.25098000  1
