# generated using pymatgen
data_Ca3CoRhO6
_symmetry_space_group_name_H-M   'P 1'
_cell_length_a   6.44728028
_cell_length_b   6.44728028
_cell_length_c   6.44727979
_cell_angle_alpha   90.97966765
_cell_angle_beta   90.97966765
_cell_angle_gamma   90.97967605
_symmetry_Int_Tables_number   1
_chemical_formula_structural   Ca3CoRhO6
_chemical_formula_sum   'Ca6 Co2 Rh2 O12'
_cell_volume   267.87792526
_cell_formula_units_Z   2
loop_
 _symmetry_equiv_pos_site_id
 _symmetry_equiv_pos_as_xyz
  1  'x, y, z'
loop_
 _atom_site_type_symbol
 _atom_site_label
 _atom_site_symmetry_multiplicity
 _atom_site_fract_x
 _atom_site_fract_y
 _atom_site_fract_z
 _atom_site_occupancy
  Ca  Ca0  1  0.88260900  0.61739100  0.25000000  1
  Ca  Ca1  1  0.25000000  0.88260900  0.61739100  1
  Ca  Ca2  1  0.61739100  0.25000000  0.88260900  1
  Ca  Ca3  1  0.75000000  0.11739100  0.38260900  1
  Ca  Ca4  1  0.38260900  0.75000000  0.11739100  1
  Ca  Ca5  1  0.11739100  0.38260900  0.75000000  1
  Co  Co6  1  0.25000000  0.25000000  0.25000000  1
  Co  Co7  1  0.75000000  0.75000000  0.75000000  1
  Rh  Rh8  1  0.50000000  0.50000000  0.50000000  1
  Rh  Rh9  1  0.00000000  0.00000000  0.00000000  1
  O  O10  1  0.20022800  0.53541000  0.40087100  1
  O  O11  1  0.40087100  0.20022800  0.53541000  1
  O  O12  1  0.53541000  0.40087100  0.20022800  1
  O  O13  1  0.90087100  0.03541000  0.70022800  1
  O  O14  1  0.70022800  0.90087100  0.03541000  1
  O  O15  1  0.03541000  0.70022800  0.90087100  1
  O  O16  1  0.79977200  0.46459000  0.59912900  1
  O  O17  1  0.59912900  0.79977200  0.46459000  1
  O  O18  1  0.46459000  0.59912900  0.79977200  1
  O  O19  1  0.09912900  0.96459000  0.29977200  1
  O  O20  1  0.29977200  0.09912900  0.96459000  1
  O  O21  1  0.96459000  0.29977200  0.09912900  1
