# generated using pymatgen
data_PbCClO2
_symmetry_space_group_name_H-M   'P 1'
_cell_length_a   4.24401807
_cell_length_b   4.24401807
_cell_length_c   9.51729268
_cell_angle_alpha   86.48857519
_cell_angle_beta   86.48857519
_cell_angle_gamma   89.38686391
_symmetry_Int_Tables_number   1
_chemical_formula_structural   PbCClO2
_chemical_formula_sum   'Pb2 C2 Cl2 O4'
_cell_volume   170.77531287
_cell_formula_units_Z   2
loop_
 _symmetry_equiv_pos_site_id
 _symmetry_equiv_pos_as_xyz
  1  'x, y, z'
loop_
 _atom_site_type_symbol
 _atom_site_label
 _atom_site_symmetry_multiplicity
 _atom_site_fract_x
 _atom_site_fract_y
 _atom_site_fract_z
 _atom_site_occupancy
  Pb  Pb0  1  0.22850200  0.22850200  0.22285000  1
  Pb  Pb1  1  0.77149800  0.77149800  0.77715000  1
  C  C2  1  0.36957600  0.63042400  0.50000000  1
  C  C3  1  0.63042400  0.36957600  0.50000000  1
  Cl  Cl4  1  0.27292300  0.27292300  0.88375500  1
  Cl  Cl5  1  0.72707700  0.72707700  0.11624500  1
  O  O6  1  0.67114500  0.21412700  0.39052800  1
  O  O7  1  0.78587300  0.32885500  0.60947200  1
  O  O8  1  0.21412700  0.67114500  0.39052800  1
  O  O9  1  0.32885500  0.78587300  0.60947200  1
