# generated using pymatgen
data_Ba2Fe2S2OF2
_symmetry_space_group_name_H-M   'P 1'
_cell_length_a   4.19027264
_cell_length_b   4.18999905
_cell_length_c   19.42657381
_cell_angle_alpha   90.00171524
_cell_angle_beta   90.00266415
_cell_angle_gamma   89.99353392
_symmetry_Int_Tables_number   1
_chemical_formula_structural   Ba2Fe2S2OF2
_chemical_formula_sum   'Ba4 Fe4 S4 O2 F4'
_cell_volume   341.07698479
_cell_formula_units_Z   2
loop_
 _symmetry_equiv_pos_site_id
 _symmetry_equiv_pos_as_xyz
  1  'x, y, z'
loop_
 _atom_site_type_symbol
 _atom_site_label
 _atom_site_symmetry_multiplicity
 _atom_site_fract_x
 _atom_site_fract_y
 _atom_site_fract_z
 _atom_site_occupancy
  Ba  Ba0  1  0.99999900  0.99999700  0.33336800  1
  Ba  Ba1  1  0.49999800  0.49999700  0.83336800  1
  Ba  Ba2  1  0.49999300  0.49999800  0.16663300  1
  Ba  Ba3  1  0.99999200  0.99999800  0.66663300  1
  Fe  Fe4  1  0.50003500  0.00000000  0.99999200  1
  Fe  Fe5  1  0.49999700  0.00001500  0.50000300  1
  Fe  Fe6  1  0.00003600  0.50000000  0.49999200  1
  Fe  Fe7  1  0.99999600  0.50001600  0.00000300  1
  S  S8  1  0.50006000  0.50006600  0.41263300  1
  S  S9  1  0.00005900  0.00006600  0.91263400  1
  S  S10  1  0.99993400  0.99993200  0.08736700  1
  S  S11  1  0.49993300  0.49993200  0.58736700  1
  O  O12  1  0.49999300  0.49999900  0.99999900  1
  O  O13  1  0.99999300  0.99999900  0.49999900  1
  F  F14  1  0.49998400  0.00000900  0.25000900  1
  F  F15  1  0.99998400  0.50000800  0.75000900  1
  F  F16  1  0.00000700  0.49998600  0.24999600  1
  F  F17  1  0.50000700  0.99998600  0.74999600  1
