# generated using pymatgen
data_Ba2Si3O8
_symmetry_space_group_name_H-M   'P 1'
_cell_length_a   4.74572700
_cell_length_b   12.64446600
_cell_length_c   14.15737894
_cell_angle_alpha   86.51105003
_cell_angle_beta   90.00000000
_cell_angle_gamma   90.00000000
_symmetry_Int_Tables_number   1
_chemical_formula_structural   Ba2Si3O8
_chemical_formula_sum   'Ba8 Si12 O32'
_cell_volume   847.96985382
_cell_formula_units_Z   4
loop_
 _symmetry_equiv_pos_site_id
 _symmetry_equiv_pos_as_xyz
  1  'x, y, z'
loop_
 _atom_site_type_symbol
 _atom_site_label
 _atom_site_symmetry_multiplicity
 _atom_site_fract_x
 _atom_site_fract_y
 _atom_site_fract_z
 _atom_site_occupancy
  Ba  Ba0  1  0.28966800  0.14450400  0.03114100  1
  Ba  Ba1  1  0.26473600  0.58192900  0.38902100  1
  Ba  Ba2  1  0.30584200  0.58248100  0.88878700  1
  Ba  Ba3  1  0.76473600  0.41807100  0.61097900  1
  Ba  Ba4  1  0.30446200  0.14309900  0.53394500  1
  Ba  Ba5  1  0.80584200  0.41751900  0.11121300  1
  Ba  Ba6  1  0.78966800  0.85549600  0.96885900  1
  Ba  Ba7  1  0.80446200  0.85690100  0.46605500  1
  Si  Si8  1  0.23935200  0.65099300  0.11057100  1
  Si  Si9  1  0.23211300  0.27429200  0.77657000  1
  Si  Si10  1  0.73211300  0.72570800  0.22343000  1
  Si  Si11  1  0.33169500  0.27699800  0.27622100  1
  Si  Si12  1  0.23443100  0.02338800  0.81264100  1
  Si  Si13  1  0.73935200  0.34900700  0.88942900  1
  Si  Si14  1  0.23651200  0.03040000  0.31188100  1
  Si  Si15  1  0.83322800  0.34981300  0.38934200  1
  Si  Si16  1  0.73651200  0.96960000  0.68811900  1
  Si  Si17  1  0.73443100  0.97661200  0.18735900  1
  Si  Si18  1  0.33322800  0.65018700  0.61065800  1
  Si  Si19  1  0.83169500  0.72300200  0.72377900  1
  O  O20  1  0.80443400  0.46978800  0.91496500  1
  O  O21  1  0.81192200  0.71344500  0.33306900  1
  O  O22  1  0.40523500  0.34960900  0.84918900  1
  O  O23  1  0.27436800  0.15816100  0.32840700  1
  O  O24  1  0.16313900  0.68885500  0.70669200  1
  O  O25  1  0.81211400  0.03513300  0.08770400  1
  O  O26  1  0.81093600  0.26576900  0.47977000  1
  O  O27  1  0.28148700  0.73431100  0.02054100  1
  O  O28  1  0.66071500  0.64077900  0.65670900  1
  O  O29  1  0.75664000  0.46930300  0.41584700  1
  O  O30  1  0.90430800  0.00647200  0.28423600  1
  O  O31  1  0.77436800  0.84183900  0.67159300  1
  O  O32  1  0.81404000  0.03317400  0.59046300  1
  O  O33  1  0.90352200  0.99591900  0.78629300  1
  O  O34  1  0.78148700  0.26568900  0.97945900  1
  O  O35  1  0.66313900  0.31114500  0.29330800  1
  O  O36  1  0.31093600  0.73423100  0.52023000  1
  O  O37  1  0.30443400  0.53021200  0.08503500  1
  O  O38  1  0.40437400  0.68504200  0.20911600  1
  O  O39  1  0.26100900  0.15233600  0.82473000  1
  O  O40  1  0.31404000  0.96682600  0.40953700  1
  O  O41  1  0.40352200  0.00408100  0.21370700  1
  O  O42  1  0.76100900  0.84766400  0.17527000  1
  O  O43  1  0.90523500  0.65039100  0.15081100  1
  O  O44  1  0.26561700  0.28709600  0.16547800  1
  O  O45  1  0.40430800  0.99352800  0.71576400  1
  O  O46  1  0.31211400  0.96486700  0.91229600  1
  O  O47  1  0.25664000  0.53069700  0.58415300  1
  O  O48  1  0.31192200  0.28655500  0.66693100  1
  O  O49  1  0.16071500  0.35922100  0.34329100  1
  O  O50  1  0.90437400  0.31495800  0.79088400  1
  O  O51  1  0.76561700  0.71290400  0.83452200  1
