# generated using pymatgen
data_EuZrO3
_symmetry_space_group_name_H-M   'P 1'
_cell_length_a   8.36717200
_cell_length_b   8.36717200
_cell_length_c   8.36717200
_cell_angle_alpha   90.00000000
_cell_angle_beta   90.00000000
_cell_angle_gamma   90.00000000
_symmetry_Int_Tables_number   1
_chemical_formula_structural   EuZrO3
_chemical_formula_sum   'Eu8 Zr8 O24'
_cell_volume   585.78209106
_cell_formula_units_Z   8
loop_
 _symmetry_equiv_pos_site_id
 _symmetry_equiv_pos_as_xyz
  1  'x, y, z'
loop_
 _atom_site_type_symbol
 _atom_site_label
 _atom_site_symmetry_multiplicity
 _atom_site_fract_x
 _atom_site_fract_y
 _atom_site_fract_z
 _atom_site_occupancy
  Eu  Eu0  1  0.24407900  0.24407900  0.24407900  1
  Eu  Eu1  1  0.27619600  0.22380400  0.77619600  1
  Eu  Eu2  1  0.22380400  0.77619600  0.27619600  1
  Eu  Eu3  1  0.25592100  0.75592100  0.74407900  1
  Eu  Eu4  1  0.77619600  0.27619600  0.22380400  1
  Eu  Eu5  1  0.74407900  0.25592100  0.75592100  1
  Eu  Eu6  1  0.75592100  0.74407900  0.25592100  1
  Eu  Eu7  1  0.72380400  0.72380400  0.72380400  1
  Zr  Zr8  1  0.00717800  0.00717800  0.00717800  1
  Zr  Zr9  1  0.99021800  0.00978200  0.50978200  1
  Zr  Zr10  1  0.00978200  0.50978200  0.99021800  1
  Zr  Zr11  1  0.99282200  0.50717800  0.49282200  1
  Zr  Zr12  1  0.49021800  0.49021800  0.49021800  1
  Zr  Zr13  1  0.50978200  0.99021800  0.00978200  1
  Zr  Zr14  1  0.49282200  0.99282200  0.50717800  1
  Zr  Zr15  1  0.50717800  0.49282200  0.99282200  1
  O  O16  1  0.02557900  0.01743500  0.26065300  1
  O  O17  1  0.01743500  0.26065300  0.02557900  1
  O  O18  1  0.01345800  0.03550900  0.75975700  1
  O  O19  1  0.03550900  0.75975700  0.01345800  1
  O  O20  1  0.26065300  0.02557900  0.01743500  1
  O  O21  1  0.25975700  0.48654200  0.96449100  1
  O  O22  1  0.24024300  0.51345800  0.46449100  1
  O  O23  1  0.23934700  0.97442100  0.51743500  1
  O  O24  1  0.46449100  0.24024300  0.51345800  1
  O  O25  1  0.48654200  0.96449100  0.25975700  1
  O  O26  1  0.48256500  0.73934700  0.52557900  1
  O  O27  1  0.47442100  0.98256500  0.76065300  1
  O  O28  1  0.51345800  0.46449100  0.24024300  1
  O  O29  1  0.52557900  0.48256500  0.73934700  1
  O  O30  1  0.51743500  0.23934700  0.97442100  1
  O  O31  1  0.53550900  0.74024300  0.98654200  1
  O  O32  1  0.75975700  0.01345800  0.03550900  1
  O  O33  1  0.73934700  0.52557900  0.48256500  1
  O  O34  1  0.76065300  0.47442100  0.98256500  1
  O  O35  1  0.74024300  0.98654200  0.53550900  1
  O  O36  1  0.96449100  0.25975700  0.48654200  1
  O  O37  1  0.97442100  0.51743500  0.23934700  1
  O  O38  1  0.98654200  0.53550900  0.74024300  1
  O  O39  1  0.98256500  0.76065300  0.47442100  1
