# generated using pymatgen
data_Ba2PrNbO6
_symmetry_space_group_name_H-M   'P 1'
_cell_length_a   6.13324662
_cell_length_b   6.13324662
_cell_length_c   6.13324745
_cell_angle_alpha   60.58974031
_cell_angle_beta   60.58974031
_cell_angle_gamma   60.58973557
_symmetry_Int_Tables_number   1
_chemical_formula_structural   Ba2PrNbO6
_chemical_formula_sum   'Ba2 Pr1 Nb1 O6'
_cell_volume   165.31149136
_cell_formula_units_Z   1
loop_
 _symmetry_equiv_pos_site_id
 _symmetry_equiv_pos_as_xyz
  1  'x, y, z'
loop_
 _atom_site_type_symbol
 _atom_site_label
 _atom_site_symmetry_multiplicity
 _atom_site_fract_x
 _atom_site_fract_y
 _atom_site_fract_z
 _atom_site_occupancy
  Ba  Ba0  1  0.74921400  0.74921400  0.74921400  1
  Ba  Ba1  1  0.25078600  0.25078600  0.25078600  1
  Pr  Pr2  1  0.00000000  0.00000000  0.00000000  1
  Nb  Nb3  1  0.50000000  0.50000000  0.50000000  1
  O  O4  1  0.21235000  0.32765400  0.72600800  1
  O  O5  1  0.72600800  0.21235000  0.32765400  1
  O  O6  1  0.32765400  0.72600800  0.21235000  1
  O  O7  1  0.78765000  0.67234600  0.27399200  1
  O  O8  1  0.67234600  0.27399200  0.78765000  1
  O  O9  1  0.27399200  0.78765000  0.67234600  1
