# generated using pymatgen
data_Na4CO4
_symmetry_space_group_name_H-M   'P 1'
_cell_length_a   4.86460968
_cell_length_b   4.86460968
_cell_length_c   4.86460936
_cell_angle_alpha   91.57521539
_cell_angle_beta   91.57521539
_cell_angle_gamma   91.57522618
_symmetry_Int_Tables_number   1
_chemical_formula_structural   Na4CO4
_chemical_formula_sum   'Na4 C1 O4'
_cell_volume   114.98524120
_cell_formula_units_Z   1
loop_
 _symmetry_equiv_pos_site_id
 _symmetry_equiv_pos_as_xyz
  1  'x, y, z'
loop_
 _atom_site_type_symbol
 _atom_site_label
 _atom_site_symmetry_multiplicity
 _atom_site_fract_x
 _atom_site_fract_y
 _atom_site_fract_z
 _atom_site_occupancy
  Na  Na0  1  0.52868500  0.98892500  0.54632800  1
  Na  Na1  1  0.54632800  0.52868500  0.98892500  1
  Na  Na2  1  0.19689100  0.19689100  0.19689100  1
  Na  Na3  1  0.98892500  0.54632800  0.52868500  1
  C  C4  1  0.90941300  0.90941300  0.90941300  1
  O  O5  1  0.69419800  0.01688700  0.02173900  1
  O  O6  1  0.02173900  0.69419800  0.01688700  1
  O  O7  1  0.01688700  0.02173900  0.69419800  1
  O  O8  1  0.47888500  0.47888500  0.47888500  1
