# generated using pymatgen
data_Co3C2(SeO5)2
_symmetry_space_group_name_H-M   'P 1'
_cell_length_a   6.63048769
_cell_length_b   9.30128831
_cell_length_c   7.83375004
_cell_angle_alpha   82.86268371
_cell_angle_beta   64.97618988
_cell_angle_gamma   90.00813908
_symmetry_Int_Tables_number   1
_chemical_formula_structural   Co3C2(SeO5)2
_chemical_formula_sum   'Co6 C4 Se4 O20'
_cell_volume   433.63486212
_cell_formula_units_Z   2
loop_
 _symmetry_equiv_pos_site_id
 _symmetry_equiv_pos_as_xyz
  1  'x, y, z'
loop_
 _atom_site_type_symbol
 _atom_site_label
 _atom_site_symmetry_multiplicity
 _atom_site_fract_x
 _atom_site_fract_y
 _atom_site_fract_z
 _atom_site_occupancy
  Co  Co0  1  0.00000500  0.50000200  0.99999100  1
  Co  Co1  1  0.90970800  0.10156100  0.18057600  1
  Co  Co2  1  0.09029000  0.89843900  0.81942700  1
  Co  Co3  1  0.50000500  0.00000700  0.99999200  1
  Co  Co4  1  0.40978400  0.60151500  0.18046600  1
  Co  Co5  1  0.59021500  0.39848200  0.81953700  1
  C  C6  1  0.71799000  0.17492000  0.56401100  1
  C  C7  1  0.21794600  0.67497200  0.56410600  1
  C  C8  1  0.28201000  0.82507500  0.43599100  1
  C  C9  1  0.78205300  0.32502600  0.43589700  1
  Se  Se10  1  0.62882200  0.78798800  0.74219700  1
  Se  Se11  1  0.12869100  0.28798600  0.74248200  1
  Se  Se12  1  0.37117500  0.21201100  0.25780700  1
  Se  Se13  1  0.87130800  0.71200900  0.25751800  1
  O  O14  1  0.24074000  0.93679100  0.51865300  1
  O  O15  1  0.74075600  0.43679500  0.51860000  1
  O  O16  1  0.75925200  0.06319800  0.48136100  1
  O  O17  1  0.25924500  0.56320500  0.48139800  1
  O  O18  1  0.43929400  0.38037900  0.12141400  1
  O  O19  1  0.93923700  0.88053000  0.12153000  1
  O  O20  1  0.56070600  0.61962600  0.87858600  1
  O  O21  1  0.06077100  0.11947500  0.87845400  1
  O  O22  1  0.37160900  0.82081400  0.25682900  1
  O  O23  1  0.87155700  0.32059600  0.25698700  1
  O  O24  1  0.62839000  0.17918600  0.74317600  1
  O  O25  1  0.12844300  0.67940200  0.74301600  1
  O  O26  1  0.38802700  0.88162100  0.84744900  1
  O  O27  1  0.88769500  0.38182200  0.84765900  1
  O  O28  1  0.23539600  0.11834100  0.15274300  1
  O  O29  1  0.73524800  0.61817600  0.15257200  1
  O  O30  1  0.76461100  0.88165900  0.84725300  1
  O  O31  1  0.26475300  0.38182900  0.84742700  1
  O  O32  1  0.61197100  0.11837900  0.15254900  1
  O  O33  1  0.11230400  0.61818300  0.15234300  1
