# generated using pymatgen
data_In2(WO4)3
_symmetry_space_group_name_H-M   'P 1'
_cell_length_a   9.86847800
_cell_length_b   9.95459200
_cell_length_c   13.70681900
_cell_angle_alpha   90.00000000
_cell_angle_beta   90.00000000
_cell_angle_gamma   90.00000000
_symmetry_Int_Tables_number   1
_chemical_formula_structural   In2(WO4)3
_chemical_formula_sum   'In8 W12 O48'
_cell_volume   1346.51228434
_cell_formula_units_Z   4
loop_
 _symmetry_equiv_pos_site_id
 _symmetry_equiv_pos_as_xyz
  1  'x, y, z'
loop_
 _atom_site_type_symbol
 _atom_site_label
 _atom_site_symmetry_multiplicity
 _atom_site_fract_x
 _atom_site_fract_y
 _atom_site_fract_z
 _atom_site_occupancy
  In  In0  1  0.25038000  0.96376900  0.11980900  1
  In  In1  1  0.75038000  0.53623100  0.61980900  1
  In  In2  1  0.24962000  0.46376900  0.38019100  1
  In  In3  1  0.74962000  0.03623100  0.88019100  1
  In  In4  1  0.24962000  0.03623100  0.61980900  1
  In  In5  1  0.75038000  0.96376900  0.38019100  1
  In  In6  1  0.25038000  0.53623100  0.88019100  1
  In  In7  1  0.74962000  0.46376900  0.11980900  1
  W  W8  1  0.10411500  0.88493500  0.85526200  1
  W  W9  1  0.89588500  0.38493500  0.85526200  1
  W  W10  1  0.60411500  0.61506500  0.35526200  1
  W  W11  1  0.47113700  0.25000000  0.00000000  1
  W  W12  1  0.52886300  0.75000000  0.00000000  1
  W  W13  1  0.89588500  0.11506500  0.14473800  1
  W  W14  1  0.39588500  0.38493500  0.64473800  1
  W  W15  1  0.97113700  0.25000000  0.50000000  1
  W  W16  1  0.10411500  0.61506500  0.14473800  1
  W  W17  1  0.02886300  0.75000000  0.50000000  1
  W  W18  1  0.60411500  0.88493500  0.64473800  1
  W  W19  1  0.39588500  0.11506500  0.35526200  1
  O  O20  1  0.86652000  0.12999200  0.43573600  1
  O  O21  1  0.86652000  0.37000800  0.56426400  1
  O  O22  1  0.82667000  0.07366600  0.02656800  1
  O  O23  1  0.31976400  0.00677700  0.26429000  1
  O  O24  1  0.13941400  0.79022600  0.17079800  1
  O  O25  1  0.42201300  0.90794200  0.64383700  1
  O  O26  1  0.82667000  0.42633400  0.97343200  1
  O  O27  1  0.63941400  0.79022600  0.32920200  1
  O  O28  1  0.67333000  0.92633400  0.52656800  1
  O  O29  1  0.13348000  0.87000800  0.56426400  1
  O  O30  1  0.68023600  0.99322300  0.73571000  1
  O  O31  1  0.31976400  0.49322300  0.73571000  1
  O  O32  1  0.17333000  0.57366600  0.02656800  1
  O  O33  1  0.81976400  0.00677700  0.23571000  1
  O  O34  1  0.13348000  0.62999200  0.43573600  1
  O  O35  1  0.18023600  0.99322300  0.76429000  1
  O  O36  1  0.36058600  0.29022600  0.32920200  1
  O  O37  1  0.92201300  0.90794200  0.85616300  1
  O  O38  1  0.63941400  0.70977400  0.67079800  1
  O  O39  1  0.63348000  0.62999200  0.06426400  1
  O  O40  1  0.13941400  0.70977400  0.82920200  1
  O  O41  1  0.67333000  0.57366600  0.47343200  1
  O  O42  1  0.18023600  0.50677700  0.23571000  1
  O  O43  1  0.07798700  0.40794200  0.85616300  1
  O  O44  1  0.07798700  0.09205800  0.14383700  1
  O  O45  1  0.42212300  0.83494500  0.08809200  1
  O  O46  1  0.86058600  0.29022600  0.17079800  1
  O  O47  1  0.36652000  0.12999200  0.06426400  1
  O  O48  1  0.63348000  0.87000800  0.93573600  1
  O  O49  1  0.57787700  0.33494500  0.08809200  1
  O  O50  1  0.36058600  0.20977400  0.67079800  1
  O  O51  1  0.32667000  0.42633400  0.52656800  1
  O  O52  1  0.92212300  0.66505500  0.58809200  1
  O  O53  1  0.57798700  0.09205800  0.35616300  1
  O  O54  1  0.81976400  0.49322300  0.76429000  1
  O  O55  1  0.07787700  0.33494500  0.41190800  1
  O  O56  1  0.32667000  0.07366600  0.47343200  1
  O  O57  1  0.92212300  0.83494500  0.41190800  1
  O  O58  1  0.07787700  0.16505500  0.58809200  1
  O  O59  1  0.42201300  0.59205800  0.35616300  1
  O  O60  1  0.57787700  0.16505500  0.91190800  1
  O  O61  1  0.92201300  0.59205800  0.14383700  1
  O  O62  1  0.57798700  0.40794200  0.64383700  1
  O  O63  1  0.36652000  0.37000800  0.93573600  1
  O  O64  1  0.42212300  0.66505500  0.91190800  1
  O  O65  1  0.68023600  0.50677700  0.26429000  1
  O  O66  1  0.86058600  0.20977400  0.82920200  1
  O  O67  1  0.17333000  0.92633400  0.97343200  1
