# generated using pymatgen
data_KV4Ag11O16
_symmetry_space_group_name_H-M   'P 1'
_cell_length_a   10.53504600
_cell_length_b   10.77793000
_cell_length_c   17.22443000
_cell_angle_alpha   90.00000000
_cell_angle_beta   90.00000000
_cell_angle_gamma   90.00000000
_symmetry_Int_Tables_number   1
_chemical_formula_structural   KV4Ag11O16
_chemical_formula_sum   'K4 V16 Ag44 O64'
_cell_volume   1955.76492785
_cell_formula_units_Z   4
loop_
 _symmetry_equiv_pos_site_id
 _symmetry_equiv_pos_as_xyz
  1  'x, y, z'
loop_
 _atom_site_type_symbol
 _atom_site_label
 _atom_site_symmetry_multiplicity
 _atom_site_fract_x
 _atom_site_fract_y
 _atom_site_fract_z
 _atom_site_occupancy
  K  K0  1  0.50000000  0.00000000  0.50000000  1
  K  K1  1  0.50000000  0.50000000  0.00000000  1
  K  K2  1  0.00000000  0.50000000  0.50000000  1
  K  K3  1  0.00000000  0.00000000  0.00000000  1
  V  V4  1  0.25809500  0.23413700  0.00193000  1
  V  V5  1  0.74190500  0.26586300  0.50193000  1
  V  V6  1  0.49930800  0.98248000  0.26457200  1
  V  V7  1  0.99930800  0.51752000  0.26457200  1
  V  V8  1  0.74190500  0.76586300  0.99807000  1
  V  V9  1  0.00069200  0.48248000  0.73542800  1
  V  V10  1  0.00069200  0.98248000  0.76457200  1
  V  V11  1  0.99930800  0.01752000  0.23542800  1
  V  V12  1  0.49930800  0.48248000  0.23542800  1
  V  V13  1  0.50069200  0.01752000  0.73542800  1
  V  V14  1  0.24190500  0.23413700  0.50193000  1
  V  V15  1  0.25809500  0.73413700  0.49807000  1
  V  V16  1  0.24190500  0.73413700  0.99807000  1
  V  V17  1  0.75809500  0.76586300  0.49807000  1
  V  V18  1  0.75809500  0.26586300  0.00193000  1
  V  V19  1  0.50069200  0.51752000  0.76457200  1
  Ag  Ag20  1  0.52469300  0.72387900  0.63582500  1
  Ag  Ag21  1  0.21460200  0.47430500  0.87880200  1
  Ag  Ag22  1  0.53128600  0.20976900  0.13438700  1
  Ag  Ag23  1  0.21333800  0.98946300  0.37694100  1
  Ag  Ag24  1  0.78539800  0.02569500  0.37880200  1
  Ag  Ag25  1  0.47530700  0.77612100  0.13582500  1
  Ag  Ag26  1  0.97530700  0.72387900  0.13582500  1
  Ag  Ag27  1  0.71333800  0.51053700  0.37694100  1
  Ag  Ag28  1  0.28539800  0.97430500  0.12119800  1
  Ag  Ag29  1  0.52469300  0.22387900  0.86417500  1
  Ag  Ag30  1  0.24787500  0.76034000  0.75488900  1
  Ag  Ag31  1  0.71333800  0.01053700  0.12305900  1
  Ag  Ag32  1  0.75212500  0.23966000  0.24511100  1
  Ag  Ag33  1  0.28539800  0.47430500  0.37880200  1
  Ag  Ag34  1  0.97530700  0.22387900  0.36417500  1
  Ag  Ag35  1  0.53128600  0.70976900  0.36561300  1
  Ag  Ag36  1  0.02469300  0.27612100  0.86417500  1
  Ag  Ag37  1  0.71460200  0.02569500  0.87880200  1
  Ag  Ag38  1  0.96871400  0.20976900  0.63438700  1
  Ag  Ag39  1  0.03128600  0.29023100  0.13438700  1
  Ag  Ag40  1  0.02469300  0.77612100  0.63582500  1
  Ag  Ag41  1  0.78666200  0.01053700  0.62305900  1
  Ag  Ag42  1  0.47530700  0.27612100  0.36417500  1
  Ag  Ag43  1  0.75212500  0.73966000  0.25488900  1
  Ag  Ag44  1  0.78539800  0.52569500  0.12119800  1
  Ag  Ag45  1  0.00000000  0.00000000  0.50000000  1
  Ag  Ag46  1  0.74787500  0.73966000  0.75488900  1
  Ag  Ag47  1  0.78666200  0.51053700  0.87694100  1
  Ag  Ag48  1  0.46871400  0.79023100  0.86561300  1
  Ag  Ag49  1  0.50000000  0.00000000  0.00000000  1
  Ag  Ag50  1  0.03128600  0.79023100  0.36561300  1
  Ag  Ag51  1  0.25212500  0.76034000  0.25488900  1
  Ag  Ag52  1  0.46871400  0.29023100  0.63438700  1
  Ag  Ag53  1  0.96871400  0.70976900  0.86561300  1
  Ag  Ag54  1  0.71460200  0.52569500  0.62119800  1
  Ag  Ag55  1  0.25212500  0.26034000  0.24511100  1
  Ag  Ag56  1  0.28666200  0.98946300  0.87694100  1
  Ag  Ag57  1  0.50000000  0.50000000  0.50000000  1
  Ag  Ag58  1  0.21333800  0.48946300  0.12305900  1
  Ag  Ag59  1  0.28666200  0.48946300  0.62305900  1
  Ag  Ag60  1  0.21460200  0.97430500  0.62119800  1
  Ag  Ag61  1  0.24787500  0.26034000  0.74511100  1
  Ag  Ag62  1  0.74787500  0.23966000  0.74511100  1
  Ag  Ag63  1  0.00000000  0.50000000  0.00000000  1
  O  O64  1  0.31906300  0.67551900  0.91604400  1
  O  O65  1  0.25921300  0.89714500  0.49750700  1
  O  O66  1  0.41837500  0.18270200  0.00073300  1
  O  O67  1  0.39200800  0.88780600  0.31561400  1
  O  O68  1  0.08140100  0.92608500  0.17092300  1
  O  O69  1  0.58162500  0.81729800  0.99926700  1
  O  O70  1  0.08162500  0.68270200  0.99926700  1
  O  O71  1  0.08808800  0.58262100  0.79770000  1
  O  O72  1  0.41859900  0.42608500  0.82907700  1
  O  O73  1  0.39200800  0.38780600  0.18438600  1
  O  O74  1  0.25921300  0.39714500  0.00249300  1
  O  O75  1  0.81906300  0.82448100  0.91604400  1
  O  O76  1  0.10736300  0.61619400  0.21111200  1
  O  O77  1  0.17944900  0.17643200  0.91989700  1
  O  O78  1  0.91837500  0.31729800  0.00073300  1
  O  O79  1  0.58162500  0.31729800  0.50073300  1
  O  O80  1  0.74078700  0.10285500  0.50249300  1
  O  O81  1  0.91191200  0.91737900  0.29770000  1
  O  O82  1  0.32055100  0.67643200  0.08010300  1
  O  O83  1  0.24078700  0.39714500  0.50249300  1
  O  O84  1  0.18093700  0.67551900  0.41604400  1
  O  O85  1  0.10736300  0.11619400  0.28888800  1
  O  O86  1  0.10799200  0.38780600  0.68438600  1
  O  O87  1  0.60736300  0.38380600  0.28888800  1
  O  O88  1  0.82055100  0.82356800  0.08010300  1
  O  O89  1  0.91859900  0.07391500  0.82907700  1
  O  O90  1  0.58808800  0.41737900  0.70230000  1
  O  O91  1  0.32055100  0.17643200  0.41989700  1
  O  O92  1  0.41859900  0.92608500  0.67092300  1
  O  O93  1  0.31906300  0.17551900  0.58395600  1
  O  O94  1  0.58140100  0.57391500  0.17092300  1
  O  O95  1  0.39263700  0.61619400  0.71111200  1
  O  O96  1  0.91837500  0.81729800  0.49926700  1
  O  O97  1  0.81906300  0.32448100  0.58395600  1
  O  O98  1  0.75921300  0.10285500  0.00249300  1
  O  O99  1  0.58140100  0.07391500  0.32907700  1
  O  O100  1  0.68093700  0.32448100  0.08395600  1
  O  O101  1  0.75921300  0.60285500  0.49750700  1
  O  O102  1  0.58808800  0.91737900  0.79770000  1
  O  O103  1  0.60799200  0.61219400  0.81561400  1
  O  O104  1  0.41837500  0.68270200  0.49926700  1
  O  O105  1  0.08808800  0.08262100  0.70230000  1
  O  O106  1  0.89200800  0.61219400  0.31561400  1
  O  O107  1  0.91191200  0.41737900  0.20230000  1
  O  O108  1  0.41191200  0.58262100  0.29770000  1
  O  O109  1  0.60736300  0.88380600  0.21111200  1
  O  O110  1  0.08162500  0.18270200  0.50073300  1
  O  O111  1  0.67944900  0.32356800  0.91989700  1
  O  O112  1  0.89263700  0.88380600  0.71111200  1
  O  O113  1  0.68093700  0.82448100  0.41604400  1
  O  O114  1  0.39263700  0.11619400  0.78888800  1
  O  O115  1  0.17944900  0.67643200  0.58010300  1
  O  O116  1  0.18093700  0.17551900  0.08395600  1
  O  O117  1  0.24078700  0.89714500  0.99750700  1
  O  O118  1  0.89200800  0.11219400  0.18438600  1
  O  O119  1  0.91859900  0.57391500  0.67092300  1
  O  O120  1  0.74078700  0.60285500  0.99750700  1
  O  O121  1  0.08140100  0.42608500  0.32907700  1
  O  O122  1  0.89263700  0.38380600  0.78888800  1
  O  O123  1  0.82055100  0.32356800  0.41989700  1
  O  O124  1  0.67944900  0.82356800  0.58010300  1
  O  O125  1  0.41191200  0.08262100  0.20230000  1
  O  O126  1  0.60799200  0.11219400  0.68438600  1
  O  O127  1  0.10799200  0.88780600  0.81561400  1
