# generated using pymatgen
data_SiO2
_symmetry_space_group_name_H-M   'P 1'
_cell_length_a   11.00832644
_cell_length_b   11.00832644
_cell_length_c   11.00832644
_cell_angle_alpha   103.10988266
_cell_angle_beta   103.10988266
_cell_angle_gamma   123.11774608
_symmetry_Int_Tables_number   1
_chemical_formula_structural   SiO2
_chemical_formula_sum   'Si16 O32'
_cell_volume   982.46005514
_cell_formula_units_Z   16
loop_
 _symmetry_equiv_pos_site_id
 _symmetry_equiv_pos_as_xyz
  1  'x, y, z'
loop_
 _atom_site_type_symbol
 _atom_site_label
 _atom_site_symmetry_multiplicity
 _atom_site_fract_x
 _atom_site_fract_y
 _atom_site_fract_z
 _atom_site_occupancy
  Si  Si0  1  0.75000000  0.39605500  0.64605500  1
  Si  Si1  1  0.04743200  0.54743200  0.88011000  1
  Si  Si2  1  0.66732200  0.16732200  0.11989000  1
  Si  Si3  1  0.75000000  0.10394500  0.35394500  1
  Si  Si4  1  0.45256800  0.33267800  0.50000000  1
  Si  Si5  1  0.60394500  0.25000000  0.35394500  1
  Si  Si6  1  0.25000000  0.60394500  0.35394500  1
  Si  Si7  1  0.39605500  0.75000000  0.64605500  1
  Si  Si8  1  0.95256800  0.45256800  0.11989000  1
  Si  Si9  1  0.16732200  0.04743200  0.50000000  1
  Si  Si10  1  0.25000000  0.89605500  0.64605500  1
  Si  Si11  1  0.83267800  0.95256800  0.50000000  1
  Si  Si12  1  0.10394500  0.75000000  0.35394500  1
  Si  Si13  1  0.89605500  0.25000000  0.64605500  1
  Si  Si14  1  0.54743200  0.66732200  0.50000000  1
  Si  Si15  1  0.33267800  0.83267800  0.88011000  1
  O  O16  1  0.76930600  0.12973000  0.21705700  1
  O  O17  1  0.41267300  0.62973000  0.36042400  1
  O  O18  1  0.62973000  0.26930600  0.21705700  1
  O  O19  1  0.25718600  0.75718600  0.34994400  1
  O  O20  1  0.40724200  0.90724200  0.65005600  1
  O  O21  1  0.58732700  0.37027000  0.63957600  1
  O  O22  1  0.59275800  0.09275800  0.34994400  1
  O  O23  1  0.90724200  0.25718600  0.50000000  1
  O  O24  1  0.55224900  0.76930600  0.63957600  1
  O  O25  1  0.12973000  0.91267300  0.36042400  1
  O  O26  1  0.08732700  0.44775100  0.21705700  1
  O  O27  1  0.37027000  0.73069400  0.78294300  1
  O  O28  1  0.74281400  0.24281400  0.65005600  1
  O  O29  1  0.27642600  0.22357400  0.50000000  1
  O  O30  1  0.91267300  0.55224900  0.78294300  1
  O  O31  1  0.23069400  0.87027000  0.78294300  1
  O  O32  1  0.50000000  0.00000000  0.00000000  1
  O  O33  1  0.44775100  0.23069400  0.36042400  1
  O  O34  1  0.87027000  0.08732700  0.63957600  1
  O  O35  1  0.77642600  0.27642600  0.05285300  1
  O  O36  1  0.50000000  0.50000000  0.50000000  1
  O  O37  1  0.09275800  0.74281400  0.50000000  1
  O  O38  1  0.75718600  0.40724200  0.50000000  1
  O  O39  1  0.26930600  0.05224900  0.63957600  1
  O  O40  1  0.22357400  0.72357400  0.94714700  1
  O  O41  1  0.24281400  0.59275800  0.50000000  1
  O  O42  1  0.94775100  0.58732700  0.21705700  1
  O  O43  1  0.05224900  0.41267300  0.78294300  1
  O  O44  1  0.73069400  0.94775100  0.36042400  1
  O  O45  1  0.72357400  0.77642600  0.50000000  1
  O  O46  1  0.00000000  0.50000000  0.00000000  1
  O  O47  1  0.00000000  0.00000000  0.50000000  1
