# generated using pymatgen
data_La2Ni2O5
_symmetry_space_group_name_H-M   'P 1'
_cell_length_a   7.89763200
_cell_length_b   7.52484400
_cell_length_c   10.43606885
_cell_angle_alpha   49.01667985
_cell_angle_beta   90.00000000
_cell_angle_gamma   90.00000000
_symmetry_Int_Tables_number   1
_chemical_formula_structural   La2Ni2O5
_chemical_formula_sum   'La8 Ni8 O20'
_cell_volume   468.18884852
_cell_formula_units_Z   4
loop_
 _symmetry_equiv_pos_site_id
 _symmetry_equiv_pos_as_xyz
  1  'x, y, z'
loop_
 _atom_site_type_symbol
 _atom_site_label
 _atom_site_symmetry_multiplicity
 _atom_site_fract_x
 _atom_site_fract_y
 _atom_site_fract_z
 _atom_site_occupancy
  La  La0  1  0.23715900  0.99677100  0.24572100  1
  La  La1  1  0.26284100  0.99677100  0.74572100  1
  La  La2  1  0.76284100  0.00322900  0.75427900  1
  La  La3  1  0.73715900  0.00322900  0.25427900  1
  La  La4  1  0.76709800  0.50526000  0.24826600  1
  La  La5  1  0.73290200  0.50526000  0.74826600  1
  La  La6  1  0.23290200  0.49474000  0.75173400  1
  La  La7  1  0.26709800  0.49474000  0.25173400  1
  Ni  Ni8  1  0.50000000  0.00000000  0.50000000  1
  Ni  Ni9  1  0.00000000  0.00000000  0.00000000  1
  Ni  Ni10  1  0.50000000  0.50000000  0.50000000  1
  Ni  Ni11  1  0.00000000  0.50000000  0.00000000  1
  Ni  Ni12  1  0.50000000  0.00000000  0.00000000  1
  Ni  Ni13  1  0.00000000  0.00000000  0.50000000  1
  Ni  Ni14  1  0.50000000  0.50000000  0.00000000  1
  Ni  Ni15  1  0.00000000  0.50000000  0.50000000  1
  O  O16  1  0.54037200  0.26545400  0.26978000  1
  O  O17  1  0.95962800  0.26545400  0.76978000  1
  O  O18  1  0.45962800  0.73454600  0.73022000  1
  O  O19  1  0.04037200  0.73454600  0.23022000  1
  O  O20  1  0.26816000  0.07898700  0.46774400  1
  O  O21  1  0.23184000  0.07898700  0.96774400  1
  O  O22  1  0.73184000  0.92101300  0.53225600  1
  O  O23  1  0.76816000  0.92101300  0.03225600  1
  O  O24  1  0.56573300  0.24482600  0.00629900  1
  O  O25  1  0.93426700  0.24482600  0.50629900  1
  O  O26  1  0.43426700  0.75517400  0.99370100  1
  O  O27  1  0.06573300  0.75517400  0.49370100  1
  O  O28  1  0.23236300  0.41619600  0.03396600  1
  O  O29  1  0.26763700  0.41619600  0.53396600  1
  O  O30  1  0.76763700  0.58380400  0.96603400  1
  O  O31  1  0.73236300  0.58380400  0.46603400  1
  O  O32  1  0.46113600  0.75363400  0.26734200  1
  O  O33  1  0.03886400  0.75363400  0.76734200  1
  O  O34  1  0.53886400  0.24636600  0.73265800  1
  O  O35  1  0.96113600  0.24636600  0.23265800  1
