# generated using pymatgen
data_BaFe12O19
_symmetry_space_group_name_H-M   'P 1'
_cell_length_a   6.01681060
_cell_length_b   6.01681060
_cell_length_c   23.49536800
_cell_angle_alpha   90.00000000
_cell_angle_beta   90.00000000
_cell_angle_gamma   120.00000657
_symmetry_Int_Tables_number   1
_chemical_formula_structural   BaFe12O19
_chemical_formula_sum   'Ba2 Fe24 O38'
_cell_volume   736.62344241
_cell_formula_units_Z   2
loop_
 _symmetry_equiv_pos_site_id
 _symmetry_equiv_pos_as_xyz
  1  'x, y, z'
loop_
 _atom_site_type_symbol
 _atom_site_label
 _atom_site_symmetry_multiplicity
 _atom_site_fract_x
 _atom_site_fract_y
 _atom_site_fract_z
 _atom_site_occupancy
  Ba  Ba0  1  0.66666700  0.33333300  0.25000000  1
  Ba  Ba1  1  0.33333300  0.66666700  0.75000000  1
  Fe  Fe2  1  0.83198700  0.66397400  0.10825800  1
  Fe  Fe3  1  0.83198700  0.66397400  0.39174200  1
  Fe  Fe4  1  0.66666700  0.33333300  0.97191400  1
  Fe  Fe5  1  0.16801300  0.83198700  0.60825800  1
  Fe  Fe6  1  0.66666700  0.33333300  0.80971500  1
  Fe  Fe7  1  0.33602600  0.16801300  0.39174200  1
  Fe  Fe8  1  0.16801300  0.33602600  0.60825800  1
  Fe  Fe9  1  0.33333300  0.66666700  0.30971500  1
  Fe  Fe10  1  0.33333300  0.66666700  0.02808600  1
  Fe  Fe11  1  0.66397400  0.83198700  0.89174200  1
  Fe  Fe12  1  0.33602600  0.16801300  0.10825800  1
  Fe  Fe13  1  0.83198700  0.16801300  0.10825800  1
  Fe  Fe14  1  0.33333300  0.66666700  0.19028500  1
  Fe  Fe15  1  0.66397400  0.83198700  0.60825800  1
  Fe  Fe16  1  0.00000000  0.00000000  0.50000000  1
  Fe  Fe17  1  0.33333300  0.66666700  0.47191400  1
  Fe  Fe18  1  0.16801300  0.33602600  0.89174200  1
  Fe  Fe19  1  0.66666700  0.33333300  0.69028500  1
  Fe  Fe20  1  0.16801300  0.83198700  0.89174200  1
  Fe  Fe21  1  0.66666700  0.33333300  0.52808600  1
  Fe  Fe22  1  0.83198700  0.16801300  0.39174200  1
  Fe  Fe23  1  0.00000000  0.00000000  0.75000000  1
  Fe  Fe24  1  0.00000000  0.00000000  0.00000000  1
  Fe  Fe25  1  0.00000000  0.00000000  0.25000000  1
  O  O26  1  0.00723000  0.50361500  0.85095600  1
  O  O27  1  0.63443700  0.81721900  0.25000000  1
  O  O28  1  0.15505900  0.31011900  0.05243000  1
  O  O29  1  0.50361500  0.49638500  0.14904400  1
  O  O30  1  0.49638500  0.50361500  0.85095600  1
  O  O31  1  0.00000000  0.00000000  0.15124500  1
  O  O32  1  0.00000000  0.00000000  0.34875500  1
  O  O33  1  0.84494100  0.68988100  0.55243000  1
  O  O34  1  0.49638500  0.99277000  0.64904400  1
  O  O35  1  0.36556300  0.18278100  0.75000000  1
  O  O36  1  0.31011900  0.15505900  0.94757000  1
  O  O37  1  0.00000000  0.00000000  0.84875500  1
  O  O38  1  0.15505900  0.84494100  0.05243000  1
  O  O39  1  0.84494100  0.15505900  0.55243000  1
  O  O40  1  0.33333300  0.66666700  0.55468000  1
  O  O41  1  0.18278100  0.81721900  0.25000000  1
  O  O42  1  0.33333300  0.66666700  0.94532000  1
  O  O43  1  0.50361500  0.00723000  0.35095600  1
  O  O44  1  0.66666700  0.33333300  0.05468000  1
  O  O45  1  0.00000000  0.00000000  0.65124500  1
  O  O46  1  0.99277000  0.49638500  0.35095600  1
  O  O47  1  0.84494100  0.15505900  0.94757000  1
  O  O48  1  0.81721900  0.63443700  0.75000000  1
  O  O49  1  0.31011900  0.15505900  0.55243000  1
  O  O50  1  0.50361500  0.49638500  0.35095600  1
  O  O51  1  0.84494100  0.68988100  0.94757000  1
  O  O52  1  0.49638500  0.50361500  0.64904400  1
  O  O53  1  0.99277000  0.49638500  0.14904400  1
  O  O54  1  0.68988100  0.84494100  0.44757000  1
  O  O55  1  0.00723000  0.50361500  0.64904400  1
  O  O56  1  0.66666700  0.33333300  0.44532000  1
  O  O57  1  0.15505900  0.31011900  0.44757000  1
  O  O58  1  0.49638500  0.99277000  0.85095600  1
  O  O59  1  0.15505900  0.84494100  0.44757000  1
  O  O60  1  0.18278100  0.36556300  0.25000000  1
  O  O61  1  0.68988100  0.84494100  0.05243000  1
  O  O62  1  0.81721900  0.18278100  0.75000000  1
  O  O63  1  0.50361500  0.00723000  0.14904400  1
