# generated using pymatgen
data_CuSeO4
_symmetry_space_group_name_H-M   'P 1'
_cell_length_a   4.92751815
_cell_length_b   4.92751815
_cell_length_c   6.67532800
_cell_angle_alpha   90.00000000
_cell_angle_beta   90.00000000
_cell_angle_gamma   111.06268955
_symmetry_Int_Tables_number   1
_chemical_formula_structural   CuSeO4
_chemical_formula_sum   'Cu2 Se2 O8'
_cell_volume   151.25094964
_cell_formula_units_Z   2
loop_
 _symmetry_equiv_pos_site_id
 _symmetry_equiv_pos_as_xyz
  1  'x, y, z'
loop_
 _atom_site_type_symbol
 _atom_site_label
 _atom_site_symmetry_multiplicity
 _atom_site_fract_x
 _atom_site_fract_y
 _atom_site_fract_z
 _atom_site_occupancy
  Cu  Cu0  1  0.00000000  0.00000000  0.00000000  1
  Cu  Cu1  1  0.00000000  0.00000000  0.50000000  1
  Se  Se2  1  0.65193000  0.34807000  0.25000000  1
  Se  Se3  1  0.34807000  0.65193000  0.75000000  1
  O  O4  1  0.76142800  0.23857200  0.46223900  1
  O  O5  1  0.23857200  0.76142800  0.53776100  1
  O  O6  1  0.22313900  0.28079700  0.75000000  1
  O  O7  1  0.77686100  0.71920300  0.25000000  1
  O  O8  1  0.76142800  0.23857200  0.03776100  1
  O  O9  1  0.23857200  0.76142800  0.96223900  1
  O  O10  1  0.71920300  0.77686100  0.75000000  1
  O  O11  1  0.28079700  0.22313900  0.25000000  1
