# generated using pymatgen
data_VPO5
_symmetry_space_group_name_H-M   'P 1'
_cell_length_a   9.37609000
_cell_length_b   9.37609000
_cell_length_c   8.74594000
_cell_angle_alpha   90.00000000
_cell_angle_beta   90.00000000
_cell_angle_gamma   90.00000000
_symmetry_Int_Tables_number   1
_chemical_formula_structural   VPO5
_chemical_formula_sum   'V8 P8 O40'
_cell_volume   768.86488835
_cell_formula_units_Z   8
loop_
 _symmetry_equiv_pos_site_id
 _symmetry_equiv_pos_as_xyz
  1  'x, y, z'
loop_
 _atom_site_type_symbol
 _atom_site_label
 _atom_site_symmetry_multiplicity
 _atom_site_fract_x
 _atom_site_fract_y
 _atom_site_fract_z
 _atom_site_occupancy
  V  V0  1  0.58619400  0.24974200  0.00000000  1
  V  V1  1  0.91380600  0.74974200  0.00000000  1
  V  V2  1  0.75025800  0.58619400  0.50000000  1
  V  V3  1  0.25025800  0.91380600  0.50000000  1
  V  V4  1  0.41380600  0.75025800  0.00000000  1
  V  V5  1  0.08619400  0.25025800  0.00000000  1
  V  V6  1  0.74974200  0.08619400  0.50000000  1
  V  V7  1  0.24974200  0.41380600  0.50000000  1
  P  P8  1  0.00000000  0.00000000  0.75000000  1
  P  P9  1  0.50000000  0.00000000  0.25000000  1
  P  P10  1  0.00000000  0.50000000  0.25000000  1
  P  P11  1  0.00000000  0.50000000  0.75000000  1
  P  P12  1  0.00000000  0.00000000  0.25000000  1
  P  P13  1  0.50000000  0.50000000  0.25000000  1
  P  P14  1  0.50000000  0.50000000  0.75000000  1
  P  P15  1  0.50000000  0.00000000  0.75000000  1
  O  O16  1  0.25222500  0.80564100  0.00000000  1
  O  O17  1  0.80564100  0.74777500  0.50000000  1
  O  O18  1  0.08857400  0.10246300  0.14994100  1
  O  O19  1  0.58857400  0.39753700  0.85005900  1
  O  O20  1  0.41142600  0.60246300  0.14994100  1
  O  O21  1  0.19435900  0.25222500  0.50000000  1
  O  O22  1  0.89753700  0.08857400  0.35005900  1
  O  O23  1  0.36486600  0.00440100  0.35010600  1
  O  O24  1  0.00440100  0.63513400  0.85010600  1
  O  O25  1  0.10246300  0.91142600  0.35005900  1
  O  O26  1  0.24777500  0.30564100  0.00000000  1
  O  O27  1  0.10246300  0.91142600  0.64994100  1
  O  O28  1  0.63513400  0.99559900  0.35010600  1
  O  O29  1  0.60246300  0.58857400  0.35005900  1
  O  O30  1  0.39753700  0.41142600  0.35005900  1
  O  O31  1  0.30564100  0.75222500  0.50000000  1
  O  O32  1  0.69435900  0.24777500  0.50000000  1
  O  O33  1  0.36486600  0.00440100  0.64989400  1
  O  O34  1  0.49559900  0.13513400  0.85010600  1
  O  O35  1  0.63513400  0.99559900  0.64989400  1
  O  O36  1  0.86486600  0.49559900  0.64989400  1
  O  O37  1  0.39753700  0.41142600  0.64994100  1
  O  O38  1  0.91142600  0.89753700  0.85005900  1
  O  O39  1  0.13513400  0.50440100  0.35010600  1
  O  O40  1  0.86486600  0.49559900  0.35010600  1
  O  O41  1  0.91142600  0.89753700  0.14994100  1
  O  O42  1  0.00440100  0.63513400  0.14989400  1
  O  O43  1  0.08857400  0.10246300  0.85005900  1
  O  O44  1  0.41142600  0.60246300  0.85005900  1
  O  O45  1  0.50440100  0.86486600  0.14989400  1
  O  O46  1  0.75222500  0.69435900  0.00000000  1
  O  O47  1  0.49559900  0.13513400  0.14989400  1
  O  O48  1  0.89753700  0.08857400  0.64994100  1
  O  O49  1  0.60246300  0.58857400  0.64994100  1
  O  O50  1  0.99559900  0.36486600  0.85010600  1
  O  O51  1  0.99559900  0.36486600  0.14989400  1
  O  O52  1  0.50440100  0.86486600  0.85010600  1
  O  O53  1  0.13513400  0.50440100  0.64989400  1
  O  O54  1  0.74777500  0.19435900  0.00000000  1
  O  O55  1  0.58857400  0.39753700  0.14994100  1
