# generated using pymatgen
data_KZrCuF7
_symmetry_space_group_name_H-M   'P 1'
_cell_length_a   7.76076657
_cell_length_b   7.76076657
_cell_length_c   10.21719600
_cell_angle_alpha   90.00000000
_cell_angle_beta   90.00000000
_cell_angle_gamma   113.34405877
_symmetry_Int_Tables_number   1
_chemical_formula_structural   KZrCuF7
_chemical_formula_sum   'K4 Zr4 Cu4 F28'
_cell_volume   565.00305394
_cell_formula_units_Z   4
loop_
 _symmetry_equiv_pos_site_id
 _symmetry_equiv_pos_as_xyz
  1  'x, y, z'
loop_
 _atom_site_type_symbol
 _atom_site_label
 _atom_site_symmetry_multiplicity
 _atom_site_fract_x
 _atom_site_fract_y
 _atom_site_fract_z
 _atom_site_occupancy
  K  K0  1  0.63718100  0.84704200  0.25000000  1
  K  K1  1  0.15295800  0.36281900  0.25000000  1
  K  K2  1  0.84704200  0.63718100  0.75000000  1
  K  K3  1  0.36281900  0.15295800  0.75000000  1
  Zr  Zr4  1  0.13379200  0.86620800  0.43110800  1
  Zr  Zr5  1  0.13379200  0.86620800  0.06889200  1
  Zr  Zr6  1  0.86620800  0.13379200  0.93110800  1
  Zr  Zr7  1  0.86620800  0.13379200  0.56889200  1
  Cu  Cu8  1  0.63393100  0.36606900  0.06993100  1
  Cu  Cu9  1  0.36606900  0.63393100  0.56993100  1
  Cu  Cu10  1  0.36606900  0.63393100  0.93006900  1
  Cu  Cu11  1  0.63393100  0.36606900  0.43006900  1
  F  F12  1  0.64429000  0.89722000  0.51343500  1
  F  F13  1  0.35571000  0.10278000  0.48656500  1
  F  F14  1  0.77764400  0.22235600  0.38586800  1
  F  F15  1  0.22235600  0.77764400  0.61413200  1
  F  F16  1  0.02547700  0.97452300  0.61348500  1
  F  F17  1  0.35571000  0.10278000  0.01343500  1
  F  F18  1  0.89722000  0.64429000  0.01343500  1
  F  F19  1  0.99769600  0.72510100  0.25000000  1
  F  F20  1  0.10278000  0.35571000  0.51343500  1
  F  F21  1  0.29545500  0.70454500  0.38989500  1
  F  F22  1  0.58405200  0.41594800  0.25000000  1
  F  F23  1  0.70454500  0.29545500  0.61010500  1
  F  F24  1  0.70454500  0.29545500  0.88989500  1
  F  F25  1  0.97452300  0.02547700  0.38651500  1
  F  F26  1  0.10278000  0.35571000  0.98656500  1
  F  F27  1  0.22235600  0.77764400  0.88586800  1
  F  F28  1  0.41594800  0.58405200  0.75000000  1
  F  F29  1  0.89722000  0.64429000  0.48656500  1
  F  F30  1  0.72510100  0.99769600  0.75000000  1
  F  F31  1  0.02547700  0.97452300  0.88651500  1
  F  F32  1  0.97452300  0.02547700  0.11348500  1
  F  F33  1  0.29545500  0.70454500  0.11010500  1
  F  F34  1  0.64429000  0.89722000  0.98656500  1
  F  F35  1  0.77764400  0.22235600  0.11413200  1
  F  F36  1  0.50000000  0.50000000  0.50000000  1
  F  F37  1  0.00230400  0.27489900  0.75000000  1
  F  F38  1  0.27489900  0.00230400  0.25000000  1
  F  F39  1  0.50000000  0.50000000  0.00000000  1
