# generated using pymatgen
data_AlPO4
_symmetry_space_group_name_H-M   'P 1'
_cell_length_a   13.38321400
_cell_length_b   13.38321400
_cell_length_c   14.23274173
_cell_angle_alpha   82.59023078
_cell_angle_beta   82.59023078
_cell_angle_gamma   62.55849402
_symmetry_Int_Tables_number   1
_chemical_formula_structural   AlPO4
_chemical_formula_sum   'Al16 P16 O64'
_cell_volume   2236.49120270
_cell_formula_units_Z   16
loop_
 _symmetry_equiv_pos_site_id
 _symmetry_equiv_pos_as_xyz
  1  'x, y, z'
loop_
 _atom_site_type_symbol
 _atom_site_label
 _atom_site_symmetry_multiplicity
 _atom_site_fract_x
 _atom_site_fract_y
 _atom_site_fract_z
 _atom_site_occupancy
  Al  Al0  1  0.14487300  0.37309200  0.43777500  1
  Al  Al1  1  0.36919100  0.96340300  0.59610700  1
  Al  Al2  1  0.27143300  0.05260700  0.30349500  1
  Al  Al3  1  0.72856700  0.94739300  0.69650500  1
  Al  Al4  1  0.94739300  0.72856700  0.19650500  1
  Al  Al5  1  0.03659700  0.63080900  0.90389300  1
  Al  Al6  1  0.18191800  0.95759300  0.99117400  1
  Al  Al7  1  0.63080900  0.03659700  0.40389300  1
  Al  Al8  1  0.04240700  0.81808200  0.50882600  1
  Al  Al9  1  0.96340300  0.36919100  0.09610700  1
  Al  Al10  1  0.62690800  0.85512700  0.06222500  1
  Al  Al11  1  0.05260700  0.27143300  0.80349500  1
  Al  Al12  1  0.81808200  0.04240700  0.00882600  1
  Al  Al13  1  0.95759300  0.18191800  0.49117400  1
  Al  Al14  1  0.85512700  0.62690800  0.56222500  1
  Al  Al15  1  0.37309200  0.14487300  0.93777500  1
  P  P16  1  0.81425600  0.04841100  0.51038800  1
  P  P17  1  0.62994100  0.84940600  0.56022900  1
  P  P18  1  0.63245500  0.03634200  0.89978000  1
  P  P19  1  0.15059400  0.37005900  0.93977100  1
  P  P20  1  0.04602300  0.27580800  0.30141600  1
  P  P21  1  0.84940600  0.62994100  0.06022900  1
  P  P22  1  0.95397700  0.72419200  0.69858400  1
  P  P23  1  0.04841100  0.81425600  0.01038800  1
  P  P24  1  0.36754500  0.96365800  0.10022000  1
  P  P25  1  0.27580800  0.04602300  0.80141600  1
  P  P26  1  0.03634200  0.63245500  0.39978000  1
  P  P27  1  0.37005900  0.15059400  0.43977100  1
  P  P28  1  0.96365800  0.36754500  0.60022000  1
  P  P29  1  0.18574400  0.95158900  0.48961200  1
  P  P30  1  0.72419200  0.95397700  0.19858400  1
  P  P31  1  0.95158900  0.18574400  0.98961200  1
  O  O32  1  0.82712800  0.84804500  0.23570000  1
  O  O33  1  0.50898100  0.86264800  0.57031600  1
  O  O34  1  0.91901700  0.64790500  0.65299700  1
  O  O35  1  0.91608200  0.93756000  0.48059200  1
  O  O36  1  0.06244000  0.08391800  0.01940800  1
  O  O37  1  0.65325800  0.90498600  0.46356900  1
  O  O38  1  0.08391800  0.06244000  0.51940800  1
  O  O39  1  0.35209500  0.08098300  0.84700300  1
  O  O40  1  0.90498600  0.65325800  0.96356900  1
  O  O41  1  0.71627400  0.07300100  0.92946700  1
  O  O42  1  0.12842100  0.51154300  0.42301900  1
  O  O43  1  0.72075300  0.08168300  0.44347400  1
  O  O44  1  0.71160300  0.72252400  0.56490500  1
  O  O45  1  0.91831700  0.27924700  0.05652600  1
  O  O46  1  0.08168300  0.72075300  0.94347400  1
  O  O47  1  0.07823800  0.35045900  0.54757600  1
  O  O48  1  0.84768800  0.14459600  0.50207900  1
  O  O49  1  0.76389000  0.02638000  0.12564400  1
  O  O50  1  0.64954100  0.92176200  0.95242400  1
  O  O51  1  0.51154300  0.12842100  0.92301900  1
  O  O52  1  0.35045900  0.07823800  0.04757600  1
  O  O53  1  0.02450700  0.65605300  0.78161800  1
  O  O54  1  0.27924700  0.91831700  0.55652600  1
  O  O55  1  0.87157900  0.48845700  0.57698100  1
  O  O56  1  0.23611000  0.97362000  0.87435600  1
  O  O57  1  0.02459700  0.65095000  0.29241200  1
  O  O58  1  0.90566500  0.64501200  0.14186400  1
  O  O59  1  0.03244900  0.77125500  0.11422300  1
  O  O60  1  0.85540400  0.15231200  0.99792100  1
  O  O61  1  0.09501400  0.34674200  0.03643100  1
  O  O62  1  0.84804500  0.82712800  0.73570000  1
  O  O63  1  0.02638000  0.76389000  0.62564400  1
  O  O64  1  0.27747600  0.28839700  0.93509500  1
  O  O65  1  0.17287200  0.15195500  0.76430000  1
  O  O66  1  0.35498800  0.09433500  0.35813600  1
  O  O67  1  0.13735200  0.49101900  0.92968400  1
  O  O68  1  0.08098300  0.35209500  0.34700300  1
  O  O69  1  0.97362000  0.23611000  0.37435600  1
  O  O70  1  0.77125500  0.03244900  0.61422300  1
  O  O71  1  0.97549300  0.34394700  0.21838200  1
  O  O72  1  0.49101900  0.13735200  0.42968400  1
  O  O73  1  0.64501200  0.90566500  0.64186400  1
  O  O74  1  0.15195500  0.17287200  0.26430000  1
  O  O75  1  0.34674200  0.09501400  0.53643100  1
  O  O76  1  0.96755100  0.22874500  0.88577700  1
  O  O77  1  0.72252400  0.71160300  0.06490500  1
  O  O78  1  0.14459600  0.84768800  0.00207900  1
  O  O79  1  0.09433500  0.35498800  0.85813600  1
  O  O80  1  0.65095000  0.02459700  0.79241200  1
  O  O81  1  0.92699900  0.28372600  0.57053300  1
  O  O82  1  0.65605300  0.02450700  0.28161800  1
  O  O83  1  0.64790500  0.91901700  0.15299700  1
  O  O84  1  0.86264800  0.50898100  0.07031600  1
  O  O85  1  0.48845700  0.87157900  0.07698100  1
  O  O86  1  0.28372600  0.92699900  0.07053300  1
  O  O87  1  0.22874500  0.96755100  0.38577700  1
  O  O88  1  0.97540300  0.34905000  0.70758800  1
  O  O89  1  0.93756000  0.91608200  0.98059200  1
  O  O90  1  0.28839700  0.27747600  0.43509500  1
  O  O91  1  0.07300100  0.71627400  0.42946700  1
  O  O92  1  0.92176200  0.64954100  0.45242400  1
  O  O93  1  0.15231200  0.85540400  0.49792100  1
  O  O94  1  0.34394700  0.97549300  0.71838200  1
  O  O95  1  0.34905000  0.97540300  0.20758800  1
