# generated using pymatgen
data_CuSb2ClO3
_symmetry_space_group_name_H-M   'P 1'
_cell_length_a   7.85329841
_cell_length_b   7.85329841
_cell_length_c   18.85966100
_cell_angle_alpha   90.00000000
_cell_angle_beta   90.00000000
_cell_angle_gamma   120.08547607
_symmetry_Int_Tables_number   1
_chemical_formula_structural   CuSb2ClO3
_chemical_formula_sum   'Cu8 Sb16 Cl8 O24'
_cell_volume   1006.45417506
_cell_formula_units_Z   8
loop_
 _symmetry_equiv_pos_site_id
 _symmetry_equiv_pos_as_xyz
  1  'x, y, z'
loop_
 _atom_site_type_symbol
 _atom_site_label
 _atom_site_symmetry_multiplicity
 _atom_site_fract_x
 _atom_site_fract_y
 _atom_site_fract_z
 _atom_site_occupancy
  Cu  Cu0  1  0.73541700  0.74238500  0.73165300  1
  Cu  Cu1  1  0.26458300  0.25761500  0.23165300  1
  Cu  Cu2  1  0.75428800  0.24571200  0.77656000  1
  Cu  Cu3  1  0.74639300  0.25360700  0.22199200  1
  Cu  Cu4  1  0.74238500  0.73541700  0.23165300  1
  Cu  Cu5  1  0.25360700  0.74639300  0.72199200  1
  Cu  Cu6  1  0.25761500  0.26458300  0.73165300  1
  Cu  Cu7  1  0.24571200  0.75428800  0.27656000  1
  Sb  Sb8  1  0.57793700  0.89771000  0.58224700  1
  Sb  Sb9  1  0.42206300  0.10229000  0.08224700  1
  Sb  Sb10  1  0.89771000  0.57793700  0.08224700  1
  Sb  Sb11  1  0.08343400  0.91656600  0.58021100  1
  Sb  Sb12  1  0.39826100  0.07625500  0.41902600  1
  Sb  Sb13  1  0.57912800  0.42087200  0.92178500  1
  Sb  Sb14  1  0.91656600  0.08343400  0.08021100  1
  Sb  Sb15  1  0.57499700  0.42500300  0.58357600  1
  Sb  Sb16  1  0.42087200  0.57912800  0.42178500  1
  Sb  Sb17  1  0.42500300  0.57499700  0.08357600  1
  Sb  Sb18  1  0.92374500  0.60173900  0.41902600  1
  Sb  Sb19  1  0.60173900  0.92374500  0.91902600  1
  Sb  Sb20  1  0.07075400  0.92924600  0.91929400  1
  Sb  Sb21  1  0.07625500  0.39826100  0.91902600  1
  Sb  Sb22  1  0.92924600  0.07075400  0.41929400  1
  Sb  Sb23  1  0.10229000  0.42206300  0.58224700  1
  Cl  Cl24  1  0.41269500  0.58730500  0.77213700  1
  Cl  Cl25  1  0.91441100  0.08558900  0.72834400  1
  Cl  Cl26  1  0.58088900  0.91514300  0.24729600  1
  Cl  Cl27  1  0.08485700  0.41911100  0.24729600  1
  Cl  Cl28  1  0.08558900  0.91441100  0.22834400  1
  Cl  Cl29  1  0.91514300  0.58088900  0.74729600  1
  Cl  Cl30  1  0.41911100  0.08485700  0.74729600  1
  Cl  Cl31  1  0.58730500  0.41269500  0.27213700  1
  O  O32  1  0.45731900  0.16775300  0.97869900  1
  O  O33  1  0.83224700  0.54268100  0.97869900  1
  O  O34  1  0.04470900  0.95529100  0.02515800  1
  O  O35  1  0.16775300  0.45731900  0.47869900  1
  O  O36  1  0.45257300  0.54742700  0.97900700  1
  O  O37  1  0.96035600  0.66260600  0.52389000  1
  O  O38  1  0.66932100  0.70755900  0.61188100  1
  O  O39  1  0.83454200  0.79130000  0.39431900  1
  O  O40  1  0.16545800  0.20870000  0.89431900  1
  O  O41  1  0.54268100  0.83224700  0.47869900  1
  O  O42  1  0.95529100  0.04470900  0.52515800  1
  O  O43  1  0.66260600  0.96035600  0.02389000  1
  O  O44  1  0.29244100  0.33067900  0.61188100  1
  O  O45  1  0.54742700  0.45257300  0.47900700  1
  O  O46  1  0.20870000  0.16545800  0.39431900  1
  O  O47  1  0.33739400  0.03964400  0.52389000  1
  O  O48  1  0.29381800  0.70618200  0.61244500  1
  O  O49  1  0.70755900  0.66932100  0.11188100  1
  O  O50  1  0.03964400  0.33739400  0.02389000  1
  O  O51  1  0.79017400  0.20982600  0.88805200  1
  O  O52  1  0.33067900  0.29244100  0.11188100  1
  O  O53  1  0.20982600  0.79017400  0.38805200  1
  O  O54  1  0.70618200  0.29381800  0.11244500  1
  O  O55  1  0.79130000  0.83454200  0.89431900  1
