# generated using pymatgen
data_CsTlO2
_symmetry_space_group_name_H-M   'P 1'
_cell_length_a   3.60581000
_cell_length_b   3.60577684
_cell_length_c   13.50318000
_cell_angle_alpha   89.99867566
_cell_angle_beta   90.00067630
_cell_angle_gamma   120.00066247
_symmetry_Int_Tables_number   1
_chemical_formula_structural   CsTlO2
_chemical_formula_sum   'Cs2 Tl2 O4'
_cell_volume   152.04266503
_cell_formula_units_Z   2
loop_
 _symmetry_equiv_pos_site_id
 _symmetry_equiv_pos_as_xyz
  1  'x, y, z'
loop_
 _atom_site_type_symbol
 _atom_site_label
 _atom_site_symmetry_multiplicity
 _atom_site_fract_x
 _atom_site_fract_y
 _atom_site_fract_z
 _atom_site_occupancy
  Cs  Cs0  1  0.33327300  0.66645600  0.75000000  1
  Cs  Cs1  1  0.66673200  0.33317200  0.25000000  1
  Tl  Tl2  1  0.99998800  0.00013000  0.00001700  1
  Tl  Tl3  1  0.00000000  0.00026800  0.49999100  1
  O  O4  1  0.33333400  0.66672700  0.41313800  1
  O  O5  1  0.33333300  0.66657100  0.08685700  1
  O  O6  1  0.66667000  0.33338700  0.58683900  1
  O  O7  1  0.66667100  0.33328900  0.91315700  1
