# generated using pymatgen
data_Ca4Al6WO16
_symmetry_space_group_name_H-M   'P 1'
_cell_length_a   7.93259138
_cell_length_b   7.86549601
_cell_length_c   7.47473785
_cell_angle_alpha   62.21562377
_cell_angle_beta   61.30941807
_cell_angle_gamma   56.47495815
_symmetry_Int_Tables_number   1
_chemical_formula_structural   Ca4Al6WO16
_chemical_formula_sum   'Ca4 Al6 W1 O16'
_cell_volume   327.92341646
_cell_formula_units_Z   1
loop_
 _symmetry_equiv_pos_site_id
 _symmetry_equiv_pos_as_xyz
  1  'x, y, z'
loop_
 _atom_site_type_symbol
 _atom_site_label
 _atom_site_symmetry_multiplicity
 _atom_site_fract_x
 _atom_site_fract_y
 _atom_site_fract_z
 _atom_site_occupancy
  Ca  Ca0  1  0.66291400  0.95013300  0.33708600  1
  Ca  Ca1  1  0.38235800  0.61764200  0.99947100  1
  Ca  Ca2  1  0.04986700  0.33708600  0.95013300  1
  Ca  Ca3  1  0.00052900  0.99947100  0.61764200  1
  Al  Al4  1  0.49499600  0.20406000  0.85518800  1
  Al  Al5  1  0.44575500  0.85518800  0.20406000  1
  Al  Al6  1  0.79594000  0.50500400  0.55424500  1
  Al  Al7  1  0.19045400  0.30954600  0.30954600  1
  Al  Al8  1  0.69045400  0.80954600  0.80954600  1
  Al  Al9  1  0.14481200  0.55424500  0.50500400  1
  W  W10  1  0.61528500  0.38471500  0.38471500  1
  O  O11  1  0.71334200  0.06766600  0.53456800  1
  O  O12  1  0.62917600  0.71280700  0.68287800  1
  O  O13  1  0.97514000  0.68287800  0.71280700  1
  O  O14  1  0.36208700  0.38537500  0.63791300  1
  O  O15  1  0.68442400  0.53456800  0.06766600  1
  O  O16  1  0.61462500  0.63791300  0.38537500  1
  O  O17  1  0.05798500  0.31704200  0.61482400  1
  O  O18  1  0.68295800  0.94201500  0.98985100  1
  O  O19  1  0.93233400  0.28665800  0.31557600  1
  O  O20  1  0.28719300  0.37082400  0.02486000  1
  O  O21  1  0.46543200  0.31557600  0.28665800  1
  O  O22  1  0.01014900  0.61482400  0.31704200  1
  O  O23  1  0.68710600  0.31289400  0.69661200  1
  O  O24  1  0.38517600  0.98985100  0.94201500  1
  O  O25  1  0.31712200  0.02486000  0.37082400  1
  O  O26  1  0.30338800  0.69661200  0.31289400  1
