# generated using pymatgen
data_SrTa2Bi2O9
_symmetry_space_group_name_H-M   'P 1'
_cell_length_a   12.88926011
_cell_length_b   12.88926011
_cell_length_c   12.88926011
_cell_angle_alpha   162.43201052
_cell_angle_beta   162.43201052
_cell_angle_gamma   24.94420584
_symmetry_Int_Tables_number   1
_chemical_formula_structural   SrTa2Bi2O9
_chemical_formula_sum   'Sr1 Ta2 Bi2 O9'
_cell_volume   195.03203961
_cell_formula_units_Z   1
loop_
 _symmetry_equiv_pos_site_id
 _symmetry_equiv_pos_as_xyz
  1  'x, y, z'
loop_
 _atom_site_type_symbol
 _atom_site_label
 _atom_site_symmetry_multiplicity
 _atom_site_fract_x
 _atom_site_fract_y
 _atom_site_fract_z
 _atom_site_occupancy
  Sr  Sr0  1  0.00000000  0.00000000  0.00000000  1
  Ta  Ta1  1  0.58503900  0.58503900  0.00000000  1
  Ta  Ta2  1  0.41496100  0.41496100  0.00000000  1
  Bi  Bi3  1  0.20051000  0.20051000  0.00000000  1
  Bi  Bi4  1  0.79949000  0.79949000  0.00000000  1
  O  O5  1  0.57636200  0.07636200  0.50000000  1
  O  O6  1  0.75000000  0.25000000  0.50000000  1
  O  O7  1  0.92363800  0.42363800  0.50000000  1
  O  O8  1  0.50000000  0.50000000  0.00000000  1
  O  O9  1  0.42363800  0.92363800  0.50000000  1
  O  O10  1  0.33934300  0.33934300  0.00000000  1
  O  O11  1  0.07636200  0.57636200  0.50000000  1
  O  O12  1  0.25000000  0.75000000  0.50000000  1
  O  O13  1  0.66065700  0.66065700  0.00000000  1
