# generated using pymatgen
data_NaSb(PS3)2
_symmetry_space_group_name_H-M   'P 1'
_cell_length_a   7.41002200
_cell_length_b   11.42595500
_cell_length_c   11.93495585
_cell_angle_alpha   71.04123541
_cell_angle_beta   90.00000000
_cell_angle_gamma   90.00000000
_symmetry_Int_Tables_number   1
_chemical_formula_structural   NaSb(PS3)2
_chemical_formula_sum   'Na4 Sb4 P8 S24'
_cell_volume   955.67535295
_cell_formula_units_Z   4
loop_
 _symmetry_equiv_pos_site_id
 _symmetry_equiv_pos_as_xyz
  1  'x, y, z'
loop_
 _atom_site_type_symbol
 _atom_site_label
 _atom_site_symmetry_multiplicity
 _atom_site_fract_x
 _atom_site_fract_y
 _atom_site_fract_z
 _atom_site_occupancy
  Na  Na0  1  0.11144500  0.40309200  0.37964800  1
  Na  Na1  1  0.88855500  0.59690800  0.62035200  1
  Na  Na2  1  0.61144500  0.59690800  0.12035200  1
  Na  Na3  1  0.38855500  0.40309200  0.87964800  1
  Sb  Sb4  1  0.16072100  0.86801400  0.82094400  1
  Sb  Sb5  1  0.83927900  0.13198600  0.17905600  1
  Sb  Sb6  1  0.33927900  0.86801400  0.32094400  1
  Sb  Sb7  1  0.66072100  0.13198600  0.67905600  1
  P  P8  1  0.89999300  0.24404800  0.83471100  1
  P  P9  1  0.10000700  0.75595200  0.16528900  1
  P  P10  1  0.87841200  0.75380300  0.29590400  1
  P  P11  1  0.39999300  0.75595200  0.66528900  1
  P  P12  1  0.37841200  0.24619700  0.20409600  1
  P  P13  1  0.62158800  0.75380300  0.79590400  1
  P  P14  1  0.12158800  0.24619700  0.70409600  1
  P  P15  1  0.60000700  0.24404800  0.33471100  1
  S  S16  1  0.50943700  0.17720600  0.08475800  1
  S  S17  1  0.80361700  0.34207700  0.22444000  1
  S  S18  1  0.30361700  0.65792300  0.27556000  1
  S  S19  1  0.30650700  0.12428800  0.80409900  1
  S  S20  1  0.69638300  0.34207700  0.72444000  1
  S  S21  1  0.20998300  0.42005300  0.63384600  1
  S  S22  1  0.00943700  0.82279400  0.41524200  1
  S  S23  1  0.49418100  0.68750500  0.54329500  1
  S  S24  1  0.69349300  0.87571200  0.19590100  1
  S  S25  1  0.50581900  0.31249500  0.45670500  1
  S  S26  1  0.99418100  0.31249500  0.95670500  1
  S  S27  1  0.80873000  0.06420500  0.88995800  1
  S  S28  1  0.00581900  0.68750500  0.04329500  1
  S  S29  1  0.70998300  0.57994700  0.86615400  1
  S  S30  1  0.99056300  0.17720600  0.58475800  1
  S  S31  1  0.49056300  0.82279400  0.91524200  1
  S  S32  1  0.79001700  0.57994700  0.36615400  1
  S  S33  1  0.69127000  0.06420500  0.38995900  1
  S  S34  1  0.19349300  0.12428800  0.30409900  1
  S  S35  1  0.80650700  0.87571200  0.69590100  1
  S  S36  1  0.30873000  0.93579500  0.61004200  1
  S  S37  1  0.19638300  0.65792300  0.77556000  1
  S  S38  1  0.29001700  0.42005300  0.13384600  1
  S  S39  1  0.19127000  0.93579500  0.11004200  1
