# generated using pymatgen
data_Co6O5F7
_symmetry_space_group_name_H-M   'P 1'
_cell_length_a   5.58384185
_cell_length_b   5.58384185
_cell_length_c   7.67052345
_cell_angle_alpha   68.19649214
_cell_angle_beta   68.19649214
_cell_angle_gamma   68.05784176
_symmetry_Int_Tables_number   1
_chemical_formula_structural   Co6O5F7
_chemical_formula_sum   'Co6 O5 F7'
_cell_volume   198.31061398
_cell_formula_units_Z   1
loop_
 _symmetry_equiv_pos_site_id
 _symmetry_equiv_pos_as_xyz
  1  'x, y, z'
loop_
 _atom_site_type_symbol
 _atom_site_label
 _atom_site_symmetry_multiplicity
 _atom_site_fract_x
 _atom_site_fract_y
 _atom_site_fract_z
 _atom_site_occupancy
  Co  Co0  1  0.33787700  0.66212300  0.00000000  1
  Co  Co1  1  0.30420800  0.69579200  0.50000000  1
  Co  Co2  1  0.00177300  0.32546500  0.83584300  1
  Co  Co3  1  0.01495500  0.34003400  0.32175500  1
  Co  Co4  1  0.65996600  0.98504500  0.67824500  1
  Co  Co5  1  0.67453500  0.99822700  0.16415700  1
  O  O6  1  0.30196000  0.01608700  0.84045600  1
  O  O7  1  0.01967800  0.98032200  0.50000000  1
  O  O8  1  0.69121800  0.62799000  0.84048300  1
  O  O9  1  0.37201000  0.30878200  0.15951700  1
  O  O10  1  0.98391300  0.69804000  0.15954400  1
  F  F11  1  0.62742400  0.37257600  0.50000000  1
  F  F12  1  0.23483500  0.56013000  0.78983900  1
  F  F13  1  0.56344600  0.89520200  0.46413200  1
  F  F14  1  0.89897800  0.23144000  0.13340500  1
  F  F15  1  0.10479800  0.43655400  0.53586800  1
  F  F16  1  0.43987000  0.76516500  0.21016100  1
  F  F17  1  0.76856000  0.10102200  0.86659500  1
