# generated using pymatgen
data_Ag5IO6
_symmetry_space_group_name_H-M   'P 1'
_cell_length_a   11.48298265
_cell_length_b   11.48298265
_cell_length_c   11.48298231
_cell_angle_alpha   30.39157326
_cell_angle_beta   30.39157326
_cell_angle_gamma   30.39157435
_symmetry_Int_Tables_number   1
_chemical_formula_structural   Ag5IO6
_chemical_formula_sum   'Ag10 I2 O12'
_cell_volume   343.46762528
_cell_formula_units_Z   2
loop_
 _symmetry_equiv_pos_site_id
 _symmetry_equiv_pos_as_xyz
  1  'x, y, z'
loop_
 _atom_site_type_symbol
 _atom_site_label
 _atom_site_symmetry_multiplicity
 _atom_site_fract_x
 _atom_site_fract_y
 _atom_site_fract_z
 _atom_site_occupancy
  Ag  Ag0  1  0.25000000  0.54526500  0.95473500  1
  Ag  Ag1  1  0.54526500  0.95473500  0.25000000  1
  Ag  Ag2  1  0.95473500  0.25000000  0.54526500  1
  Ag  Ag3  1  0.14989200  0.14989200  0.14989200  1
  Ag  Ag4  1  0.64989200  0.64989200  0.64989200  1
  Ag  Ag5  1  0.75000000  0.45473500  0.04526500  1
  Ag  Ag6  1  0.35010800  0.35010800  0.35010800  1
  Ag  Ag7  1  0.45473500  0.04526500  0.75000000  1
  Ag  Ag8  1  0.85010800  0.85010800  0.85010800  1
  Ag  Ag9  1  0.04526500  0.75000000  0.45473500  1
  I  I10  1  0.50000000  0.50000000  0.50000000  1
  I  I11  1  0.00000000  0.00000000  0.00000000  1
  O  O12  1  0.01643500  0.67994500  0.20258200  1
  O  O13  1  0.98356500  0.32005500  0.79741800  1
  O  O14  1  0.29741800  0.82005500  0.48356500  1
  O  O15  1  0.32005500  0.79741800  0.98356500  1
  O  O16  1  0.17994500  0.51643500  0.70258200  1
  O  O17  1  0.70258200  0.17994500  0.51643500  1
  O  O18  1  0.51643500  0.70258200  0.17994500  1
  O  O19  1  0.79741800  0.98356500  0.32005500  1
  O  O20  1  0.82005500  0.48356500  0.29741800  1
  O  O21  1  0.67994500  0.20258200  0.01643500  1
  O  O22  1  0.48356500  0.29741800  0.82005500  1
  O  O23  1  0.20258200  0.01643500  0.67994500  1
