# generated using pymatgen
data_Cs3GaO3
_symmetry_space_group_name_H-M   'P 1'
_cell_length_a   7.35643299
_cell_length_b   7.35643299
_cell_length_c   7.35649252
_cell_angle_alpha   81.48865357
_cell_angle_beta   81.48865357
_cell_angle_gamma   115.37129053
_symmetry_Int_Tables_number   1
_chemical_formula_structural   Cs3GaO3
_chemical_formula_sum   'Cs6 Ga2 O6'
_cell_volume   345.65195372
_cell_formula_units_Z   2
loop_
 _symmetry_equiv_pos_site_id
 _symmetry_equiv_pos_as_xyz
  1  'x, y, z'
loop_
 _atom_site_type_symbol
 _atom_site_label
 _atom_site_symmetry_multiplicity
 _atom_site_fract_x
 _atom_site_fract_y
 _atom_site_fract_z
 _atom_site_occupancy
  Cs  Cs0  1  0.62555800  0.62555800  0.66446000  1
  Cs  Cs1  1  0.79724800  0.20275200  0.50000000  1
  Cs  Cs2  1  0.20275200  0.79724800  0.50000000  1
  Cs  Cs3  1  0.74667200  0.25332800  0.00000000  1
  Cs  Cs4  1  0.25332800  0.74667200  0.00000000  1
  Cs  Cs5  1  0.37444200  0.37444200  0.33554000  1
  Ga  Ga6  1  0.84064200  0.84064200  0.14840700  1
  Ga  Ga7  1  0.15935800  0.15935800  0.85159300  1
  O  O8  1  0.90577100  0.90577100  0.86964300  1
  O  O9  1  0.59958200  0.84774400  0.26249700  1
  O  O10  1  0.84774400  0.59958200  0.26249700  1
  O  O11  1  0.15225600  0.40041800  0.73750300  1
  O  O12  1  0.40041800  0.15225600  0.73750300  1
  O  O13  1  0.09422900  0.09422900  0.13035700  1
