# generated using pymatgen
data_Co6O5F7
_symmetry_space_group_name_H-M   'P 1'
_cell_length_a   4.65565300
_cell_length_b   5.57961215
_cell_length_c   7.67344988
_cell_angle_alpha   85.59217853
_cell_angle_beta   87.26653363
_cell_angle_gamma   85.75995344
_symmetry_Int_Tables_number   1
_chemical_formula_structural   Co6O5F7
_chemical_formula_sum   'Co6 O5 F7'
_cell_volume   198.02072407
_cell_formula_units_Z   1
loop_
 _symmetry_equiv_pos_site_id
 _symmetry_equiv_pos_as_xyz
  1  'x, y, z'
loop_
 _atom_site_type_symbol
 _atom_site_label
 _atom_site_symmetry_multiplicity
 _atom_site_fract_x
 _atom_site_fract_y
 _atom_site_fract_z
 _atom_site_occupancy
  Co  Co0  1  0.49993700  0.49298100  0.00844100  1
  Co  Co1  1  0.50284600  0.16622200  0.32494000  1
  Co  Co2  1  0.55562200  0.83107800  0.66200700  1
  Co  Co3  1  0.96808300  0.33659600  0.67920900  1
  Co  Co4  1  0.00433400  0.66907600  0.33338800  1
  Co  Co5  1  0.96628300  0.01141500  0.99235000  1
  O  O6  1  0.81339700  0.03908100  0.77199700  1
  O  O7  1  0.69205900  0.52467000  0.78434300  1
  O  O8  1  0.68789500  0.20499900  0.10273300  1
  O  O9  1  0.70621700  0.87550200  0.41821900  1
  O  O10  1  0.30739800  0.46167600  0.23206800  1
  F  F11  1  0.80490200  0.37143200  0.43770700  1
  F  F12  1  0.80805600  0.70204700  0.09749200  1
  F  F13  1  0.29824200  0.13944000  0.55728900  1
  F  F14  1  0.29837000  0.79254100  0.90939400  1
  F  F15  1  0.19475900  0.96283300  0.22228800  1
  F  F16  1  0.20061600  0.29043300  0.89770000  1
  F  F17  1  0.19098500  0.62797900  0.56843400  1
