# generated using pymatgen
data_SiO2
_symmetry_space_group_name_H-M   'P 1'
_cell_length_a   13.16040830
_cell_length_b   13.16040830
_cell_length_c   3.88901600
_cell_angle_alpha   90.00000000
_cell_angle_beta   90.00000000
_cell_angle_gamma   120.00000151
_symmetry_Int_Tables_number   1
_chemical_formula_structural   SiO2
_chemical_formula_sum   'Si12 O24'
_cell_volume   583.32297476
_cell_formula_units_Z   12
loop_
 _symmetry_equiv_pos_site_id
 _symmetry_equiv_pos_as_xyz
  1  'x, y, z'
loop_
 _atom_site_type_symbol
 _atom_site_label
 _atom_site_symmetry_multiplicity
 _atom_site_fract_x
 _atom_site_fract_y
 _atom_site_fract_z
 _atom_site_occupancy
  Si  Si0  1  0.48033100  0.13105400  0.15635300  1
  Si  Si1  1  0.86894600  0.51966900  0.84364700  1
  Si  Si2  1  0.13105400  0.65072300  0.15635300  1
  Si  Si3  1  0.86894600  0.34927700  0.15635300  1
  Si  Si4  1  0.34927700  0.86894600  0.84364700  1
  Si  Si5  1  0.48033100  0.34927700  0.84364700  1
  Si  Si6  1  0.13105400  0.48033100  0.84364700  1
  Si  Si7  1  0.65072300  0.13105400  0.84364700  1
  Si  Si8  1  0.51966900  0.86894600  0.15635300  1
  Si  Si9  1  0.34927700  0.48033100  0.15635300  1
  Si  Si10  1  0.65072300  0.51966900  0.15635300  1
  Si  Si11  1  0.51966900  0.65072300  0.84364700  1
  O  O12  1  0.21584900  0.60792500  0.00000000  1
  O  O13  1  0.00000000  0.38544400  0.00000000  1
  O  O14  1  0.89467600  0.44733800  0.50000000  1
  O  O15  1  0.60792500  0.39207500  0.00000000  1
  O  O16  1  0.20713600  0.79286400  0.00000000  1
  O  O17  1  0.39207500  0.78415100  0.00000000  1
  O  O18  1  0.78415100  0.39207500  0.00000000  1
  O  O19  1  0.79286400  0.58572900  0.00000000  1
  O  O20  1  0.55266200  0.44733800  0.50000000  1
  O  O21  1  0.60792500  0.21584900  0.00000000  1
  O  O22  1  0.44733800  0.55266200  0.50000000  1
  O  O23  1  0.00000000  0.61455600  0.00000000  1
  O  O24  1  0.55266200  0.10532400  0.50000000  1
  O  O25  1  0.44733800  0.89467600  0.50000000  1
  O  O26  1  0.58572900  0.79286400  0.00000000  1
  O  O27  1  0.39207500  0.60792500  0.00000000  1
  O  O28  1  0.79286400  0.20713600  0.00000000  1
  O  O29  1  0.38544400  0.00000000  0.00000000  1
  O  O30  1  0.10532400  0.55266200  0.50000000  1
  O  O31  1  0.38544400  0.38544400  0.00000000  1
  O  O32  1  0.61455600  0.61455600  0.00000000  1
  O  O33  1  0.61455600  0.00000000  0.00000000  1
  O  O34  1  0.20713600  0.41427100  0.00000000  1
  O  O35  1  0.41427100  0.20713600  0.00000000  1
