# generated using pymatgen
data_Cu3(AsO4)2
_symmetry_space_group_name_H-M   'P 1'
_cell_length_a   5.15829189
_cell_length_b   5.51148277
_cell_length_c   11.79880600
_cell_angle_alpha   90.00000000
_cell_angle_beta   90.00000000
_cell_angle_gamma   112.16307376
_symmetry_Int_Tables_number   1
_chemical_formula_structural   Cu3(AsO4)2
_chemical_formula_sum   'Cu6 As4 O16'
_cell_volume   310.65391657
_cell_formula_units_Z   2
loop_
 _symmetry_equiv_pos_site_id
 _symmetry_equiv_pos_as_xyz
  1  'x, y, z'
loop_
 _atom_site_type_symbol
 _atom_site_label
 _atom_site_symmetry_multiplicity
 _atom_site_fract_x
 _atom_site_fract_y
 _atom_site_fract_z
 _atom_site_occupancy
  Cu  Cu0  1  0.24590500  0.85977700  0.16348600  1
  Cu  Cu1  1  0.74590500  0.85977700  0.33651400  1
  Cu  Cu2  1  0.00000000  0.50000000  0.50000000  1
  Cu  Cu3  1  0.25409500  0.14022300  0.66348600  1
  Cu  Cu4  1  0.50000000  0.50000000  0.00000000  1
  Cu  Cu5  1  0.75409500  0.14022300  0.83651400  1
  As  As6  1  0.89277100  0.26671700  0.11423300  1
  As  As7  1  0.60722900  0.73328300  0.61423300  1
  As  As8  1  0.39277100  0.26671700  0.38576700  1
  As  As9  1  0.10722900  0.73328300  0.88576700  1
  O  O10  1  0.78986700  0.72570700  0.48769000  1
  O  O11  1  0.67016000  0.99195400  0.18696500  1
  O  O12  1  0.17016000  0.99195400  0.31303500  1
  O  O13  1  0.69876400  0.22036900  0.41819500  1
  O  O14  1  0.40768900  0.54300900  0.31520500  1
  O  O15  1  0.28986700  0.72570700  0.01231000  1
  O  O16  1  0.82984000  0.00804600  0.68696500  1
  O  O17  1  0.30123600  0.77963100  0.58180500  1
  O  O18  1  0.21013300  0.27429300  0.51231000  1
  O  O19  1  0.90768900  0.54300900  0.18479500  1
  O  O20  1  0.80123600  0.77963100  0.91819500  1
  O  O21  1  0.19876400  0.22036900  0.08180500  1
  O  O22  1  0.59231100  0.45699100  0.68479500  1
  O  O23  1  0.32984000  0.00804600  0.81303500  1
  O  O24  1  0.09231100  0.45699100  0.81520500  1
  O  O25  1  0.71013300  0.27429300  0.98769000  1
