# generated using pymatgen
data_ZnGa3N3O
_symmetry_space_group_name_H-M   'P 1'
_cell_length_a   6.48369700
_cell_length_b   6.48469004
_cell_length_c   10.52516153
_cell_angle_alpha   90.17314494
_cell_angle_beta   89.97257466
_cell_angle_gamma   119.99509256
_symmetry_Int_Tables_number   1
_chemical_formula_structural   ZnGa3N3O
_chemical_formula_sum   'Zn4 Ga12 N12 O4'
_cell_volume   383.25737193
_cell_formula_units_Z   4
loop_
 _symmetry_equiv_pos_site_id
 _symmetry_equiv_pos_as_xyz
  1  'x, y, z'
loop_
 _atom_site_type_symbol
 _atom_site_label
 _atom_site_symmetry_multiplicity
 _atom_site_fract_x
 _atom_site_fract_y
 _atom_site_fract_z
 _atom_site_occupancy
  Zn  Zn0  1  0.16080100  0.17836800  0.73781200  1
  Zn  Zn1  1  0.32834700  0.34398400  0.99282200  1
  Zn  Zn2  1  0.33416600  0.83308400  0.49454300  1
  Zn  Zn3  1  0.66648700  0.16679400  0.73657900  1
  Ga  Ga4  1  0.16235700  0.66081300  0.74670100  1
  Ga  Ga5  1  0.67752400  0.65938500  0.74513200  1
  Ga  Ga6  1  0.83982500  0.82518600  0.00054300  1
  Ga  Ga7  1  0.33548100  0.82410600  0.00076900  1
  Ga  Ga8  1  0.83421100  0.82949800  0.50029000  1
  Ga  Ga9  1  0.16144600  0.16180100  0.25684900  1
  Ga  Ga10  1  0.33041300  0.33611700  0.50170500  1
  Ga  Ga11  1  0.66721700  0.66711100  0.25515500  1
  Ga  Ga12  1  0.67707300  0.16090300  0.25504500  1
  Ga  Ga13  1  0.16068800  0.67735000  0.25651400  1
  Ga  Ga14  1  0.82954700  0.34003900  0.00178400  1
  Ga  Ga15  1  0.83293900  0.33726600  0.50203800  1
  N  N16  1  0.33082200  0.34260300  0.68649200  1
  N  N17  1  0.82699700  0.34156900  0.68631300  1
  N  N18  1  0.16046200  0.67892800  0.93546100  1
  N  N19  1  0.16233200  0.66262300  0.43652300  1
  N  N20  1  0.67471900  0.66287500  0.43665100  1
  N  N21  1  0.16226100  0.17582400  0.43731600  1
  N  N22  1  0.83275300  0.33401600  0.18646400  1
  N  N23  1  0.66673100  0.16631800  0.43757400  1
  N  N24  1  0.83668000  0.82600000  0.68680000  1
  N  N25  1  0.66614000  0.66790200  0.93724400  1
  N  N26  1  0.33436900  0.83274400  0.18720000  1
  N  N27  1  0.83269500  0.83308500  0.18636500  1
  O  O28  1  0.33504200  0.33165000  0.19356000  1
  O  O29  1  0.67919700  0.16021000  0.95023900  1
  O  O30  1  0.16067300  0.15957000  0.94888800  1
  O  O31  1  0.33960600  0.82227900  0.69861000  1
