# generated using pymatgen
data_Eu4Mo4O11
_symmetry_space_group_name_H-M   'P 1'
_cell_length_a   5.80062000
_cell_length_b   11.15512200
_cell_length_c   16.59717800
_cell_angle_alpha   90.00000000
_cell_angle_beta   90.00000000
_cell_angle_gamma   90.00000000
_symmetry_Int_Tables_number   1
_chemical_formula_structural   Eu4Mo4O11
_chemical_formula_sum   'Eu16 Mo16 O44'
_cell_volume   1073.94735258
_cell_formula_units_Z   4
loop_
 _symmetry_equiv_pos_site_id
 _symmetry_equiv_pos_as_xyz
  1  'x, y, z'
loop_
 _atom_site_type_symbol
 _atom_site_label
 _atom_site_symmetry_multiplicity
 _atom_site_fract_x
 _atom_site_fract_y
 _atom_site_fract_z
 _atom_site_occupancy
  Eu  Eu0  1  0.50000000  0.81931800  0.22016600  1
  Eu  Eu1  1  0.50000000  0.07796100  0.09594300  1
  Eu  Eu2  1  0.00000000  0.11639400  0.92415400  1
  Eu  Eu3  1  0.50000000  0.68068200  0.72016600  1
  Eu  Eu4  1  0.00000000  0.61639400  0.57584600  1
  Eu  Eu5  1  0.00000000  0.90642000  0.76253400  1
  Eu  Eu6  1  0.00000000  0.38360600  0.42415400  1
  Eu  Eu7  1  0.00000000  0.88360600  0.07584600  1
  Eu  Eu8  1  0.00000000  0.59358000  0.26253400  1
  Eu  Eu9  1  0.00000000  0.09358000  0.23746600  1
  Eu  Eu10  1  0.50000000  0.92203900  0.90405700  1
  Eu  Eu11  1  0.00000000  0.40642000  0.73746600  1
  Eu  Eu12  1  0.50000000  0.31931800  0.27983400  1
  Eu  Eu13  1  0.50000000  0.57796100  0.40405700  1
  Eu  Eu14  1  0.50000000  0.42203900  0.59594300  1
  Eu  Eu15  1  0.50000000  0.18068200  0.77983400  1
  Mo  Mo16  1  0.50000000  0.40593700  0.93060600  1
  Mo  Mo17  1  0.50000000  0.09406300  0.43060600  1
  Mo  Mo18  1  0.00000000  0.58284400  0.05908300  1
  Mo  Mo19  1  0.00000000  0.08284400  0.44091700  1
  Mo  Mo20  1  0.27727800  0.36239900  0.08791500  1
  Mo  Mo21  1  0.72272200  0.36239900  0.08791500  1
  Mo  Mo22  1  0.00000000  0.41715600  0.94091700  1
  Mo  Mo23  1  0.50000000  0.59406300  0.06939400  1
  Mo  Mo24  1  0.27727800  0.63760100  0.91208500  1
  Mo  Mo25  1  0.27727800  0.86239900  0.41208500  1
  Mo  Mo26  1  0.00000000  0.91715600  0.55908300  1
  Mo  Mo27  1  0.72272200  0.86239900  0.41208500  1
  Mo  Mo28  1  0.50000000  0.90593700  0.56939400  1
  Mo  Mo29  1  0.72272200  0.63760100  0.91208500  1
  Mo  Mo30  1  0.72272200  0.13760100  0.58791500  1
  Mo  Mo31  1  0.27727800  0.13760100  0.58791500  1
  O  O32  1  0.50000000  0.46009700  0.16220800  1
  O  O33  1  0.23875300  0.00000000  0.00000000  1
  O  O34  1  0.24404700  0.46030200  0.33037200  1
  O  O35  1  0.23795100  0.68207600  0.13134200  1
  O  O36  1  0.75595300  0.46030200  0.33037200  1
  O  O37  1  0.26021100  0.73498300  0.33131200  1
  O  O38  1  0.76124700  0.50000000  0.50000000  1
  O  O39  1  0.50000000  0.76155300  0.48502400  1
  O  O40  1  0.00000000  0.95304100  0.35256600  1
  O  O41  1  0.73978900  0.76501700  0.83131200  1
  O  O42  1  0.73978900  0.26501700  0.66868800  1
  O  O43  1  0.76204900  0.31792400  0.86865800  1
  O  O44  1  0.75595300  0.53969800  0.66962800  1
  O  O45  1  0.50000000  0.03990300  0.66220800  1
  O  O46  1  0.75595300  0.03969800  0.83037200  1
  O  O47  1  0.23795100  0.18207600  0.36865800  1
  O  O48  1  0.76124700  0.00000000  0.00000000  1
  O  O49  1  0.26021100  0.76501700  0.83131200  1
  O  O50  1  0.26021100  0.26501700  0.66868800  1
  O  O51  1  0.75595300  0.96030200  0.16962800  1
  O  O52  1  0.26021100  0.23498300  0.16868800  1
  O  O53  1  0.50000000  0.73844700  0.98502400  1
  O  O54  1  0.00000000  0.45304100  0.14743400  1
  O  O55  1  0.00000000  0.27805100  0.02330100  1
  O  O56  1  0.23795100  0.81792400  0.63134200  1
  O  O57  1  0.76204900  0.18207600  0.36865800  1
  O  O58  1  0.00000000  0.77805100  0.47669900  1
  O  O59  1  0.50000000  0.26155300  0.01497600  1
  O  O60  1  0.76204900  0.68207600  0.13134200  1
  O  O61  1  0.73978900  0.73498300  0.33131200  1
  O  O62  1  0.50000000  0.96009700  0.33779200  1
  O  O63  1  0.50000000  0.23844700  0.51497600  1
  O  O64  1  0.50000000  0.53990300  0.83779200  1
  O  O65  1  0.00000000  0.72194900  0.97669900  1
  O  O66  1  0.24404700  0.03969800  0.83037200  1
  O  O67  1  0.24404700  0.53969800  0.66962800  1
  O  O68  1  0.76204900  0.81792400  0.63134200  1
  O  O69  1  0.23875300  0.50000000  0.50000000  1
  O  O70  1  0.00000000  0.54695900  0.85256600  1
  O  O71  1  0.73978900  0.23498300  0.16868800  1
  O  O72  1  0.00000000  0.04695900  0.64743400  1
  O  O73  1  0.00000000  0.22194900  0.52330100  1
  O  O74  1  0.24404700  0.96030200  0.16962800  1
  O  O75  1  0.23795100  0.31792400  0.86865800  1
