# generated using pymatgen
data_KXeO3F
_symmetry_space_group_name_H-M   'P 1'
_cell_length_a   6.97255700
_cell_length_b   7.62453600
_cell_length_c   8.46167100
_cell_angle_alpha   90.00000000
_cell_angle_beta   90.00000000
_cell_angle_gamma   90.00000000
_symmetry_Int_Tables_number   1
_chemical_formula_structural   KXeO3F
_chemical_formula_sum   'K4 Xe4 O12 F4'
_cell_volume   449.84368488
_cell_formula_units_Z   4
loop_
 _symmetry_equiv_pos_site_id
 _symmetry_equiv_pos_as_xyz
  1  'x, y, z'
loop_
 _atom_site_type_symbol
 _atom_site_label
 _atom_site_symmetry_multiplicity
 _atom_site_fract_x
 _atom_site_fract_y
 _atom_site_fract_z
 _atom_site_occupancy
  K  K0  1  0.21564800  0.87588800  0.64730100  1
  K  K1  1  0.71564800  0.62411200  0.14730100  1
  K  K2  1  0.21564800  0.37588800  0.85269900  1
  K  K3  1  0.71564800  0.12411200  0.35269900  1
  Xe  Xe4  1  0.24999400  0.40753200  0.34865700  1
  Xe  Xe5  1  0.74999400  0.09246800  0.84865700  1
  Xe  Xe6  1  0.74999400  0.59246800  0.65134300  1
  Xe  Xe7  1  0.24999400  0.90753200  0.15134300  1
  O  O8  1  0.49881900  0.10272300  0.76374400  1
  O  O9  1  0.76622700  0.29642600  0.97468300  1
  O  O10  1  0.88515700  0.67866000  0.83192800  1
  O  O11  1  0.88515700  0.17866000  0.66807200  1
  O  O12  1  0.26622700  0.70357400  0.02531700  1
  O  O13  1  0.99881900  0.89727700  0.23625600  1
  O  O14  1  0.38515700  0.82134000  0.33192800  1
  O  O15  1  0.49881900  0.60272300  0.73625600  1
  O  O16  1  0.99881900  0.39727700  0.26374400  1
  O  O17  1  0.26622700  0.20357400  0.47468300  1
  O  O18  1  0.38515700  0.32134000  0.16807200  1
  O  O19  1  0.76622700  0.79642600  0.52531700  1
  F  F20  1  0.59635500  0.45770900  0.42922600  1
  F  F21  1  0.09635500  0.54229100  0.57077400  1
  F  F22  1  0.59635500  0.95770900  0.07077400  1
  F  F23  1  0.09635500  0.04229100  0.92922600  1
