# generated using pymatgen
data_Cr(PO3)4
_symmetry_space_group_name_H-M   'P 1'
_cell_length_a   10.45357900
_cell_length_b   9.06033300
_cell_length_c   9.34007362
_cell_angle_alpha   88.33537950
_cell_angle_beta   90.00000000
_cell_angle_gamma   90.00000000
_symmetry_Int_Tables_number   1
_chemical_formula_structural   Cr(PO3)4
_chemical_formula_sum   'Cr4 P16 O48'
_cell_volume   884.25219982
_cell_formula_units_Z   4
loop_
 _symmetry_equiv_pos_site_id
 _symmetry_equiv_pos_as_xyz
  1  'x, y, z'
loop_
 _atom_site_type_symbol
 _atom_site_label
 _atom_site_symmetry_multiplicity
 _atom_site_fract_x
 _atom_site_fract_y
 _atom_site_fract_z
 _atom_site_occupancy
  Cr  Cr0  1  0.21049900  0.74482700  0.01530800  1
  Cr  Cr1  1  0.71049900  0.25517300  0.48469200  1
  Cr  Cr2  1  0.28950100  0.74482700  0.51530800  1
  Cr  Cr3  1  0.78950100  0.25517300  0.98469200  1
  P  P4  1  0.39344300  0.26446200  0.19584200  1
  P  P5  1  0.61402000  0.06177100  0.21096700  1
  P  P6  1  0.60700300  0.46426800  0.20780700  1
  P  P7  1  0.47932100  0.75645500  0.23686200  1
  P  P8  1  0.97932100  0.24354500  0.26313800  1
  P  P9  1  0.10700300  0.53573200  0.29219300  1
  P  P10  1  0.11402000  0.93822900  0.28903300  1
  P  P11  1  0.89344300  0.73553800  0.30415800  1
  P  P12  1  0.10655700  0.26446200  0.69584200  1
  P  P13  1  0.88598000  0.06177100  0.71096700  1
  P  P14  1  0.89299700  0.46426800  0.70780700  1
  P  P15  1  0.02067900  0.75645500  0.73686200  1
  P  P16  1  0.52067900  0.24354500  0.76313800  1
  P  P17  1  0.39299700  0.53573200  0.79219300  1
  P  P18  1  0.38598000  0.93822900  0.78903300  1
  P  P19  1  0.60655700  0.73553800  0.80415800  1
  O  O20  1  0.27023200  0.25213500  0.11366600  1
  O  O21  1  0.72503300  0.08695500  0.11113800  1
  O  O22  1  0.70234000  0.41642700  0.09875000  1
  O  O23  1  0.94991800  0.25705400  0.10562300  1
  O  O24  1  0.49559700  0.15037600  0.13820800  1
  O  O25  1  0.12836900  0.58511700  0.13885800  1
  O  O26  1  0.46227300  0.41826100  0.16010300  1
  O  O27  1  0.12835100  0.90059800  0.13417000  1
  O  O28  1  0.86034700  0.75875900  0.14739000  1
  O  O29  1  0.58739800  0.63800100  0.19299200  1
  O  O30  1  0.36953500  0.74982400  0.13503900  1
  O  O31  1  0.56454200  0.89819400  0.19698800  1
  O  O32  1  0.06454200  0.10180600  0.30301200  1
  O  O33  1  0.86953500  0.25017600  0.36496100  1
  O  O34  1  0.08739800  0.36199900  0.30700800  1
  O  O35  1  0.36034700  0.24124100  0.35261000  1
  O  O36  1  0.62835100  0.09940200  0.36583000  1
  O  O37  1  0.96227300  0.58173900  0.33989700  1
  O  O38  1  0.62836900  0.41488300  0.36114200  1
  O  O39  1  0.99559700  0.84962400  0.36179200  1
  O  O40  1  0.44991800  0.74294600  0.39437700  1
  O  O41  1  0.20234000  0.58357300  0.40125000  1
  O  O42  1  0.22503300  0.91304500  0.38886200  1
  O  O43  1  0.77023200  0.74786500  0.38633400  1
  O  O44  1  0.22976800  0.25213500  0.61366600  1
  O  O45  1  0.77496700  0.08695500  0.61113800  1
  O  O46  1  0.79766000  0.41642700  0.59875000  1
  O  O47  1  0.55008200  0.25705400  0.60562300  1
  O  O48  1  0.00440300  0.15037600  0.63820800  1
  O  O49  1  0.37163100  0.58511700  0.63885800  1
  O  O50  1  0.03772700  0.41826100  0.66010300  1
  O  O51  1  0.37164900  0.90059800  0.63417000  1
  O  O52  1  0.63965300  0.75875900  0.64739000  1
  O  O53  1  0.91260200  0.63800100  0.69299200  1
  O  O54  1  0.13046500  0.74982400  0.63503900  1
  O  O55  1  0.93545800  0.89819400  0.69698800  1
  O  O56  1  0.43545800  0.10180600  0.80301200  1
  O  O57  1  0.63046500  0.25017600  0.86496100  1
  O  O58  1  0.41260200  0.36199900  0.80700800  1
  O  O59  1  0.13965300  0.24124100  0.85261000  1
  O  O60  1  0.87164900  0.09940200  0.86583000  1
  O  O61  1  0.53772700  0.58173900  0.83989700  1
  O  O62  1  0.87163100  0.41488300  0.86114200  1
  O  O63  1  0.50440300  0.84962400  0.86179200  1
  O  O64  1  0.05008200  0.74294600  0.89437700  1
  O  O65  1  0.29766000  0.58357300  0.90125000  1
  O  O66  1  0.27496700  0.91304500  0.88886200  1
  O  O67  1  0.72976800  0.74786500  0.88633400  1
