# generated using pymatgen
data_Mg2SiO4
_symmetry_space_group_name_H-M   'P 1'
_cell_length_a   6.14868576
_cell_length_b   6.14868576
_cell_length_c   4.76230000
_cell_angle_alpha   90.00000000
_cell_angle_beta   90.00000000
_cell_angle_gamma   119.99999743
_symmetry_Int_Tables_number   1
_chemical_formula_structural   Mg2SiO4
_chemical_formula_sum   'Mg4 Si2 O8'
_cell_volume   155.92364896
_cell_formula_units_Z   2
loop_
 _symmetry_equiv_pos_site_id
 _symmetry_equiv_pos_as_xyz
  1  'x, y, z'
loop_
 _atom_site_type_symbol
 _atom_site_label
 _atom_site_symmetry_multiplicity
 _atom_site_fract_x
 _atom_site_fract_y
 _atom_site_fract_z
 _atom_site_occupancy
  Mg  Mg0  1  0.50000000  0.50000000  0.50000000  1
  Mg  Mg1  1  0.00000000  0.00000000  0.50000000  1
  Mg  Mg2  1  0.50000000  0.00000000  0.50000000  1
  Mg  Mg3  1  0.00000000  0.50000000  0.50000000  1
  Si  Si4  1  0.66666700  0.33333300  0.89971700  1
  Si  Si5  1  0.33333300  0.66666700  0.10028300  1
  O  O6  1  0.33333300  0.66666700  0.76126600  1
  O  O7  1  0.19162200  0.38324400  0.25827300  1
  O  O8  1  0.61675600  0.80837800  0.25827300  1
  O  O9  1  0.80837800  0.19162200  0.74172700  1
  O  O10  1  0.66666700  0.33333300  0.23873400  1
  O  O11  1  0.80837800  0.61675600  0.74172700  1
  O  O12  1  0.38324400  0.19162200  0.74172700  1
  O  O13  1  0.19162200  0.80837800  0.25827300  1
