# generated using pymatgen
data_CsAsO3
_symmetry_space_group_name_H-M   'P 1'
_cell_length_a   5.04143767
_cell_length_b   5.04143767
_cell_length_c   9.99409300
_cell_angle_alpha   90.00000000
_cell_angle_beta   90.00000000
_cell_angle_gamma   119.99999569
_symmetry_Int_Tables_number   1
_chemical_formula_structural   CsAsO3
_chemical_formula_sum   'Cs2 As2 O6'
_cell_volume   219.97981959
_cell_formula_units_Z   2
loop_
 _symmetry_equiv_pos_site_id
 _symmetry_equiv_pos_as_xyz
  1  'x, y, z'
loop_
 _atom_site_type_symbol
 _atom_site_label
 _atom_site_symmetry_multiplicity
 _atom_site_fract_x
 _atom_site_fract_y
 _atom_site_fract_z
 _atom_site_occupancy
  Cs  Cs0  1  0.00000000  0.00000000  0.20680200  1
  Cs  Cs1  1  0.00000000  0.00000000  0.79319800  1
  As  As2  1  0.33333300  0.66666700  0.50000000  1
  As  As3  1  0.66666700  0.33333300  0.50000000  1
  O  O4  1  0.00000000  0.39820000  0.60822200  1
  O  O5  1  0.39820000  0.00000000  0.60822200  1
  O  O6  1  0.39820000  0.39820000  0.39177800  1
  O  O7  1  0.60180000  0.60180000  0.60822200  1
  O  O8  1  0.60180000  0.00000000  0.39177800  1
  O  O9  1  0.00000000  0.60180000  0.39177800  1
