# generated using pymatgen
data_Cr(PO3)2
_symmetry_space_group_name_H-M   'P 1'
_cell_length_a   7.32928300
_cell_length_b   7.25223200
_cell_length_c   17.61020451
_cell_angle_alpha   82.06746533
_cell_angle_beta   90.00000000
_cell_angle_gamma   90.00000000
_symmetry_Int_Tables_number   1
_chemical_formula_structural   Cr(PO3)2
_chemical_formula_sum   'Cr8 P16 O48'
_cell_volume   927.09004454
_cell_formula_units_Z   8
loop_
 _symmetry_equiv_pos_site_id
 _symmetry_equiv_pos_as_xyz
  1  'x, y, z'
loop_
 _atom_site_type_symbol
 _atom_site_label
 _atom_site_symmetry_multiplicity
 _atom_site_fract_x
 _atom_site_fract_y
 _atom_site_fract_z
 _atom_site_occupancy
  Cr  Cr0  1  0.89090300  0.93656600  0.90088800  1
  Cr  Cr1  1  0.60909700  0.93656600  0.40088800  1
  Cr  Cr2  1  0.37694200  0.47288100  0.66033100  1
  Cr  Cr3  1  0.12305800  0.47288100  0.16033100  1
  Cr  Cr4  1  0.87694200  0.52711900  0.83966900  1
  Cr  Cr5  1  0.62305800  0.52711900  0.33966900  1
  Cr  Cr6  1  0.39090300  0.06343400  0.59911200  1
  Cr  Cr7  1  0.10909700  0.06343400  0.09911200  1
  P  P8  1  0.01825400  0.86225700  0.68631100  1
  P  P9  1  0.48174600  0.86225700  0.18631100  1
  P  P10  1  0.69709500  0.73803400  0.60069800  1
  P  P11  1  0.80290500  0.73803400  0.10069800  1
  P  P12  1  0.49512800  0.72876400  0.85444000  1
  P  P13  1  0.00487200  0.72876400  0.35444000  1
  P  P14  1  0.21497100  0.62090900  0.97085500  1
  P  P15  1  0.28502900  0.62090900  0.47085500  1
  P  P16  1  0.71497100  0.37909100  0.52914500  1
  P  P17  1  0.78502900  0.37909100  0.02914500  1
  P  P18  1  0.99512800  0.27123600  0.64556000  1
  P  P19  1  0.50487200  0.27123600  0.14556000  1
  P  P20  1  0.19709500  0.26196600  0.89930200  1
  P  P21  1  0.30290500  0.26196600  0.39930200  1
  P  P22  1  0.51825400  0.13774300  0.81368900  1
  P  P23  1  0.98174600  0.13774300  0.31368900  1
  O  O24  1  0.43773300  0.92993800  0.81058500  1
  O  O25  1  0.60494500  0.90773100  0.55661400  1
  O  O26  1  0.06226700  0.92993800  0.31058500  1
  O  O27  1  0.89505500  0.90773100  0.05661400  1
  O  O28  1  0.21379700  0.87262500  0.66016400  1
  O  O29  1  0.28620300  0.87262500  0.16016400  1
  O  O30  1  0.97056100  0.75304500  0.76166400  1
  O  O31  1  0.90127600  0.79848600  0.61727300  1
  O  O32  1  0.52943900  0.75304500  0.26166400  1
  O  O33  1  0.59872400  0.79848600  0.11727300  1
  O  O34  1  0.70074200  0.73704100  0.87146300  1
  O  O35  1  0.40010700  0.72314100  0.93868700  1
  O  O36  1  0.79925800  0.73704100  0.37146300  1
  O  O37  1  0.09989300  0.72314100  0.43868700  1
  O  O38  1  0.59684700  0.64775500  0.67026800  1
  O  O39  1  0.90315300  0.64775500  0.17026800  1
  O  O40  1  0.29168300  0.62914100  0.55505800  1
  O  O41  1  0.05627100  0.70071900  0.92202400  1
  O  O42  1  0.20831700  0.62914100  0.05505800  1
  O  O43  1  0.44372900  0.70071900  0.42202400  1
  O  O44  1  0.42784600  0.57878100  0.81352300  1
  O  O45  1  0.74135600  0.59455800  0.54076200  1
  O  O46  1  0.07215400  0.57878100  0.31352300  1
  O  O47  1  0.75864400  0.59455800  0.04076200  1
  O  O48  1  0.24135600  0.40544200  0.95923800  1
  O  O49  1  0.92784600  0.42121900  0.68647700  1
  O  O50  1  0.25864400  0.40544200  0.45923800  1
  O  O51  1  0.57215400  0.42121900  0.18647700  1
  O  O52  1  0.55627100  0.29928100  0.57797600  1
  O  O53  1  0.79168300  0.37085900  0.94494200  1
  O  O54  1  0.94372900  0.29928100  0.07797600  1
  O  O55  1  0.70831700  0.37085900  0.44494200  1
  O  O56  1  0.09684700  0.35224500  0.82973200  1
  O  O57  1  0.40315300  0.35224500  0.32973200  1
  O  O58  1  0.90010700  0.27685900  0.56131300  1
  O  O59  1  0.20074200  0.26295900  0.62853700  1
  O  O60  1  0.59989300  0.27685900  0.06131300  1
  O  O61  1  0.29925800  0.26295900  0.12853700  1
  O  O62  1  0.40127600  0.20151400  0.88272700  1
  O  O63  1  0.47056100  0.24695500  0.73833600  1
  O  O64  1  0.09872400  0.20151400  0.38272700  1
  O  O65  1  0.02943900  0.24695500  0.23833600  1
  O  O66  1  0.71379700  0.12737500  0.83983600  1
  O  O67  1  0.78620300  0.12737500  0.33983600  1
  O  O68  1  0.10494500  0.09226900  0.94338600  1
  O  O69  1  0.93773300  0.07006200  0.68941500  1
  O  O70  1  0.39505500  0.09226900  0.44338600  1
  O  O71  1  0.56226700  0.07006200  0.18941500  1
