# generated using pymatgen
data_PNF2
_symmetry_space_group_name_H-M   'P 1'
_cell_length_a   14.95402200
_cell_length_b   7.62277900
_cell_length_c   12.11648789
_cell_angle_alpha   66.29266324
_cell_angle_beta   90.00000000
_cell_angle_gamma   90.00000000
_symmetry_Int_Tables_number   1
_chemical_formula_structural   PNF2
_chemical_formula_sum   'P20 N20 F40'
_cell_volume   1264.61740088
_cell_formula_units_Z   20
loop_
 _symmetry_equiv_pos_site_id
 _symmetry_equiv_pos_as_xyz
  1  'x, y, z'
loop_
 _atom_site_type_symbol
 _atom_site_label
 _atom_site_symmetry_multiplicity
 _atom_site_fract_x
 _atom_site_fract_y
 _atom_site_fract_z
 _atom_site_occupancy
  P  P0  1  0.63876300  0.53867400  0.05575600  1
  P  P1  1  0.76146100  0.01001800  0.17261400  1
  P  P2  1  0.56206400  0.40125600  0.29756100  1
  P  P3  1  0.39249700  0.98904100  0.67733600  1
  P  P4  1  0.43793600  0.59874400  0.70243900  1
  P  P5  1  0.26146100  0.98998200  0.32738600  1
  P  P6  1  0.06206400  0.59874400  0.20243900  1
  P  P7  1  0.93793600  0.40125600  0.79756100  1
  P  P8  1  0.10750300  0.98904100  0.17733600  1
  P  P9  1  0.15751700  0.76136100  0.53458900  1
  P  P10  1  0.65751700  0.23863900  0.96541100  1
  P  P11  1  0.34248300  0.76136100  0.03458900  1
  P  P12  1  0.23853900  0.98998200  0.82738600  1
  P  P13  1  0.60750300  0.01095900  0.32266400  1
  P  P14  1  0.36123700  0.46132600  0.94424400  1
  P  P15  1  0.13876300  0.46132600  0.44424400  1
  P  P16  1  0.73853900  0.01001800  0.67261400  1
  P  P17  1  0.86123700  0.53867400  0.55575600  1
  P  P18  1  0.89249700  0.01095900  0.82266400  1
  P  P19  1  0.84248300  0.23863900  0.46541100  1
  N  N20  1  0.27226300  0.91684200  0.96091000  1
  N  N21  1  0.88870400  0.37111900  0.51933300  1
  N  N22  1  0.29458300  0.96472400  0.72611300  1
  N  N23  1  0.77226300  0.08315800  0.53909000  1
  N  N24  1  0.10318500  0.45778800  0.32445000  1
  N  N25  1  0.60318500  0.54221200  0.17555000  1
  N  N26  1  0.44072600  0.82029800  0.66097700  1
  N  N27  1  0.79458300  0.03527600  0.77388700  1
  N  N28  1  0.39681500  0.45778800  0.82445000  1
  N  N29  1  0.38870400  0.62888100  0.98066700  1
  N  N30  1  0.55927400  0.17970200  0.33902300  1
  N  N31  1  0.89681500  0.54221200  0.67555000  1
  N  N32  1  0.72773700  0.08315800  0.03909000  1
  N  N33  1  0.61129600  0.37111900  0.01933300  1
  N  N34  1  0.05927400  0.82029800  0.16097700  1
  N  N35  1  0.70541700  0.03527600  0.27388700  1
  N  N36  1  0.20541700  0.96472400  0.22611300  1
  N  N37  1  0.11129600  0.62888100  0.48066700  1
  N  N38  1  0.22773700  0.91684200  0.46091000  1
  N  N39  1  0.94072600  0.17970200  0.83902300  1
  F  F40  1  0.14481700  0.90153200  0.82564100  1
  F  F41  1  0.11220000  0.26647100  0.54751600  1
  F  F42  1  0.53544400  0.53266600  0.69412200  1
  F  F43  1  0.61220000  0.73352900  0.95248400  1
  F  F44  1  0.60546200  0.45031200  0.39908900  1
  F  F45  1  0.39598800  0.16336300  0.55301300  1
  F  F46  1  0.70051600  0.35959700  0.84004900  1
  F  F47  1  0.10401200  0.16336300  0.05301300  1
  F  F48  1  0.46455600  0.46733400  0.30587800  1
  F  F49  1  0.25708300  0.43556100  0.94922100  1
  F  F50  1  0.95462200  0.93223700  0.74867200  1
  F  F51  1  0.71036600  0.79656400  0.71017500  1
  F  F52  1  0.10546200  0.54968800  0.10091100  1
  F  F53  1  0.28963400  0.20343600  0.28982500  1
  F  F54  1  0.08109900  0.86054000  0.57497600  1
  F  F55  1  0.60401200  0.83663700  0.44698700  1
  F  F56  1  0.58109900  0.13946000  0.92502400  1
  F  F57  1  0.29948400  0.64040300  0.15995100  1
  F  F58  1  0.91890100  0.13946000  0.42502400  1
  F  F59  1  0.35518300  0.90153200  0.32564100  1
  F  F60  1  0.38780000  0.26647100  0.04751600  1
  F  F61  1  0.04537800  0.06776300  0.25132800  1
  F  F62  1  0.89453800  0.45031200  0.89908900  1
  F  F63  1  0.21036600  0.20343600  0.78982500  1
  F  F64  1  0.54537800  0.93223700  0.24867200  1
  F  F65  1  0.96455600  0.53266600  0.19412200  1
  F  F66  1  0.78963400  0.79656400  0.21017500  1
  F  F67  1  0.89598800  0.83663700  0.94698700  1
  F  F68  1  0.39453800  0.54968800  0.60091100  1
  F  F69  1  0.75708300  0.56443900  0.55077900  1
  F  F70  1  0.20051600  0.64040300  0.65995100  1
  F  F71  1  0.74291700  0.56443900  0.05077900  1
  F  F72  1  0.24291700  0.43556100  0.44922100  1
  F  F73  1  0.88780000  0.73352900  0.45248400  1
  F  F74  1  0.85518300  0.09846800  0.17435900  1
  F  F75  1  0.03544400  0.46733400  0.80587800  1
  F  F76  1  0.45462200  0.06776300  0.75132800  1
  F  F77  1  0.64481700  0.09846800  0.67435900  1
  F  F78  1  0.79948400  0.35959700  0.34004900  1
  F  F79  1  0.41890100  0.86054000  0.07497600  1
