# generated using pymatgen
data_CS3NO2F3
_symmetry_space_group_name_H-M   'P 1'
_cell_length_a   13.07976489
_cell_length_b   13.07976489
_cell_length_c   17.16767880
_cell_angle_alpha   64.18897647
_cell_angle_beta   64.18897647
_cell_angle_gamma   33.82716489
_symmetry_Int_Tables_number   1
_chemical_formula_structural   CS3NO2F3
_chemical_formula_sum   'C8 S24 N8 O16 F24'
_cell_volume   1455.90148497
_cell_formula_units_Z   8
loop_
 _symmetry_equiv_pos_site_id
 _symmetry_equiv_pos_as_xyz
  1  'x, y, z'
loop_
 _atom_site_type_symbol
 _atom_site_label
 _atom_site_symmetry_multiplicity
 _atom_site_fract_x
 _atom_site_fract_y
 _atom_site_fract_z
 _atom_site_occupancy
  C  C0  1  0.79332900  0.08322300  0.45379600  1
  C  C1  1  0.08322300  0.79332900  0.95379600  1
  C  C2  1  0.52537800  0.63403200  0.28885000  1
  C  C3  1  0.47462200  0.36596800  0.71115000  1
  C  C4  1  0.36596800  0.47462200  0.21115000  1
  C  C5  1  0.20667100  0.91677700  0.54620400  1
  C  C6  1  0.63403200  0.52537800  0.78885000  1
  C  C7  1  0.91677700  0.20667100  0.04620400  1
  S  S8  1  0.47001400  0.04126300  0.80798000  1
  S  S9  1  0.17978300  0.24432700  0.03690300  1
  S  S10  1  0.75567300  0.82021700  0.46309700  1
  S  S11  1  0.55601200  0.72355300  0.17248100  1
  S  S12  1  0.00111800  0.72070200  0.05026900  1
  S  S13  1  0.72355300  0.55601200  0.67248100  1
  S  S14  1  0.27929800  0.99888200  0.44973100  1
  S  S15  1  0.95873700  0.52998600  0.69202000  1
  S  S16  1  0.44398800  0.27644700  0.82751900  1
  S  S17  1  0.58962900  0.04201900  0.07316400  1
  S  S18  1  0.99888200  0.27929800  0.94973100  1
  S  S19  1  0.82021700  0.75567300  0.96309700  1
  S  S20  1  0.72070200  0.00111800  0.55026900  1
  S  S21  1  0.52998600  0.95873700  0.19202000  1
  S  S22  1  0.95798100  0.41037100  0.42683600  1
  S  S23  1  0.80628100  0.87055900  0.83661900  1
  S  S24  1  0.41037100  0.95798100  0.92683600  1
  S  S25  1  0.27644700  0.44398800  0.32751900  1
  S  S26  1  0.12944100  0.19371900  0.66338100  1
  S  S27  1  0.19371900  0.12944100  0.16338100  1
  S  S28  1  0.24432700  0.17978300  0.53690300  1
  S  S29  1  0.04201900  0.58962900  0.57316400  1
  S  S30  1  0.04126300  0.47001400  0.30798000  1
  S  S31  1  0.87055900  0.80628100  0.33661900  1
  N  N32  1  0.42504500  0.93691100  0.17788700  1
  N  N33  1  0.80379200  0.84786500  0.02346200  1
  N  N34  1  0.06308900  0.57495500  0.32211300  1
  N  N35  1  0.93691100  0.42504500  0.67788700  1
  N  N36  1  0.19620800  0.15213500  0.97653800  1
  N  N37  1  0.84786500  0.80379200  0.52346200  1
  N  N38  1  0.15213500  0.19620800  0.47653800  1
  N  N39  1  0.57495500  0.06308900  0.82211300  1
  O  O40  1  0.05025600  0.21066200  0.87687700  1
  O  O41  1  0.21066200  0.05025600  0.37687700  1
  O  O42  1  0.74559600  0.47146300  0.62401800  1
  O  O43  1  0.74810900  0.60375300  0.15364400  1
  O  O44  1  0.25440400  0.52853700  0.37598200  1
  O  O45  1  0.86000800  0.47245400  0.95007400  1
  O  O46  1  0.25189100  0.39624700  0.84635600  1
  O  O47  1  0.52754600  0.13999200  0.54992600  1
  O  O48  1  0.60375300  0.74810900  0.65364400  1
  O  O49  1  0.94974400  0.78933800  0.12312300  1
  O  O50  1  0.13999200  0.52754600  0.04992600  1
  O  O51  1  0.39624700  0.25189100  0.34635600  1
  O  O52  1  0.78933800  0.94974400  0.62312300  1
  O  O53  1  0.52853700  0.25440400  0.87598200  1
  O  O54  1  0.47245400  0.86000800  0.45007400  1
  O  O55  1  0.47146300  0.74559600  0.12401800  1
  F  F56  1  0.05157800  0.02105700  0.05884600  1
  F  F57  1  0.37791500  0.41310100  0.15786000  1
  F  F58  1  0.23308100  0.71043800  0.97186800  1
  F  F59  1  0.41310100  0.37791500  0.65786000  1
  F  F60  1  0.73952900  0.13075400  0.38076300  1
  F  F61  1  0.97894300  0.94842200  0.44115400  1
  F  F62  1  0.26047100  0.86924600  0.61923700  1
  F  F63  1  0.46271400  0.62819300  0.78884300  1
  F  F64  1  0.02105700  0.05157800  0.55884600  1
  F  F65  1  0.62819300  0.46271400  0.28884300  1
  F  F66  1  0.94842200  0.97894300  0.94115400  1
  F  F67  1  0.74465400  0.34628300  0.81726800  1
  F  F68  1  0.28956200  0.76691900  0.52813200  1
  F  F69  1  0.58689900  0.62208500  0.34214000  1
  F  F70  1  0.76691900  0.28956200  0.02813200  1
  F  F71  1  0.25534600  0.65371700  0.18273200  1
  F  F72  1  0.37180700  0.53728600  0.71115700  1
  F  F73  1  0.62208500  0.58689900  0.84214000  1
  F  F74  1  0.53728600  0.37180700  0.21115700  1
  F  F75  1  0.65371700  0.25534600  0.68273200  1
  F  F76  1  0.86924600  0.26047100  0.11923700  1
  F  F77  1  0.34628300  0.74465400  0.31726800  1
  F  F78  1  0.13075400  0.73952900  0.88076300  1
  F  F79  1  0.71043800  0.23308100  0.47186800  1
