# generated using pymatgen
data_Co2OF3
_symmetry_space_group_name_H-M   'P 1'
_cell_length_a   4.73061998
_cell_length_b   4.73061998
_cell_length_c   15.65146400
_cell_angle_alpha   90.00000000
_cell_angle_beta   90.00000000
_cell_angle_gamma   92.58482561
_symmetry_Int_Tables_number   1
_chemical_formula_structural   Co2OF3
_chemical_formula_sum   'Co10 O5 F15'
_cell_volume   349.90406770
_cell_formula_units_Z   5
loop_
 _symmetry_equiv_pos_site_id
 _symmetry_equiv_pos_as_xyz
  1  'x, y, z'
loop_
 _atom_site_type_symbol
 _atom_site_label
 _atom_site_symmetry_multiplicity
 _atom_site_fract_x
 _atom_site_fract_y
 _atom_site_fract_z
 _atom_site_occupancy
  Co  Co0  1  0.96623300  0.96623300  0.00000000  1
  Co  Co1  1  0.02732400  0.02732400  0.20039300  1
  Co  Co2  1  0.00598900  0.00598900  0.39925300  1
  Co  Co3  1  0.00598900  0.00598900  0.60074700  1
  Co  Co4  1  0.02732400  0.02732400  0.79960700  1
  Co  Co5  1  0.50045200  0.50045200  0.10097200  1
  Co  Co6  1  0.48652500  0.48652500  0.50000000  1
  Co  Co7  1  0.47427000  0.47427000  0.30379500  1
  Co  Co8  1  0.50045200  0.50045200  0.89902800  1
  Co  Co9  1  0.47427000  0.47427000  0.69620500  1
  O  O10  1  0.30313600  0.30313600  0.20013300  1
  O  O11  1  0.31097500  0.31097500  0.60518500  1
  O  O12  1  0.30313600  0.30313600  0.79986700  1
  O  O13  1  0.31097500  0.31097500  0.39481500  1
  O  O14  1  0.69333700  0.69333700  0.00000000  1
  F  F15  1  0.80595300  0.19262200  0.10016600  1
  F  F16  1  0.80456800  0.20009900  0.50000000  1
  F  F17  1  0.80369400  0.19899600  0.29603100  1
  F  F18  1  0.80369400  0.19899600  0.70396900  1
  F  F19  1  0.80595300  0.19262200  0.89983400  1
  F  F20  1  0.28351600  0.28351600  0.00000000  1
  F  F21  1  0.71021300  0.71021300  0.20376900  1
  F  F22  1  0.69923700  0.69923700  0.39687900  1
  F  F23  1  0.69923700  0.69923700  0.60312100  1
  F  F24  1  0.71021300  0.71021300  0.79623100  1
  F  F25  1  0.19262200  0.80595300  0.10016600  1
  F  F26  1  0.20009900  0.80456800  0.50000000  1
  F  F27  1  0.19899600  0.80369400  0.29603100  1
  F  F28  1  0.19262200  0.80595300  0.89983400  1
  F  F29  1  0.19899600  0.80369400  0.70396900  1
