# generated using pymatgen
data_AsCS2N2OF5
_symmetry_space_group_name_H-M   'P 1'
_cell_length_a   10.81344900
_cell_length_b   8.23183600
_cell_length_c   9.98849828
_cell_angle_alpha   61.46678759
_cell_angle_beta   90.00000000
_cell_angle_gamma   90.00000000
_symmetry_Int_Tables_number   1
_chemical_formula_structural   AsCS2N2OF5
_chemical_formula_sum   'As4 C4 S8 N8 O4 F20'
_cell_volume   781.12919299
_cell_formula_units_Z   4
loop_
 _symmetry_equiv_pos_site_id
 _symmetry_equiv_pos_as_xyz
  1  'x, y, z'
loop_
 _atom_site_type_symbol
 _atom_site_label
 _atom_site_symmetry_multiplicity
 _atom_site_fract_x
 _atom_site_fract_y
 _atom_site_fract_z
 _atom_site_occupancy
  As  As0  1  0.12378700  0.32306100  0.88254100  1
  As  As1  1  0.37621300  0.32306100  0.38254100  1
  As  As2  1  0.62378700  0.67693900  0.61745900  1
  As  As3  1  0.87621300  0.67693900  0.11745900  1
  C  C4  1  0.67493300  0.99457600  0.32460500  1
  C  C5  1  0.32506700  0.00542400  0.67539500  1
  C  C6  1  0.17493300  0.00542400  0.17539500  1
  C  C7  1  0.82506700  0.99457600  0.82460500  1
  S  S8  1  0.43408900  0.07143000  0.77568400  1
  S  S9  1  0.82127400  0.25489600  0.56425600  1
  S  S10  1  0.67872600  0.25489600  0.06425600  1
  S  S11  1  0.93408900  0.92857000  0.72431600  1
  S  S12  1  0.06591100  0.07143000  0.27568400  1
  S  S13  1  0.32127400  0.74510400  0.93574400  1
  S  S14  1  0.56591100  0.92857000  0.22431600  1
  S  S15  1  0.17872600  0.74510400  0.43574400  1
  N  N16  1  0.41985800  0.88765100  0.93791900  1
  N  N17  1  0.08014200  0.88765100  0.43791900  1
  N  N18  1  0.77209000  0.15740300  0.73589200  1
  N  N19  1  0.91985800  0.11234900  0.56208100  1
  N  N20  1  0.72791000  0.15740300  0.23589200  1
  N  N21  1  0.58014200  0.11234900  0.06208100  1
  N  N22  1  0.27209000  0.84259700  0.76410800  1
  N  N23  1  0.22791000  0.84259700  0.26410800  1
  O  O24  1  0.29606000  0.09918600  0.53322400  1
  O  O25  1  0.70394000  0.90081400  0.46677600  1
  O  O26  1  0.79606000  0.90081400  0.96677600  1
  O  O27  1  0.20394000  0.09918600  0.03322400  1
  F  F28  1  0.36934400  0.41152400  0.51298400  1
  F  F29  1  0.55445800  0.47576100  0.75945800  1
  F  F30  1  0.77332600  0.59379200  0.68201600  1
  F  F31  1  0.27332600  0.40620800  0.81798400  1
  F  F32  1  0.12042100  0.21538600  0.76609200  1
  F  F33  1  0.37957900  0.21538600  0.26609200  1
  F  F34  1  0.62042100  0.78461400  0.73390800  1
  F  F35  1  0.94554200  0.47576100  0.25945800  1
  F  F36  1  0.22667400  0.40620800  0.31798400  1
  F  F37  1  0.52176300  0.22238600  0.46028500  1
  F  F38  1  0.72667400  0.59379200  0.18201600  1
  F  F39  1  0.86934400  0.58847600  0.98701600  1
  F  F40  1  0.44554200  0.52423900  0.24054200  1
  F  F41  1  0.47823700  0.77761400  0.53971500  1
  F  F42  1  0.97823700  0.22238600  0.96028500  1
  F  F43  1  0.13065600  0.41152400  0.01298400  1
  F  F44  1  0.05445800  0.52423900  0.74054200  1
  F  F45  1  0.87957900  0.78461400  0.23390800  1
  F  F46  1  0.02176300  0.77761400  0.03971500  1
  F  F47  1  0.63065600  0.58847600  0.48701600  1
