# generated using pymatgen
data_Ni(BO2)2
_symmetry_space_group_name_H-M   'P 1'
_cell_length_a   4.45754865
_cell_length_b   9.00501182
_cell_length_c   5.58424165
_cell_angle_alpha   90.00002208
_cell_angle_beta   90.00037503
_cell_angle_gamma   99.84926307
_symmetry_Int_Tables_number   1
_chemical_formula_structural   Ni(BO2)2
_chemical_formula_sum   'Ni4 B8 O16'
_cell_volume   220.84926442
_cell_formula_units_Z   4
loop_
 _symmetry_equiv_pos_site_id
 _symmetry_equiv_pos_as_xyz
  1  'x, y, z'
loop_
 _atom_site_type_symbol
 _atom_site_label
 _atom_site_symmetry_multiplicity
 _atom_site_fract_x
 _atom_site_fract_y
 _atom_site_fract_z
 _atom_site_occupancy
  Ni  Ni0  1  0.24999800  0.00000000  0.34536500  1
  Ni  Ni1  1  0.75000100  0.00000000  0.65462800  1
  Ni  Ni2  1  0.74999900  0.49999900  0.84539600  1
  Ni  Ni3  1  0.25000200  0.50000100  0.15460200  1
  B  B4  1  0.68715400  0.81473000  0.10743900  1
  B  B5  1  0.18715500  0.31472800  0.60744100  1
  B  B6  1  0.81284500  0.18526900  0.10743900  1
  B  B7  1  0.31284500  0.68527200  0.60744000  1
  B  B8  1  0.31284600  0.18527000  0.89256200  1
  B  B9  1  0.81284500  0.68527200  0.39256000  1
  B  B10  1  0.18715500  0.81473100  0.89256200  1
  B  B11  1  0.68715500  0.31472800  0.39256100  1
  O  O12  1  0.33598200  0.35560600  0.84982100  1
  O  O13  1  0.83599800  0.85558800  0.34981300  1
  O  O14  1  0.66401800  0.64439400  0.15017900  1
  O  O15  1  0.16400200  0.14441200  0.65018800  1
  O  O16  1  0.16402000  0.64439500  0.84982400  1
  O  O17  1  0.66400400  0.14441200  0.34981500  1
  O  O18  1  0.83598000  0.35560500  0.15017700  1
  O  O19  1  0.33599600  0.85558800  0.65018600  1
  O  O20  1  0.60639700  0.13741500  0.91031200  1
  O  O21  1  0.10642100  0.63741400  0.41031100  1
  O  O22  1  0.89360100  0.86258400  0.91031200  1
  O  O23  1  0.39357600  0.36258500  0.41031200  1
  O  O24  1  0.10639900  0.13741600  0.08968900  1
  O  O25  1  0.60642400  0.63741500  0.58968800  1
  O  O26  1  0.39360300  0.86258500  0.08968900  1
  O  O27  1  0.89357900  0.36258600  0.58969000  1
