# generated using pymatgen
data_NaY(SiO3)2
_symmetry_space_group_name_H-M   'P 1'
_cell_length_a   6.70423733
_cell_length_b   6.70423733
_cell_length_c   17.85495662
_cell_angle_alpha   83.29156876
_cell_angle_beta   83.29156876
_cell_angle_gamma   103.49154983
_symmetry_Int_Tables_number   1
_chemical_formula_structural   NaY(SiO3)2
_chemical_formula_sum   'Na6 Y6 Si12 O36'
_cell_volume   766.36146595
_cell_formula_units_Z   6
loop_
 _symmetry_equiv_pos_site_id
 _symmetry_equiv_pos_as_xyz
  1  'x, y, z'
loop_
 _atom_site_type_symbol
 _atom_site_label
 _atom_site_symmetry_multiplicity
 _atom_site_fract_x
 _atom_site_fract_y
 _atom_site_fract_z
 _atom_site_occupancy
  Na  Na0  1  0.87645500  0.12354500  0.25000000  1
  Na  Na1  1  0.12354500  0.87645500  0.75000000  1
  Na  Na2  1  0.00502900  0.63764900  0.58300300  1
  Na  Na3  1  0.99497100  0.36235100  0.41699700  1
  Na  Na4  1  0.63764900  0.00502900  0.08300300  1
  Na  Na5  1  0.36235100  0.99497100  0.91699700  1
  Y  Y6  1  0.60774900  0.39225100  0.75000000  1
  Y  Y7  1  0.63946700  0.73473500  0.42653200  1
  Y  Y8  1  0.36053300  0.26526500  0.57346800  1
  Y  Y9  1  0.73473500  0.63946700  0.92653200  1
  Y  Y10  1  0.26526500  0.36053300  0.07346800  1
  Y  Y11  1  0.39225100  0.60774900  0.25000000  1
  Si  Si12  1  0.46562800  0.80922500  0.60156100  1
  Si  Si13  1  0.64611700  0.88644900  0.74306200  1
  Si  Si14  1  0.88644900  0.64611700  0.24306200  1
  Si  Si15  1  0.16671200  0.82146100  0.10113100  1
  Si  Si16  1  0.53437200  0.19077500  0.39843900  1
  Si  Si17  1  0.35388300  0.11355100  0.25693800  1
  Si  Si18  1  0.17853900  0.83328800  0.39886900  1
  Si  Si19  1  0.80922500  0.46562800  0.10156100  1
  Si  Si20  1  0.83328800  0.17853900  0.89886900  1
  Si  Si21  1  0.19077500  0.53437200  0.89843900  1
  Si  Si22  1  0.11355100  0.35388300  0.75693800  1
  Si  Si23  1  0.82146100  0.16671200  0.60113100  1
  O  O24  1  0.29099800  0.28157500  0.19781800  1
  O  O25  1  0.70900200  0.71842500  0.80218200  1
  O  O26  1  0.62826100  0.43537700  0.04820000  1
  O  O27  1  0.04142400  0.27626300  0.54915800  1
  O  O28  1  0.28157500  0.29099800  0.69781800  1
  O  O29  1  0.67521100  0.99201200  0.55672800  1
  O  O30  1  0.00798800  0.32478900  0.94327200  1
  O  O31  1  0.32858100  0.68138800  0.12240000  1
  O  O32  1  0.27462900  0.91530400  0.61551000  1
  O  O33  1  0.31861200  0.67141900  0.37760000  1
  O  O34  1  0.48957200  0.96727600  0.22281800  1
  O  O35  1  0.96727600  0.48957200  0.72281800  1
  O  O36  1  0.72537100  0.08469600  0.38449000  1
  O  O37  1  0.95857600  0.72373700  0.45084200  1
  O  O38  1  0.68138800  0.32858100  0.62240000  1
  O  O39  1  0.08469600  0.72537100  0.88449000  1
  O  O40  1  0.56462300  0.37173900  0.45180000  1
  O  O41  1  0.32478900  0.00798800  0.44327200  1
  O  O42  1  0.85177700  0.02893100  0.68122800  1
  O  O43  1  0.27626300  0.04142400  0.04915800  1
  O  O44  1  0.43537700  0.62826100  0.54820000  1
  O  O45  1  0.27538200  0.47015100  0.81489800  1
  O  O46  1  0.67141900  0.31861200  0.87760000  1
  O  O47  1  0.91530400  0.27462900  0.11551000  1
  O  O48  1  0.52984900  0.72461800  0.68510200  1
  O  O49  1  0.47015100  0.27538200  0.31489800  1
  O  O50  1  0.99201200  0.67521100  0.05672800  1
  O  O51  1  0.37173900  0.56462300  0.95180000  1
  O  O52  1  0.72373700  0.95857600  0.95084200  1
  O  O53  1  0.03272400  0.51042800  0.27718200  1
  O  O54  1  0.97106900  0.14822300  0.81877200  1
  O  O55  1  0.72461800  0.52984900  0.18510200  1
  O  O56  1  0.02893100  0.85177700  0.18122800  1
  O  O57  1  0.14822300  0.97106900  0.31877200  1
  O  O58  1  0.71842500  0.70900200  0.30218200  1
  O  O59  1  0.51042800  0.03272400  0.77718200  1
