# generated using pymatgen
data_Tl3CO3F
_symmetry_space_group_name_H-M   'P 1'
_cell_length_a   6.24972800
_cell_length_b   7.62867100
_cell_length_c   7.64527269
_cell_angle_alpha   60.10808876
_cell_angle_beta   90.00000000
_cell_angle_gamma   90.00000000
_symmetry_Int_Tables_number   1
_chemical_formula_structural   Tl3CO3F
_chemical_formula_sum   'Tl6 C2 O6 F2'
_cell_volume   316.01347851
_cell_formula_units_Z   2
loop_
 _symmetry_equiv_pos_site_id
 _symmetry_equiv_pos_as_xyz
  1  'x, y, z'
loop_
 _atom_site_type_symbol
 _atom_site_label
 _atom_site_symmetry_multiplicity
 _atom_site_fract_x
 _atom_site_fract_y
 _atom_site_fract_z
 _atom_site_occupancy
  Tl  Tl0  1  0.25000000  0.33431700  0.41693400  1
  Tl  Tl1  1  0.75000000  0.08454100  0.75072500  1
  Tl  Tl2  1  0.75000000  0.66568300  0.58306600  1
  Tl  Tl3  1  0.25000000  0.91545900  0.24927500  1
  Tl  Tl4  1  0.25000000  0.74663600  0.83358700  1
  Tl  Tl5  1  0.75000000  0.25336400  0.16641300  1
  C  C6  1  0.25000000  0.32877800  0.83309900  1
  C  C7  1  0.75000000  0.67122200  0.16690100  1
  O  O8  1  0.25000000  0.30628200  0.01383100  1
  O  O9  1  0.25000000  0.17029300  0.81014500  1
  O  O10  1  0.25000000  0.50969200  0.67516400  1
  O  O11  1  0.75000000  0.69371800  0.98616900  1
  O  O12  1  0.75000000  0.82970700  0.18985500  1
  O  O13  1  0.75000000  0.49030800  0.32483600  1
  F  F14  1  0.00000000  0.00000000  0.50000000  1
  F  F15  1  0.50000000  0.00000000  0.50000000  1
