# generated using pymatgen
data_MgH2(CO2)2
_symmetry_space_group_name_H-M   'P 1'
_cell_length_a   10.06299500
_cell_length_b   11.50996500
_cell_length_c   18.57538540
_cell_angle_alpha   53.14696593
_cell_angle_beta   90.00000000
_cell_angle_gamma   90.00000000
_symmetry_Int_Tables_number   1
_chemical_formula_structural   MgH2(CO2)2
_chemical_formula_sum   'Mg12 H24 C24 O48'
_cell_volume   1721.57092194
_cell_formula_units_Z   12
loop_
 _symmetry_equiv_pos_site_id
 _symmetry_equiv_pos_as_xyz
  1  'x, y, z'
loop_
 _atom_site_type_symbol
 _atom_site_label
 _atom_site_symmetry_multiplicity
 _atom_site_fract_x
 _atom_site_fract_y
 _atom_site_fract_z
 _atom_site_occupancy
  Mg  Mg0  1  0.11323800  0.56879900  0.69120300  1
  Mg  Mg1  1  0.38676200  0.56879900  0.19120300  1
  Mg  Mg2  1  0.42214400  0.62115900  0.63480400  1
  Mg  Mg3  1  0.88676200  0.43120100  0.30879700  1
  Mg  Mg4  1  0.50000000  0.50000000  0.50000000  1
  Mg  Mg5  1  0.57785600  0.37884100  0.36519600  1
  Mg  Mg6  1  0.61323800  0.43120100  0.80879700  1
  Mg  Mg7  1  0.92214400  0.37884100  0.86519600  1
  Mg  Mg8  1  0.07785600  0.62115900  0.13480400  1
  Mg  Mg9  1  0.00000000  0.50000000  0.00000000  1
  Mg  Mg10  1  0.50000000  0.00000000  0.50000000  1
  Mg  Mg11  1  0.00000000  0.00000000  0.00000000  1
  H  H12  1  0.04039800  0.79863600  0.73004500  1
  H  H13  1  0.74638700  0.50753700  0.12713300  1
  H  H14  1  0.75361300  0.50753700  0.62713300  1
  H  H15  1  0.16299200  0.23357100  0.07504800  1
  H  H16  1  0.20242600  0.25202900  0.76508200  1
  H  H17  1  0.10737800  0.52285600  0.54087700  1
  H  H18  1  0.83700800  0.76642900  0.92495200  1
  H  H19  1  0.45960200  0.79863600  0.23004500  1
  H  H20  1  0.89262200  0.47714400  0.45912300  1
  H  H21  1  0.33700800  0.23357100  0.57504800  1
  H  H22  1  0.95960200  0.20136400  0.26995500  1
  H  H23  1  0.29757400  0.25202900  0.26508200  1
  H  H24  1  0.70489000  0.00985500  0.99025400  1
  H  H25  1  0.60737800  0.47714400  0.95912300  1
  H  H26  1  0.79757400  0.74797100  0.23491800  1
  H  H27  1  0.39262200  0.52285600  0.04087700  1
  H  H28  1  0.25361300  0.49246300  0.87286700  1
  H  H29  1  0.66299200  0.76642900  0.42495200  1
  H  H30  1  0.79511000  0.00985500  0.49025400  1
  H  H31  1  0.54039800  0.20136400  0.76995500  1
  H  H32  1  0.20489000  0.99014500  0.50974600  1
  H  H33  1  0.70242600  0.74797100  0.73491800  1
  H  H34  1  0.24638700  0.49246300  0.37286700  1
  H  H35  1  0.29511000  0.99014500  0.00974600  1
  C  C36  1  0.71510900  0.47134000  0.94941100  1
  C  C37  1  0.13022400  0.23184500  0.81658000  1
  C  C38  1  0.86977600  0.76815500  0.18342000  1
  C  C39  1  0.59913200  0.77183600  0.47122800  1
  C  C40  1  0.22529200  0.87246500  0.55662000  1
  C  C41  1  0.83294400  0.50011200  0.67091200  1
  C  C42  1  0.51662900  0.31126400  0.70860700  1
  C  C43  1  0.48337100  0.68873600  0.29139300  1
  C  C44  1  0.16705600  0.49988800  0.32908800  1
  C  C45  1  0.01662900  0.68873600  0.79139300  1
  C  C46  1  0.78489100  0.47134000  0.44941100  1
  C  C47  1  0.09913200  0.22816400  0.02877200  1
  C  C48  1  0.33294400  0.49988800  0.82908800  1
  C  C49  1  0.28489100  0.52866000  0.05058900  1
  C  C50  1  0.72529200  0.12753500  0.94338000  1
  C  C51  1  0.90086800  0.77183600  0.97122800  1
  C  C52  1  0.66705600  0.50011200  0.17091200  1
  C  C53  1  0.36977600  0.23184500  0.31658000  1
  C  C54  1  0.21510900  0.52866000  0.55058900  1
  C  C55  1  0.40086800  0.22816400  0.52877200  1
  C  C56  1  0.63022400  0.76815500  0.68342000  1
  C  C57  1  0.77470800  0.12753500  0.44338000  1
  C  C58  1  0.98337100  0.31126400  0.20860700  1
  C  C59  1  0.27470800  0.87246500  0.05662000  1
  O  O60  1  0.47422800  0.34067400  0.47498900  1
  O  O61  1  0.20472900  0.51853000  0.00316100  1
  O  O62  1  0.49950000  0.32778700  0.63634000  1
  O  O63  1  0.60440700  0.88326100  0.46797600  1
  O  O64  1  0.69858400  0.44147900  0.25320700  1
  O  O65  1  0.34773400  0.83411200  0.56339500  1
  O  O66  1  0.29527100  0.51853000  0.50316100  1
  O  O67  1  0.50050000  0.67221300  0.36366000  1
  O  O68  1  0.41880100  0.34594200  0.30417100  1
  O  O69  1  0.91880100  0.65405800  0.19582900  1
  O  O70  1  0.10440700  0.11673900  0.03202400  1
  O  O71  1  0.00899600  0.58762100  0.78134800  1
  O  O72  1  0.39543800  0.10318400  0.38024500  1
  O  O73  1  0.65226600  0.16588800  0.43660500  1
  O  O74  1  0.89543800  0.89681600  0.11975500  1
  O  O75  1  0.79527100  0.48147000  0.99683900  1
  O  O76  1  0.02577200  0.34067400  0.97498900  1
  O  O77  1  0.99950000  0.67221300  0.86366000  1
  O  O78  1  0.60456200  0.89681600  0.61975500  1
  O  O79  1  0.70472900  0.48147000  0.49683900  1
  O  O80  1  0.39559300  0.11673900  0.53202400  1
  O  O81  1  0.25410300  0.54506000  0.11143400  1
  O  O82  1  0.55443200  0.54862300  0.13661700  1
  O  O83  1  0.62892000  0.21120200  0.90175100  1
  O  O84  1  0.24589700  0.54506000  0.61143400  1
  O  O85  1  0.75410300  0.45494000  0.38856600  1
  O  O86  1  0.15226600  0.83411200  0.06339500  1
  O  O87  1  0.58119900  0.65405800  0.69582900  1
  O  O88  1  0.00050000  0.32778700  0.13634000  1
  O  O89  1  0.80141600  0.44147900  0.75320700  1
  O  O90  1  0.12892000  0.78879800  0.59824900  1
  O  O91  1  0.37108000  0.78879800  0.09824900  1
  O  O92  1  0.49100400  0.58762100  0.28134800  1
  O  O93  1  0.52577200  0.65932600  0.52501100  1
  O  O94  1  0.99100400  0.41237900  0.21865200  1
  O  O95  1  0.10456200  0.10318400  0.88024500  1
  O  O96  1  0.50899600  0.41237900  0.71865200  1
  O  O97  1  0.44556800  0.45137700  0.86338300  1
  O  O98  1  0.89559300  0.88326100  0.96797600  1
  O  O99  1  0.97422800  0.65932600  0.02501100  1
  O  O100  1  0.84773400  0.16588800  0.93660500  1
  O  O101  1  0.19858400  0.55852100  0.24679300  1
  O  O102  1  0.08119900  0.34594200  0.80417100  1
  O  O103  1  0.74589700  0.45494000  0.88856600  1
  O  O104  1  0.87108000  0.21120200  0.40175100  1
  O  O105  1  0.94556800  0.54862300  0.63661700  1
  O  O106  1  0.05443200  0.45137700  0.36338300  1
  O  O107  1  0.30141600  0.55852100  0.74679300  1
