# generated using pymatgen
data_K9Eu3Si12(O16F)2
_symmetry_space_group_name_H-M   'P 1'
_cell_length_a   6.99416400
_cell_length_b   11.58452495
_cell_length_c   11.66484921
_cell_angle_alpha   92.17696304
_cell_angle_beta   89.68711475
_cell_angle_gamma   100.16857530
_symmetry_Int_Tables_number   1
_chemical_formula_structural   K9Eu3Si12(O16F)2
_chemical_formula_sum   'K9 Eu3 Si12 O32 F2'
_cell_volume   929.61576142
_cell_formula_units_Z   1
loop_
 _symmetry_equiv_pos_site_id
 _symmetry_equiv_pos_as_xyz
  1  'x, y, z'
loop_
 _atom_site_type_symbol
 _atom_site_label
 _atom_site_symmetry_multiplicity
 _atom_site_fract_x
 _atom_site_fract_y
 _atom_site_fract_z
 _atom_site_occupancy
  K  K0  1  0.01366200  0.66999100  0.50890000  1
  K  K1  1  0.26957700  0.38342700  0.01761500  1
  K  K2  1  0.16825000  0.15073000  0.21329300  1
  K  K3  1  0.16978900  0.18950800  0.77824700  1
  K  K4  1  0.73042300  0.61657300  0.98238500  1
  K  K5  1  0.98633800  0.33000900  0.49110000  1
  K  K6  1  0.83175000  0.84927000  0.78670700  1
  K  K7  1  0.50000000  0.00000000  0.00000000  1
  K  K8  1  0.83021100  0.81049200  0.22175300  1
  Eu  Eu9  1  0.48577700  0.51205900  0.33356100  1
  Eu  Eu10  1  0.51422300  0.48794100  0.66643900  1
  Eu  Eu11  1  0.00000000  0.00000000  0.50000000  1
  Si  Si12  1  0.66181900  0.13628500  0.68969100  1
  Si  Si13  1  0.33818100  0.86371500  0.31030900  1
  Si  Si14  1  0.44834600  0.23140700  0.48935100  1
  Si  Si15  1  0.30929600  0.69620700  0.84222300  1
  Si  Si16  1  0.65610000  0.09095200  0.30365000  1
  Si  Si17  1  0.55165400  0.76859300  0.51064900  1
  Si  Si18  1  0.98361700  0.51348700  0.25647000  1
  Si  Si19  1  0.69070400  0.30379300  0.15777700  1
  Si  Si20  1  0.28376900  0.66768100  0.11829500  1
  Si  Si21  1  0.71623100  0.33231900  0.88170500  1
  Si  Si22  1  0.34390000  0.90904800  0.69635000  1
  Si  Si23  1  0.01638300  0.48651300  0.74353000  1
  O  O24  1  0.54357900  0.39683800  0.84401100  1
  O  O25  1  0.47177900  0.37310800  0.48418400  1
  O  O26  1  0.28835300  0.69123000  0.98145300  1
  O  O27  1  0.06592500  0.58552400  0.13884900  1
  O  O28  1  0.84267700  0.03378500  0.32968600  1
  O  O29  1  0.31115500  0.83606500  0.81651400  1
  O  O30  1  0.49102000  0.79379700  0.37557700  1
  O  O31  1  0.84318100  0.48897800  0.65276400  1
  O  O32  1  0.68884500  0.16393500  0.18348600  1
  O  O33  1  0.28573500  0.79696200  0.18347600  1
  O  O34  1  0.15681900  0.51102200  0.34723600  1
  O  O35  1  0.50263200  0.35070900  0.20658500  1
  O  O36  1  0.71164700  0.30877000  0.01854700  1
  O  O37  1  0.49736800  0.64929100  0.79341500  1
  O  O38  1  0.81291900  0.57489200  0.31236900  1
  O  O39  1  0.45703900  0.99416800  0.27494600  1
  O  O40  1  0.61471300  0.18360000  0.40701000  1
  O  O41  1  0.45642100  0.60316200  0.15598900  1
  O  O42  1  0.93407500  0.41447600  0.86115100  1
  O  O43  1  0.09964700  0.62469000  0.78902500  1
  O  O44  1  0.76814500  0.83607900  0.54187000  1
  O  O45  1  0.18708100  0.42510800  0.68763100  1
  O  O46  1  0.71426500  0.20303800  0.81652400  1
  O  O47  1  0.50898000  0.20620300  0.62442300  1
  O  O48  1  0.54296100  0.00583200  0.72505400  1
  O  O49  1  0.15732300  0.96621500  0.67031400  1
  O  O50  1  0.85591700  0.12761100  0.61994100  1
  O  O51  1  0.38528700  0.81640000  0.59299000  1
  O  O52  1  0.90035300  0.37531000  0.21097500  1
  O  O53  1  0.14408300  0.87238900  0.38005900  1
  O  O54  1  0.52822100  0.62689200  0.51581600  1
  O  O55  1  0.23185500  0.16392100  0.45813000  1
  F  F56  1  0.75549400  0.84442900  0.00442500  1
  F  F57  1  0.24450600  0.15557100  0.99557500  1
