# generated using pymatgen
data_Ba4Gd2Cd3S10
_symmetry_space_group_name_H-M   'P 1'
_cell_length_a   9.33977946
_cell_length_b   9.33977946
_cell_length_c   27.02985800
_cell_angle_alpha   90.00000000
_cell_angle_beta   90.00000000
_cell_angle_gamma   153.96721253
_symmetry_Int_Tables_number   1
_chemical_formula_structural   Ba4Gd2Cd3S10
_chemical_formula_sum   'Ba8 Gd4 Cd6 S20'
_cell_volume   1034.82794925
_cell_formula_units_Z   2
loop_
 _symmetry_equiv_pos_site_id
 _symmetry_equiv_pos_as_xyz
  1  'x, y, z'
loop_
 _atom_site_type_symbol
 _atom_site_label
 _atom_site_symmetry_multiplicity
 _atom_site_fract_x
 _atom_site_fract_y
 _atom_site_fract_z
 _atom_site_occupancy
  Ba  Ba0  1  0.57588800  0.42411200  0.15655100  1
  Ba  Ba1  1  0.42411200  0.57588800  0.65655100  1
  Ba  Ba2  1  0.59677100  0.40322900  0.33854400  1
  Ba  Ba3  1  0.16040200  0.83959800  0.89089700  1
  Ba  Ba4  1  0.83959800  0.16040200  0.39089700  1
  Ba  Ba5  1  0.83793700  0.16206300  0.11061000  1
  Ba  Ba6  1  0.40322900  0.59677100  0.83854400  1
  Ba  Ba7  1  0.16206300  0.83793700  0.61061000  1
  Gd  Gd8  1  0.92057800  0.07942200  0.25368900  1
  Gd  Gd9  1  0.07942200  0.92057800  0.75368900  1
  Gd  Gd10  1  0.50368300  0.49631700  0.50003200  1
  Gd  Gd11  1  0.49631700  0.50368300  0.00003200  1
  Cd  Cd12  1  0.21880700  0.78119300  0.23140900  1
  Cd  Cd13  1  0.78119300  0.21880700  0.73140900  1
  Cd  Cd14  1  0.83854100  0.16145900  0.96157000  1
  Cd  Cd15  1  0.16145900  0.83854100  0.46157000  1
  Cd  Cd16  1  0.84439000  0.15561000  0.54398200  1
  Cd  Cd17  1  0.15561000  0.84439000  0.04398200  1
  S  S18  1  0.42417500  0.57582500  0.32101900  1
  S  S19  1  0.34420600  0.65579400  0.01823500  1
  S  S20  1  0.23198800  0.76801200  0.76762900  1
  S  S21  1  0.59045100  0.40954900  0.68440500  1
  S  S22  1  0.92616500  0.07383500  0.74688300  1
  S  S23  1  0.20802600  0.79197400  0.13140100  1
  S  S24  1  0.65579400  0.34420600  0.51823500  1
  S  S25  1  0.78715300  0.21284700  0.87764300  1
  S  S26  1  0.98833600  0.01166400  0.57081200  1
  S  S27  1  0.98268200  0.01731800  0.93336200  1
  S  S28  1  0.34902200  0.65097800  0.48964700  1
  S  S29  1  0.76801200  0.23198800  0.26762900  1
  S  S30  1  0.07383500  0.92616500  0.24688300  1
  S  S31  1  0.21284700  0.78715300  0.37764300  1
  S  S32  1  0.01166400  0.98833600  0.07081200  1
  S  S33  1  0.01731800  0.98268200  0.43336200  1
  S  S34  1  0.65097800  0.34902200  0.98964700  1
  S  S35  1  0.57582500  0.42417500  0.82101900  1
  S  S36  1  0.40954900  0.59045100  0.18440500  1
  S  S37  1  0.79197400  0.20802600  0.63140100  1
