# generated using pymatgen
data_ZnS
_symmetry_space_group_name_H-M   'P 1'
_cell_length_a   3.85320439
_cell_length_b   3.85320439
_cell_length_c   107.07230200
_cell_angle_alpha   90.00000000
_cell_angle_beta   90.00000000
_cell_angle_gamma   120.00000669
_symmetry_Int_Tables_number   1
_chemical_formula_structural   ZnS
_chemical_formula_sum   'Zn34 S34'
_cell_volume   1376.73969697
_cell_formula_units_Z   34
loop_
 _symmetry_equiv_pos_site_id
 _symmetry_equiv_pos_as_xyz
  1  'x, y, z'
loop_
 _atom_site_type_symbol
 _atom_site_label
 _atom_site_symmetry_multiplicity
 _atom_site_fract_x
 _atom_site_fract_y
 _atom_site_fract_z
 _atom_site_occupancy
  Zn  Zn0  1  0.00000000  0.00000000  0.38234700  1
  Zn  Zn1  1  0.33333300  0.66666700  0.32354600  1
  Zn  Zn2  1  0.00000000  0.00000000  0.94160400  1
  Zn  Zn3  1  0.66666700  0.33333300  0.47059200  1
  Zn  Zn4  1  0.66666700  0.33333300  0.20591500  1
  Zn  Zn5  1  0.66666700  0.33333300  0.29411600  1
  Zn  Zn6  1  0.66666700  0.33333300  0.35297500  1
  Zn  Zn7  1  0.66666700  0.33333300  0.64704800  1
  Zn  Zn8  1  0.66666700  0.33333300  0.97094300  1
  Zn  Zn9  1  0.66666700  0.33333300  0.76472200  1
  Zn  Zn10  1  0.33333300  0.66666700  0.41177100  1
  Zn  Zn11  1  0.00000000  0.00000000  0.08822100  1
  Zn  Zn12  1  0.00000000  0.00000000  0.88250700  1
  Zn  Zn13  1  0.00000000  0.00000000  0.73532400  1
  Zn  Zn14  1  0.00000000  0.00000000  0.26471300  1
  Zn  Zn15  1  0.00000000  0.00000000  0.44119700  1
  Zn  Zn16  1  0.66666700  0.33333300  0.05882800  1
  Zn  Zn17  1  0.33333300  0.66666700  0.70588600  1
  Zn  Zn18  1  0.33333300  0.66666700  0.02947200  1
  Zn  Zn19  1  0.00000000  0.00000000  0.52938300  1
  Zn  Zn20  1  0.00000000  0.00000000  0.00020100  1
  Zn  Zn21  1  0.00000000  0.00000000  0.17647400  1
  Zn  Zn22  1  0.33333300  0.66666700  0.61764400  1
  Zn  Zn23  1  0.66666700  0.33333300  0.85299700  1
  Zn  Zn24  1  0.00000000  0.00000000  0.82353300  1
  Zn  Zn25  1  0.00000000  0.00000000  0.67645100  1
  Zn  Zn26  1  0.33333300  0.66666700  0.91207500  1
  Zn  Zn27  1  0.33333300  0.66666700  0.79413100  1
  Zn  Zn28  1  0.66666700  0.33333300  0.14703100  1
  Zn  Zn29  1  0.33333300  0.66666700  0.11763000  1
  Zn  Zn30  1  0.00000000  0.00000000  0.58824700  1
  Zn  Zn31  1  0.66666700  0.33333300  0.55881300  1
  Zn  Zn32  1  0.33333300  0.66666700  0.23530800  1
  Zn  Zn33  1  0.33333300  0.66666700  0.49999100  1
  S  S34  1  0.00000000  0.00000000  0.28676300  1
  S  S35  1  0.66666700  0.33333300  0.31616100  1
  S  S36  1  0.00000000  0.00000000  0.02218500  1
  S  S37  1  0.33333300  0.66666700  0.05149300  1
  S  S38  1  0.66666700  0.33333300  0.08087200  1
  S  S39  1  0.00000000  0.00000000  0.61029000  1
  S  S40  1  0.33333300  0.66666700  0.52203600  1
  S  S41  1  0.00000000  0.00000000  0.84558600  1
  S  S42  1  0.00000000  0.00000000  0.19856000  1
  S  S43  1  0.00000000  0.00000000  0.96362200  1
  S  S44  1  0.33333300  0.66666700  0.13968400  1
  S  S45  1  0.33333300  0.66666700  0.72796900  1
  S  S46  1  0.33333300  0.66666700  0.63969700  1
  S  S47  1  0.33333300  0.66666700  0.81618100  1
  S  S48  1  0.33333300  0.66666700  0.93421000  1
  S  S49  1  0.66666700  0.33333300  0.78677400  1
  S  S50  1  0.33333300  0.66666700  0.25735700  1
  S  S51  1  0.33333300  0.66666700  0.43384300  1
  S  S52  1  0.00000000  0.00000000  0.11027300  1
  S  S53  1  0.00000000  0.00000000  0.75736500  1
  S  S54  1  0.00000000  0.00000000  0.40438400  1
  S  S55  1  0.00000000  0.00000000  0.55142400  1
  S  S56  1  0.66666700  0.33333300  0.49263800  1
  S  S57  1  0.66666700  0.33333300  0.99295300  1
  S  S58  1  0.66666700  0.33333300  0.87510000  1
  S  S59  1  0.66666700  0.33333300  0.58089500  1
  S  S60  1  0.66666700  0.33333300  0.16907800  1
  S  S61  1  0.66666700  0.33333300  0.66909900  1
  S  S62  1  0.00000000  0.00000000  0.69849600  1
  S  S63  1  0.00000000  0.00000000  0.46323400  1
  S  S64  1  0.33333300  0.66666700  0.34562300  1
  S  S65  1  0.66666700  0.33333300  0.37500500  1
  S  S66  1  0.00000000  0.00000000  0.90460000  1
  S  S67  1  0.66666700  0.33333300  0.22795600  1
