# generated using pymatgen
data_AsSXeNF10
_symmetry_space_group_name_H-M   'P 1'
_cell_length_a   9.10127800
_cell_length_b   12.78938700
_cell_length_c   16.78788400
_cell_angle_alpha   90.00000000
_cell_angle_beta   90.00000000
_cell_angle_gamma   90.00000000
_symmetry_Int_Tables_number   1
_chemical_formula_structural   AsSXeNF10
_chemical_formula_sum   'As8 S8 Xe8 N8 F80'
_cell_volume   1954.10577824
_cell_formula_units_Z   8
loop_
 _symmetry_equiv_pos_site_id
 _symmetry_equiv_pos_as_xyz
  1  'x, y, z'
loop_
 _atom_site_type_symbol
 _atom_site_label
 _atom_site_symmetry_multiplicity
 _atom_site_fract_x
 _atom_site_fract_y
 _atom_site_fract_z
 _atom_site_occupancy
  As  As0  1  0.22271800  0.09028300  0.13667300  1
  As  As1  1  0.72271800  0.09028300  0.36332700  1
  As  As2  1  0.77728200  0.59028300  0.36332700  1
  As  As3  1  0.72271800  0.40971700  0.86332700  1
  As  As4  1  0.22271800  0.40971700  0.63667300  1
  As  As5  1  0.77728200  0.90971700  0.86332700  1
  As  As6  1  0.27728200  0.59028300  0.13667300  1
  As  As7  1  0.27728200  0.90971700  0.63667300  1
  S  S8  1  0.78941600  0.84095900  0.56164800  1
  S  S9  1  0.71058400  0.34095900  0.56164800  1
  S  S10  1  0.28941600  0.65904100  0.43835200  1
  S  S11  1  0.21058400  0.15904100  0.43835200  1
  S  S12  1  0.71058400  0.15904100  0.06164800  1
  S  S13  1  0.78941600  0.65904100  0.06164800  1
  S  S14  1  0.21058400  0.34095900  0.93835200  1
  S  S15  1  0.28941600  0.84095900  0.93835200  1
  Xe  Xe16  1  0.94854800  0.68325500  0.70757700  1
  Xe  Xe17  1  0.55145200  0.18325500  0.70757700  1
  Xe  Xe18  1  0.44854800  0.68325500  0.79242300  1
  Xe  Xe19  1  0.05145200  0.31674500  0.29242300  1
  Xe  Xe20  1  0.44854800  0.81674500  0.29242300  1
  Xe  Xe21  1  0.94854800  0.81674500  0.20757700  1
  Xe  Xe22  1  0.05145200  0.18325500  0.79242300  1
  Xe  Xe23  1  0.55145200  0.31674500  0.20757700  1
  N  N24  1  0.31368200  0.75429300  0.39600400  1
  N  N25  1  0.68631800  0.24570700  0.60399600  1
  N  N26  1  0.18631800  0.24570700  0.89600400  1
  N  N27  1  0.68631800  0.25429300  0.10399600  1
  N  N28  1  0.31368200  0.74570700  0.89600400  1
  N  N29  1  0.18631800  0.25429300  0.39600400  1
  N  N30  1  0.81368200  0.75429300  0.10399600  1
  N  N31  1  0.81368200  0.74570700  0.60399600  1
  F  F32  1  0.14358100  0.65646800  0.48480500  1
  F  F33  1  0.03212000  0.08597600  0.15846300  1
  F  F34  1  0.23764000  0.95457000  0.15583000  1
  F  F35  1  0.61019400  0.12506700  0.99213000  1
  F  F36  1  0.68567400  0.06445200  0.46511300  1
  F  F37  1  0.38980600  0.87493300  0.00787000  1
  F  F38  1  0.23836300  0.88144000  0.73802000  1
  F  F39  1  0.26236000  0.04543000  0.65583000  1
  F  F40  1  0.43396000  0.37491600  0.29981100  1
  F  F41  1  0.79023500  0.72673800  0.38253700  1
  F  F42  1  0.06604000  0.62508400  0.79981100  1
  F  F43  1  0.29023500  0.77326200  0.61746300  1
  F  F44  1  0.22346600  0.44907100  0.89799400  1
  F  F45  1  0.31432600  0.93554800  0.53488700  1
  F  F46  1  0.73764000  0.54543000  0.84417000  1
  F  F47  1  0.43396000  0.12508400  0.79981100  1
  F  F48  1  0.22346600  0.05092900  0.39799400  1
  F  F49  1  0.18567400  0.43554800  0.53488700  1
  F  F50  1  0.41449200  0.40413700  0.61537000  1
  F  F51  1  0.76236000  0.04543000  0.84417000  1
  F  F52  1  0.03212000  0.41402400  0.65846300  1
  F  F53  1  0.76163700  0.11856000  0.26198000  1
  F  F54  1  0.18567400  0.06445200  0.03488700  1
  F  F55  1  0.81432600  0.56445200  0.46511300  1
  F  F56  1  0.72346600  0.05092900  0.10200600  1
  F  F57  1  0.26163700  0.38144000  0.73802000  1
  F  F58  1  0.77653400  0.94907100  0.60200600  1
  F  F59  1  0.88980600  0.87493300  0.49213000  1
  F  F60  1  0.08550800  0.59586300  0.11537000  1
  F  F61  1  0.72346600  0.44907100  0.60200600  1
  F  F62  1  0.11019400  0.12506700  0.50787000  1
  F  F63  1  0.61019400  0.37493300  0.49213000  1
  F  F64  1  0.76163700  0.38144000  0.76198000  1
  F  F65  1  0.20976500  0.22673800  0.11746300  1
  F  F66  1  0.35641900  0.34353200  0.98480500  1
  F  F67  1  0.26236000  0.45457000  0.15583000  1
  F  F68  1  0.38980600  0.62506700  0.50787000  1
  F  F69  1  0.81432600  0.93554800  0.96511300  1
  F  F70  1  0.77653400  0.55092900  0.10200600  1
  F  F71  1  0.76236000  0.45457000  0.34417000  1
  F  F72  1  0.53212000  0.08597600  0.34153700  1
  F  F73  1  0.79023500  0.77326200  0.88253700  1
  F  F74  1  0.46788000  0.91402400  0.65846300  1
  F  F75  1  0.73836300  0.88144000  0.76198000  1
  F  F76  1  0.88980600  0.62506700  0.99213000  1
  F  F77  1  0.56604000  0.87491600  0.20018900  1
  F  F78  1  0.73836300  0.61856000  0.26198000  1
  F  F79  1  0.31432600  0.56445200  0.03488700  1
  F  F80  1  0.96788000  0.58597600  0.34153700  1
  F  F81  1  0.27653400  0.94907100  0.89799400  1
  F  F82  1  0.85641900  0.34353200  0.51519500  1
  F  F83  1  0.64358100  0.84353200  0.51519500  1
  F  F84  1  0.14358100  0.84353200  0.98480500  1
  F  F85  1  0.70976500  0.27326200  0.88253700  1
  F  F86  1  0.20976500  0.27326200  0.61746300  1
  F  F87  1  0.91449200  0.09586300  0.38463000  1
  F  F88  1  0.41449200  0.09586300  0.11537000  1
  F  F89  1  0.73764000  0.95457000  0.34417000  1
  F  F90  1  0.27653400  0.55092900  0.39799400  1
  F  F91  1  0.85641900  0.15646800  0.01519500  1
  F  F92  1  0.56604000  0.62508400  0.70018900  1
  F  F93  1  0.58550800  0.59586300  0.38463000  1
  F  F94  1  0.08550800  0.90413700  0.61537000  1
  F  F95  1  0.46788000  0.58597600  0.15846300  1
  F  F96  1  0.23836300  0.61856000  0.23802000  1
  F  F97  1  0.29023500  0.72673800  0.11746300  1
  F  F98  1  0.64358100  0.65646800  0.01519500  1
  F  F99  1  0.11019400  0.37493300  0.00787000  1
  F  F100  1  0.23764000  0.54543000  0.65583000  1
  F  F101  1  0.93396000  0.12508400  0.70018900  1
  F  F102  1  0.53212000  0.41402400  0.84153700  1
  F  F103  1  0.35641900  0.15646800  0.48480500  1
  F  F104  1  0.96788000  0.91402400  0.84153700  1
  F  F105  1  0.93396000  0.37491600  0.20018900  1
  F  F106  1  0.68567400  0.43554800  0.96511300  1
  F  F107  1  0.91449200  0.40413700  0.88463000  1
  F  F108  1  0.70976500  0.22673800  0.38253700  1
  F  F109  1  0.26163700  0.11856000  0.23802000  1
  F  F110  1  0.58550800  0.90413700  0.88463000  1
  F  F111  1  0.06604000  0.87491600  0.29981100  1
