# generated using pymatgen
data_AsC4S4N4Cl2O2F5
_symmetry_space_group_name_H-M   'P 1'
_cell_length_a   11.24573200
_cell_length_b   12.01666800
_cell_length_c   14.26442984
_cell_angle_alpha   58.49806435
_cell_angle_beta   90.00000000
_cell_angle_gamma   90.00000000
_symmetry_Int_Tables_number   1
_chemical_formula_structural   AsC4S4N4Cl2O2F5
_chemical_formula_sum   'As4 C16 S16 N16 Cl8 O8 F20'
_cell_volume   1643.55031695
_cell_formula_units_Z   4
loop_
 _symmetry_equiv_pos_site_id
 _symmetry_equiv_pos_as_xyz
  1  'x, y, z'
loop_
 _atom_site_type_symbol
 _atom_site_label
 _atom_site_symmetry_multiplicity
 _atom_site_fract_x
 _atom_site_fract_y
 _atom_site_fract_z
 _atom_site_occupancy
  As  As0  1  0.74844200  0.44524500  0.30924200  1
  As  As1  1  0.75155800  0.44524500  0.80924200  1
  As  As2  1  0.25155800  0.55475500  0.69075800  1
  As  As3  1  0.24844200  0.55475500  0.19075800  1
  C  C4  1  0.43453900  0.73357200  0.20752100  1
  C  C5  1  0.39159600  0.11523700  0.67260800  1
  C  C6  1  0.98734900  0.23941100  0.21415200  1
  C  C7  1  0.19360100  0.00989200  0.20409700  1
  C  C8  1  0.69360100  0.99010800  0.29590300  1
  C  C9  1  0.56546100  0.26642800  0.79247900  1
  C  C10  1  0.89159600  0.88476300  0.82739200  1
  C  C11  1  0.51265100  0.23941100  0.71415200  1
  C  C12  1  0.10840400  0.11523700  0.17260800  1
  C  C13  1  0.30639900  0.00989200  0.70409700  1
  C  C14  1  0.01265100  0.76058900  0.78584800  1
  C  C15  1  0.60840400  0.88476300  0.32739200  1
  C  C16  1  0.48734900  0.76058900  0.28584800  1
  C  C17  1  0.06546100  0.73357200  0.70752100  1
  C  C18  1  0.80639900  0.99010800  0.79590300  1
  C  C19  1  0.93453900  0.26642800  0.29247900  1
  S  S20  1  0.68605700  0.92524200  0.49245100  1
  S  S21  1  0.81394300  0.92524200  0.99245100  1
  S  S22  1  0.35182600  0.57741000  0.39135600  1
  S  S23  1  0.42640600  0.19500800  0.53209000  1
  S  S24  1  0.92640600  0.80499200  0.96791000  1
  S  S25  1  0.03966400  0.29707100  0.64776300  1
  S  S26  1  0.14817400  0.57741000  0.89135600  1
  S  S27  1  0.07359400  0.19500800  0.03209000  1
  S  S28  1  0.57359400  0.80499200  0.46791000  1
  S  S29  1  0.46033600  0.29707100  0.14776300  1
  S  S30  1  0.31394300  0.07475800  0.50754900  1
  S  S31  1  0.64817400  0.42259000  0.60864400  1
  S  S32  1  0.18605700  0.07475800  0.00754900  1
  S  S33  1  0.53966400  0.70292900  0.85223700  1
  S  S34  1  0.96033600  0.70292900  0.35223700  1
  S  S35  1  0.85182600  0.42259000  0.10864400  1
  N  N36  1  0.85771200  0.36543300  0.24489600  1
  N  N37  1  0.23500400  0.98394500  0.13254200  1
  N  N38  1  0.93412400  0.85853900  0.75562200  1
  N  N39  1  0.73500400  0.01605500  0.36745800  1
  N  N40  1  0.56587600  0.85853900  0.25562200  1
  N  N41  1  0.43412400  0.14146100  0.74437800  1
  N  N42  1  0.05244700  0.67890100  0.88850500  1
  N  N43  1  0.06587600  0.14146100  0.24437800  1
  N  N44  1  0.94755300  0.32109900  0.11149500  1
  N  N45  1  0.55244700  0.32109900  0.61149500  1
  N  N46  1  0.35771200  0.63456700  0.25510400  1
  N  N47  1  0.64228800  0.36543300  0.74489600  1
  N  N48  1  0.44755300  0.67890100  0.38850500  1
  N  N49  1  0.76499600  0.01605500  0.86745800  1
  N  N50  1  0.14228800  0.63456700  0.75510400  1
  N  N51  1  0.26499600  0.98394500  0.63254200  1
  Cl  Cl52  1  0.76219800  0.08213100  0.66163200  1
  Cl  Cl53  1  0.96655000  0.18036800  0.42694700  1
  Cl  Cl54  1  0.73780200  0.08213100  0.16163200  1
  Cl  Cl55  1  0.23780200  0.91786900  0.33836800  1
  Cl  Cl56  1  0.46655000  0.81963200  0.07305300  1
  Cl  Cl57  1  0.03345000  0.81963200  0.57305300  1
  Cl  Cl58  1  0.53345000  0.18036800  0.92694700  1
  Cl  Cl59  1  0.26219800  0.91786900  0.83836800  1
  O  O60  1  0.52620200  0.81444400  0.74134900  1
  O  O61  1  0.86330800  0.70508200  0.41821500  1
  O  O62  1  0.02620200  0.18555600  0.75865100  1
  O  O63  1  0.36330800  0.29491800  0.08178500  1
  O  O64  1  0.97379800  0.81444400  0.24134900  1
  O  O65  1  0.13669200  0.29491800  0.58178500  1
  O  O66  1  0.63669200  0.70508200  0.91821500  1
  O  O67  1  0.47379800  0.18555600  0.25865100  1
  F  F68  1  0.80540000  0.28692900  0.90113600  1
  F  F69  1  0.30540000  0.71307100  0.59886400  1
  F  F70  1  0.64442400  0.46544300  0.20868800  1
  F  F71  1  0.31095700  0.40141300  0.28721800  1
  F  F72  1  0.19460000  0.71307100  0.09886400  1
  F  F73  1  0.36071000  0.57542600  0.09645300  1
  F  F74  1  0.85557600  0.46544300  0.70868800  1
  F  F75  1  0.65134800  0.51538900  0.36086100  1
  F  F76  1  0.68904300  0.59858700  0.71278200  1
  F  F77  1  0.18904300  0.40141300  0.78721800  1
  F  F78  1  0.69460000  0.28692900  0.40113600  1
  F  F79  1  0.13929000  0.57542600  0.59645300  1
  F  F80  1  0.86071000  0.42457400  0.40354700  1
  F  F81  1  0.63929000  0.42457400  0.90354700  1
  F  F82  1  0.34865200  0.48461100  0.63913900  1
  F  F83  1  0.15134800  0.48461100  0.13913900  1
  F  F84  1  0.81095700  0.59858700  0.21278200  1
  F  F85  1  0.84865200  0.51538900  0.86086100  1
  F  F86  1  0.35557600  0.53455700  0.79131200  1
  F  F87  1  0.14442400  0.53455700  0.29131200  1
