# generated using pymatgen
data_CeTl5Cu2(NO2)12
_symmetry_space_group_name_H-M   'P 1'
_cell_length_a   10.77254700
_cell_length_b   10.77254700
_cell_length_c   10.77254700
_cell_angle_alpha   90.00000000
_cell_angle_beta   90.00000000
_cell_angle_gamma   90.00000000
_symmetry_Int_Tables_number   1
_chemical_formula_structural   CeTl5Cu2(NO2)12
_chemical_formula_sum   'Ce2 Tl10 Cu4 N24 O48'
_cell_volume   1250.13004437
_cell_formula_units_Z   2
loop_
 _symmetry_equiv_pos_site_id
 _symmetry_equiv_pos_as_xyz
  1  'x, y, z'
loop_
 _atom_site_type_symbol
 _atom_site_label
 _atom_site_symmetry_multiplicity
 _atom_site_fract_x
 _atom_site_fract_y
 _atom_site_fract_z
 _atom_site_occupancy
  Ce  Ce0  1  0.00000000  0.00000000  0.00000000  1
  Ce  Ce1  1  0.50000000  0.50000000  0.50000000  1
  Tl  Tl2  1  0.25000000  0.25000000  0.75000000  1
  Tl  Tl3  1  0.25000000  0.75000000  0.25000000  1
  Tl  Tl4  1  0.00000000  0.50000000  0.50000000  1
  Tl  Tl5  1  0.50000000  0.00000000  0.00000000  1
  Tl  Tl6  1  0.50000000  0.00000000  0.50000000  1
  Tl  Tl7  1  0.75000000  0.75000000  0.75000000  1
  Tl  Tl8  1  0.50000000  0.50000000  0.00000000  1
  Tl  Tl9  1  0.00000000  0.50000000  0.00000000  1
  Tl  Tl10  1  0.75000000  0.25000000  0.25000000  1
  Tl  Tl11  1  0.00000000  0.00000000  0.50000000  1
  Cu  Cu12  1  0.75000000  0.75000000  0.25000000  1
  Cu  Cu13  1  0.25000000  0.75000000  0.75000000  1
  Cu  Cu14  1  0.75000000  0.25000000  0.75000000  1
  Cu  Cu15  1  0.25000000  0.25000000  0.25000000  1
  N  N16  1  0.25585200  0.25260600  0.44645700  1
  N  N17  1  0.55354300  0.74414800  0.25260600  1
  N  N18  1  0.44645700  0.74414800  0.74739400  1
  N  N19  1  0.25260600  0.55354300  0.74414800  1
  N  N20  1  0.74414800  0.74739400  0.44645700  1
  N  N21  1  0.75260600  0.05354300  0.75585200  1
  N  N22  1  0.05354300  0.75585200  0.75260600  1
  N  N23  1  0.55354300  0.25585200  0.74739400  1
  N  N24  1  0.25260600  0.44645700  0.25585200  1
  N  N25  1  0.75585200  0.24739400  0.94645700  1
  N  N26  1  0.74739400  0.55354300  0.25585200  1
  N  N27  1  0.24414800  0.24739400  0.05354300  1
  N  N28  1  0.25585200  0.74739400  0.55354300  1
  N  N29  1  0.75260600  0.94645700  0.24414800  1
  N  N30  1  0.44645700  0.25585200  0.25260600  1
  N  N31  1  0.24739400  0.94645700  0.75585200  1
  N  N32  1  0.24739400  0.05354300  0.24414800  1
  N  N33  1  0.94645700  0.75585200  0.24739400  1
  N  N34  1  0.74739400  0.44645700  0.74414800  1
  N  N35  1  0.74414800  0.25260600  0.55354300  1
  N  N36  1  0.24414800  0.75260600  0.94645700  1
  N  N37  1  0.75585200  0.75260600  0.05354300  1
  N  N38  1  0.94645700  0.24414800  0.75260600  1
  N  N39  1  0.05354300  0.24414800  0.24739400  1
  O  O40  1  0.25266900  0.00668400  0.65640000  1
  O  O41  1  0.75266900  0.50668400  0.84360000  1
  O  O42  1  0.15640000  0.75266900  0.49331600  1
  O  O43  1  0.99331600  0.34360000  0.25266900  1
  O  O44  1  0.65640000  0.25266900  0.00668400  1
  O  O45  1  0.00462900  0.85489700  0.21920500  1
  O  O46  1  0.14510300  0.21920500  0.99537100  1
  O  O47  1  0.71920500  0.49537100  0.35489700  1
  O  O48  1  0.34360000  0.74733100  0.00668400  1
  O  O49  1  0.78079500  0.00462900  0.14510300  1
  O  O50  1  0.84360000  0.75266900  0.50668400  1
  O  O51  1  0.14510300  0.78079500  0.00462900  1
  O  O52  1  0.49331600  0.15640000  0.75266900  1
  O  O53  1  0.64510300  0.71920500  0.50462900  1
  O  O54  1  0.78079500  0.99537100  0.85489700  1
  O  O55  1  0.65640000  0.74733100  0.99331600  1
  O  O56  1  0.64510300  0.28079500  0.49537100  1
  O  O57  1  0.00668400  0.65640000  0.25266900  1
  O  O58  1  0.84360000  0.24733100  0.49331600  1
  O  O59  1  0.85489700  0.78079500  0.99537100  1
  O  O60  1  0.28079500  0.49537100  0.64510300  1
  O  O61  1  0.00668400  0.34360000  0.74733100  1
  O  O62  1  0.00462900  0.14510300  0.78079500  1
  O  O63  1  0.49331600  0.84360000  0.24733100  1
  O  O64  1  0.75266900  0.49331600  0.15640000  1
  O  O65  1  0.99537100  0.14510300  0.21920500  1
  O  O66  1  0.15640000  0.24733100  0.50668400  1
  O  O67  1  0.74733100  0.00668400  0.34360000  1
  O  O68  1  0.34360000  0.25266900  0.99331600  1
  O  O69  1  0.28079500  0.50462900  0.35489700  1
  O  O70  1  0.49537100  0.35489700  0.71920500  1
  O  O71  1  0.35489700  0.71920500  0.49537100  1
  O  O72  1  0.99331600  0.65640000  0.74733100  1
  O  O73  1  0.50462900  0.64510300  0.71920500  1
  O  O74  1  0.50668400  0.84360000  0.75266900  1
  O  O75  1  0.25266900  0.99331600  0.34360000  1
  O  O76  1  0.49537100  0.64510300  0.28079500  1
  O  O77  1  0.50668400  0.15640000  0.24733100  1
  O  O78  1  0.74733100  0.99331600  0.65640000  1
  O  O79  1  0.24733100  0.49331600  0.84360000  1
  O  O80  1  0.85489700  0.21920500  0.00462900  1
  O  O81  1  0.99537100  0.85489700  0.78079500  1
  O  O82  1  0.21920500  0.99537100  0.14510300  1
  O  O83  1  0.35489700  0.28079500  0.50462900  1
  O  O84  1  0.24733100  0.50668400  0.15640000  1
  O  O85  1  0.71920500  0.50462900  0.64510300  1
  O  O86  1  0.50462900  0.35489700  0.28079500  1
  O  O87  1  0.21920500  0.00462900  0.85489700  1
