# generated using pymatgen
data_Pr2O3
_symmetry_space_group_name_H-M   'P 1'
_cell_length_a   7.56823683
_cell_length_b   7.56823683
_cell_length_c   9.13814507
_cell_angle_alpha   80.14919017
_cell_angle_beta   80.14919017
_cell_angle_gamma   28.63115745
_symmetry_Int_Tables_number   1
_chemical_formula_structural   Pr2O3
_chemical_formula_sum   'Pr6 O9'
_cell_volume   246.86467692
_cell_formula_units_Z   3
loop_
 _symmetry_equiv_pos_site_id
 _symmetry_equiv_pos_as_xyz
  1  'x, y, z'
loop_
 _atom_site_type_symbol
 _atom_site_label
 _atom_site_symmetry_multiplicity
 _atom_site_fract_x
 _atom_site_fract_y
 _atom_site_fract_z
 _atom_site_occupancy
  Pr  Pr0  1  0.03327200  0.03327200  0.18822900  1
  Pr  Pr1  1  0.96672800  0.96672800  0.81177100  1
  Pr  Pr2  1  0.69079700  0.69079700  0.86193100  1
  Pr  Pr3  1  0.36555800  0.36555800  0.48999100  1
  Pr  Pr4  1  0.63444200  0.63444200  0.51000900  1
  Pr  Pr5  1  0.30920300  0.30920300  0.13806900  1
  O  O6  1  0.87081500  0.87081500  0.28582500  1
  O  O7  1  0.82453100  0.82453100  0.97365100  1
  O  O8  1  0.52609100  0.52609100  0.34407100  1
  O  O9  1  0.20174200  0.20174200  0.37302600  1
  O  O10  1  0.12918500  0.12918500  0.71417500  1
  O  O11  1  0.50000000  0.50000000  0.00000000  1
  O  O12  1  0.47390900  0.47390900  0.65592900  1
  O  O13  1  0.17546900  0.17546900  0.02634900  1
  O  O14  1  0.79825800  0.79825800  0.62697400  1
