# generated using pymatgen
data_Bi6O5F8
_symmetry_space_group_name_H-M   'P 1'
_cell_length_a   4.12601600
_cell_length_b   5.83756238
_cell_length_c   12.46637450
_cell_angle_alpha   87.91177413
_cell_angle_beta   87.68856022
_cell_angle_gamma   87.74904351
_symmetry_Int_Tables_number   1
_chemical_formula_structural   Bi6O5F8
_chemical_formula_sum   'Bi6 O5 F8'
_cell_volume   299.60501285
_cell_formula_units_Z   1
loop_
 _symmetry_equiv_pos_site_id
 _symmetry_equiv_pos_as_xyz
  1  'x, y, z'
loop_
 _atom_site_type_symbol
 _atom_site_label
 _atom_site_symmetry_multiplicity
 _atom_site_fract_x
 _atom_site_fract_y
 _atom_site_fract_z
 _atom_site_occupancy
  Bi  Bi0  1  0.73986200  0.19888100  0.91819600  1
  Bi  Bi1  1  0.70654500  0.21978400  0.24276700  1
  Bi  Bi2  1  0.77102800  0.23112600  0.59514600  1
  Bi  Bi3  1  0.27043400  0.81441000  0.44278300  1
  Bi  Bi4  1  0.25462200  0.76645700  0.07170700  1
  Bi  Bi5  1  0.26343800  0.78426900  0.75686300  1
  O  O6  1  0.28370100  0.01584500  0.59758600  1
  O  O7  1  0.24970900  0.00388700  0.91935800  1
  O  O8  1  0.72590000  0.96843200  0.07161000  1
  O  O9  1  0.76572600  0.98940700  0.76185600  1
  O  O10  1  0.80521400  0.05705000  0.42704200  1
  F  F11  1  0.21772600  0.93638100  0.25078000  1
  F  F12  1  0.60401400  0.55244500  0.31571200  1
  F  F13  1  0.34504200  0.51999300  0.60710400  1
  F  F14  1  0.18060500  0.37434600  0.20459400  1
  F  F15  1  0.25256900  0.52224500  0.92591900  1
  F  F16  1  0.70122300  0.47060100  0.08340700  1
  F  F17  1  0.86756500  0.58361800  0.49295100  1
  F  F18  1  0.82442500  0.49082200  0.75773800  1
