# generated using pymatgen
data_Te6As4C3(NF8)3
_symmetry_space_group_name_H-M   'P 1'
_cell_length_a   8.98842702
_cell_length_b   8.98842702
_cell_length_c   19.82872249
_cell_angle_alpha   75.98587298
_cell_angle_beta   75.98587298
_cell_angle_gamma   68.66131283
_symmetry_Int_Tables_number   1
_chemical_formula_structural   Te6As4C3(NF8)3
_chemical_formula_sum   'Te12 As8 C6 N6 F48'
_cell_volume   1426.57455377
_cell_formula_units_Z   2
loop_
 _symmetry_equiv_pos_site_id
 _symmetry_equiv_pos_as_xyz
  1  'x, y, z'
loop_
 _atom_site_type_symbol
 _atom_site_label
 _atom_site_symmetry_multiplicity
 _atom_site_fract_x
 _atom_site_fract_y
 _atom_site_fract_z
 _atom_site_occupancy
  Te  Te0  1  0.00629100  0.69034000  0.67111700  1
  Te  Te1  1  0.17078000  0.48062100  0.35048300  1
  Te  Te2  1  0.53213100  0.84707100  0.78458800  1
  Te  Te3  1  0.84707100  0.53213100  0.78458800  1
  Te  Te4  1  0.48062100  0.17078000  0.35048300  1
  Te  Te5  1  0.46786900  0.15292900  0.21541200  1
  Te  Te6  1  0.15292900  0.46786900  0.21541200  1
  Te  Te7  1  0.30966000  0.99370900  0.32888300  1
  Te  Te8  1  0.99370900  0.30966000  0.32888300  1
  Te  Te9  1  0.51937900  0.82922000  0.64951700  1
  Te  Te10  1  0.69034000  0.00629100  0.67111700  1
  Te  Te11  1  0.82922000  0.51937900  0.64951700  1
  As  As12  1  0.13684500  0.13684500  0.54401400  1
  As  As13  1  0.00102300  0.00102300  0.80097800  1
  As  As14  1  0.99897700  0.99897700  0.19902200  1
  As  As15  1  0.59053800  0.59053800  0.24313300  1
  As  As16  1  0.86315500  0.86315500  0.45598600  1
  As  As17  1  0.40946200  0.40946200  0.75686700  1
  As  As18  1  0.50000000  0.50000000  0.50000000  1
  As  As19  1  0.50000000  0.50000000  0.00000000  1
  C  C20  1  0.95163400  0.95163400  0.01063000  1
  C  C21  1  0.51802100  0.97379300  0.96832300  1
  C  C22  1  0.02620700  0.48197900  0.03167700  1
  C  C23  1  0.48197900  0.02620700  0.03167700  1
  C  C24  1  0.04836600  0.04836600  0.98937000  1
  C  C25  1  0.97379300  0.51802100  0.96832300  1
  N  N26  1  0.13064300  0.13064300  0.97149000  1
  N  N27  1  0.54854900  0.92897000  0.91464600  1
  N  N28  1  0.07103000  0.45145100  0.08535400  1
  N  N29  1  0.45145100  0.07103000  0.08535400  1
  N  N30  1  0.86935700  0.86935700  0.02851000  1
  N  N31  1  0.92897000  0.54854900  0.91464600  1
  F  F32  1  0.90431700  0.65573000  0.49559000  1
  F  F33  1  0.07176700  0.82259000  0.41857700  1
  F  F34  1  0.77763000  0.52634000  0.18755300  1
  F  F35  1  0.32694500  0.32694500  0.70875600  1
  F  F36  1  0.42471500  0.42471500  0.44378700  1
  F  F37  1  0.67425200  0.32574800  0.00000000  1
  F  F38  1  0.59728700  0.59728700  0.03390300  1
  F  F39  1  0.64631700  0.39992200  0.30264800  1
  F  F40  1  0.44716300  0.69498800  0.44718100  1
  F  F41  1  0.09568300  0.34427000  0.50441000  1
  F  F42  1  0.12371500  0.12371500  0.18419600  1
  F  F43  1  0.55283700  0.30501200  0.55281900  1
  F  F44  1  0.34427000  0.09568300  0.50441000  1
  F  F45  1  0.57528500  0.57528500  0.55621300  1
  F  F46  1  0.87512300  0.87512300  0.21790400  1
  F  F47  1  0.49911800  0.49911800  0.79978300  1
  F  F48  1  0.88353100  0.13400600  0.13561400  1
  F  F49  1  0.82274200  0.82274200  0.38108200  1
  F  F50  1  0.67305500  0.67305500  0.29124400  1
  F  F51  1  0.65573000  0.90431700  0.49559000  1
  F  F52  1  0.50088200  0.50088200  0.20021700  1
  F  F53  1  0.13400600  0.88353100  0.13561400  1
  F  F54  1  0.17725800  0.17725800  0.61891800  1
  F  F55  1  0.52634000  0.77763000  0.18755300  1
  F  F56  1  0.86599400  0.11646900  0.86438600  1
  F  F57  1  0.92823300  0.17741000  0.58142300  1
  F  F58  1  0.87628500  0.87628500  0.81580400  1
  F  F59  1  0.42056900  0.42056900  0.08880700  1
  F  F60  1  0.13231800  0.88560600  0.73480500  1
  F  F61  1  0.11439400  0.86768200  0.26519500  1
  F  F62  1  0.35368300  0.60007800  0.69735200  1
  F  F63  1  0.09956800  0.09956800  0.46592300  1
  F  F64  1  0.30501200  0.55283700  0.55281900  1
  F  F65  1  0.39992200  0.64631700  0.30264800  1
  F  F66  1  0.90043200  0.90043200  0.53407700  1
  F  F67  1  0.47366000  0.22237000  0.81244700  1
  F  F68  1  0.12487700  0.12487700  0.78209600  1
  F  F69  1  0.82259000  0.07176700  0.41857700  1
  F  F70  1  0.86768200  0.11439400  0.26519500  1
  F  F71  1  0.57943100  0.57943100  0.91119300  1
  F  F72  1  0.32574800  0.67425200  0.00000000  1
  F  F73  1  0.22237000  0.47366000  0.81244700  1
  F  F74  1  0.88560600  0.13231800  0.73480500  1
  F  F75  1  0.11646900  0.86599400  0.86438600  1
  F  F76  1  0.69498800  0.44716300  0.44718100  1
  F  F77  1  0.40271300  0.40271300  0.96609700  1
  F  F78  1  0.17741000  0.92823300  0.58142300  1
  F  F79  1  0.60007800  0.35368300  0.69735200  1
