# generated using pymatgen
data_Ca2Ti6N2O11
_symmetry_space_group_name_H-M   'P 1'
_cell_length_a   7.73896046
_cell_length_b   7.73896046
_cell_length_c   9.43948847
_cell_angle_alpha   80.66974217
_cell_angle_beta   80.66974217
_cell_angle_gamma   28.22540596
_symmetry_Int_Tables_number   1
_chemical_formula_structural   Ca2Ti6N2O11
_chemical_formula_sum   'Ca2 Ti6 N2 O11'
_cell_volume   263.61270961
_cell_formula_units_Z   1
loop_
 _symmetry_equiv_pos_site_id
 _symmetry_equiv_pos_as_xyz
  1  'x, y, z'
loop_
 _atom_site_type_symbol
 _atom_site_label
 _atom_site_symmetry_multiplicity
 _atom_site_fract_x
 _atom_site_fract_y
 _atom_site_fract_z
 _atom_site_occupancy
  Ca  Ca0  1  0.55301500  0.55301500  0.25352300  1
  Ca  Ca1  1  0.46355600  0.46355600  0.77245200  1
  Ti  Ti2  1  0.12235700  0.12235700  0.92353400  1
  Ti  Ti3  1  0.16289000  0.16289000  0.56288100  1
  Ti  Ti4  1  0.23821500  0.23821500  0.24980700  1
  Ti  Ti5  1  0.77284800  0.77284800  0.76265200  1
  Ti  Ti6  1  0.83674500  0.83674500  0.43256200  1
  Ti  Ti7  1  0.88873000  0.88873000  0.10696000  1
  N  N8  1  0.29397000  0.29397000  0.41867300  1
  N  N9  1  0.93680700  0.93680700  0.27923600  1
  O  O10  1  0.06110300  0.06110300  0.70043800  1
  O  O11  1  0.11963700  0.11963700  0.38767700  1
  O  O12  1  0.14558400  0.14558400  0.10692300  1
  O  O13  1  0.64171000  0.64171000  0.88643400  1
  O  O14  1  0.69750400  0.69750400  0.57507200  1
  O  O15  1  0.75332700  0.75332700  0.23215600  1
  O  O16  1  0.23863700  0.23863700  0.75767600  1
  O  O17  1  0.35526300  0.35526300  0.10740600  1
  O  O18  1  0.84314200  0.84314200  0.89452300  1
  O  O19  1  0.87657700  0.87657700  0.61085600  1
  O  O20  1  0.99838400  0.99838400  0.97855700  1
