# generated using pymatgen
data_Sr(PO3)2
_symmetry_space_group_name_H-M   'P 1'
_cell_length_a   18.88910100
_cell_length_b   7.49566800
_cell_length_c   7.50023029
_cell_angle_alpha   89.74843261
_cell_angle_beta   90.00000000
_cell_angle_gamma   90.00000000
_symmetry_Int_Tables_number   1
_chemical_formula_structural   Sr(PO3)2
_chemical_formula_sum   'Sr8 P16 O48'
_cell_volume   1061.92059501
_cell_formula_units_Z   8
loop_
 _symmetry_equiv_pos_site_id
 _symmetry_equiv_pos_as_xyz
  1  'x, y, z'
loop_
 _atom_site_type_symbol
 _atom_site_label
 _atom_site_symmetry_multiplicity
 _atom_site_fract_x
 _atom_site_fract_y
 _atom_site_fract_z
 _atom_site_occupancy
  Sr  Sr0  1  0.26810700  0.00179800  0.00807500  1
  Sr  Sr1  1  0.76810700  0.99820200  0.99192500  1
  Sr  Sr2  1  0.89342400  0.99260000  0.49075400  1
  Sr  Sr3  1  0.01950900  0.49179900  0.49929700  1
  Sr  Sr4  1  0.64465500  0.49755100  0.00274200  1
  Sr  Sr5  1  0.39342400  0.00740000  0.50924600  1
  Sr  Sr6  1  0.51950900  0.50820100  0.50070300  1
  Sr  Sr7  1  0.14465500  0.50244900  0.99725800  1
  P  P8  1  0.22222700  0.95157100  0.51370600  1
  P  P9  1  0.19273200  0.55226700  0.51309100  1
  P  P10  1  0.69273200  0.44773300  0.48690900  1
  P  P11  1  0.81721900  0.49486900  0.94566200  1
  P  P12  1  0.97147000  0.44588500  0.01619600  1
  P  P13  1  0.44137700  0.95589400  0.99011600  1
  P  P14  1  0.47147000  0.55411500  0.98380400  1
  P  P15  1  0.06666800  0.00856100  0.55089600  1
  P  P16  1  0.84783100  0.49041100  0.54635000  1
  P  P17  1  0.94137700  0.04410600  0.00988400  1
  P  P18  1  0.56666800  0.99143900  0.44910400  1
  P  P19  1  0.59680400  0.99198700  0.05026800  1
  P  P20  1  0.09680400  0.00801300  0.94973200  1
  P  P21  1  0.34783100  0.50958900  0.45365000  1
  P  P22  1  0.72222700  0.04842900  0.48629400  1
  P  P23  1  0.31721900  0.50513100  0.05433800  1
  O  O24  1  0.64712500  0.53264800  0.34538800  1
  O  O25  1  0.16344500  0.55180000  0.32743300  1
  O  O26  1  0.12929100  0.16563900  0.04181100  1
  O  O27  1  0.01940900  0.95758200  0.02511800  1
  O  O28  1  0.26972600  0.45924400  0.52378100  1
  O  O29  1  0.03819900  0.82206900  0.54762800  1
  O  O30  1  0.14712500  0.46735200  0.65461200  1
  O  O31  1  0.14025100  0.84001500  0.95324900  1
  O  O32  1  0.00319900  0.45463200  0.83308100  1
  O  O33  1  0.20895100  0.75073300  0.58101800  1
  O  O34  1  0.64025100  0.15998500  0.04675100  1
  O  O35  1  0.64425000  0.97853200  0.53833100  1
  O  O36  1  0.89577000  0.95973700  0.15142700  1
  O  O37  1  0.91306000  0.03713000  0.82339500  1
  O  O38  1  0.89464800  0.53992400  0.02450600  1
  O  O39  1  0.76972600  0.54075600  0.47621900  1
  O  O40  1  0.62929100  0.83436100  0.95818900  1
  O  O41  1  0.53819900  0.17793100  0.45237200  1
  O  O42  1  0.39158300  0.34196600  0.46096300  1
  O  O43  1  0.75319600  0.95403200  0.32844200  1
  O  O44  1  0.28273300  0.66125800  0.96270000  1
  O  O45  1  0.01637300  0.52312500  0.16250800  1
  O  O46  1  0.51940900  0.04241800  0.97488200  1
  O  O47  1  0.41306000  0.96287000  0.17660500  1
  O  O48  1  0.77501300  0.66481100  0.94473600  1
  O  O49  1  0.95396600  0.24507600  0.07511600  1
  O  O50  1  0.66344500  0.44820000  0.67256700  1
  O  O51  1  0.14425000  0.02146800  0.46166900  1
  O  O52  1  0.02110500  0.14955900  0.46533600  1
  O  O53  1  0.27501300  0.33518900  0.05526400  1
  O  O54  1  0.58104100  0.92374300  0.24949700  1
  O  O55  1  0.78273300  0.33874200  0.03730000  1
  O  O56  1  0.70895100  0.24926700  0.41898200  1
  O  O57  1  0.52110500  0.85044100  0.53466400  1
  O  O58  1  0.39577000  0.04026300  0.84857300  1
  O  O59  1  0.08104100  0.07625700  0.75050300  1
  O  O60  1  0.45396600  0.75492400  0.92488400  1
  O  O61  1  0.25319600  0.04596800  0.67155800  1
  O  O62  1  0.37908100  0.66836200  0.54584900  1
  O  O63  1  0.83454000  0.42596600  0.74801200  1
  O  O64  1  0.87908100  0.33163800  0.45415100  1
  O  O65  1  0.39464800  0.46007600  0.97549400  1
  O  O66  1  0.51637300  0.47687500  0.83749200  1
  O  O67  1  0.33454000  0.57403400  0.25198800  1
  O  O68  1  0.26604300  0.95759000  0.34619300  1
  O  O69  1  0.89158300  0.65803400  0.53903700  1
  O  O70  1  0.76604300  0.04241000  0.65380700  1
  O  O71  1  0.50319900  0.54536800  0.16691900  1
