# generated using pymatgen
data_SiO2
_symmetry_space_group_name_H-M   'P 1'
_cell_length_a   5.44861364
_cell_length_b   5.44861364
_cell_length_c   5.49341972
_cell_angle_alpha   83.77537194
_cell_angle_beta   83.77537194
_cell_angle_gamma   99.96659315
_symmetry_Int_Tables_number   1
_chemical_formula_structural   SiO2
_chemical_formula_sum   'Si4 O8'
_cell_volume   158.32410090
_cell_formula_units_Z   4
loop_
 _symmetry_equiv_pos_site_id
 _symmetry_equiv_pos_as_xyz
  1  'x, y, z'
loop_
 _atom_site_type_symbol
 _atom_site_label
 _atom_site_symmetry_multiplicity
 _atom_site_fract_x
 _atom_site_fract_y
 _atom_site_fract_z
 _atom_site_occupancy
  Si  Si0  1  0.94305100  0.04438200  0.50613300  1
  Si  Si1  1  0.47763800  0.62925700  0.07954300  1
  Si  Si2  1  0.62925700  0.47763800  0.57954300  1
  Si  Si3  1  0.04438200  0.94305100  0.00613300  1
  O  O4  1  0.50813800  0.43957400  0.87023800  1
  O  O5  1  0.09266200  0.11998400  0.22543700  1
  O  O6  1  0.22330700  0.73520200  0.03335800  1
  O  O7  1  0.74018600  0.83689700  0.03576100  1
  O  O8  1  0.11998400  0.09266200  0.72543700  1
  O  O9  1  0.73520200  0.22330700  0.53335800  1
  O  O10  1  0.43957400  0.50813800  0.37023800  1
  O  O11  1  0.83689700  0.74018600  0.53576100  1
