# generated using pymatgen
data_Mg2BiPO6
_symmetry_space_group_name_H-M   'P 1'
_cell_length_a   7.22745525
_cell_length_b   7.22745525
_cell_length_c   5.33654700
_cell_angle_alpha   90.00000000
_cell_angle_beta   90.00000000
_cell_angle_gamma   113.73074364
_symmetry_Int_Tables_number   1
_chemical_formula_structural   Mg2BiPO6
_chemical_formula_sum   'Mg4 Bi2 P2 O12'
_cell_volume   255.19036015
_cell_formula_units_Z   2
loop_
 _symmetry_equiv_pos_site_id
 _symmetry_equiv_pos_as_xyz
  1  'x, y, z'
loop_
 _atom_site_type_symbol
 _atom_site_label
 _atom_site_symmetry_multiplicity
 _atom_site_fract_x
 _atom_site_fract_y
 _atom_site_fract_z
 _atom_site_occupancy
  Mg  Mg0  1  0.09886700  0.29343100  0.25000000  1
  Mg  Mg1  1  0.70656900  0.90113300  0.25000000  1
  Mg  Mg2  1  0.90113300  0.70656900  0.75000000  1
  Mg  Mg3  1  0.29343100  0.09886700  0.75000000  1
  Bi  Bi4  1  0.40372900  0.59627100  0.75000000  1
  Bi  Bi5  1  0.59627100  0.40372900  0.25000000  1
  P  P6  1  0.19784700  0.80215300  0.25000000  1
  P  P7  1  0.80215300  0.19784700  0.75000000  1
  O  O8  1  0.67231400  0.67231400  0.00000000  1
  O  O9  1  0.87595500  0.12404600  0.50772300  1
  O  O10  1  0.10679800  0.56996100  0.25000000  1
  O  O11  1  0.89320200  0.43003900  0.75000000  1
  O  O12  1  0.67231400  0.67231400  0.50000000  1
  O  O13  1  0.43003900  0.89320200  0.25000000  1
  O  O14  1  0.32768600  0.32768600  0.00000000  1
  O  O15  1  0.32768600  0.32768600  0.50000000  1
  O  O16  1  0.12404600  0.87595500  0.00772300  1
  O  O17  1  0.56996100  0.10679800  0.75000000  1
  O  O18  1  0.87595500  0.12404600  0.99227700  1
  O  O19  1  0.12404600  0.87595500  0.49227700  1
