# generated using pymatgen
data_SiO2
_symmetry_space_group_name_H-M   'P 1'
_cell_length_a   18.88696391
_cell_length_b   18.88696391
_cell_length_c   18.88696391
_cell_angle_alpha   148.06054259
_cell_angle_beta   148.06054259
_cell_angle_gamma   45.79600069
_symmetry_Int_Tables_number   1
_chemical_formula_structural   SiO2
_chemical_formula_sum   'Si32 O64'
_cell_volume   1879.20454894
_cell_formula_units_Z   32
loop_
 _symmetry_equiv_pos_site_id
 _symmetry_equiv_pos_as_xyz
  1  'x, y, z'
loop_
 _atom_site_type_symbol
 _atom_site_label
 _atom_site_symmetry_multiplicity
 _atom_site_fract_x
 _atom_site_fract_y
 _atom_site_fract_z
 _atom_site_occupancy
  Si  Si0  1  0.68731600  0.84054200  0.84677400  1
  Si  Si1  1  0.99376800  0.84054200  0.15322600  1
  Si  Si2  1  0.15664800  0.12500000  0.53164800  1
  Si  Si3  1  0.15664800  0.62500000  0.03164800  1
  Si  Si4  1  0.59054200  0.24376800  0.65322600  1
  Si  Si5  1  0.04239100  0.75673200  0.28565900  1
  Si  Si6  1  0.24326800  0.95760900  0.71434100  1
  Si  Si7  1  0.22163000  0.57036900  0.65126000  1
  Si  Si8  1  0.27892700  0.49326800  0.78565900  1
  Si  Si9  1  0.50673200  0.72107300  0.21434100  1
  Si  Si10  1  0.87500000  0.84335200  0.46835200  1
  Si  Si11  1  0.91910900  0.57036900  0.34874000  1
  Si  Si12  1  0.42963100  0.08089100  0.65126000  1
  Si  Si13  1  0.50673200  0.29239100  0.78565900  1
  Si  Si14  1  0.06268400  0.40945800  0.65322600  1
  Si  Si15  1  0.15945800  0.00623200  0.84677400  1
  Si  Si16  1  0.59335200  0.12500000  0.96835200  1
  Si  Si17  1  0.83089100  0.67963100  0.15126000  1
  Si  Si18  1  0.59054200  0.93731600  0.34677400  1
  Si  Si19  1  0.32036900  0.47163000  0.15126000  1
  Si  Si20  1  0.15945800  0.31268400  0.15322600  1
  Si  Si21  1  0.70760900  0.49326800  0.21434100  1
  Si  Si22  1  0.42963100  0.77837000  0.34874000  1
  Si  Si23  1  0.75623200  0.40945800  0.34677400  1
  Si  Si24  1  0.47107300  0.75673200  0.71434100  1
  Si  Si25  1  0.24326800  0.52892700  0.28565900  1
  Si  Si26  1  0.52837000  0.67963100  0.84874000  1
  Si  Si27  1  0.37500000  0.40664800  0.53164800  1
  Si  Si28  1  0.37500000  0.84335200  0.96835200  1
  Si  Si29  1  0.59335200  0.62500000  0.46835200  1
  Si  Si30  1  0.87500000  0.40664800  0.03164800  1
  Si  Si31  1  0.32036900  0.16910900  0.84874000  1
  O  O32  1  0.44282400  0.53390900  0.65233200  1
  O  O33  1  0.67405200  0.99259000  0.93638300  1
  O  O34  1  0.28390900  0.69282400  0.15233200  1
  O  O35  1  0.12191900  0.62191900  0.24383900  1
  O  O36  1  0.30717600  0.71609100  0.84766800  1
  O  O37  1  0.07594800  0.25741000  0.56361700  1
  O  O38  1  0.54049200  0.69282400  0.40891500  1
  O  O39  1  0.41826400  0.91826400  0.50000000  1
  O  O40  1  0.62808100  0.37191900  0.00000000  1
  O  O41  1  0.02849200  0.79982700  0.22866400  1
  O  O42  1  0.83259900  0.83259900  0.00000000  1
  O  O43  1  0.57116300  0.79982700  0.77133600  1
  O  O44  1  0.20017300  0.42883700  0.22866400  1
  O  O45  1  0.27391100  0.10686100  0.83295100  1
  O  O46  1  0.19096000  0.52391100  0.66704900  1
  O  O47  1  0.62808100  0.62808100  0.25616100  1
  O  O48  1  0.44282400  0.79049200  0.90891500  1
  O  O49  1  0.91740100  0.41740100  0.50000000  1
  O  O50  1  0.17883700  0.45017300  0.72866400  1
  O  O51  1  0.20950800  0.11842300  0.65233200  1
  O  O52  1  0.30717600  0.45950900  0.59108500  1
  O  O53  1  0.20017300  0.97150800  0.77133600  1
  O  O54  1  0.12191900  0.87808100  0.50000000  1
  O  O55  1  0.88157700  0.53390900  0.09108500  1
  O  O56  1  0.48766900  0.30620700  0.56361700  1
  O  O57  1  0.86842300  0.71609100  0.40891500  1
  O  O58  1  0.26233100  0.32594800  0.31853800  1
  O  O59  1  0.16740100  0.16740100  0.00000000  1
  O  O60  1  0.37808100  0.87808100  0.75616100  1
  O  O61  1  0.85686100  0.52391100  0.33295100  1
  O  O62  1  0.69379300  0.25741000  0.18146200  1
  O  O63  1  0.54982700  0.27849200  0.72866400  1
  O  O64  1  0.54982700  0.82116300  0.27133600  1
  O  O65  1  0.07594800  0.51233100  0.81853800  1
  O  O66  1  0.89313900  0.72608900  0.16704900  1
  O  O67  1  0.58259900  0.08259900  0.50000000  1
  O  O68  1  0.86842300  0.45950900  0.15233200  1
  O  O69  1  0.33173600  0.33173600  0.00000000  1
  O  O70  1  0.00741000  0.94379300  0.68146200  1
  O  O71  1  0.48766900  0.92405200  0.18146200  1
  O  O72  1  0.27391100  0.44096000  0.16704900  1
  O  O73  1  0.05620700  0.73766900  0.06361700  1
  O  O74  1  0.69379300  0.51233100  0.43638300  1
  O  O75  1  0.26233100  0.94379300  0.93638300  1
  O  O76  1  0.05620700  0.99259000  0.31853800  1
  O  O77  1  0.37191900  0.37191900  0.74383900  1
  O  O78  1  0.20950800  0.55717600  0.09108500  1
  O  O79  1  0.74259000  0.30620700  0.81853800  1
  O  O80  1  0.67405200  0.73766900  0.68146200  1
  O  O81  1  0.74259000  0.92405200  0.43638300  1
  O  O82  1  0.37191900  0.62808100  0.00000000  1
  O  O83  1  0.46609100  0.11842300  0.90891500  1
  O  O84  1  0.47608900  0.14313900  0.66704900  1
  O  O85  1  0.72150800  0.45017300  0.27133600  1
  O  O86  1  0.55904000  0.72608900  0.83295100  1
  O  O87  1  0.08173600  0.58173600  0.50000000  1
  O  O88  1  0.28390900  0.13157700  0.59108500  1
  O  O89  1  0.00741000  0.32594800  0.06361700  1
  O  O90  1  0.37808100  0.62191900  0.50000000  1
  O  O91  1  0.47608900  0.80904000  0.33295100  1
  O  O92  1  0.54049200  0.13157700  0.84766800  1
  O  O93  1  0.46609100  0.55717600  0.34766800  1
  O  O94  1  0.88157700  0.79049200  0.34766800  1
  O  O95  1  0.66826400  0.66826400  0.00000000  1
