# generated using pymatgen
data_SiO2
_symmetry_space_group_name_H-M   'P 1'
_cell_length_a   11.35359632
_cell_length_b   11.35359632
_cell_length_c   11.35359632
_cell_angle_alpha   101.95841752
_cell_angle_beta   101.95841752
_cell_angle_gamma   125.84514199
_symmetry_Int_Tables_number   1
_chemical_formula_structural   SiO2
_chemical_formula_sum   'Si16 O32'
_cell_volume   1056.30596153
_cell_formula_units_Z   16
loop_
 _symmetry_equiv_pos_site_id
 _symmetry_equiv_pos_as_xyz
  1  'x, y, z'
loop_
 _atom_site_type_symbol
 _atom_site_label
 _atom_site_symmetry_multiplicity
 _atom_site_fract_x
 _atom_site_fract_y
 _atom_site_fract_z
 _atom_site_occupancy
  Si  Si0  1  0.64079200  0.14079200  0.28158400  1
  Si  Si1  1  0.14079200  0.64079200  0.28158400  1
  Si  Si2  1  0.73447000  0.11057000  0.84504000  1
  Si  Si3  1  0.11057000  0.26553000  0.37610000  1
  Si  Si4  1  0.64079200  0.35920800  0.50000000  1
  Si  Si5  1  0.35920800  0.85920800  0.71841600  1
  Si  Si6  1  0.11057000  0.73447000  0.84504000  1
  Si  Si7  1  0.26553000  0.88943000  0.15496000  1
  Si  Si8  1  0.26553000  0.11057000  0.37610000  1
  Si  Si9  1  0.85920800  0.35920800  0.71841600  1
  Si  Si10  1  0.14079200  0.85920800  0.50000000  1
  Si  Si11  1  0.88943000  0.73447000  0.62390000  1
  Si  Si12  1  0.88943000  0.26553000  0.15496000  1
  Si  Si13  1  0.85920800  0.14079200  0.50000000  1
  Si  Si14  1  0.35920800  0.64079200  0.50000000  1
  Si  Si15  1  0.73447000  0.88943000  0.62390000  1
  O  O16  1  0.00000000  0.76026500  0.76026500  1
  O  O17  1  0.54630400  0.00988700  0.81189400  1
  O  O18  1  0.66355000  0.28942700  0.37412300  1
  O  O19  1  0.33645000  0.71057300  0.62587700  1
  O  O20  1  0.73441000  0.19799300  0.18810600  1
  O  O21  1  0.83172100  0.16827900  0.00000000  1
  O  O22  1  0.26559000  0.45369600  0.46358300  1
  O  O23  1  0.19799300  0.73441000  0.18810600  1
  O  O24  1  0.08469600  0.71057300  0.37412300  1
  O  O25  1  0.00988700  0.54630400  0.81189400  1
  O  O26  1  0.99011300  0.80200700  0.53641700  1
  O  O27  1  0.80200700  0.26559000  0.81189400  1
  O  O28  1  0.76026500  0.00000000  0.76026500  1
  O  O29  1  0.00000000  0.23973500  0.23973500  1
  O  O30  1  0.71057300  0.33645000  0.62587700  1
  O  O31  1  0.99011300  0.45369600  0.18810600  1
  O  O32  1  0.28942700  0.91530400  0.62587700  1
  O  O33  1  0.16827900  0.83172200  0.00000000  1
  O  O34  1  0.80200700  0.99011300  0.53641700  1
  O  O35  1  0.19799300  0.00988700  0.46358300  1
  O  O36  1  0.23973500  0.00000000  0.23973500  1
  O  O37  1  0.16827900  0.16827900  0.33655700  1
  O  O38  1  0.45369600  0.99011300  0.18810600  1
  O  O39  1  0.28942700  0.66355000  0.37412300  1
  O  O40  1  0.73441000  0.54630400  0.53641700  1
  O  O41  1  0.45369600  0.26559000  0.46358300  1
  O  O42  1  0.00988700  0.19799300  0.46358300  1
  O  O43  1  0.26559000  0.80200700  0.81189400  1
  O  O44  1  0.54630400  0.73441000  0.53641700  1
  O  O45  1  0.83172100  0.83172100  0.66344300  1
  O  O46  1  0.91530400  0.28942700  0.62587700  1
  O  O47  1  0.71057300  0.08469600  0.37412300  1
