# generated using pymatgen
data_BaSr2I6
_symmetry_space_group_name_H-M   'P 1'
_cell_length_a   12.94915870
_cell_length_b   12.94915870
_cell_length_c   8.16615600
_cell_angle_alpha   90.00000000
_cell_angle_beta   90.00000000
_cell_angle_gamma   143.21124221
_symmetry_Int_Tables_number   1
_chemical_formula_structural   BaSr2I6
_chemical_formula_sum   'Ba2 Sr4 I12'
_cell_volume   820.03195955
_cell_formula_units_Z   2
loop_
 _symmetry_equiv_pos_site_id
 _symmetry_equiv_pos_as_xyz
  1  'x, y, z'
loop_
 _atom_site_type_symbol
 _atom_site_label
 _atom_site_symmetry_multiplicity
 _atom_site_fract_x
 _atom_site_fract_y
 _atom_site_fract_z
 _atom_site_occupancy
  Ba  Ba0  1  0.00000000  0.00000000  0.50000000  1
  Ba  Ba1  1  0.50000000  0.50000000  0.00000000  1
  Sr  Sr2  1  0.16797300  0.83202700  0.00000000  1
  Sr  Sr3  1  0.33202700  0.66797300  0.50000000  1
  Sr  Sr4  1  0.83202700  0.16797300  0.00000000  1
  Sr  Sr5  1  0.66797300  0.33202700  0.50000000  1
  I  I6  1  0.66645400  0.84034000  0.24928400  1
  I  I7  1  0.51676700  0.01676700  0.75000000  1
  I  I8  1  0.65966000  0.83354600  0.74928400  1
  I  I9  1  0.16645400  0.34034000  0.25071600  1
  I  I10  1  0.84034000  0.66645400  0.24928400  1
  I  I11  1  0.98323300  0.48323300  0.25000000  1
  I  I12  1  0.01676700  0.51676700  0.75000000  1
  I  I13  1  0.83354600  0.65966000  0.74928400  1
  I  I14  1  0.15966000  0.33354600  0.75071600  1
  I  I15  1  0.34034000  0.16645400  0.25071600  1
  I  I16  1  0.48323300  0.98323300  0.25000000  1
  I  I17  1  0.33354600  0.15966000  0.75071600  1
