# generated using pymatgen
data_S5N2(O2F)4
_symmetry_space_group_name_H-M   'P 1'
_cell_length_a   6.89680800
_cell_length_b   13.12015500
_cell_length_c   13.99979577
_cell_angle_alpha   88.59570353
_cell_angle_beta   90.00000000
_cell_angle_gamma   90.00000000
_symmetry_Int_Tables_number   1
_chemical_formula_structural   S5N2(O2F)4
_chemical_formula_sum   'S20 N8 O32 F16'
_cell_volume   1266.42170149
_cell_formula_units_Z   4
loop_
 _symmetry_equiv_pos_site_id
 _symmetry_equiv_pos_as_xyz
  1  'x, y, z'
loop_
 _atom_site_type_symbol
 _atom_site_label
 _atom_site_symmetry_multiplicity
 _atom_site_fract_x
 _atom_site_fract_y
 _atom_site_fract_z
 _atom_site_occupancy
  S  S0  1  0.86565100  0.64023400  0.27599500  1
  S  S1  1  0.71998700  0.35970100  0.50933500  1
  S  S2  1  0.68284200  0.86299500  0.79537600  1
  S  S3  1  0.28001300  0.64029900  0.49066500  1
  S  S4  1  0.78001300  0.35970100  0.00933500  1
  S  S5  1  0.63434900  0.64023400  0.77599500  1
  S  S6  1  0.18284200  0.13700500  0.70462400  1
  S  S7  1  0.73666800  0.13636100  0.99399400  1
  S  S8  1  0.21998700  0.64029900  0.99066500  1
  S  S9  1  0.23666800  0.86363900  0.50600600  1
  S  S10  1  0.36565100  0.35976600  0.22400500  1
  S  S11  1  0.26333200  0.86363900  0.00600600  1
  S  S12  1  0.29043900  0.77020300  0.81568800  1
  S  S13  1  0.20956100  0.77020300  0.31568800  1
  S  S14  1  0.79043900  0.22979700  0.68431200  1
  S  S15  1  0.70956100  0.22979700  0.18431200  1
  S  S16  1  0.13434900  0.35976600  0.72400500  1
  S  S17  1  0.76333200  0.13636100  0.49399400  1
  S  S18  1  0.31715800  0.13700500  0.20462400  1
  S  S19  1  0.81715800  0.86299500  0.29537600  1
  N  N20  1  0.75809900  0.24138900  0.56464300  1
  N  N21  1  0.25809900  0.75861100  0.93535700  1
  N  N22  1  0.46860800  0.24207500  0.20358400  1
  N  N23  1  0.74190100  0.24138900  0.06464300  1
  N  N24  1  0.03139200  0.24207500  0.70358400  1
  N  N25  1  0.53139200  0.75792500  0.79641600  1
  N  N26  1  0.96860800  0.75792500  0.29641600  1
  N  N27  1  0.24190100  0.75861100  0.43535700  1
  O  O28  1  0.32978100  0.83854100  0.59412800  1
  O  O29  1  0.85288900  0.83969500  0.84924000  1
  O  O30  1  0.83451100  0.36764100  0.42518500  1
  O  O31  1  0.18400500  0.34338900  0.26955600  1
  O  O32  1  0.64711100  0.83969500  0.34924000  1
  O  O33  1  0.77991400  0.04887100  0.05139600  1
  O  O34  1  0.82978100  0.16145900  0.90587200  1
  O  O35  1  0.81599500  0.65661100  0.73044400  1
  O  O36  1  0.35288900  0.16030500  0.65076000  1
  O  O37  1  0.72008600  0.04887100  0.55139600  1
  O  O38  1  0.31599500  0.34338900  0.76955600  1
  O  O39  1  0.33451100  0.63235900  0.07481500  1
  O  O40  1  0.68400500  0.65661100  0.23044400  1
  O  O41  1  0.43492400  0.05006300  0.18967900  1
  O  O42  1  0.78340500  0.43253600  0.08261200  1
  O  O43  1  0.67021900  0.16145900  0.40587200  1
  O  O44  1  0.48610100  0.57496200  0.74344100  1
  O  O45  1  0.01389900  0.57496200  0.24344100  1
  O  O46  1  0.93492400  0.94993700  0.31032100  1
  O  O47  1  0.16548900  0.63235900  0.57481500  1
  O  O48  1  0.17021900  0.83854100  0.09412800  1
  O  O49  1  0.71659500  0.43253600  0.58261200  1
  O  O50  1  0.27991400  0.95112900  0.44860400  1
  O  O51  1  0.06507600  0.05006300  0.68967900  1
  O  O52  1  0.66548900  0.36764100  0.92518500  1
  O  O53  1  0.14711100  0.16030500  0.15076000  1
  O  O54  1  0.98610100  0.42503800  0.75655900  1
  O  O55  1  0.21659500  0.56746400  0.91738800  1
  O  O56  1  0.28340500  0.56746400  0.41738800  1
  O  O57  1  0.22008600  0.95112900  0.94860400  1
  O  O58  1  0.56507600  0.94993700  0.81032100  1
  O  O59  1  0.51389900  0.42503800  0.25655900  1
  F  F60  1  0.50163200  0.34343000  0.47693600  1
  F  F61  1  0.75766500  0.86487700  0.18663400  1
  F  F62  1  0.51000600  0.13419900  0.97303600  1
  F  F63  1  0.82155300  0.60780300  0.38425200  1
  F  F64  1  0.25766500  0.13512300  0.31336600  1
  F  F65  1  0.98999400  0.13419900  0.47303600  1
  F  F66  1  0.24233500  0.13512300  0.81336600  1
  F  F67  1  0.74233500  0.86487700  0.68663400  1
  F  F68  1  0.67844700  0.60780300  0.88425200  1
  F  F69  1  0.17844700  0.39219700  0.61574800  1
  F  F70  1  0.32155300  0.39219700  0.11574800  1
  F  F71  1  0.99836800  0.34343000  0.97693600  1
  F  F72  1  0.00163200  0.65657000  0.02306400  1
  F  F73  1  0.48999400  0.86580100  0.02696400  1
  F  F74  1  0.01000600  0.86580100  0.52696400  1
  F  F75  1  0.49836800  0.65657000  0.52306400  1
