# generated using pymatgen
data_Na4Zr2(SiO4)3
_symmetry_space_group_name_H-M   'P 1'
_cell_length_a   9.21699308
_cell_length_b   9.21699308
_cell_length_c   9.21699252
_cell_angle_alpha   60.74072555
_cell_angle_beta   60.74072555
_cell_angle_gamma   60.74072674
_symmetry_Int_Tables_number   1
_chemical_formula_structural   Na4Zr2(SiO4)3
_chemical_formula_sum   'Na8 Zr4 Si6 O24'
_cell_volume   562.92621900
_cell_formula_units_Z   2
loop_
 _symmetry_equiv_pos_site_id
 _symmetry_equiv_pos_as_xyz
  1  'x, y, z'
loop_
 _atom_site_type_symbol
 _atom_site_label
 _atom_site_symmetry_multiplicity
 _atom_site_fract_x
 _atom_site_fract_y
 _atom_site_fract_z
 _atom_site_occupancy
  Na  Na0  1  0.74906500  0.38849100  0.11914100  1
  Na  Na1  1  0.24906500  0.61914100  0.88849100  1
  Na  Na2  1  0.38849100  0.11914100  0.74906500  1
  Na  Na3  1  0.61914100  0.88849100  0.24906500  1
  Na  Na4  1  0.11914100  0.74906500  0.38849100  1
  Na  Na5  1  0.49873800  0.49873800  0.49873800  1
  Na  Na6  1  0.88849100  0.24906500  0.61914100  1
  Na  Na7  1  0.99873800  0.99873800  0.99873800  1
  Zr  Zr8  1  0.64455000  0.64455000  0.64455000  1
  Zr  Zr9  1  0.85117000  0.85117000  0.85117000  1
  Zr  Zr10  1  0.14455000  0.14455000  0.14455000  1
  Zr  Zr11  1  0.35117000  0.35117000  0.35117000  1
  Si  Si12  1  0.95022500  0.54427000  0.24837400  1
  Si  Si13  1  0.45022500  0.74837400  0.04427000  1
  Si  Si14  1  0.74837400  0.04427000  0.45022500  1
  Si  Si15  1  0.04427000  0.45022500  0.74837400  1
  Si  Si16  1  0.54427000  0.24837400  0.95022500  1
  Si  Si17  1  0.24837400  0.95022500  0.54427000  1
  O  O18  1  0.26746800  0.91644300  0.06230700  1
  O  O19  1  0.43164200  0.58113700  0.22825100  1
  O  O20  1  0.00636800  0.62152300  0.79089000  1
  O  O21  1  0.76746800  0.56230700  0.41644300  1
  O  O22  1  0.06230700  0.26746800  0.91644300  1
  O  O23  1  0.41644300  0.76746800  0.56230700  1
  O  O24  1  0.20434100  0.98558400  0.37472400  1
  O  O25  1  0.70434100  0.87472400  0.48558400  1
  O  O26  1  0.62152300  0.79089000  0.00636800  1
  O  O27  1  0.56230700  0.41644300  0.76746800  1
  O  O28  1  0.98558400  0.37472400  0.20434100  1
  O  O29  1  0.93164200  0.72825100  0.08113700  1
  O  O30  1  0.29089000  0.12152300  0.50636800  1
  O  O31  1  0.72825100  0.08113700  0.93164200  1
  O  O32  1  0.87472400  0.48558400  0.70434100  1
  O  O33  1  0.12152300  0.50636800  0.29089000  1
  O  O34  1  0.08113700  0.93164200  0.72825100  1
  O  O35  1  0.48558400  0.70434100  0.87472400  1
  O  O36  1  0.37472400  0.20434100  0.98558400  1
  O  O37  1  0.58113700  0.22825100  0.43164200  1
  O  O38  1  0.50636800  0.29089000  0.12152300  1
  O  O39  1  0.22825100  0.43164200  0.58113700  1
  O  O40  1  0.91644300  0.06230700  0.26746800  1
  O  O41  1  0.79089000  0.00636800  0.62152300  1
