# generated using pymatgen
data_Na2YbC2O6F
_symmetry_space_group_name_H-M   'P 1'
_cell_length_a   9.33085511
_cell_length_b   9.33085511
_cell_length_c   11.50340479
_cell_angle_alpha   85.67852116
_cell_angle_beta   85.67852116
_cell_angle_gamma   38.60839414
_symmetry_Int_Tables_number   1
_chemical_formula_structural   Na2YbC2O6F
_chemical_formula_sum   'Na8 Yb4 C8 O24 F4'
_cell_volume   622.96134109
_cell_formula_units_Z   4
loop_
 _symmetry_equiv_pos_site_id
 _symmetry_equiv_pos_as_xyz
  1  'x, y, z'
loop_
 _atom_site_type_symbol
 _atom_site_label
 _atom_site_symmetry_multiplicity
 _atom_site_fract_x
 _atom_site_fract_y
 _atom_site_fract_z
 _atom_site_occupancy
  Na  Na0  1  0.83391400  0.64802100  0.85932200  1
  Na  Na1  1  0.35197900  0.16608600  0.64067800  1
  Na  Na2  1  0.16608600  0.35197900  0.14067800  1
  Na  Na3  1  0.47820600  0.30494400  0.88246200  1
  Na  Na4  1  0.52179400  0.69505600  0.11753800  1
  Na  Na5  1  0.69505600  0.52179400  0.61753800  1
  Na  Na6  1  0.64802100  0.83391400  0.35932200  1
  Na  Na7  1  0.30494400  0.47820600  0.38246200  1
  Yb  Yb8  1  0.78307600  0.11091600  0.13233700  1
  Yb  Yb9  1  0.21692400  0.88908400  0.86766300  1
  Yb  Yb10  1  0.11091600  0.78307600  0.63233700  1
  Yb  Yb11  1  0.88908400  0.21692400  0.36766300  1
  C  C12  1  0.87791900  0.70334800  0.58193800  1
  C  C13  1  0.36354800  0.77031800  0.38393700  1
  C  C14  1  0.77031800  0.36354800  0.88393700  1
  C  C15  1  0.63645200  0.22968200  0.61606300  1
  C  C16  1  0.70334800  0.87791900  0.08193800  1
  C  C17  1  0.12208100  0.29665200  0.41806200  1
  C  C18  1  0.29665200  0.12208100  0.91806200  1
  C  C19  1  0.22968200  0.63645200  0.11606300  1
  O  O20  1  0.22094100  0.30999400  0.92421300  1
  O  O21  1  0.74670300  0.94127700  0.99889200  1
  O  O22  1  0.25329700  0.05872300  0.00110800  1
  O  O23  1  0.41520500  0.99554800  0.82757300  1
  O  O24  1  0.05872300  0.25329700  0.50110800  1
  O  O25  1  0.99554800  0.41520500  0.32757300  1
  O  O26  1  0.60294400  0.57368700  0.91652200  1
  O  O27  1  0.94127700  0.74670300  0.49889200  1
  O  O28  1  0.58479500  0.00445200  0.17242700  1
  O  O29  1  0.42631300  0.39705600  0.58347800  1
  O  O30  1  0.30999400  0.22094100  0.42421300  1
  O  O31  1  0.00445200  0.58479500  0.67242700  1
  O  O32  1  0.69748900  0.09069300  0.69937300  1
  O  O33  1  0.77905900  0.69000600  0.07578700  1
  O  O34  1  0.21017900  0.80364900  0.43342300  1
  O  O35  1  0.69000600  0.77905900  0.57578700  1
  O  O36  1  0.30251100  0.90930700  0.30062700  1
  O  O37  1  0.09069300  0.69748900  0.19937300  1
  O  O38  1  0.19635100  0.78982100  0.06657700  1
  O  O39  1  0.57368700  0.60294400  0.41652200  1
  O  O40  1  0.80364900  0.21017900  0.93342300  1
  O  O41  1  0.39705600  0.42631300  0.08347800  1
  O  O42  1  0.90930700  0.30251100  0.80062700  1
  O  O43  1  0.78982100  0.19635100  0.56657700  1
  F  F44  1  0.68096600  0.19609500  0.31896200  1
  F  F45  1  0.80390500  0.31903400  0.18103800  1
  F  F46  1  0.31903400  0.80390500  0.68103800  1
  F  F47  1  0.19609500  0.68096600  0.81896200  1
