# generated using pymatgen
data_La3Ti5Al15O37
_symmetry_space_group_name_H-M   'P 1'
_cell_length_a   12.80693691
_cell_length_b   12.80693691
_cell_length_c   9.92939078
_cell_angle_alpha   83.26996653
_cell_angle_beta   83.26996653
_cell_angle_gamma   52.84039376
_symmetry_Int_Tables_number   1
_chemical_formula_structural   La3Ti5Al15O37
_chemical_formula_sum   'La6 Ti10 Al30 O74'
_cell_volume   1286.75784237
_cell_formula_units_Z   2
loop_
 _symmetry_equiv_pos_site_id
 _symmetry_equiv_pos_as_xyz
  1  'x, y, z'
loop_
 _atom_site_type_symbol
 _atom_site_label
 _atom_site_symmetry_multiplicity
 _atom_site_fract_x
 _atom_site_fract_y
 _atom_site_fract_z
 _atom_site_occupancy
  La  La0  1  0.11217500  0.92125800  0.88895900  1
  La  La1  1  0.36340400  0.08767400  0.17729200  1
  La  La2  1  0.98580700  0.27547300  0.04409000  1
  La  La3  1  0.92125800  0.11217500  0.38895900  1
  La  La4  1  0.27547300  0.98580700  0.54409000  1
  La  La5  1  0.08767400  0.36340400  0.67729200  1
  Ti  Ti6  1  0.05031600  0.32020700  0.36144500  1
  Ti  Ti7  1  0.35043700  0.62310700  0.06401800  1
  Ti  Ti8  1  0.33101500  0.30638700  0.37789500  1
  Ti  Ti9  1  0.09634800  0.62469400  0.36785800  1
  Ti  Ti10  1  0.62310700  0.35043700  0.56401800  1
  Ti  Ti11  1  0.97888000  0.19610700  0.71826000  1
  Ti  Ti12  1  0.32020700  0.05031600  0.86144500  1
  Ti  Ti13  1  0.19610700  0.97888000  0.21826000  1
  Ti  Ti14  1  0.62469400  0.09634800  0.86785800  1
  Ti  Ti15  1  0.30638700  0.33101500  0.87789500  1
  Al  Al16  1  0.46278500  0.47931600  0.82434300  1
  Al  Al17  1  0.67033800  0.69881400  0.60365400  1
  Al  Al18  1  0.73661400  0.22323400  0.83487000  1
  Al  Al19  1  0.69881400  0.67033800  0.10365400  1
  Al  Al20  1  0.81499000  0.55151600  0.85917300  1
  Al  Al21  1  0.73937500  0.48850000  0.38013400  1
  Al  Al22  1  0.51746300  0.25942300  0.11131200  1
  Al  Al23  1  0.70517600  0.46571700  0.71437000  1
  Al  Al24  1  0.24820700  0.49627800  0.11655700  1
  Al  Al25  1  0.93091900  0.67933800  0.65272800  1
  Al  Al26  1  0.98607100  0.78830600  0.11780700  1
  Al  Al27  1  0.49627800  0.24820700  0.61655700  1
  Al  Al28  1  0.55151600  0.81499000  0.35917300  1
  Al  Al29  1  0.46571700  0.70517600  0.21437000  1
  Al  Al30  1  0.67321800  0.42966800  0.04559400  1
  Al  Al31  1  0.10770800  0.84768900  0.59378000  1
  Al  Al32  1  0.48850000  0.73937500  0.88013400  1
  Al  Al33  1  0.78830600  0.98607100  0.61780700  1
  Al  Al34  1  0.81389000  0.79163000  0.89748000  1
  Al  Al35  1  0.79163000  0.81389000  0.39748000  1
  Al  Al36  1  0.01222700  0.50498000  0.07762900  1
  Al  Al37  1  0.12553900  0.64623600  0.85531000  1
  Al  Al38  1  0.25942300  0.51746300  0.61131200  1
  Al  Al39  1  0.84768900  0.10770800  0.09378000  1
  Al  Al40  1  0.50498000  0.01222700  0.57762900  1
  Al  Al41  1  0.42966800  0.67321800  0.54559400  1
  Al  Al42  1  0.64623600  0.12553900  0.35531000  1
  Al  Al43  1  0.47931600  0.46278500  0.32434300  1
  Al  Al44  1  0.22323400  0.73661400  0.33487000  1
  Al  Al45  1  0.67933800  0.93091900  0.15272800  1
  O  O46  1  0.85778500  0.59183400  0.16330100  1
  O  O47  1  0.00929900  0.44975200  0.45088800  1
  O  O48  1  0.21541200  0.46131800  0.46975100  1
  O  O49  1  0.94718400  0.93883400  0.04112400  1
  O  O50  1  0.47847300  0.17626800  0.47713700  1
  O  O51  1  0.83375300  0.83394600  0.22343000  1
  O  O52  1  0.56848000  0.08722800  0.70921500  1
  O  O53  1  0.33944400  0.09403600  0.67020900  1
  O  O54  1  0.89210900  0.34348300  0.32847000  1
  O  O55  1  0.10703700  0.15711500  0.82530100  1
  O  O56  1  0.14827300  0.90061900  0.38861500  1
  O  O57  1  0.98246700  0.45950900  0.91952800  1
  O  O58  1  0.71496800  0.96759200  0.47151000  1
  O  O59  1  0.05903400  0.02629100  0.65770100  1
  O  O60  1  0.86905600  0.38766400  0.77908100  1
  O  O61  1  0.02629100  0.05903400  0.15770100  1
  O  O62  1  0.41681500  0.44103800  0.01559500  1
  O  O63  1  0.70592100  0.94216200  0.97561300  1
  O  O64  1  0.07274200  0.77002900  0.27002800  1
  O  O65  1  0.94216200  0.70592100  0.47561300  1
  O  O66  1  0.63635400  0.62882100  0.77749100  1
  O  O67  1  0.50253900  0.75529000  0.52075000  1
  O  O68  1  0.17626800  0.47847300  0.97713700  1
  O  O69  1  0.40637300  0.64136100  0.37835200  1
  O  O70  1  0.79745200  0.08650000  0.26947600  1
  O  O71  1  0.83394600  0.83375300  0.72343000  1
  O  O72  1  0.85367600  0.60282100  0.68597600  1
  O  O73  1  0.60282100  0.85367600  0.18597600  1
  O  O74  1  0.62882100  0.63635400  0.27749100  1
  O  O75  1  0.41295900  0.64552300  0.89745800  1
  O  O76  1  0.23131200  0.05401300  0.06211300  1
  O  O77  1  0.55319200  0.30731000  0.75340200  1
  O  O78  1  0.30126900  0.53913900  0.77383300  1
  O  O79  1  0.24820600  0.23665000  0.39329400  1
  O  O80  1  0.53913900  0.30126900  0.27383300  1
  O  O81  1  0.77396300  0.28806300  0.65902500  1
  O  O82  1  0.67618300  0.18279200  0.00101700  1
  O  O83  1  0.58109000  0.09166400  0.21188500  1
  O  O84  1  0.67136400  0.18203900  0.52259700  1
  O  O85  1  0.18203900  0.67136400  0.02259700  1
  O  O86  1  0.44975200  0.00929900  0.95088800  1
  O  O87  1  0.79355400  0.27535200  0.11502300  1
  O  O88  1  0.15711500  0.10703700  0.32530100  1
  O  O89  1  0.73008800  0.52604400  0.54773900  1
  O  O90  1  0.74315300  0.71018000  0.93049400  1
  O  O91  1  0.52289400  0.52678100  0.15604900  1
  O  O92  1  0.46131800  0.21541200  0.96975100  1
  O  O93  1  0.45950900  0.98246700  0.41952800  1
  O  O94  1  0.52678100  0.52289400  0.65604900  1
  O  O95  1  0.64552300  0.41295900  0.39745800  1
  O  O96  1  0.93883400  0.94718400  0.54112400  1
  O  O97  1  0.44103800  0.41681500  0.51559500  1
  O  O98  1  0.38766400  0.86905600  0.27908100  1
  O  O99  1  0.23665000  0.24820600  0.89329400  1
  O  O100  1  0.18279200  0.67618300  0.50101700  1
  O  O101  1  0.32630700  0.33970100  0.68746700  1
  O  O102  1  0.77002900  0.07274200  0.77002800  1
  O  O103  1  0.08722800  0.56848000  0.20921500  1
  O  O104  1  0.75529000  0.50253900  0.02075000  1
  O  O105  1  0.64136100  0.40637300  0.87835200  1
  O  O106  1  0.05401300  0.23131200  0.56211300  1
  O  O107  1  0.90061900  0.14827300  0.88861500  1
  O  O108  1  0.08650000  0.79745200  0.76947600  1
  O  O109  1  0.59183400  0.85778500  0.66330100  1
  O  O110  1  0.27535200  0.79355400  0.61502300  1
  O  O111  1  0.09166400  0.58109000  0.71188500  1
  O  O112  1  0.34348300  0.89210900  0.82847000  1
  O  O113  1  0.52604400  0.73008800  0.04773900  1
  O  O114  1  0.33970100  0.32630700  0.18746700  1
  O  O115  1  0.96759200  0.71496800  0.97151000  1
  O  O116  1  0.30731000  0.55319200  0.25340200  1
  O  O117  1  0.28806300  0.77396300  0.15902500  1
  O  O118  1  0.71018000  0.74315300  0.43049400  1
  O  O119  1  0.09403600  0.33944400  0.17020900  1
