# generated using pymatgen
data_NaVO3
_symmetry_space_group_name_H-M   'P 1'
_cell_length_a   3.65936300
_cell_length_b   5.49029800
_cell_length_c   14.59751500
_cell_angle_alpha   90.00000000
_cell_angle_beta   90.00000000
_cell_angle_gamma   90.00000000
_symmetry_Int_Tables_number   1
_chemical_formula_structural   NaVO3
_chemical_formula_sum   'Na4 V4 O12'
_cell_volume   293.27857694
_cell_formula_units_Z   4
loop_
 _symmetry_equiv_pos_site_id
 _symmetry_equiv_pos_as_xyz
  1  'x, y, z'
loop_
 _atom_site_type_symbol
 _atom_site_label
 _atom_site_symmetry_multiplicity
 _atom_site_fract_x
 _atom_site_fract_y
 _atom_site_fract_z
 _atom_site_occupancy
  Na  Na0  1  0.25000000  0.88831600  0.32724300  1
  Na  Na1  1  0.75000000  0.11168400  0.67275700  1
  Na  Na2  1  0.75000000  0.38831600  0.17275700  1
  Na  Na3  1  0.25000000  0.61168400  0.82724300  1
  V  V4  1  0.75000000  0.07321600  0.91486100  1
  V  V5  1  0.25000000  0.92678400  0.08513900  1
  V  V6  1  0.25000000  0.57321600  0.58513900  1
  V  V7  1  0.75000000  0.42678400  0.41486100  1
  O  O8  1  0.25000000  0.40930000  0.68360100  1
  O  O9  1  0.75000000  0.13135000  0.38826600  1
  O  O10  1  0.25000000  0.49579400  0.44834800  1
  O  O11  1  0.75000000  0.50420600  0.55165200  1
  O  O12  1  0.75000000  0.36865000  0.88826600  1
  O  O13  1  0.75000000  0.99579400  0.05165200  1
  O  O14  1  0.75000000  0.59070000  0.31639900  1
  O  O15  1  0.75000000  0.90930000  0.81639900  1
  O  O16  1  0.25000000  0.86865000  0.61173400  1
  O  O17  1  0.25000000  0.63135000  0.11173400  1
  O  O18  1  0.25000000  0.09070000  0.18360100  1
  O  O19  1  0.25000000  0.00420600  0.94834800  1
