# generated using pymatgen
data_MnSbS2Cl
_symmetry_space_group_name_H-M   'P 1'
_cell_length_a   3.82151100
_cell_length_b   9.57198100
_cell_length_c   12.36707500
_cell_angle_alpha   90.00000000
_cell_angle_beta   90.00000000
_cell_angle_gamma   90.00000000
_symmetry_Int_Tables_number   1
_chemical_formula_structural   MnSbS2Cl
_chemical_formula_sum   'Mn4 Sb4 S8 Cl4'
_cell_volume   452.38056272
_cell_formula_units_Z   4
loop_
 _symmetry_equiv_pos_site_id
 _symmetry_equiv_pos_as_xyz
  1  'x, y, z'
loop_
 _atom_site_type_symbol
 _atom_site_label
 _atom_site_symmetry_multiplicity
 _atom_site_fract_x
 _atom_site_fract_y
 _atom_site_fract_z
 _atom_site_occupancy
  Mn  Mn0  1  0.25000000  0.49620200  0.76383800  1
  Mn  Mn1  1  0.75000000  0.50379800  0.23616200  1
  Mn  Mn2  1  0.25000000  0.99620200  0.73616200  1
  Mn  Mn3  1  0.75000000  0.00379800  0.26383800  1
  Sb  Sb4  1  0.75000000  0.81130900  0.96336700  1
  Sb  Sb5  1  0.75000000  0.31130900  0.53663300  1
  Sb  Sb6  1  0.25000000  0.68869100  0.46336700  1
  Sb  Sb7  1  0.25000000  0.18869100  0.03663300  1
  S  S8  1  0.25000000  0.25377900  0.67551300  1
  S  S9  1  0.75000000  0.74622100  0.32448700  1
  S  S10  1  0.75000000  0.05051100  0.88229400  1
  S  S11  1  0.75000000  0.24622100  0.17551300  1
  S  S12  1  0.25000000  0.94948900  0.11770600  1
  S  S13  1  0.25000000  0.75377900  0.82448700  1
  S  S14  1  0.75000000  0.55051100  0.61770600  1
  S  S15  1  0.25000000  0.44948900  0.38229400  1
  Cl  Cl16  1  0.75000000  0.93583600  0.61417600  1
  Cl  Cl17  1  0.75000000  0.43583600  0.88582400  1
  Cl  Cl18  1  0.25000000  0.06416400  0.38582400  1
  Cl  Cl19  1  0.25000000  0.56416400  0.11417600  1
