# generated using pymatgen
data_PH6C2S2N(ClO2)2
_symmetry_space_group_name_H-M   'P 1'
_cell_length_a   7.82964100
_cell_length_b   11.38572700
_cell_length_c   24.66352407
_cell_angle_alpha   77.88308430
_cell_angle_beta   90.00000000
_cell_angle_gamma   90.00000000
_symmetry_Int_Tables_number   1
_chemical_formula_structural   PH6C2S2N(ClO2)2
_chemical_formula_sum   'P8 H48 C16 S16 N8 Cl16 O32'
_cell_volume   2149.67510482
_cell_formula_units_Z   8
loop_
 _symmetry_equiv_pos_site_id
 _symmetry_equiv_pos_as_xyz
  1  'x, y, z'
loop_
 _atom_site_type_symbol
 _atom_site_label
 _atom_site_symmetry_multiplicity
 _atom_site_fract_x
 _atom_site_fract_y
 _atom_site_fract_z
 _atom_site_occupancy
  P  P0  1  0.78961900  0.45662500  0.30765700  1
  P  P1  1  0.25416600  0.55722500  0.19221100  1
  P  P2  1  0.75416600  0.94277500  0.80778900  1
  P  P3  1  0.74583400  0.44277500  0.80778900  1
  P  P4  1  0.28961900  0.04337500  0.69234300  1
  P  P5  1  0.71038100  0.95662500  0.30765700  1
  P  P6  1  0.21038100  0.54337500  0.69234300  1
  P  P7  1  0.24583400  0.05722500  0.19221100  1
  H  H8  1  0.87033600  0.90865200  0.14595000  1
  H  H9  1  0.80456600  0.96090500  0.45505200  1
  H  H10  1  0.66326200  0.68506800  0.92101700  1
  H  H11  1  0.30456600  0.53909500  0.54494800  1
  H  H12  1  0.89900800  0.40903500  0.48648900  1
  H  H13  1  0.63066900  0.17187000  0.95522800  1
  H  H14  1  0.37033600  0.59134800  0.85405000  1
  H  H15  1  0.82368900  0.18786500  0.99371900  1
  H  H16  1  0.61965700  0.47810600  0.07250400  1
  H  H17  1  0.30318000  0.99884600  0.88675000  1
  H  H18  1  0.17198100  0.27552300  0.31191200  1
  H  H19  1  0.83608300  0.79873500  0.61565100  1
  H  H20  1  0.32368900  0.31213500  0.00628100  1
  H  H21  1  0.20357900  0.17180600  0.49044900  1
  H  H22  1  0.33608300  0.70126500  0.38434900  1
  H  H23  1  0.84476300  0.20587400  0.64195000  1
  H  H24  1  0.17631100  0.81213500  0.00628100  1
  H  H25  1  0.32801900  0.77552300  0.31191200  1
  H  H26  1  0.69543400  0.46090500  0.45505200  1
  H  H27  1  0.38034300  0.52189400  0.92749600  1
  H  H28  1  0.34476300  0.29412600  0.35805000  1
  H  H29  1  0.79642100  0.82819400  0.50955100  1
  H  H30  1  0.19682000  0.49884600  0.88675000  1
  H  H31  1  0.60099200  0.90903500  0.48648900  1
  H  H32  1  0.11965700  0.02189400  0.92749600  1
  H  H33  1  0.88034300  0.97810600  0.07250400  1
  H  H34  1  0.29642100  0.67180600  0.49044900  1
  H  H35  1  0.19543400  0.03909500  0.54494800  1
  H  H36  1  0.39900800  0.09096500  0.51351100  1
  H  H37  1  0.66391700  0.29873500  0.61565100  1
  H  H38  1  0.10099200  0.59096500  0.51351100  1
  H  H39  1  0.65523700  0.70587400  0.64195000  1
  H  H40  1  0.82801900  0.72447700  0.68808800  1
  H  H41  1  0.67198100  0.22447700  0.68808800  1
  H  H42  1  0.33673800  0.31493200  0.07898300  1
  H  H43  1  0.83673800  0.18506800  0.92101700  1
  H  H44  1  0.86933100  0.67187000  0.95522800  1
  H  H45  1  0.62966400  0.40865200  0.14595000  1
  H  H46  1  0.12966400  0.09134800  0.85405000  1
  H  H47  1  0.13066900  0.32813000  0.04477200  1
  H  H48  1  0.80318000  0.50115400  0.11325000  1
  H  H49  1  0.36933100  0.82813000  0.04477200  1
  H  H50  1  0.15523700  0.79412600  0.35805000  1
  H  H51  1  0.16391700  0.20126500  0.38434900  1
  H  H52  1  0.70357900  0.32819400  0.50955100  1
  H  H53  1  0.69682000  0.00115400  0.11325000  1
  H  H54  1  0.16326200  0.81493200  0.07898300  1
  H  H55  1  0.67631100  0.68786500  0.99371900  1
  C  C56  1  0.70662600  0.21918200  0.64563100  1
  C  C57  1  0.20662600  0.28081800  0.35436900  1
  C  C58  1  0.66438100  0.48657300  0.11361200  1
  C  C59  1  0.33561900  0.51342700  0.88638800  1
  C  C60  1  0.22756600  0.61707200  0.52562400  1
  C  C61  1  0.77243400  0.38292800  0.47437600  1
  C  C62  1  0.25879500  0.28904500  0.04655800  1
  C  C63  1  0.72756600  0.88292800  0.47437600  1
  C  C64  1  0.75879500  0.21095500  0.95344200  1
  C  C65  1  0.24120500  0.78904500  0.04655800  1
  C  C66  1  0.79337400  0.71918200  0.64563100  1
  C  C67  1  0.27243400  0.11707200  0.52562400  1
  C  C68  1  0.83561900  0.98657300  0.11361200  1
  C  C69  1  0.29337400  0.78081800  0.35436900  1
  C  C70  1  0.16438100  0.01342700  0.88638800  1
  C  C71  1  0.74120500  0.71095500  0.95344200  1
  S  S72  1  0.89165700  0.59043400  0.62938800  1
  S  S73  1  0.57406800  0.61710400  0.13060000  1
  S  S74  1  0.29758500  0.21235100  0.57337400  1
  S  S75  1  0.60834300  0.09043400  0.62938800  1
  S  S76  1  0.75780600  0.86961200  0.93850000  1
  S  S77  1  0.79758500  0.28764900  0.42662600  1
  S  S78  1  0.20241500  0.71235100  0.57337400  1
  S  S79  1  0.25780600  0.63038800  0.06150000  1
  S  S80  1  0.70241500  0.78764900  0.42662600  1
  S  S81  1  0.42593200  0.38289600  0.86940000  1
  S  S82  1  0.24219400  0.13038800  0.06150000  1
  S  S83  1  0.10834300  0.40956600  0.37061200  1
  S  S84  1  0.07406800  0.88289600  0.86940000  1
  S  S85  1  0.92593200  0.11710400  0.13060000  1
  S  S86  1  0.74219400  0.36961200  0.93850000  1
  S  S87  1  0.39165700  0.90956600  0.37061200  1
  N  N88  1  0.85365600  0.90269400  0.87305800  1
  N  N89  1  0.60928900  0.88136500  0.36871800  1
  N  N90  1  0.89071100  0.38136500  0.36871800  1
  N  N91  1  0.35365600  0.59730600  0.12694200  1
  N  N92  1  0.14634400  0.09730600  0.12694200  1
  N  N93  1  0.64634400  0.40269400  0.87305800  1
  N  N94  1  0.10928900  0.61863500  0.63128200  1
  N  N95  1  0.39071100  0.11863500  0.63128200  1
  Cl  Cl96  1  0.32082900  0.68406900  0.72184300  1
  Cl  Cl97  1  0.87562300  0.60009300  0.81278000  1
  Cl  Cl98  1  0.57614600  0.52432300  0.33978800  1
  Cl  Cl99  1  0.45257300  0.17336200  0.18200100  1
  Cl  Cl100  1  0.54742700  0.82663800  0.81799900  1
  Cl  Cl101  1  0.62437700  0.10009300  0.81278000  1
  Cl  Cl102  1  0.04742700  0.67336200  0.18200100  1
  Cl  Cl103  1  0.95257300  0.32663800  0.81799900  1
  Cl  Cl104  1  0.07614600  0.97567700  0.66021200  1
  Cl  Cl105  1  0.37562300  0.89990700  0.18722000  1
  Cl  Cl106  1  0.92385400  0.02432300  0.33978800  1
  Cl  Cl107  1  0.12437700  0.39990700  0.18722000  1
  Cl  Cl108  1  0.82082900  0.81593100  0.27815700  1
  Cl  Cl109  1  0.67917100  0.31593100  0.27815700  1
  Cl  Cl110  1  0.42385400  0.47567700  0.66021200  1
  Cl  Cl111  1  0.17917100  0.18406900  0.72184300  1
  O  O112  1  0.87682300  0.90750400  0.97611100  1
  O  O113  1  0.86294700  0.48824600  0.67424100  1
  O  O114  1  0.63265100  0.25479700  0.40882400  1
  O  O115  1  0.84970200  0.58297700  0.57334100  1
  O  O116  1  0.63705300  0.98824600  0.67424100  1
  O  O117  1  0.62317700  0.40750400  0.97611100  1
  O  O118  1  0.61829400  0.72063400  0.08835700  1
  O  O119  1  0.11829400  0.77936600  0.91164300  1
  O  O120  1  0.37682300  0.59249600  0.02388900  1
  O  O121  1  0.38170600  0.27936600  0.91164300  1
  O  O122  1  0.42149800  0.30475900  0.55265300  1
  O  O123  1  0.88170600  0.22063400  0.08835700  1
  O  O124  1  0.90997600  0.42223700  0.93139400  1
  O  O125  1  0.36734900  0.74520300  0.59117600  1
  O  O126  1  0.12317700  0.09249600  0.02388900  1
  O  O127  1  0.59002400  0.92223700  0.93139400  1
  O  O128  1  0.40997600  0.07776300  0.06860600  1
  O  O129  1  0.15029800  0.41702300  0.42665900  1
  O  O130  1  0.10655400  0.88276300  0.81186300  1
  O  O131  1  0.60655400  0.61723700  0.18813700  1
  O  O132  1  0.07850200  0.80475900  0.55265300  1
  O  O133  1  0.39344600  0.38276300  0.81186300  1
  O  O134  1  0.57850200  0.69524100  0.44734700  1
  O  O135  1  0.36294700  0.01175400  0.32575900  1
  O  O136  1  0.13705300  0.51175400  0.32575900  1
  O  O137  1  0.89344600  0.11723700  0.18813700  1
  O  O138  1  0.65029800  0.08297700  0.57334100  1
  O  O139  1  0.09002400  0.57776300  0.06860600  1
  O  O140  1  0.92149800  0.19524100  0.44734700  1
  O  O141  1  0.86734900  0.75479700  0.40882400  1
  O  O142  1  0.34970200  0.91702300  0.42665900  1
  O  O143  1  0.13265100  0.24520300  0.59117600  1
