# generated using pymatgen
data_Na2U(MoO5)2
_symmetry_space_group_name_H-M   'P 1'
_cell_length_a   7.32983400
_cell_length_b   11.65246100
_cell_length_c   12.15502700
_cell_angle_alpha   90.00000000
_cell_angle_beta   90.00000000
_cell_angle_gamma   90.00000000
_symmetry_Int_Tables_number   1
_chemical_formula_structural   Na2U(MoO5)2
_chemical_formula_sum   'Na8 U4 Mo8 O40'
_cell_volume   1038.16820769
_cell_formula_units_Z   4
loop_
 _symmetry_equiv_pos_site_id
 _symmetry_equiv_pos_as_xyz
  1  'x, y, z'
loop_
 _atom_site_type_symbol
 _atom_site_label
 _atom_site_symmetry_multiplicity
 _atom_site_fract_x
 _atom_site_fract_y
 _atom_site_fract_z
 _atom_site_occupancy
  Na  Na0  1  0.58594600  0.44224600  0.19157700  1
  Na  Na1  1  0.91405400  0.55775400  0.69157700  1
  Na  Na2  1  0.08202000  0.55070500  0.42872300  1
  Na  Na3  1  0.41405400  0.94224600  0.30842300  1
  Na  Na4  1  0.91798000  0.05070500  0.07127700  1
  Na  Na5  1  0.41798000  0.44929500  0.92872300  1
  Na  Na6  1  0.08594600  0.05775400  0.80842300  1
  Na  Na7  1  0.58202000  0.94929500  0.57127700  1
  U  U8  1  0.82108600  0.75829700  0.23100400  1
  U  U9  1  0.32108600  0.74170300  0.76899600  1
  U  U10  1  0.17891400  0.25829700  0.26899600  1
  U  U11  1  0.67891400  0.24170300  0.73100400  1
  Mo  Mo12  1  0.33424300  0.71271800  0.09947000  1
  Mo  Mo13  1  0.08027800  0.83127800  0.51324900  1
  Mo  Mo14  1  0.83424300  0.78728200  0.90053000  1
  Mo  Mo15  1  0.16575700  0.28728200  0.59947000  1
  Mo  Mo16  1  0.91972200  0.33127800  0.98675100  1
  Mo  Mo17  1  0.41972200  0.16872200  0.01324900  1
  Mo  Mo18  1  0.66575700  0.21271800  0.40053000  1
  Mo  Mo19  1  0.58027800  0.66872200  0.48675100  1
  O  O20  1  0.30790200  0.76582500  0.96092600  1
  O  O21  1  0.36642300  0.28274000  0.11330400  1
  O  O22  1  0.90206100  0.91636100  0.56511800  1
  O  O23  1  0.10209800  0.43283700  0.59325400  1
  O  O24  1  0.60209800  0.06716300  0.40674600  1
  O  O25  1  0.85552500  0.91240600  0.21274000  1
  O  O26  1  0.00572800  0.70666300  0.82524800  1
  O  O27  1  0.87960800  0.22804500  0.32916800  1
  O  O28  1  0.72388100  0.41603000  0.01485000  1
  O  O29  1  0.89790200  0.93283700  0.90674600  1
  O  O30  1  0.21834600  0.10359500  0.25126600  1
  O  O31  1  0.49427200  0.29333700  0.32524800  1
  O  O32  1  0.22388100  0.08397000  0.98515000  1
  O  O33  1  0.78165400  0.60359500  0.24873400  1
  O  O34  1  0.51248700  0.74069100  0.61433200  1
  O  O35  1  0.14447500  0.41240600  0.28726000  1
  O  O36  1  0.71834600  0.39640500  0.74873400  1
  O  O37  1  0.59793900  0.08363900  0.06511800  1
  O  O38  1  0.09793900  0.41636100  0.93488200  1
  O  O39  1  0.37960800  0.27195500  0.67083200  1
  O  O40  1  0.39790200  0.56716300  0.09325400  1
  O  O41  1  0.63357700  0.78274000  0.38669600  1
  O  O42  1  0.27611900  0.91603000  0.48515000  1
  O  O43  1  0.50572800  0.79333700  0.17475200  1
  O  O44  1  0.01248700  0.75930900  0.38566800  1
  O  O45  1  0.13357700  0.71726000  0.61330400  1
  O  O46  1  0.62039200  0.77195500  0.82916800  1
  O  O47  1  0.40206100  0.58363900  0.43488200  1
  O  O48  1  0.12039200  0.72804500  0.17083200  1
  O  O49  1  0.77611900  0.58397000  0.51485000  1
  O  O50  1  0.35552500  0.58759400  0.78726000  1
  O  O51  1  0.86642300  0.21726000  0.88669600  1
  O  O52  1  0.19209800  0.23417500  0.46092600  1
  O  O53  1  0.99427200  0.20666300  0.67475200  1
  O  O54  1  0.80790200  0.73417500  0.03907400  1
  O  O55  1  0.69209800  0.26582500  0.53907400  1
  O  O56  1  0.64447500  0.08759400  0.71274000  1
  O  O57  1  0.98751300  0.25930900  0.11433200  1
  O  O58  1  0.28165400  0.89640500  0.75126600  1
  O  O59  1  0.48751300  0.24069100  0.88566800  1
