# generated using pymatgen
data_Na3WO4F
_symmetry_space_group_name_H-M   'P 1'
_cell_length_a   5.71498000
_cell_length_b   7.65141500
_cell_length_c   13.08383600
_cell_angle_alpha   90.00000000
_cell_angle_beta   90.00000000
_cell_angle_gamma   90.00000000
_symmetry_Int_Tables_number   1
_chemical_formula_structural   Na3WO4F
_chemical_formula_sum   'Na12 W4 O16 F4'
_cell_volume   572.12584215
_cell_formula_units_Z   4
loop_
 _symmetry_equiv_pos_site_id
 _symmetry_equiv_pos_as_xyz
  1  'x, y, z'
loop_
 _atom_site_type_symbol
 _atom_site_label
 _atom_site_symmetry_multiplicity
 _atom_site_fract_x
 _atom_site_fract_y
 _atom_site_fract_z
 _atom_site_occupancy
  Na  Na0  1  0.77472400  0.45834000  0.81978300  1
  Na  Na1  1  0.22527600  0.95834000  0.18021700  1
  Na  Na2  1  0.27640400  0.75000000  0.39230600  1
  Na  Na3  1  0.72527600  0.54166000  0.31978300  1
  Na  Na4  1  0.77472400  0.04166000  0.81978300  1
  Na  Na5  1  0.77640400  0.75000000  0.10769400  1
  Na  Na6  1  0.72359600  0.25000000  0.60769400  1
  Na  Na7  1  0.27472400  0.45834000  0.68021700  1
  Na  Na8  1  0.22359600  0.25000000  0.89230600  1
  Na  Na9  1  0.72527600  0.95834000  0.31978300  1
  Na  Na10  1  0.27472400  0.04166000  0.68021700  1
  Na  Na11  1  0.22527600  0.54166000  0.18021700  1
  W  W12  1  0.28839900  0.75000000  0.91570800  1
  W  W13  1  0.78839900  0.75000000  0.58429200  1
  W  W14  1  0.21160100  0.25000000  0.41570800  1
  W  W15  1  0.71160100  0.25000000  0.08429200  1
  O  O16  1  0.31367700  0.44354700  0.34876600  1
  O  O17  1  0.67358600  0.75000000  0.45496500  1
  O  O18  1  0.18632300  0.55645300  0.84876600  1
  O  O19  1  0.18632300  0.94354700  0.84876600  1
  O  O20  1  0.89245700  0.25000000  0.42062700  1
  O  O21  1  0.81367700  0.05645300  0.15123400  1
  O  O22  1  0.10754300  0.75000000  0.57937300  1
  O  O23  1  0.39245700  0.25000000  0.07937300  1
  O  O24  1  0.81367700  0.44354700  0.15123400  1
  O  O25  1  0.68632300  0.94354700  0.65123400  1
  O  O26  1  0.82641400  0.25000000  0.95496500  1
  O  O27  1  0.60754300  0.75000000  0.92062700  1
  O  O28  1  0.32641400  0.25000000  0.54503500  1
  O  O29  1  0.68632300  0.55645300  0.65123400  1
  O  O30  1  0.17358600  0.75000000  0.04503500  1
  O  O31  1  0.31367700  0.05645300  0.34876600  1
  F  F32  1  0.00254000  0.25000000  0.73041000  1
  F  F33  1  0.99746000  0.75000000  0.26959000  1
  F  F34  1  0.49746000  0.75000000  0.23041000  1
  F  F35  1  0.50254000  0.25000000  0.76959000  1
