# generated using pymatgen
data_NaClO3
_symmetry_space_group_name_H-M   'P 1'
_cell_length_a   7.23999300
_cell_length_b   7.23999300
_cell_length_c   7.23999300
_cell_angle_alpha   90.00000000
_cell_angle_beta   90.00000000
_cell_angle_gamma   90.00000000
_symmetry_Int_Tables_number   1
_chemical_formula_structural   NaClO3
_chemical_formula_sum   'Na4 Cl4 O12'
_cell_volume   379.50232323
_cell_formula_units_Z   4
loop_
 _symmetry_equiv_pos_site_id
 _symmetry_equiv_pos_as_xyz
  1  'x, y, z'
loop_
 _atom_site_type_symbol
 _atom_site_label
 _atom_site_symmetry_multiplicity
 _atom_site_fract_x
 _atom_site_fract_y
 _atom_site_fract_z
 _atom_site_occupancy
  Na  Na0  1  0.08197900  0.41802100  0.58197900  1
  Na  Na1  1  0.41802100  0.58197900  0.08197900  1
  Na  Na2  1  0.91802100  0.91802100  0.91802100  1
  Na  Na3  1  0.58197900  0.08197900  0.41802100  1
  Cl  Cl4  1  0.26618300  0.76618300  0.73381700  1
  Cl  Cl5  1  0.76618300  0.73381700  0.26618300  1
  Cl  Cl6  1  0.73381700  0.26618300  0.76618300  1
  Cl  Cl7  1  0.23381700  0.23381700  0.23381700  1
  O  O8  1  0.25033200  0.83890500  0.92889800  1
  O  O9  1  0.42889800  0.24966800  0.16109500  1
  O  O10  1  0.74966800  0.33890600  0.57110200  1
  O  O11  1  0.92889800  0.25033200  0.83890500  1
  O  O12  1  0.07110200  0.75033200  0.66109500  1
  O  O13  1  0.83890500  0.92889800  0.25033200  1
  O  O14  1  0.33890600  0.57110200  0.74966800  1
  O  O15  1  0.75033200  0.66109500  0.07110200  1
  O  O16  1  0.66109500  0.07110200  0.75033200  1
  O  O17  1  0.57110200  0.74966800  0.33890600  1
  O  O18  1  0.16109500  0.42889800  0.24966800  1
  O  O19  1  0.24966800  0.16109500  0.42889800  1
