# generated using pymatgen
data_BaAlF5
_symmetry_space_group_name_H-M   'P 1'
_cell_length_a   9.91538000
_cell_length_b   5.33685400
_cell_length_c   7.48836909
_cell_angle_alpha   89.07631002
_cell_angle_beta   90.00000000
_cell_angle_gamma   90.00000000
_symmetry_Int_Tables_number   1
_chemical_formula_structural   BaAlF5
_chemical_formula_sum   'Ba4 Al4 F20'
_cell_volume   396.21005055
_cell_formula_units_Z   4
loop_
 _symmetry_equiv_pos_site_id
 _symmetry_equiv_pos_as_xyz
  1  'x, y, z'
loop_
 _atom_site_type_symbol
 _atom_site_label
 _atom_site_symmetry_multiplicity
 _atom_site_fract_x
 _atom_site_fract_y
 _atom_site_fract_z
 _atom_site_occupancy
  Ba  Ba0  1  0.65069600  0.48762900  0.36145200  1
  Ba  Ba1  1  0.15069600  0.51237100  0.63854800  1
  Ba  Ba2  1  0.99822900  0.01082600  0.11247500  1
  Ba  Ba3  1  0.49822900  0.98917400  0.88752500  1
  Al  Al4  1  0.26576000  0.51983700  0.12991400  1
  Al  Al5  1  0.76576000  0.48016300  0.87008600  1
  Al  Al6  1  0.36963300  0.01343500  0.42454400  1
  Al  Al7  1  0.86963300  0.98656500  0.57545600  1
  F  F8  1  0.96514800  0.76953600  0.44318800  1
  F  F9  1  0.45194800  0.75247400  0.53309800  1
  F  F10  1  0.95194800  0.24752600  0.46690200  1
  F  F11  1  0.26447600  0.27032600  0.96914800  1
  F  F12  1  0.48568500  0.03983900  0.24289000  1
  F  F13  1  0.08668700  0.50655800  0.15772300  1
  F  F14  1  0.75727200  0.20834900  0.70301700  1
  F  F15  1  0.27112300  0.28735400  0.32291200  1
  F  F16  1  0.98568500  0.96016100  0.75711000  1
  F  F17  1  0.24184200  0.00956100  0.59657800  1
  F  F18  1  0.58668700  0.49344200  0.84227700  1
  F  F19  1  0.46514800  0.23046400  0.55681200  1
  F  F20  1  0.94383400  0.44956600  0.86260700  1
  F  F21  1  0.75006800  0.25303900  0.05172900  1
  F  F22  1  0.74184200  0.99043900  0.40342200  1
  F  F23  1  0.25727200  0.79165100  0.29698300  1
  F  F24  1  0.76447600  0.72967400  0.03085200  1
  F  F25  1  0.25006800  0.74696100  0.94827100  1
  F  F26  1  0.77112300  0.71264600  0.67708800  1
  F  F27  1  0.44383400  0.55043400  0.13739300  1
