# generated using pymatgen
data_W3O8
_symmetry_space_group_name_H-M   'P 1'
_cell_length_a   3.85081600
_cell_length_b   10.57970800
_cell_length_c   14.45089400
_cell_angle_alpha   90.00000000
_cell_angle_beta   90.00000000
_cell_angle_gamma   90.00000000
_symmetry_Int_Tables_number   1
_chemical_formula_structural   W3O8
_chemical_formula_sum   'W12 O32'
_cell_volume   588.73677478
_cell_formula_units_Z   4
loop_
 _symmetry_equiv_pos_site_id
 _symmetry_equiv_pos_as_xyz
  1  'x, y, z'
loop_
 _atom_site_type_symbol
 _atom_site_label
 _atom_site_symmetry_multiplicity
 _atom_site_fract_x
 _atom_site_fract_y
 _atom_site_fract_z
 _atom_site_occupancy
  W  W0  1  0.00000000  0.52611100  0.10907500  1
  W  W1  1  0.00000000  0.47388900  0.89092500  1
  W  W2  1  0.00000000  0.02611100  0.39092500  1
  W  W3  1  0.00000000  0.97388900  0.60907500  1
  W  W4  1  0.00000000  0.71489600  0.40908800  1
  W  W5  1  0.00000000  0.28510400  0.59091200  1
  W  W6  1  0.00000000  0.21489600  0.09091200  1
  W  W7  1  0.00000000  0.78510400  0.90908800  1
  W  W8  1  0.00000000  0.87260900  0.16144000  1
  W  W9  1  0.00000000  0.12739100  0.83856000  1
  W  W10  1  0.00000000  0.37260900  0.33856000  1
  W  W11  1  0.00000000  0.62739100  0.66144000  1
  O  O12  1  0.00000000  0.55402500  0.33647500  1
  O  O13  1  0.00000000  0.44597500  0.66352500  1
  O  O14  1  0.00000000  0.05402500  0.16352500  1
  O  O15  1  0.00000000  0.94597500  0.83647500  1
  O  O16  1  0.00000000  0.62109900  0.98476100  1
  O  O17  1  0.00000000  0.37890100  0.01523900  1
  O  O18  1  0.00000000  0.12109900  0.51523900  1
  O  O19  1  0.00000000  0.87890100  0.48476100  1
  O  O20  1  0.00000000  0.69228500  0.17119200  1
  O  O21  1  0.00000000  0.30771500  0.82880800  1
  O  O22  1  0.00000000  0.19228500  0.32880800  1
  O  O23  1  0.00000000  0.80771500  0.67119200  1
  O  O24  1  0.00000000  0.86788500  0.30626000  1
  O  O25  1  0.00000000  0.13211500  0.69374000  1
  O  O26  1  0.00000000  0.36788500  0.19374000  1
  O  O27  1  0.00000000  0.63211500  0.80626000  1
  O  O28  1  0.00000000  0.87371300  0.03029400  1
  O  O29  1  0.00000000  0.12628700  0.96970600  1
  O  O30  1  0.00000000  0.37371300  0.46970600  1
  O  O31  1  0.00000000  0.62628700  0.53029400  1
  O  O32  1  0.50000000  0.52287600  0.11125300  1
  O  O33  1  0.50000000  0.47712400  0.88874700  1
  O  O34  1  0.50000000  0.02287600  0.38874700  1
  O  O35  1  0.50000000  0.97712400  0.61125300  1
  O  O36  1  0.50000000  0.72002400  0.40494700  1
  O  O37  1  0.50000000  0.27997600  0.59505300  1
  O  O38  1  0.50000000  0.22002400  0.09505300  1
  O  O39  1  0.50000000  0.77997600  0.90494700  1
  O  O40  1  0.50000000  0.87288900  0.16940500  1
  O  O41  1  0.50000000  0.12711100  0.83059500  1
  O  O42  1  0.50000000  0.37288900  0.33059500  1
  O  O43  1  0.50000000  0.62711100  0.66940500  1
