# generated using pymatgen
data_Ba8In6O17
_symmetry_space_group_name_H-M   'P 1'
_cell_length_a   15.18509517
_cell_length_b   15.18509517
_cell_length_c   6.20231560
_cell_angle_alpha   89.97192552
_cell_angle_beta   89.97192552
_cell_angle_gamma   156.26009043
_symmetry_Int_Tables_number   1
_chemical_formula_structural   Ba8In6O17
_chemical_formula_sum   'Ba8 In6 O17'
_cell_volume   575.76568774
_cell_formula_units_Z   1
loop_
 _symmetry_equiv_pos_site_id
 _symmetry_equiv_pos_as_xyz
  1  'x, y, z'
loop_
 _atom_site_type_symbol
 _atom_site_label
 _atom_site_symmetry_multiplicity
 _atom_site_fract_x
 _atom_site_fract_y
 _atom_site_fract_z
 _atom_site_occupancy
  Ba  Ba0  1  0.67336400  0.81027000  0.74251100  1
  Ba  Ba1  1  0.55095500  0.96217100  0.76674400  1
  Ba  Ba2  1  0.44904500  0.03782900  0.23325600  1
  Ba  Ba3  1  0.32663600  0.18973000  0.25748900  1
  Ba  Ba4  1  0.96217100  0.55095500  0.76674400  1
  Ba  Ba5  1  0.81027000  0.67336400  0.74251100  1
  Ba  Ba6  1  0.18973000  0.32663600  0.25748900  1
  Ba  Ba7  1  0.03782900  0.44904500  0.23325600  1
  In  In8  1  0.41211000  0.13022100  0.72407200  1
  In  In9  1  0.23612300  0.23612300  0.76480800  1
  In  In10  1  0.76387700  0.76387700  0.23519200  1
  In  In11  1  0.58789000  0.86977900  0.27592800  1
  In  In12  1  0.13022100  0.41211000  0.72407200  1
  In  In13  1  0.86977900  0.58789000  0.27592800  1
  O  O14  1  0.50000000  0.50000000  0.00000000  1
  O  O15  1  0.38672000  0.97124500  0.80205400  1
  O  O16  1  0.36040300  0.63959700  0.00000000  1
  O  O17  1  0.38273900  0.24600700  0.69646300  1
  O  O18  1  0.61726100  0.75399300  0.30353700  1
  O  O19  1  0.34021800  0.65978200  0.50000000  1
  O  O20  1  0.61328000  0.02875500  0.19794600  1
  O  O21  1  0.24600700  0.38273900  0.69646300  1
  O  O22  1  0.63959700  0.36040300  0.00000000  1
  O  O23  1  0.00000000  0.00000000  0.00000000  1
  O  O24  1  0.97124500  0.38672000  0.80205400  1
  O  O25  1  0.86757700  0.13242300  0.50000000  1
  O  O26  1  0.00000000  0.00000000  0.50000000  1
  O  O27  1  0.65978200  0.34021800  0.50000000  1
  O  O28  1  0.02875500  0.61328000  0.19794600  1
  O  O29  1  0.75399300  0.61726100  0.30353700  1
  O  O30  1  0.13242300  0.86757700  0.50000000  1
