# generated using pymatgen
data_Na3Sc2(PO4)3
_symmetry_space_group_name_H-M   'P 1'
_cell_length_a   9.13408022
_cell_length_b   9.13408022
_cell_length_c   9.13408032
_cell_angle_alpha   60.08276253
_cell_angle_beta   60.08276253
_cell_angle_gamma   60.08276135
_symmetry_Int_Tables_number   1
_chemical_formula_structural   Na3Sc2(PO4)3
_chemical_formula_sum   'Na6 Sc4 P6 O24'
_cell_volume   539.87498279
_cell_formula_units_Z   2
loop_
 _symmetry_equiv_pos_site_id
 _symmetry_equiv_pos_as_xyz
  1  'x, y, z'
loop_
 _atom_site_type_symbol
 _atom_site_label
 _atom_site_symmetry_multiplicity
 _atom_site_fract_x
 _atom_site_fract_y
 _atom_site_fract_z
 _atom_site_occupancy
  Na  Na0  1  0.37720700  0.75000000  0.12279300  1
  Na  Na1  1  0.75000000  0.12279300  0.37720700  1
  Na  Na2  1  0.25000000  0.87720700  0.62279300  1
  Na  Na3  1  0.12279300  0.37720700  0.75000000  1
  Na  Na4  1  0.87720700  0.62279300  0.25000000  1
  Na  Na5  1  0.62279300  0.25000000  0.87720700  1
  Sc  Sc6  1  0.64709900  0.64709900  0.64709900  1
  Sc  Sc7  1  0.85290100  0.85290100  0.85290100  1
  Sc  Sc8  1  0.35290100  0.35290100  0.35290100  1
  Sc  Sc9  1  0.14709900  0.14709900  0.14709900  1
  P  P10  1  0.54183200  0.95816800  0.25000000  1
  P  P11  1  0.95816800  0.25000000  0.54183200  1
  P  P12  1  0.25000000  0.54183200  0.95816800  1
  P  P13  1  0.45816800  0.04183200  0.75000000  1
  P  P14  1  0.75000000  0.45816700  0.04183300  1
  P  P15  1  0.04183200  0.75000000  0.45816800  1
  O  O16  1  0.01476300  0.77628800  0.62602800  1
  O  O17  1  0.91616200  0.28914400  0.06814800  1
  O  O18  1  0.27628800  0.51476300  0.12602800  1
  O  O19  1  0.71085600  0.93185200  0.08383800  1
  O  O20  1  0.43185200  0.21085600  0.58383800  1
  O  O21  1  0.21085600  0.58383800  0.43185200  1
  O  O22  1  0.56814800  0.78914400  0.41616200  1
  O  O23  1  0.98523700  0.22371200  0.37397200  1
  O  O24  1  0.72371200  0.48523700  0.87397200  1
  O  O25  1  0.08383800  0.71085600  0.93185200  1
  O  O26  1  0.48523700  0.87397200  0.72371200  1
  O  O27  1  0.22371200  0.37397200  0.98523700  1
  O  O28  1  0.58383800  0.43185200  0.21085600  1
  O  O29  1  0.37397200  0.98523700  0.22371200  1
  O  O30  1  0.06814800  0.91616200  0.28914400  1
  O  O31  1  0.62602800  0.01476300  0.77628800  1
  O  O32  1  0.41616200  0.56814800  0.78914400  1
  O  O33  1  0.78914400  0.41616200  0.56814800  1
  O  O34  1  0.77628800  0.62602800  0.01476300  1
  O  O35  1  0.87397200  0.72371200  0.48523700  1
  O  O36  1  0.28914400  0.06814800  0.91616200  1
  O  O37  1  0.93185200  0.08383800  0.71085600  1
  O  O38  1  0.51476300  0.12602800  0.27628800  1
  O  O39  1  0.12602800  0.27628800  0.51476300  1
