# generated using pymatgen
data_Ce(BO2)3
_symmetry_space_group_name_H-M   'P 1'
_cell_length_a   4.31622300
_cell_length_b   4.49978500
_cell_length_c   18.61514000
_cell_angle_alpha   90.00000000
_cell_angle_beta   90.00000000
_cell_angle_gamma   90.00000000
_symmetry_Int_Tables_number   1
_chemical_formula_structural   Ce(BO2)3
_chemical_formula_sum   'Ce4 B12 O24'
_cell_volume   361.54465475
_cell_formula_units_Z   4
loop_
 _symmetry_equiv_pos_site_id
 _symmetry_equiv_pos_as_xyz
  1  'x, y, z'
loop_
 _atom_site_type_symbol
 _atom_site_label
 _atom_site_symmetry_multiplicity
 _atom_site_fract_x
 _atom_site_fract_y
 _atom_site_fract_z
 _atom_site_occupancy
  Ce  Ce0  1  0.86254700  0.19783900  0.34060300  1
  Ce  Ce1  1  0.86254700  0.80216100  0.84060300  1
  Ce  Ce2  1  0.36254700  0.19783900  0.15939700  1
  Ce  Ce3  1  0.36254700  0.80216100  0.65939700  1
  B  B4  1  0.31823300  0.17704800  0.50152300  1
  B  B5  1  0.86205500  0.64628600  0.21261800  1
  B  B6  1  0.34359200  0.32509100  0.92669100  1
  B  B7  1  0.84359200  0.67490900  0.07330900  1
  B  B8  1  0.34359200  0.67490900  0.42669100  1
  B  B9  1  0.81823300  0.82295200  0.49847700  1
  B  B10  1  0.36205500  0.35371400  0.78738200  1
  B  B11  1  0.36205500  0.64628600  0.28738200  1
  B  B12  1  0.86205500  0.35371400  0.71261800  1
  B  B13  1  0.31823300  0.82295200  0.00152300  1
  B  B14  1  0.84359200  0.32509100  0.57330900  1
  B  B15  1  0.81823300  0.17704800  0.99847700  1
  O  O16  1  0.23351700  0.23221100  0.85575000  1
  O  O17  1  0.26877700  0.36210100  0.43937000  1
  O  O18  1  0.17801700  0.26738900  0.56811700  1
  O  O19  1  0.76877700  0.63789900  0.56063000  1
  O  O20  1  0.85565400  0.32337700  0.20940400  1
  O  O21  1  0.18210900  0.24619500  0.72389300  1
  O  O22  1  0.76877700  0.36210100  0.06063000  1
  O  O23  1  0.17445600  0.12878800  0.98368900  1
  O  O24  1  0.67801700  0.26738900  0.93188300  1
  O  O25  1  0.73351700  0.23221100  0.64425000  1
  O  O26  1  0.18210900  0.75380500  0.22389300  1
  O  O27  1  0.17445600  0.87121200  0.48368900  1
  O  O28  1  0.26877700  0.63789900  0.93937000  1
  O  O29  1  0.68210900  0.24619500  0.77610700  1
  O  O30  1  0.35565400  0.67662300  0.79059600  1
  O  O31  1  0.35565400  0.32337700  0.29059600  1
  O  O32  1  0.23351700  0.76778900  0.35575000  1
  O  O33  1  0.85565400  0.67662300  0.70940400  1
  O  O34  1  0.73351700  0.76778900  0.14425000  1
  O  O35  1  0.67445600  0.12878800  0.51631100  1
  O  O36  1  0.67801700  0.73261100  0.43188300  1
  O  O37  1  0.67445600  0.87121200  0.01631100  1
  O  O38  1  0.68210900  0.75380500  0.27610700  1
  O  O39  1  0.17801700  0.73261100  0.06811700  1
