# generated using pymatgen
data_ZnS
_symmetry_space_group_name_H-M   'P 1'
_cell_length_a   3.85257987
_cell_length_b   3.85257987
_cell_length_c   75.57623200
_cell_angle_alpha   90.00000000
_cell_angle_beta   90.00000000
_cell_angle_gamma   119.99999777
_symmetry_Int_Tables_number   1
_chemical_formula_structural   ZnS
_chemical_formula_sum   'Zn24 S24'
_cell_volume   971.44715150
_cell_formula_units_Z   24
loop_
 _symmetry_equiv_pos_site_id
 _symmetry_equiv_pos_as_xyz
  1  'x, y, z'
loop_
 _atom_site_type_symbol
 _atom_site_label
 _atom_site_symmetry_multiplicity
 _atom_site_fract_x
 _atom_site_fract_y
 _atom_site_fract_z
 _atom_site_occupancy
  Zn  Zn0  1  0.00000000  0.00000000  0.58333200  1
  Zn  Zn1  1  0.66666700  0.33333300  0.66667200  1
  Zn  Zn2  1  0.00000000  0.00000000  0.33333500  1
  Zn  Zn3  1  0.66666700  0.33333300  0.29168500  1
  Zn  Zn4  1  0.33333300  0.66666700  0.25000000  1
  Zn  Zn5  1  0.66666700  0.33333300  0.08333500  1
  Zn  Zn6  1  0.66666700  0.33333300  0.20832700  1
  Zn  Zn7  1  0.33333300  0.66666700  0.54166400  1
  Zn  Zn8  1  0.00000000  0.00000000  0.70833500  1
  Zn  Zn9  1  0.33333300  0.66666700  0.12500300  1
  Zn  Zn10  1  0.00000000  0.00000000  0.16667200  1
  Zn  Zn11  1  0.33333300  0.66666700  0.83334800  1
  Zn  Zn12  1  0.66666700  0.33333300  0.79167000  1
  Zn  Zn13  1  0.00000000  0.00000000  0.45833200  1
  Zn  Zn14  1  0.33333300  0.66666700  0.74999500  1
  Zn  Zn15  1  0.00000000  0.00000000  0.04168500  1
  Zn  Zn16  1  0.66666700  0.33333300  0.41666500  1
  Zn  Zn17  1  0.00000000  0.00000000  0.95834000  1
  Zn  Zn18  1  0.66666700  0.33333300  0.91667000  1
  Zn  Zn19  1  0.33333300  0.66666700  0.37500300  1
  Zn  Zn20  1  0.00000000  0.00000000  0.87499500  1
  Zn  Zn21  1  0.33333300  0.66666700  0.62501500  1
  Zn  Zn22  1  0.66666700  0.33333300  0.50001500  1
  Zn  Zn23  1  0.33333300  0.66666700  0.99999900  1
  S  S24  1  0.00000000  0.00000000  0.98955100  1
  S  S25  1  0.33333300  0.66666700  0.40624600  1
  S  S26  1  0.00000000  0.00000000  0.61460600  1
  S  S27  1  0.33333300  0.66666700  0.65624700  1
  S  S28  1  0.66666700  0.33333300  0.44788700  1
  S  S29  1  0.66666700  0.33333300  0.94794100  1
  S  S30  1  0.33333300  0.66666700  0.86457700  1
  S  S31  1  0.33333300  0.66666700  0.03127400  1
  S  S32  1  0.66666700  0.33333300  0.82294200  1
  S  S33  1  0.00000000  0.00000000  0.48960600  1
  S  S34  1  0.33333300  0.66666700  0.57288600  1
  S  S35  1  0.00000000  0.00000000  0.73957600  1
  S  S36  1  0.33333300  0.66666700  0.28127400  1
  S  S37  1  0.00000000  0.00000000  0.36457700  1
  S  S38  1  0.66666700  0.33333300  0.69791400  1
  S  S39  1  0.00000000  0.00000000  0.90621900  1
  S  S40  1  0.66666700  0.33333300  0.11457700  1
  S  S41  1  0.00000000  0.00000000  0.07291400  1
  S  S42  1  0.33333300  0.66666700  0.15624700  1
  S  S43  1  0.66666700  0.33333300  0.23955000  1
  S  S44  1  0.66666700  0.33333300  0.53124600  1
  S  S45  1  0.33333300  0.66666700  0.78121900  1
  S  S46  1  0.66666700  0.33333300  0.32291500  1
  S  S47  1  0.00000000  0.00000000  0.19791300  1
