# generated using pymatgen
data_WS2(NCl)3
_symmetry_space_group_name_H-M   'P 1'
_cell_length_a   9.56363000
_cell_length_b   7.79546100
_cell_length_c   13.28407572
_cell_angle_alpha   59.74906459
_cell_angle_beta   90.00000000
_cell_angle_gamma   90.00000000
_symmetry_Int_Tables_number   1
_chemical_formula_structural   WS2(NCl)3
_chemical_formula_sum   'W4 S8 N12 Cl12'
_cell_volume   855.50554052
_cell_formula_units_Z   4
loop_
 _symmetry_equiv_pos_site_id
 _symmetry_equiv_pos_as_xyz
  1  'x, y, z'
loop_
 _atom_site_type_symbol
 _atom_site_label
 _atom_site_symmetry_multiplicity
 _atom_site_fract_x
 _atom_site_fract_y
 _atom_site_fract_z
 _atom_site_occupancy
  W  W0  1  0.13079600  0.01397800  0.58723600  1
  W  W1  1  0.63079600  0.98602200  0.91276400  1
  W  W2  1  0.86920400  0.98602200  0.41276400  1
  W  W3  1  0.36920400  0.01397800  0.08723600  1
  S  S4  1  0.90866200  0.24200400  0.88373900  1
  S  S5  1  0.81056000  0.25523000  0.53104300  1
  S  S6  1  0.68944000  0.25523000  0.03104300  1
  S  S7  1  0.31056000  0.74477000  0.96895700  1
  S  S8  1  0.18944000  0.74477000  0.46895700  1
  S  S9  1  0.59133800  0.24200400  0.38373900  1
  S  S10  1  0.09133800  0.75799600  0.11626100  1
  S  S11  1  0.40866200  0.75799600  0.61626100  1
  N  N12  1  0.09167700  0.88820700  0.49385200  1
  N  N13  1  0.80168300  0.09761600  0.86905200  1
  N  N14  1  0.40832300  0.88820700  0.99385200  1
  N  N15  1  0.69831700  0.09761600  0.36905200  1
  N  N16  1  0.66425900  0.30499500  0.46918800  1
  N  N17  1  0.83574100  0.30499500  0.96918800  1
  N  N18  1  0.19831700  0.90238400  0.13094800  1
  N  N19  1  0.59167700  0.11179300  0.00614800  1
  N  N20  1  0.33574100  0.69500500  0.53081200  1
  N  N21  1  0.16425900  0.69500500  0.03081200  1
  N  N22  1  0.30168300  0.90238400  0.63094800  1
  N  N23  1  0.90832300  0.11179300  0.50614800  1
  Cl  Cl24  1  0.09911700  0.21830400  0.67215200  1
  Cl  Cl25  1  0.28815100  0.30839600  0.92377700  1
  Cl  Cl26  1  0.48479800  0.76946400  0.25319900  1
  Cl  Cl27  1  0.01520200  0.76946400  0.75319900  1
  Cl  Cl28  1  0.90088300  0.78169600  0.32784800  1
  Cl  Cl29  1  0.59911700  0.78169600  0.82784800  1
  Cl  Cl30  1  0.21184900  0.30839600  0.42377700  1
  Cl  Cl31  1  0.71184900  0.69160400  0.07622300  1
  Cl  Cl32  1  0.98479800  0.23053600  0.24680100  1
  Cl  Cl33  1  0.78815100  0.69160400  0.57622300  1
  Cl  Cl34  1  0.40088300  0.21830400  0.17215200  1
  Cl  Cl35  1  0.51520200  0.23053600  0.74680100  1
