# generated using pymatgen
data_CsTaPS6
_symmetry_space_group_name_H-M   'P 1'
_cell_length_a   18.04227500
_cell_length_b   14.98912800
_cell_length_c   16.29306849
_cell_angle_alpha   74.20134751
_cell_angle_beta   90.00000000
_cell_angle_gamma   90.00000000
_symmetry_Int_Tables_number   1
_chemical_formula_structural   CsTaPS6
_chemical_formula_sum   'Cs16 Ta16 P16 S96'
_cell_volume   4239.81506359
_cell_formula_units_Z   16
loop_
 _symmetry_equiv_pos_site_id
 _symmetry_equiv_pos_as_xyz
  1  'x, y, z'
loop_
 _atom_site_type_symbol
 _atom_site_label
 _atom_site_symmetry_multiplicity
 _atom_site_fract_x
 _atom_site_fract_y
 _atom_site_fract_z
 _atom_site_occupancy
  Cs  Cs0  1  0.66849900  0.86541600  0.97071100  1
  Cs  Cs1  1  0.06579900  0.14129500  0.54801800  1
  Cs  Cs2  1  0.01746600  0.99239100  0.87314500  1
  Cs  Cs3  1  0.98253400  0.00760900  0.12685500  1
  Cs  Cs4  1  0.12710500  0.55541200  0.99818400  1
  Cs  Cs5  1  0.87289500  0.44458800  0.00181600  1
  Cs  Cs6  1  0.48253400  0.49239100  0.37314500  1
  Cs  Cs7  1  0.83150100  0.36541600  0.47071100  1
  Cs  Cs8  1  0.93420100  0.85870500  0.45198200  1
  Cs  Cs9  1  0.51746600  0.50760900  0.62685500  1
  Cs  Cs10  1  0.56579900  0.35870500  0.95198200  1
  Cs  Cs11  1  0.43420100  0.64129500  0.04801800  1
  Cs  Cs12  1  0.33150100  0.13458400  0.02928900  1
  Cs  Cs13  1  0.62710500  0.94458800  0.50181600  1
  Cs  Cs14  1  0.37289500  0.05541200  0.49818400  1
  Cs  Cs15  1  0.16849900  0.63458400  0.52928900  1
  Ta  Ta16  1  0.27138800  0.36242400  0.31068300  1
  Ta  Ta17  1  0.22861200  0.86242400  0.81068300  1
  Ta  Ta18  1  0.10873400  0.25217500  0.25538900  1
  Ta  Ta19  1  0.60873400  0.24782500  0.24461100  1
  Ta  Ta20  1  0.72861200  0.63757600  0.68931700  1
  Ta  Ta21  1  0.28732200  0.28766000  0.73306500  1
  Ta  Ta22  1  0.87492200  0.67476900  0.15746600  1
  Ta  Ta23  1  0.21267800  0.78766000  0.23306500  1
  Ta  Ta24  1  0.77138800  0.13757600  0.18931700  1
  Ta  Ta25  1  0.71267800  0.71234000  0.26693500  1
  Ta  Ta26  1  0.89126600  0.74782500  0.74461100  1
  Ta  Ta27  1  0.12507800  0.32523100  0.84253400  1
  Ta  Ta28  1  0.37492200  0.82523100  0.34253400  1
  Ta  Ta29  1  0.62507800  0.17476900  0.65746600  1
  Ta  Ta30  1  0.39126600  0.75217500  0.75538900  1
  Ta  Ta31  1  0.78732200  0.21234000  0.76693500  1
  P  P32  1  0.21658300  0.83909300  0.01915500  1
  P  P33  1  0.61173800  0.25058800  0.44786900  1
  P  P34  1  0.28341700  0.33909300  0.51915500  1
  P  P35  1  0.56321000  0.69090200  0.82859900  1
  P  P36  1  0.06321000  0.80909800  0.67140100  1
  P  P37  1  0.11173800  0.24941200  0.05213100  1
  P  P38  1  0.71658300  0.66090700  0.48084500  1
  P  P39  1  0.38826200  0.74941200  0.55213100  1
  P  P40  1  0.54360200  0.79256300  0.20461400  1
  P  P41  1  0.04360200  0.70743700  0.29538600  1
  P  P42  1  0.93679000  0.19090200  0.32859900  1
  P  P43  1  0.43679000  0.30909800  0.17140100  1
  P  P44  1  0.88826200  0.75058800  0.94786900  1
  P  P45  1  0.78341700  0.16090700  0.98084500  1
  P  P46  1  0.95639800  0.29256300  0.70461400  1
  P  P47  1  0.45639800  0.20743700  0.79538600  1
  S  S48  1  0.66916400  0.58303800  0.40983300  1
  S  S49  1  0.23994100  0.42604100  0.78290900  1
  S  S50  1  0.17238900  0.39364900  0.69385200  1
  S  S51  1  0.79068000  0.63796100  0.82711800  1
  S  S52  1  0.98100400  0.39228000  0.60179700  1
  S  S53  1  0.99652200  0.69421100  0.67127300  1
  S  S54  1  0.20617500  0.40736100  0.43181700  1
  S  S55  1  0.82761100  0.60635100  0.30614800  1
  S  S56  1  0.39470500  0.31876400  0.81739900  1
  S  S57  1  0.11865300  0.67737300  0.20933600  1
  S  S58  1  0.15489700  0.15259300  0.15565600  1
  S  S59  1  0.89470500  0.18123600  0.68260100  1
  S  S60  1  0.04194000  0.32397000  0.10783900  1
  S  S61  1  0.84510300  0.84740700  0.84434400  1
  S  S62  1  0.26124200  0.72756300  0.10869600  1
  S  S63  1  0.29382500  0.90736100  0.93181700  1
  S  S64  1  0.01899600  0.60772000  0.39820300  1
  S  S65  1  0.67238900  0.10635100  0.80614800  1
  S  S66  1  0.61865300  0.82262700  0.29066400  1
  S  S67  1  0.33083600  0.41696200  0.59016700  1
  S  S68  1  0.30401800  0.69441000  0.85755000  1
  S  S69  1  0.45806000  0.82397000  0.60783900  1
  S  S70  1  0.16916400  0.91696200  0.09016700  1
  S  S71  1  0.49652200  0.80578900  0.82872700  1
  S  S72  1  0.97922400  0.88303100  0.71262000  1
  S  S73  1  0.79382500  0.59263900  0.56818300  1
  S  S74  1  0.55012700  0.27512000  0.73303000  1
  S  S75  1  0.63882100  0.75134500  0.73284600  1
  S  S76  1  0.10771800  0.87408500  0.56018000  1
  S  S77  1  0.06096400  0.20017600  0.96065300  1
  S  S78  1  0.69598200  0.30559000  0.14245000  1
  S  S79  1  0.19598200  0.19441000  0.35755000  1
  S  S80  1  0.83008900  0.00884400  0.25481100  1
  S  S81  1  0.60771800  0.62591500  0.93982000  1
  S  S82  1  0.80401800  0.80559000  0.64245000  1
  S  S83  1  0.20932000  0.36203900  0.17288200  1
  S  S84  1  0.02077600  0.11696900  0.28738000  1
  S  S85  1  0.36117900  0.24865500  0.26715400  1
  S  S86  1  0.30579900  0.82808500  0.47707600  1
  S  S87  1  0.38134700  0.17737300  0.70933600  1
  S  S88  1  0.86117900  0.25134500  0.23284600  1
  S  S89  1  0.85660600  0.58069200  0.75235000  1
  S  S90  1  0.54672400  0.06012000  0.66422100  1
  S  S91  1  0.94987300  0.77512000  0.23303000  1
  S  S92  1  0.70617500  0.09263900  0.06818300  1
  S  S93  1  0.95327600  0.56012000  0.16422100  1
  S  S94  1  0.83083600  0.08303800  0.90983300  1
  S  S95  1  0.78300100  0.81406200  0.16944500  1
  S  S96  1  0.56096400  0.29982400  0.53934700  1
  S  S97  1  0.73875800  0.27243700  0.89130400  1
  S  S98  1  0.28300100  0.68593800  0.33055500  1
  S  S99  1  0.47922400  0.61696900  0.78738000  1
  S  S100  1  0.45327600  0.93988000  0.33577900  1
  S  S101  1  0.60529500  0.68123600  0.18260100  1
  S  S102  1  0.10529500  0.81876400  0.31739900  1
  S  S103  1  0.51899600  0.89228000  0.10179700  1
  S  S104  1  0.66991100  0.50884400  0.75481100  1
  S  S105  1  0.64465700  0.70201400  0.56257000  1
  S  S106  1  0.04672400  0.43988000  0.83577900  1
  S  S107  1  0.88134700  0.32262700  0.79066400  1
  S  S108  1  0.32761100  0.89364900  0.19385200  1
  S  S109  1  0.05012700  0.22488000  0.76697000  1
  S  S110  1  0.54194000  0.17603000  0.39216100  1
  S  S111  1  0.21699900  0.18593800  0.83055500  1
  S  S112  1  0.71699900  0.31406200  0.66944500  1
  S  S113  1  0.23875800  0.22756300  0.60869600  1
  S  S114  1  0.93903600  0.79982400  0.03934700  1
  S  S115  1  0.00347800  0.30578900  0.32872700  1
  S  S116  1  0.80579900  0.67191500  0.02292400  1
  S  S117  1  0.52077600  0.38303100  0.21262000  1
  S  S118  1  0.76005900  0.57395900  0.21709100  1
  S  S119  1  0.14465700  0.79798600  0.93743000  1
  S  S120  1  0.34510300  0.65259300  0.65565600  1
  S  S121  1  0.95806000  0.67603000  0.89216100  1
  S  S122  1  0.64339400  0.08069200  0.25235000  1
  S  S123  1  0.35660600  0.91930800  0.74765000  1
  S  S124  1  0.50347800  0.19421100  0.17127300  1
  S  S125  1  0.85534300  0.20201400  0.06257000  1
  S  S126  1  0.13882100  0.74865500  0.76715400  1
  S  S127  1  0.89228200  0.12591500  0.43982000  1
  S  S128  1  0.43903600  0.70017600  0.46065300  1
  S  S129  1  0.76124200  0.77243700  0.39130400  1
  S  S130  1  0.29068000  0.86203900  0.67288200  1
  S  S131  1  0.65489700  0.34740700  0.34434400  1
  S  S132  1  0.26005900  0.92604100  0.28290900  1
  S  S133  1  0.44987300  0.72488000  0.26697000  1
  S  S134  1  0.73994100  0.07395900  0.71709100  1
  S  S135  1  0.33008900  0.49115600  0.24518900  1
  S  S136  1  0.19420100  0.32808500  0.97707600  1
  S  S137  1  0.39228200  0.37408500  0.06018000  1
  S  S138  1  0.35534300  0.29798600  0.43743000  1
  S  S139  1  0.16991100  0.99115600  0.74518900  1
  S  S140  1  0.69420100  0.17191500  0.52292400  1
  S  S141  1  0.48100400  0.10772000  0.89820300  1
  S  S142  1  0.14339400  0.41930800  0.24765000  1
  S  S143  1  0.70932000  0.13796100  0.32711800  1
