# generated using pymatgen
data_KGd(PO3)4
_symmetry_space_group_name_H-M   'P 1'
_cell_length_a   7.45039871
_cell_length_b   7.45039871
_cell_length_c   10.63716490
_cell_angle_alpha   79.06933213
_cell_angle_beta   79.06933213
_cell_angle_gamma   115.36800915
_symmetry_Int_Tables_number   1
_chemical_formula_structural   KGd(PO3)4
_chemical_formula_sum   'K2 Gd2 P8 O24'
_cell_volume   498.82764848
_cell_formula_units_Z   2
loop_
 _symmetry_equiv_pos_site_id
 _symmetry_equiv_pos_as_xyz
  1  'x, y, z'
loop_
 _atom_site_type_symbol
 _atom_site_label
 _atom_site_symmetry_multiplicity
 _atom_site_fract_x
 _atom_site_fract_y
 _atom_site_fract_z
 _atom_site_occupancy
  K  K0  1  0.81562400  0.18437600  0.75000000  1
  K  K1  1  0.18437600  0.81562400  0.25000000  1
  Gd  Gd2  1  0.87973900  0.12026100  0.25000000  1
  Gd  Gd3  1  0.12026100  0.87973900  0.75000000  1
  P  P4  1  0.74350300  0.69621900  0.55666500  1
  P  P5  1  0.25649700  0.30378100  0.44333500  1
  P  P6  1  0.37370100  0.71332500  0.50231700  1
  P  P7  1  0.71332500  0.37370100  0.00231700  1
  P  P8  1  0.30378100  0.25649700  0.94333500  1
  P  P9  1  0.62629900  0.28667500  0.49768300  1
  P  P10  1  0.69621900  0.74350300  0.05666500  1
  P  P11  1  0.28667500  0.62629900  0.99768300  1
  O  O12  1  0.13714900  0.16143000  0.58498700  1
  O  O13  1  0.16143000  0.13714900  0.08498700  1
  O  O14  1  0.80889000  0.29983700  0.39947000  1
  O  O15  1  0.50114200  0.64311500  0.58778400  1
  O  O16  1  0.75420100  0.81375300  0.17212000  1
  O  O17  1  0.19111000  0.70016300  0.60053000  1
  O  O18  1  0.35688500  0.49885800  0.91221600  1
  O  O19  1  0.18624700  0.24579900  0.32788000  1
  O  O20  1  0.27595300  0.53047400  0.43386700  1
  O  O21  1  0.24579900  0.18624700  0.82788000  1
  O  O22  1  0.29983700  0.80889000  0.89947000  1
  O  O23  1  0.46952600  0.72404700  0.06613300  1
  O  O24  1  0.53047400  0.27595300  0.93386700  1
  O  O25  1  0.81375300  0.75420100  0.67212000  1
  O  O26  1  0.86285100  0.83857000  0.41501300  1
  O  O27  1  0.70016300  0.19111000  0.10053000  1
  O  O28  1  0.48886300  0.09134700  0.61393900  1
  O  O29  1  0.51113700  0.90865300  0.38606100  1
  O  O30  1  0.72404700  0.46952600  0.56613300  1
  O  O31  1  0.09134700  0.48886300  0.11393900  1
  O  O32  1  0.83857000  0.86285100  0.91501300  1
  O  O33  1  0.64311500  0.50114200  0.08778400  1
  O  O34  1  0.49885800  0.35688500  0.41221600  1
  O  O35  1  0.90865300  0.51113700  0.88606100  1
