# generated using pymatgen
data_Cs3ScO3
_symmetry_space_group_name_H-M   'P 1'
_cell_length_a   13.39167800
_cell_length_b   7.46516400
_cell_length_c   8.43497746
_cell_angle_alpha   64.22233410
_cell_angle_beta   90.00000000
_cell_angle_gamma   90.00000000
_symmetry_Int_Tables_number   1
_chemical_formula_structural   Cs3ScO3
_chemical_formula_sum   'Cs12 Sc4 O12'
_cell_volume   759.34017835
_cell_formula_units_Z   4
loop_
 _symmetry_equiv_pos_site_id
 _symmetry_equiv_pos_as_xyz
  1  'x, y, z'
loop_
 _atom_site_type_symbol
 _atom_site_label
 _atom_site_symmetry_multiplicity
 _atom_site_fract_x
 _atom_site_fract_y
 _atom_site_fract_z
 _atom_site_occupancy
  Cs  Cs0  1  0.93873300  0.50511900  0.28115100  1
  Cs  Cs1  1  0.66047100  0.42945900  0.48916200  1
  Cs  Cs2  1  0.19077300  0.63120800  0.07189500  1
  Cs  Cs3  1  0.56126700  0.00511900  0.28115100  1
  Cs  Cs4  1  0.83952900  0.92945900  0.48916200  1
  Cs  Cs5  1  0.30922700  0.13120800  0.07189500  1
  Cs  Cs6  1  0.80922700  0.36879200  0.92810500  1
  Cs  Cs7  1  0.33952900  0.57054100  0.51083800  1
  Cs  Cs8  1  0.06126700  0.49488100  0.71884900  1
  Cs  Cs9  1  0.69077300  0.86879200  0.92810500  1
  Cs  Cs10  1  0.16047100  0.07054100  0.51083800  1
  Cs  Cs11  1  0.43873300  0.99488100  0.71884900  1
  Sc  Sc12  1  0.45215400  0.51242900  0.15169200  1
  Sc  Sc13  1  0.04784600  0.01242900  0.15169200  1
  Sc  Sc14  1  0.54784600  0.48757100  0.84830800  1
  Sc  Sc15  1  0.95215400  0.98757100  0.84830800  1
  O  O16  1  0.59452000  0.45962700  0.09037800  1
  O  O17  1  0.88631500  0.21477900  0.65391600  1
  O  O18  1  0.90548000  0.95962700  0.09037800  1
  O  O19  1  0.61368500  0.71477900  0.65391600  1
  O  O20  1  0.56566100  0.24481500  0.81468600  1
  O  O21  1  0.93433900  0.74481500  0.81468600  1
  O  O22  1  0.43433900  0.75518500  0.18531400  1
  O  O23  1  0.06566100  0.25518500  0.18531400  1
  O  O24  1  0.11368500  0.78522100  0.34608400  1
  O  O25  1  0.40548000  0.54037300  0.90962200  1
  O  O26  1  0.38631500  0.28522100  0.34608400  1
  O  O27  1  0.09452000  0.04037300  0.90962200  1
