# generated using pymatgen
data_VH10SNO9
_symmetry_space_group_name_H-M   'P 1'
_cell_length_a   10.00487700
_cell_length_b   6.26968900
_cell_length_c   6.79611416
_cell_angle_alpha   71.67134777
_cell_angle_beta   90.00000000
_cell_angle_gamma   90.00000000
_symmetry_Int_Tables_number   1
_chemical_formula_structural   VH10SNO9
_chemical_formula_sum   'V2 H20 S2 N2 O18'
_cell_volume   404.67596781
_cell_formula_units_Z   2
loop_
 _symmetry_equiv_pos_site_id
 _symmetry_equiv_pos_as_xyz
  1  'x, y, z'
loop_
 _atom_site_type_symbol
 _atom_site_label
 _atom_site_symmetry_multiplicity
 _atom_site_fract_x
 _atom_site_fract_y
 _atom_site_fract_z
 _atom_site_occupancy
  V  V0  1  0.99978100  0.61068900  0.61436500  1
  V  V1  1  0.49978100  0.38931100  0.38563500  1
  H  H2  1  0.76398800  0.31308400  0.25530800  1
  H  H3  1  0.21779100  0.76343100  0.30800400  1
  H  H4  1  0.35019000  0.88447100  0.93110500  1
  H  H5  1  0.14835900  0.41250300  0.25896100  1
  H  H6  1  0.71779100  0.23656900  0.69199600  1
  H  H7  1  0.22128600  0.18064700  0.22895100  1
  H  H8  1  0.64835900  0.58749700  0.74103900  1
  H  H9  1  0.85878700  0.96200600  0.29962900  1
  H  H10  1  0.85019000  0.11552900  0.06889500  1
  H  H11  1  0.16204800  0.38092500  0.02203800  1
  H  H12  1  0.72128600  0.81935300  0.77104900  1
  H  H13  1  0.35878700  0.03799400  0.70037100  1
  H  H14  1  0.05268200  0.22019200  0.19672300  1
  H  H15  1  0.26678400  0.46727100  0.66725700  1
  H  H16  1  0.26398800  0.68691600  0.74469200  1
  H  H17  1  0.55268200  0.77980800  0.80327700  1
  H  H18  1  0.76678400  0.53272900  0.33274300  1
  H  H19  1  0.08543900  0.79293900  0.18053200  1
  H  H20  1  0.58543900  0.20706100  0.81946800  1
  H  H21  1  0.66204800  0.61907500  0.97796200  1
  S  S22  1  0.50166500  0.93127800  0.26923600  1
  S  S23  1  0.00166500  0.06872200  0.73076400  1
  N  N24  1  0.14596500  0.29739300  0.17793500  1
  N  N25  1  0.64596500  0.70260700  0.82206500  1
  O  O26  1  0.36725800  0.87925600  0.79068200  1
  O  O27  1  0.36723800  0.32722300  0.54765700  1
  O  O28  1  0.54332200  0.07158500  0.40474800  1
  O  O29  1  0.43540600  0.46692500  0.15204000  1
  O  O30  1  0.03705600  0.30383000  0.59411400  1
  O  O31  1  0.62732300  0.30167500  0.68946900  1
  O  O32  1  0.86723800  0.67277700  0.45234300  1
  O  O33  1  0.04332200  0.92841500  0.59525200  1
  O  O34  1  0.85594000  0.05232000  0.76892100  1
  O  O35  1  0.53705600  0.69617000  0.40588600  1
  O  O36  1  0.70869300  0.44251900  0.26828400  1
  O  O37  1  0.07890000  0.00659700  0.92254900  1
  O  O38  1  0.12732300  0.69832500  0.31053100  1
  O  O39  1  0.93540600  0.53307500  0.84796000  1
  O  O40  1  0.57890000  0.99340300  0.07745100  1
  O  O41  1  0.20869300  0.55748100  0.73171600  1
  O  O42  1  0.86725800  0.12074400  0.20931800  1
  O  O43  1  0.35594000  0.94768000  0.23107900  1
