# generated using pymatgen
data_Na5FeS4
_symmetry_space_group_name_H-M   'P 1'
_cell_length_a   7.13707000
_cell_length_b   12.01690300
_cell_length_c   21.62577700
_cell_angle_alpha   90.00000000
_cell_angle_beta   90.00000000
_cell_angle_gamma   90.00000000
_symmetry_Int_Tables_number   1
_chemical_formula_structural   Na5FeS4
_chemical_formula_sum   'Na40 Fe8 S32'
_cell_volume   1854.74509924
_cell_formula_units_Z   8
loop_
 _symmetry_equiv_pos_site_id
 _symmetry_equiv_pos_as_xyz
  1  'x, y, z'
loop_
 _atom_site_type_symbol
 _atom_site_label
 _atom_site_symmetry_multiplicity
 _atom_site_fract_x
 _atom_site_fract_y
 _atom_site_fract_z
 _atom_site_occupancy
  Na  Na0  1  0.04920100  0.28598300  0.86637000  1
  Na  Na1  1  0.10526200  0.16049800  0.16960800  1
  Na  Na2  1  0.37681300  0.41008200  0.74934900  1
  Na  Na3  1  0.39473800  0.16049800  0.66960800  1
  Na  Na4  1  0.55891800  0.94273600  0.93260800  1
  Na  Na5  1  0.90892600  0.14661100  0.00103500  1
  Na  Na6  1  0.59107400  0.14661100  0.50103500  1
  Na  Na7  1  0.09107400  0.85338900  0.99896500  1
  Na  Na8  1  0.95079900  0.71401700  0.13363000  1
  Na  Na9  1  0.89473800  0.33950200  0.66960800  1
  Na  Na10  1  0.44108200  0.05726400  0.06739200  1
  Na  Na11  1  0.95079900  0.21401700  0.36637000  1
  Na  Na12  1  0.55891800  0.44273600  0.56739200  1
  Na  Na13  1  0.87681300  0.08991800  0.74934900  1
  Na  Na14  1  0.05891800  0.05726400  0.56739200  1
  Na  Na15  1  0.44108200  0.55726400  0.43260800  1
  Na  Na16  1  0.39473800  0.66049800  0.83039200  1
  Na  Na17  1  0.45079900  0.28598300  0.36637000  1
  Na  Na18  1  0.12318700  0.91008200  0.25065100  1
  Na  Na19  1  0.94108200  0.44273600  0.06739200  1
  Na  Na20  1  0.54920100  0.71401700  0.63363000  1
  Na  Na21  1  0.59107400  0.64661100  0.99896500  1
  Na  Na22  1  0.10526200  0.66049800  0.33039200  1
  Na  Na23  1  0.54920100  0.21401700  0.86637000  1
  Na  Na24  1  0.87681300  0.58991800  0.75065100  1
  Na  Na25  1  0.62318700  0.58991800  0.25065100  1
  Na  Na26  1  0.89473800  0.83950200  0.83039200  1
  Na  Na27  1  0.37681300  0.91008200  0.75065100  1
  Na  Na28  1  0.05891800  0.55726400  0.93260800  1
  Na  Na29  1  0.40892600  0.35338900  0.00103500  1
  Na  Na30  1  0.04920100  0.78598300  0.63363000  1
  Na  Na31  1  0.09107400  0.35338900  0.50103500  1
  Na  Na32  1  0.90892600  0.64661100  0.49896500  1
  Na  Na33  1  0.12318700  0.41008200  0.24934900  1
  Na  Na34  1  0.40892600  0.85338900  0.49896500  1
  Na  Na35  1  0.62318700  0.08991800  0.24934900  1
  Na  Na36  1  0.45079900  0.78598300  0.13363000  1
  Na  Na37  1  0.60526200  0.33950200  0.16960800  1
  Na  Na38  1  0.94108200  0.94273600  0.43260800  1
  Na  Na39  1  0.60526200  0.83950200  0.33039200  1
  Fe  Fe40  1  0.33214600  0.54054900  0.12547900  1
  Fe  Fe41  1  0.33214600  0.04054900  0.37452100  1
  Fe  Fe42  1  0.16785400  0.04054900  0.87452100  1
  Fe  Fe43  1  0.66785400  0.45945100  0.87452100  1
  Fe  Fe44  1  0.16785400  0.54054900  0.62547900  1
  Fe  Fe45  1  0.83214600  0.95945100  0.12547900  1
  Fe  Fe46  1  0.83214600  0.45945100  0.37452100  1
  Fe  Fe47  1  0.66785400  0.95945100  0.62547900  1
  S  S48  1  0.79362800  0.86995700  0.54191900  1
  S  S49  1  0.24692700  0.35612200  0.12480300  1
  S  S50  1  0.74692700  0.64387800  0.37519700  1
  S  S51  1  0.74067400  0.86847100  0.21322000  1
  S  S52  1  0.75307300  0.64387800  0.87519700  1
  S  S53  1  0.65142300  0.05559300  0.37925800  1
  S  S54  1  0.24067400  0.13152900  0.28678000  1
  S  S55  1  0.20637200  0.13004300  0.45808100  1
  S  S56  1  0.29362800  0.63004300  0.54191900  1
  S  S57  1  0.79362800  0.36995700  0.95808100  1
  S  S58  1  0.15142300  0.94440700  0.12074200  1
  S  S59  1  0.65142300  0.55559300  0.12074200  1
  S  S60  1  0.29362800  0.13004300  0.95808100  1
  S  S61  1  0.24692700  0.85612200  0.37519700  1
  S  S62  1  0.84857700  0.05559300  0.87925800  1
  S  S63  1  0.75932600  0.86847100  0.71322000  1
  S  S64  1  0.34857700  0.44440700  0.87925800  1
  S  S65  1  0.75307300  0.14387800  0.62480300  1
  S  S66  1  0.70637200  0.36995700  0.45808100  1
  S  S67  1  0.15142300  0.44440700  0.37925800  1
  S  S68  1  0.24067400  0.63152900  0.21322000  1
  S  S69  1  0.84857700  0.55559300  0.62074200  1
  S  S70  1  0.25307300  0.85612200  0.87519700  1
  S  S71  1  0.25932600  0.63152900  0.71322000  1
  S  S72  1  0.74692700  0.14387800  0.12480300  1
  S  S73  1  0.70637200  0.86995700  0.04191900  1
  S  S74  1  0.34857700  0.94440700  0.62074200  1
  S  S75  1  0.74067400  0.36847100  0.28678000  1
  S  S76  1  0.25932600  0.13152900  0.78678000  1
  S  S77  1  0.25307300  0.35612200  0.62480300  1
  S  S78  1  0.75932600  0.36847100  0.78678000  1
  S  S79  1  0.20637200  0.63004300  0.04191900  1
