# generated using pymatgen
data_AsSeS3N5F6
_symmetry_space_group_name_H-M   'P 1'
_cell_length_a   6.85199100
_cell_length_b   12.16995700
_cell_length_c   13.14661284
_cell_angle_alpha   84.64418879
_cell_angle_beta   90.00000000
_cell_angle_gamma   90.00000000
_symmetry_Int_Tables_number   1
_chemical_formula_structural   AsSeS3N5F6
_chemical_formula_sum   'As4 Se4 S12 N20 F24'
_cell_volume   1091.48941532
_cell_formula_units_Z   4
loop_
 _symmetry_equiv_pos_site_id
 _symmetry_equiv_pos_as_xyz
  1  'x, y, z'
loop_
 _atom_site_type_symbol
 _atom_site_label
 _atom_site_symmetry_multiplicity
 _atom_site_fract_x
 _atom_site_fract_y
 _atom_site_fract_z
 _atom_site_occupancy
  As  As0  1  0.07431700  0.99625200  0.39814900  1
  As  As1  1  0.14887900  0.49459500  0.90459100  1
  As  As2  1  0.85112100  0.49459500  0.40459100  1
  As  As3  1  0.92568300  0.99625200  0.89814900  1
  Se  Se4  1  0.66033400  0.86606900  0.22487600  1
  Se  Se5  1  0.65749000  0.12613500  0.57986800  1
  Se  Se6  1  0.34251000  0.12613500  0.07986800  1
  Se  Se7  1  0.33966600  0.86606900  0.72487600  1
  S  S8  1  0.18401400  0.68730300  0.60326800  1
  S  S9  1  0.33913100  0.29001700  0.51989500  1
  S  S10  1  0.66086900  0.29001700  0.01989500  1
  S  S11  1  0.65751300  0.70207000  0.78793300  1
  S  S12  1  0.18483200  0.30374500  0.20308400  1
  S  S13  1  0.42212000  0.76134700  0.07723400  1
  S  S14  1  0.34248700  0.70207000  0.28793300  1
  S  S15  1  0.42281400  0.22875500  0.73011500  1
  S  S16  1  0.57718600  0.22875500  0.23011500  1
  S  S17  1  0.81516800  0.30374500  0.70308400  1
  S  S18  1  0.81598600  0.68730300  0.10326800  1
  S  S19  1  0.57788000  0.76134700  0.57723400  1
  N  N20  1  0.48902900  0.77777000  0.81982300  1
  N  N21  1  0.49736200  0.21205100  0.98596600  1
  N  N22  1  0.60989000  0.31628300  0.75231500  1
  N  N23  1  0.50359700  0.87572500  0.61323800  1
  N  N24  1  0.14837800  0.76768300  0.68687200  1
  N  N25  1  0.68499700  0.31171000  0.13457500  1
  N  N26  1  0.49640300  0.87572500  0.11323800  1
  N  N27  1  0.50394500  0.11497700  0.19250300  1
  N  N28  1  0.68852700  0.68071000  0.67357300  1
  N  N29  1  0.39011000  0.31628300  0.25231500  1
  N  N30  1  0.51097100  0.77777000  0.31982300  1
  N  N31  1  0.15352400  0.22676800  0.11626300  1
  N  N32  1  0.60836100  0.67261700  0.05735800  1
  N  N33  1  0.39163900  0.67261700  0.55735800  1
  N  N34  1  0.31147300  0.68071000  0.17357300  1
  N  N35  1  0.50263800  0.21205100  0.48596600  1
  N  N36  1  0.31500300  0.31171000  0.63457500  1
  N  N37  1  0.49605500  0.11497700  0.69250300  1
  N  N38  1  0.84647600  0.22676800  0.61626300  1
  N  N39  1  0.85162200  0.76768300  0.18687200  1
  F  F40  1  0.93770500  0.84995600  0.91769700  1
  F  F41  1  0.06587700  0.98838200  0.26348800  1
  F  F42  1  0.64815000  0.47013500  0.48804500  1
  F  F43  1  0.91946300  0.14264200  0.87806900  1
  F  F44  1  0.85007400  0.63610500  0.42670400  1
  F  F45  1  0.35185000  0.47013500  0.98804500  1
  F  F46  1  0.06229500  0.84995600  0.41769700  1
  F  F47  1  0.93412300  0.98838200  0.76348800  1
  F  F48  1  0.33145700  0.99082600  0.39600100  1
  F  F49  1  0.66854300  0.99082600  0.89600100  1
  F  F50  1  0.69032700  0.52381800  0.29920600  1
  F  F51  1  0.08053700  0.14264200  0.37806900  1
  F  F52  1  0.01250500  0.46704300  0.51016000  1
  F  F53  1  0.30967300  0.52381800  0.79920600  1
  F  F54  1  0.92312100  0.00463300  0.03255900  1
  F  F55  1  0.94496700  0.51733100  0.82132900  1
  F  F56  1  0.85344300  0.35305300  0.38257700  1
  F  F57  1  0.14992600  0.63610500  0.92670400  1
  F  F58  1  0.07687900  0.00463300  0.53255900  1
  F  F59  1  0.98749500  0.46704300  0.01016000  1
  F  F60  1  0.18630300  0.00159500  0.90016500  1
  F  F61  1  0.05503300  0.51733100  0.32132900  1
  F  F62  1  0.14655700  0.35305300  0.88257700  1
  F  F63  1  0.81369700  0.00159500  0.40016500  1
