# generated using pymatgen
data_AlPO4
_symmetry_space_group_name_H-M   'P 1'
_cell_length_a   9.46431511
_cell_length_b   9.46431511
_cell_length_c   9.46431496
_cell_angle_alpha   94.60599657
_cell_angle_beta   94.60599657
_cell_angle_gamma   94.60599361
_symmetry_Int_Tables_number   1
_chemical_formula_structural   AlPO4
_chemical_formula_sum   'Al6 P6 O24'
_cell_volume   839.06586444
_cell_formula_units_Z   6
loop_
 _symmetry_equiv_pos_site_id
 _symmetry_equiv_pos_as_xyz
  1  'x, y, z'
loop_
 _atom_site_type_symbol
 _atom_site_label
 _atom_site_symmetry_multiplicity
 _atom_site_fract_x
 _atom_site_fract_y
 _atom_site_fract_z
 _atom_site_occupancy
  Al  Al0  1  0.12317600  0.66680700  0.89946800  1
  Al  Al1  1  0.89946800  0.12317600  0.66680700  1
  Al  Al2  1  0.87682400  0.33319300  0.10053200  1
  Al  Al3  1  0.66680700  0.89946800  0.12317600  1
  Al  Al4  1  0.33319300  0.10053200  0.87682400  1
  Al  Al5  1  0.10053200  0.87682400  0.33319300  1
  P  P6  1  0.87864800  0.11108900  0.33353900  1
  P  P7  1  0.88891100  0.66646100  0.12135200  1
  P  P8  1  0.33353900  0.87864800  0.11108900  1
  P  P9  1  0.66646100  0.12135200  0.88891100  1
  P  P10  1  0.11108900  0.33353900  0.87864800  1
  P  P11  1  0.12135200  0.88891100  0.66646100  1
  O  O12  1  0.48957100  0.85649500  0.15322600  1
  O  O13  1  0.15322600  0.48957100  0.85649500  1
  O  O14  1  0.98681000  0.73299200  0.25149100  1
  O  O15  1  0.89403900  0.24721800  0.25651100  1
  O  O16  1  0.32318400  0.01558300  0.03431900  1
  O  O17  1  0.10596100  0.75278200  0.74348900  1
  O  O18  1  0.26700800  0.74850900  0.01319000  1
  O  O19  1  0.25149100  0.98681000  0.73299200  1
  O  O20  1  0.03431900  0.32318400  0.01558300  1
  O  O21  1  0.01558300  0.03431900  0.32318400  1
  O  O22  1  0.84677400  0.51042900  0.14350500  1
  O  O23  1  0.98441700  0.96568100  0.67681600  1
  O  O24  1  0.74348900  0.10596100  0.75278200  1
  O  O25  1  0.14350500  0.84677400  0.51042900  1
  O  O26  1  0.01319000  0.26700800  0.74850900  1
  O  O27  1  0.25651100  0.89403900  0.24721800  1
  O  O28  1  0.74850900  0.01319000  0.26700800  1
  O  O29  1  0.24721800  0.25651100  0.89403900  1
  O  O30  1  0.96568100  0.67681600  0.98441700  1
  O  O31  1  0.67681600  0.98441700  0.96568100  1
  O  O32  1  0.73299200  0.25149100  0.98681000  1
  O  O33  1  0.85649500  0.15322600  0.48957100  1
  O  O34  1  0.51042900  0.14350500  0.84677400  1
  O  O35  1  0.75278200  0.74348900  0.10596100  1
