# generated using pymatgen
data_ZnCrCu3Se4
_symmetry_space_group_name_H-M   'P 1'
_cell_length_a   5.70676400
_cell_length_b   5.70676400
_cell_length_c   5.70676400
_cell_angle_alpha   90.00000000
_cell_angle_beta   90.00000000
_cell_angle_gamma   90.00000000
_symmetry_Int_Tables_number   1
_chemical_formula_structural   ZnCrCu3Se4
_chemical_formula_sum   'Zn1 Cr1 Cu3 Se4'
_cell_volume   185.85306974
_cell_formula_units_Z   1
loop_
 _symmetry_equiv_pos_site_id
 _symmetry_equiv_pos_as_xyz
  1  'x, y, z'
loop_
 _atom_site_type_symbol
 _atom_site_label
 _atom_site_symmetry_multiplicity
 _atom_site_fract_x
 _atom_site_fract_y
 _atom_site_fract_z
 _atom_site_occupancy
  Zn  Zn0  1  0.50000000  0.50000000  0.50000000  1
  Cr  Cr1  1  0.00000000  0.00000000  0.00000000  1
  Cu  Cu2  1  0.00000000  0.50000000  0.00000000  1
  Cu  Cu3  1  0.00000000  0.00000000  0.50000000  1
  Cu  Cu4  1  0.50000000  0.00000000  0.00000000  1
  Se  Se5  1  0.24684900  0.24684900  0.24684900  1
  Se  Se6  1  0.75315100  0.75315100  0.24684900  1
  Se  Se7  1  0.24684900  0.75315100  0.75315100  1
  Se  Se8  1  0.75315100  0.24684900  0.75315100  1
