# generated using pymatgen
data_KH3C2S2O
_symmetry_space_group_name_H-M   'P 1'
_cell_length_a   6.64702700
_cell_length_b   10.71511086
_cell_length_c   13.97711986
_cell_angle_alpha   71.62422652
_cell_angle_beta   82.03530508
_cell_angle_gamma   84.19238091
_symmetry_Int_Tables_number   1
_chemical_formula_structural   KH3C2S2O
_chemical_formula_sum   'K6 H18 C12 S12 O6'
_cell_volume   933.87364601
_cell_formula_units_Z   6
loop_
 _symmetry_equiv_pos_site_id
 _symmetry_equiv_pos_as_xyz
  1  'x, y, z'
loop_
 _atom_site_type_symbol
 _atom_site_label
 _atom_site_symmetry_multiplicity
 _atom_site_fract_x
 _atom_site_fract_y
 _atom_site_fract_z
 _atom_site_occupancy
  K  K0  1  0.83663700  0.43359600  0.40261000  1
  K  K1  1  0.23702900  0.44919600  0.12954100  1
  K  K2  1  0.76297100  0.55080400  0.87045900  1
  K  K3  1  0.42422700  0.85997400  0.67613800  1
  K  K4  1  0.16336300  0.56640400  0.59739000  1
  K  K5  1  0.57577300  0.14002600  0.32386200  1
  H  H6  1  0.15934600  0.16744000  0.68442700  1
  H  H7  1  0.76028500  0.05514200  0.10178300  1
  H  H8  1  0.50879900  0.22918800  0.77604400  1
  H  H9  1  0.09351700  0.79529600  0.35410800  1
  H  H10  1  0.01990800  0.98846600  0.09694100  1
  H  H11  1  0.98009200  0.01153400  0.90305900  1
  H  H12  1  0.03502800  0.83916200  0.96292200  1
  H  H13  1  0.23971500  0.94485800  0.89821700  1
  H  H14  1  0.91604400  0.89983200  0.40775800  1
  H  H15  1  0.70781600  0.21412200  0.85552000  1
  H  H16  1  0.90648300  0.20470400  0.64589200  1
  H  H17  1  0.53821300  0.84719100  0.08919800  1
  H  H18  1  0.96497200  0.16083800  0.03707800  1
  H  H19  1  0.08395600  0.10016800  0.59224200  1
  H  H20  1  0.84065400  0.83256000  0.31557300  1
  H  H21  1  0.29218400  0.78587800  0.14448000  1
  H  H22  1  0.46178700  0.15280900  0.91080200  1
  H  H23  1  0.49120100  0.77081200  0.22395600  1
  C  C24  1  0.91924100  0.07468500  0.10115700  1
  C  C25  1  0.93277200  0.81522100  0.37830900  1
  C  C26  1  0.67876600  0.68731600  0.50478700  1
  C  C27  1  0.08075900  0.92531500  0.89884300  1
  C  C28  1  0.06722800  0.18477900  0.62169100  1
  C  C29  1  0.32123400  0.31268400  0.49521300  1
  C  C30  1  0.54361300  0.22927000  0.85055400  1
  C  C31  1  0.89557100  0.86897600  0.78080000  1
  C  C32  1  0.29630300  0.41212900  0.85438300  1
  C  C33  1  0.10442900  0.13102400  0.21920000  1
  C  C34  1  0.45638700  0.77073000  0.14944600  1
  C  C35  1  0.70369700  0.58787100  0.14561700  1
  S  S36  1  0.34942100  0.45067600  0.39424100  1
  S  S37  1  0.07901500  0.16654400  0.33076000  1
  S  S38  1  0.88100200  0.66560900  0.17693200  1
  S  S39  1  0.73872100  0.43772700  0.12579700  1
  S  S40  1  0.50575300  0.19740000  0.54087800  1
  S  S41  1  0.67971300  0.86813200  0.85992200  1
  S  S42  1  0.92098500  0.83345600  0.66924000  1
  S  S43  1  0.65057900  0.54932400  0.60575900  1
  S  S44  1  0.49424700  0.80260000  0.45912200  1
  S  S45  1  0.11899800  0.33439100  0.82306800  1
  S  S46  1  0.26127900  0.56227300  0.87420300  1
  S  S47  1  0.32028700  0.13186800  0.14007800  1
  O  O48  1  0.92537700  0.10007100  0.19646400  1
  O  O49  1  0.87582800  0.69704400  0.45912800  1
  O  O50  1  0.51069700  0.64282200  0.13499800  1
  O  O51  1  0.48930300  0.35717800  0.86500200  1
  O  O52  1  0.12417200  0.30295600  0.54087200  1
  O  O53  1  0.07462300  0.89992900  0.80353600  1
