# generated using pymatgen
data_S
_symmetry_space_group_name_H-M   'P 1'
_cell_length_a   8.26149700
_cell_length_b   12.49819300
_cell_length_c   22.76662300
_cell_angle_alpha   90.00000000
_cell_angle_beta   90.00000000
_cell_angle_gamma   90.00000000
_symmetry_Int_Tables_number   1
_chemical_formula_structural   S
_chemical_formula_sum   S72
_cell_volume   2350.73997308
_cell_formula_units_Z   72
loop_
 _symmetry_equiv_pos_site_id
 _symmetry_equiv_pos_as_xyz
  1  'x, y, z'
loop_
 _atom_site_type_symbol
 _atom_site_label
 _atom_site_symmetry_multiplicity
 _atom_site_fract_x
 _atom_site_fract_y
 _atom_site_fract_z
 _atom_site_occupancy
  S  S0  1  0.02078900  0.69943800  0.76617200  1
  S  S1  1  0.65485800  0.46222400  0.75758300  1
  S  S2  1  0.87731000  0.56379800  0.60525000  1
  S  S3  1  0.47217400  0.56624200  0.73258200  1
  S  S4  1  0.15485800  0.03777600  0.24241700  1
  S  S5  1  0.34029300  0.69617900  0.26061900  1
  S  S6  1  0.34514200  0.96222400  0.74241700  1
  S  S7  1  0.10468500  0.79915200  0.10660700  1
  S  S8  1  0.12747300  0.49605400  0.15664600  1
  S  S9  1  0.52782600  0.06624200  0.76741800  1
  S  S10  1  0.47098200  0.80095500  0.43459400  1
  S  S11  1  0.62269000  0.43620200  0.10525000  1
  S  S12  1  0.52901800  0.30095500  0.06540600  1
  S  S13  1  0.52078900  0.80056200  0.23382800  1
  S  S14  1  0.65970700  0.19617900  0.23938100  1
  S  S15  1  0.02545000  0.41334400  0.08755800  1
  S  S16  1  0.34325600  0.93590900  0.59764800  1
  S  S17  1  0.15989400  0.32968100  0.90531100  1
  S  S18  1  0.31955300  0.00894100  0.94212500  1
  S  S19  1  0.00691200  0.67802700  0.91113400  1
  S  S20  1  0.52545000  0.08665600  0.91244200  1
  S  S21  1  0.19886000  0.25574500  0.55916000  1
  S  S22  1  0.84010600  0.82968100  0.59468900  1
  S  S23  1  0.48229700  0.06258400  0.56778000  1
  S  S24  1  0.37731000  0.93620200  0.39475000  1
  S  S25  1  0.47455000  0.58665600  0.58755800  1
  S  S26  1  0.02901800  0.19904500  0.93459400  1
  S  S27  1  0.43860300  0.87302900  0.67372400  1
  S  S28  1  0.84029300  0.80382100  0.73938100  1
  S  S29  1  0.56139700  0.37302900  0.82627600  1
  S  S30  1  0.84514200  0.53777600  0.25758300  1
  S  S31  1  0.43813500  0.60886300  0.32925800  1
  S  S32  1  0.11395200  0.76132900  0.84322900  1
  S  S33  1  0.06186500  0.39113700  0.82925800  1
  S  S34  1  0.49308800  0.32197300  0.41113400  1
  S  S35  1  0.12269000  0.06379800  0.89475000  1
  S  S36  1  0.97921100  0.19943800  0.73382800  1
  S  S37  1  0.61395200  0.73867100  0.15677100  1
  S  S38  1  0.99308800  0.17802700  0.58886600  1
  S  S39  1  0.81955300  0.49105900  0.05787500  1
  S  S40  1  0.93860300  0.62697100  0.32627600  1
  S  S41  1  0.93813500  0.89113700  0.67074200  1
  S  S42  1  0.89531500  0.29915200  0.39339300  1
  S  S43  1  0.88604800  0.26132900  0.65677100  1
  S  S44  1  0.06139700  0.12697100  0.17372400  1
  S  S45  1  0.80114000  0.75574500  0.94084000  1
  S  S46  1  0.69886000  0.24425500  0.44084000  1
  S  S47  1  0.38604800  0.23867100  0.34322900  1
  S  S48  1  0.97098200  0.69904500  0.56540600  1
  S  S49  1  0.62747300  0.00394600  0.84335400  1
  S  S50  1  0.87252700  0.99605400  0.34335400  1
  S  S51  1  0.30114000  0.74425500  0.05916000  1
  S  S52  1  0.51770300  0.56258400  0.93222000  1
  S  S53  1  0.68044700  0.50894100  0.55787500  1
  S  S54  1  0.15970700  0.30382100  0.76061900  1
  S  S55  1  0.84325600  0.56409100  0.40235200  1
  S  S56  1  0.98229700  0.43741600  0.43222000  1
  S  S57  1  0.65674400  0.43590900  0.90235200  1
  S  S58  1  0.56186500  0.10886300  0.17074200  1
  S  S59  1  0.47921100  0.30056200  0.26617200  1
  S  S60  1  0.01770300  0.93741600  0.06778000  1
  S  S61  1  0.97217400  0.93375800  0.26741800  1
  S  S62  1  0.02782600  0.43375800  0.23258200  1
  S  S63  1  0.18044700  0.99105900  0.44212500  1
  S  S64  1  0.65989400  0.17031900  0.09468900  1
  S  S65  1  0.50691200  0.82197300  0.08886600  1
  S  S66  1  0.39531500  0.20084800  0.60660700  1
  S  S67  1  0.34010600  0.67031900  0.40531100  1
  S  S68  1  0.15674400  0.06409100  0.09764800  1
  S  S69  1  0.60468500  0.70084800  0.89339300  1
  S  S70  1  0.97455000  0.91334400  0.41244200  1
  S  S71  1  0.37252700  0.50394600  0.65664600  1
