# generated using pymatgen
data_Hg2SeO3
_symmetry_space_group_name_H-M   'P 1'
_cell_length_a   10.25162118
_cell_length_b   10.25162118
_cell_length_c   5.26754500
_cell_angle_alpha   90.00000000
_cell_angle_beta   90.00000000
_cell_angle_gamma   112.73242359
_symmetry_Int_Tables_number   1
_chemical_formula_structural   Hg2SeO3
_chemical_formula_sum   'Hg8 Se4 O12'
_cell_volume   510.59290077
_cell_formula_units_Z   4
loop_
 _symmetry_equiv_pos_site_id
 _symmetry_equiv_pos_as_xyz
  1  'x, y, z'
loop_
 _atom_site_type_symbol
 _atom_site_label
 _atom_site_symmetry_multiplicity
 _atom_site_fract_x
 _atom_site_fract_y
 _atom_site_fract_z
 _atom_site_occupancy
  Hg  Hg0  1  0.12977000  0.64041100  0.54334300  1
  Hg  Hg1  1  0.87023000  0.35958900  0.04334300  1
  Hg  Hg2  1  0.96672200  0.80327400  0.02541500  1
  Hg  Hg3  1  0.35958900  0.87023000  0.54334300  1
  Hg  Hg4  1  0.19672600  0.03327800  0.02541500  1
  Hg  Hg5  1  0.80327400  0.96672200  0.52541500  1
  Hg  Hg6  1  0.03327800  0.19672600  0.52541500  1
  Hg  Hg7  1  0.64041100  0.12977000  0.04334300  1
  Se  Se8  1  0.42793500  0.21453100  0.58749800  1
  Se  Se9  1  0.57206500  0.78546900  0.08749800  1
  Se  Se10  1  0.78546900  0.57206500  0.58749800  1
  Se  Se11  1  0.21453100  0.42793500  0.08749800  1
  O  O12  1  0.90283100  0.48915200  0.51644400  1
  O  O13  1  0.41137200  0.19792800  0.91727900  1
  O  O14  1  0.51084800  0.09716900  0.51644400  1
  O  O15  1  0.74151900  0.87967800  0.99152100  1
  O  O16  1  0.48915200  0.90283100  0.01644400  1
  O  O17  1  0.09716900  0.51084800  0.01644400  1
  O  O18  1  0.87967800  0.74151900  0.49152100  1
  O  O19  1  0.12032200  0.25848100  0.99152100  1
  O  O20  1  0.58862800  0.80207200  0.41727900  1
  O  O21  1  0.19792800  0.41137200  0.41727900  1
  O  O22  1  0.80207200  0.58862800  0.91727900  1
  O  O23  1  0.25848100  0.12032200  0.49152100  1
