# generated using pymatgen
data_YbI2O
_symmetry_space_group_name_H-M   'P 1'
_cell_length_a   6.49385400
_cell_length_b   6.73772300
_cell_length_c   11.31904000
_cell_angle_alpha   90.00000000
_cell_angle_beta   90.00000000
_cell_angle_gamma   90.00000000
_symmetry_Int_Tables_number   1
_chemical_formula_structural   YbI2O
_chemical_formula_sum   'Yb4 I8 O4'
_cell_volume   495.25089299
_cell_formula_units_Z   4
loop_
 _symmetry_equiv_pos_site_id
 _symmetry_equiv_pos_as_xyz
  1  'x, y, z'
loop_
 _atom_site_type_symbol
 _atom_site_label
 _atom_site_symmetry_multiplicity
 _atom_site_fract_x
 _atom_site_fract_y
 _atom_site_fract_z
 _atom_site_occupancy
  Yb  Yb0  1  0.25000000  0.62325300  0.64842800  1
  Yb  Yb1  1  0.25000000  0.12325300  0.85157200  1
  Yb  Yb2  1  0.75000000  0.37674700  0.35157200  1
  Yb  Yb3  1  0.75000000  0.87674700  0.14842800  1
  I  I4  1  0.25000000  0.48735500  0.36513000  1
  I  I5  1  0.25000000  0.98735500  0.13487000  1
  I  I6  1  0.75000000  0.51264500  0.63487000  1
  I  I7  1  0.75000000  0.01264500  0.86513000  1
  I  I8  1  0.75000000  0.85422600  0.44725200  1
  I  I9  1  0.75000000  0.35422600  0.05274800  1
  I  I10  1  0.25000000  0.14577400  0.55274800  1
  I  I11  1  0.25000000  0.64577400  0.94725200  1
  O  O12  1  0.25000000  0.94339300  0.68954300  1
  O  O13  1  0.25000000  0.44339300  0.81045700  1
  O  O14  1  0.75000000  0.05660700  0.31045700  1
  O  O15  1  0.75000000  0.55660700  0.18954300  1
