# generated using pymatgen
data_P2SN3Cl5O
_symmetry_space_group_name_H-M   'P 1'
_cell_length_a   7.94727300
_cell_length_b   8.86119800
_cell_length_c   17.26615200
_cell_angle_alpha   90.00000000
_cell_angle_beta   90.00000000
_cell_angle_gamma   90.00000000
_symmetry_Int_Tables_number   1
_chemical_formula_structural   P2SN3Cl5O
_chemical_formula_sum   'P8 S4 N12 Cl20 O4'
_cell_volume   1215.92316528
_cell_formula_units_Z   4
loop_
 _symmetry_equiv_pos_site_id
 _symmetry_equiv_pos_as_xyz
  1  'x, y, z'
loop_
 _atom_site_type_symbol
 _atom_site_label
 _atom_site_symmetry_multiplicity
 _atom_site_fract_x
 _atom_site_fract_y
 _atom_site_fract_z
 _atom_site_occupancy
  P  P0  1  0.31218200  0.29669900  0.11968800  1
  P  P1  1  0.91232200  0.95378400  0.28778100  1
  P  P2  1  0.68781800  0.79669900  0.38031200  1
  P  P3  1  0.18781800  0.70330100  0.61968800  1
  P  P4  1  0.41232200  0.54621600  0.71221900  1
  P  P5  1  0.08767800  0.45378400  0.21221900  1
  P  P6  1  0.81218200  0.20330100  0.88031200  1
  P  P7  1  0.58767800  0.04621600  0.78778100  1
  S  S8  1  0.17699400  0.39063700  0.62415000  1
  S  S9  1  0.82300600  0.89063700  0.87585000  1
  S  S10  1  0.67699400  0.10936300  0.37585000  1
  S  S11  1  0.32300600  0.60936300  0.12415000  1
  N  N12  1  0.30622300  0.39494400  0.69251600  1
  N  N13  1  0.15136900  0.30029200  0.17436700  1
  N  N14  1  0.40948700  0.45471900  0.10488800  1
  N  N15  1  0.65136900  0.19970800  0.82563300  1
  N  N16  1  0.19377700  0.60505600  0.19251600  1
  N  N17  1  0.59051300  0.95471900  0.39511200  1
  N  N18  1  0.09051300  0.54528100  0.60488800  1
  N  N19  1  0.84863100  0.80029200  0.32563300  1
  N  N20  1  0.69377700  0.89494400  0.80748400  1
  N  N21  1  0.80622300  0.10505600  0.30748400  1
  N  N22  1  0.90948700  0.04528100  0.89511200  1
  N  N23  1  0.34863100  0.69970800  0.67436700  1
  Cl  Cl24  1  0.74804200  0.29735300  0.98185600  1
  Cl  Cl25  1  0.18043300  0.66205300  0.02579100  1
  Cl  Cl26  1  0.01495300  0.84628000  0.66003900  1
  Cl  Cl27  1  0.81956700  0.16205300  0.47420900  1
  Cl  Cl28  1  0.15466900  0.98366000  0.31546100  1
  Cl  Cl29  1  0.75195800  0.70264700  0.48185600  1
  Cl  Cl30  1  0.65466900  0.51634000  0.68453900  1
  Cl  Cl31  1  0.84533100  0.48366000  0.18453900  1
  Cl  Cl32  1  0.91535100  0.93808400  0.17251300  1
  Cl  Cl33  1  0.68043300  0.83794700  0.97420900  1
  Cl  Cl34  1  0.48504700  0.15372000  0.16003900  1
  Cl  Cl35  1  0.25195800  0.79735300  0.51814400  1
  Cl  Cl36  1  0.34533100  0.01634000  0.81546100  1
  Cl  Cl37  1  0.41535100  0.56191600  0.82748700  1
  Cl  Cl38  1  0.98504700  0.34628000  0.83996100  1
  Cl  Cl39  1  0.24804200  0.20264700  0.01814400  1
  Cl  Cl40  1  0.51495300  0.65372000  0.33996100  1
  Cl  Cl41  1  0.08464900  0.43808400  0.32748700  1
  Cl  Cl42  1  0.58464900  0.06191600  0.67251300  1
  Cl  Cl43  1  0.31956700  0.33794700  0.52579100  1
  O  O44  1  0.55813100  0.22997900  0.36851300  1
  O  O45  1  0.05813100  0.27002100  0.63148700  1
  O  O46  1  0.94186900  0.77002100  0.86851300  1
  O  O47  1  0.44186900  0.72997900  0.13148700  1
