# generated using pymatgen
data_Na2ErMoPO8
_symmetry_space_group_name_H-M   'P 1'
_cell_length_a   11.47746291
_cell_length_b   11.47746291
_cell_length_c   11.47746291
_cell_angle_alpha   144.99252180
_cell_angle_beta   116.05902843
_cell_angle_gamma   75.02639338
_symmetry_Int_Tables_number   1
_chemical_formula_structural   Na2ErMoPO8
_chemical_formula_sum   'Na8 Er4 Mo4 P4 O32'
_cell_volume   763.96020125
_cell_formula_units_Z   4
loop_
 _symmetry_equiv_pos_site_id
 _symmetry_equiv_pos_as_xyz
  1  'x, y, z'
loop_
 _atom_site_type_symbol
 _atom_site_label
 _atom_site_symmetry_multiplicity
 _atom_site_fract_x
 _atom_site_fract_y
 _atom_site_fract_z
 _atom_site_occupancy
  Na  Na0  1  0.79155300  0.35032500  0.44990000  1
  Na  Na1  1  0.29155300  0.84165300  0.44122800  1
  Na  Na2  1  0.20844700  0.64967500  0.55010000  1
  Na  Na3  1  0.59957500  0.65834700  0.94990000  1
  Na  Na4  1  0.90042500  0.85032500  0.05877200  1
  Na  Na5  1  0.70844700  0.15834700  0.55877200  1
  Na  Na6  1  0.09957500  0.14967500  0.94122800  1
  Na  Na7  1  0.40042500  0.34165300  0.05010000  1
  Er  Er8  1  0.32172900  0.25000000  0.57172900  1
  Er  Er9  1  0.17827100  0.75000000  0.92827100  1
  Er  Er10  1  0.67827100  0.75000000  0.42827100  1
  Er  Er11  1  0.82172900  0.25000000  0.07172900  1
  Mo  Mo12  1  0.92699100  0.67699100  0.25000000  1
  Mo  Mo13  1  0.07300900  0.32300900  0.75000000  1
  Mo  Mo14  1  0.57300900  0.82300900  0.75000000  1
  Mo  Mo15  1  0.42699100  0.17699100  0.25000000  1
  P  P16  1  0.06877200  0.25000000  0.31877200  1
  P  P17  1  0.93122800  0.75000000  0.68122800  1
  P  P18  1  0.56877200  0.25000000  0.81877200  1
  P  P19  1  0.43122800  0.75000000  0.18122800  1
  O  O20  1  0.39882300  0.81147800  0.67193500  1
  O  O21  1  0.56035000  0.32735900  0.75180600  1
  O  O22  1  0.86045700  0.68852200  0.08734500  1
  O  O23  1  0.93965000  0.69145600  0.76700900  1
  O  O24  1  0.36045700  0.27311100  0.17193500  1
  O  O25  1  0.14187000  0.06752000  0.22305600  1
  O  O26  1  0.15468300  0.16837700  0.56354900  1
  O  O27  1  0.92444700  0.19145600  0.25180600  1
  O  O28  1  0.10482800  0.59113400  0.93645100  1
  O  O29  1  0.65553500  0.08118600  0.72305600  1
  O  O30  1  0.43965000  0.67264100  0.24819400  1
  O  O31  1  0.85813000  0.93248000  0.77694400  1
  O  O32  1  0.10117700  0.77311100  0.41265500  1
  O  O33  1  0.60482800  0.66837700  0.51369400  1
  O  O34  1  0.07555300  0.80854400  0.74819400  1
  O  O35  1  0.65468300  0.09113400  0.98630600  1
  O  O36  1  0.89882300  0.22688900  0.58734500  1
  O  O37  1  0.60117700  0.18852200  0.32806500  1
  O  O38  1  0.34531700  0.90886600  0.01369400  1
  O  O39  1  0.84446500  0.56752000  0.42565100  1
  O  O40  1  0.06035000  0.30854400  0.23299100  1
  O  O41  1  0.34446500  0.91881400  0.27694400  1
  O  O42  1  0.42444700  0.17264100  0.73299100  1
  O  O43  1  0.39517200  0.33162300  0.48630600  1
  O  O44  1  0.35813000  0.58118600  0.92565100  1
  O  O45  1  0.89517200  0.40886600  0.06354900  1
  O  O46  1  0.57555300  0.82735900  0.26700900  1
  O  O47  1  0.13954300  0.31147800  0.91265500  1
  O  O48  1  0.15553500  0.43248000  0.57434900  1
  O  O49  1  0.64187000  0.41881400  0.07434900  1
  O  O50  1  0.84531700  0.83162300  0.43645100  1
  O  O51  1  0.63954300  0.72688900  0.82806500  1
