# generated using pymatgen
data_SiO2
_symmetry_space_group_name_H-M   'P 1'
_cell_length_a   4.28068700
_cell_length_b   4.31810900
_cell_length_c   8.00332592
_cell_angle_alpha   86.37849459
_cell_angle_beta   90.00000000
_cell_angle_gamma   90.00000000
_symmetry_Int_Tables_number   1
_chemical_formula_structural   SiO2
_chemical_formula_sum   'Si4 O8'
_cell_volume   147.64184500
_cell_formula_units_Z   4
loop_
 _symmetry_equiv_pos_site_id
 _symmetry_equiv_pos_as_xyz
  1  'x, y, z'
loop_
 _atom_site_type_symbol
 _atom_site_label
 _atom_site_symmetry_multiplicity
 _atom_site_fract_x
 _atom_site_fract_y
 _atom_site_fract_z
 _atom_site_occupancy
  Si  Si0  1  0.41562300  0.55290300  0.19409300  1
  Si  Si1  1  0.01084400  0.86221000  0.67875400  1
  Si  Si2  1  0.01084400  0.13779000  0.32124600  1
  Si  Si3  1  0.41562300  0.44709700  0.80590700  1
  O  O4  1  0.33525000  0.50000000  0.00000000  1
  O  O5  1  0.76882500  0.37209600  0.20857200  1
  O  O6  1  0.85879700  0.00000000  0.50000000  1
  O  O7  1  0.22298100  0.89124300  0.21341300  1
  O  O8  1  0.28154300  0.37666600  0.36497800  1
  O  O9  1  0.28154300  0.62333400  0.63502200  1
  O  O10  1  0.76882500  0.62790400  0.79142800  1
  O  O11  1  0.22298100  0.10875700  0.78658700  1
