# generated using pymatgen
data_Ti3O5
_symmetry_space_group_name_H-M   'P 1'
_cell_length_a   5.28914438
_cell_length_b   5.28914438
_cell_length_c   10.02092035
_cell_angle_alpha   88.89851169
_cell_angle_beta   88.89851169
_cell_angle_gamma   42.05145798
_symmetry_Int_Tables_number   1
_chemical_formula_structural   Ti3O5
_chemical_formula_sum   'Ti6 O10'
_cell_volume   187.72842110
_cell_formula_units_Z   2
loop_
 _symmetry_equiv_pos_site_id
 _symmetry_equiv_pos_as_xyz
  1  'x, y, z'
loop_
 _atom_site_type_symbol
 _atom_site_label
 _atom_site_symmetry_multiplicity
 _atom_site_fract_x
 _atom_site_fract_y
 _atom_site_fract_z
 _atom_site_occupancy
  Ti  Ti0  1  0.80418900  0.80418900  0.75665100  1
  Ti  Ti1  1  0.12906600  0.12906600  0.95018200  1
  Ti  Ti2  1  0.19581100  0.19581100  0.24334900  1
  Ti  Ti3  1  0.87093400  0.87093400  0.04981800  1
  Ti  Ti4  1  0.86567600  0.86567600  0.43540300  1
  Ti  Ti5  1  0.13432400  0.13432400  0.56459700  1
  O  O6  1  0.05132100  0.05132100  0.38497500  1
  O  O7  1  0.32125200  0.32125200  0.06373800  1
  O  O8  1  0.95503000  0.95503000  0.86831600  1
  O  O9  1  0.04497000  0.04497000  0.13168400  1
  O  O10  1  0.67874800  0.67874800  0.93626200  1
  O  O11  1  0.23764800  0.23764800  0.75001800  1
  O  O12  1  0.68786700  0.68786700  0.57356800  1
  O  O13  1  0.76235200  0.76235200  0.24998200  1
  O  O14  1  0.94867900  0.94867900  0.61502500  1
  O  O15  1  0.31213300  0.31213300  0.42643200  1
