# generated using pymatgen
data_YbMoClO4
_symmetry_space_group_name_H-M   'P 1'
_cell_length_a   6.76174128
_cell_length_b   6.76174128
_cell_length_c   6.97211129
_cell_angle_alpha   77.89491391
_cell_angle_beta   77.89491391
_cell_angle_gamma   62.26711127
_symmetry_Int_Tables_number   1
_chemical_formula_structural   YbMoClO4
_chemical_formula_sum   'Yb2 Mo2 Cl2 O8'
_cell_volume   273.55569706
_cell_formula_units_Z   2
loop_
 _symmetry_equiv_pos_site_id
 _symmetry_equiv_pos_as_xyz
  1  'x, y, z'
loop_
 _atom_site_type_symbol
 _atom_site_label
 _atom_site_symmetry_multiplicity
 _atom_site_fract_x
 _atom_site_fract_y
 _atom_site_fract_z
 _atom_site_occupancy
  Yb  Yb0  1  0.72274300  0.72274300  0.13971500  1
  Yb  Yb1  1  0.27725700  0.27725700  0.86028500  1
  Mo  Mo2  1  0.63792900  0.63792900  0.73240400  1
  Mo  Mo3  1  0.36207100  0.36207100  0.26759600  1
  Cl  Cl4  1  0.01842400  0.01842400  0.13242900  1
  Cl  Cl5  1  0.98157600  0.98157600  0.86757100  1
  O  O6  1  0.49536900  0.89200000  0.85109600  1
  O  O7  1  0.52133600  0.52133600  0.21548800  1
  O  O8  1  0.89200000  0.49536900  0.85109600  1
  O  O9  1  0.47866400  0.47866400  0.78451200  1
  O  O10  1  0.50463100  0.10800000  0.14890400  1
  O  O11  1  0.10800000  0.50463100  0.14890400  1
  O  O12  1  0.70023100  0.70023100  0.47294200  1
  O  O13  1  0.29976900  0.29976900  0.52705800  1
