# generated using pymatgen
data_Y10W2O21
_symmetry_space_group_name_H-M   'P 1'
_cell_length_a   10.64376600
_cell_length_b   10.72304700
_cell_length_c   16.08661300
_cell_angle_alpha   90.00000000
_cell_angle_beta   90.00000000
_cell_angle_gamma   90.00000000
_symmetry_Int_Tables_number   1
_chemical_formula_structural   Y10W2O21
_chemical_formula_sum   'Y40 W8 O84'
_cell_volume   1836.02310296
_cell_formula_units_Z   4
loop_
 _symmetry_equiv_pos_site_id
 _symmetry_equiv_pos_as_xyz
  1  'x, y, z'
loop_
 _atom_site_type_symbol
 _atom_site_label
 _atom_site_symmetry_multiplicity
 _atom_site_fract_x
 _atom_site_fract_y
 _atom_site_fract_z
 _atom_site_occupancy
  Y  Y0  1  0.24980900  0.34430900  0.09885200  1
  Y  Y1  1  0.47880700  0.11050100  0.08903400  1
  Y  Y2  1  0.01367400  0.14030000  0.74316500  1
  Y  Y3  1  0.51153400  0.63492200  0.41973500  1
  Y  Y4  1  0.01153400  0.86507800  0.91973500  1
  Y  Y5  1  0.74895400  0.62753500  0.27146000  1
  Y  Y6  1  0.98632600  0.85970000  0.25683500  1
  Y  Y7  1  0.97880700  0.11050100  0.41096600  1
  Y  Y8  1  0.48632600  0.64030000  0.75683500  1
  Y  Y9  1  0.48846600  0.36507800  0.58026500  1
  Y  Y10  1  0.51153400  0.86507800  0.58026500  1
  Y  Y11  1  0.25104600  0.37246500  0.72854000  1
  Y  Y12  1  0.75104600  0.37246500  0.77146000  1
  Y  Y13  1  0.25104600  0.12753500  0.27146000  1
  Y  Y14  1  0.75019100  0.84430900  0.09885200  1
  Y  Y15  1  0.97880700  0.38949900  0.58903400  1
  Y  Y16  1  0.74980900  0.15569100  0.59885200  1
  Y  Y17  1  0.75019100  0.65569100  0.90114800  1
  Y  Y18  1  0.47880700  0.38949900  0.91096600  1
  Y  Y19  1  0.24895400  0.62753500  0.22854000  1
  Y  Y20  1  0.74895400  0.87246500  0.72854000  1
  Y  Y21  1  0.52119300  0.61050100  0.08903400  1
  Y  Y22  1  0.25019100  0.84430900  0.40114800  1
  Y  Y23  1  0.24980900  0.15569100  0.90114800  1
  Y  Y24  1  0.98632600  0.64030000  0.74316500  1
  Y  Y25  1  0.51367400  0.14030000  0.75683500  1
  Y  Y26  1  0.51367400  0.35970000  0.24316500  1
  Y  Y27  1  0.74980900  0.34430900  0.40114800  1
  Y  Y28  1  0.02119300  0.61050100  0.41096600  1
  Y  Y29  1  0.75104600  0.12753500  0.22854000  1
  Y  Y30  1  0.02119300  0.88949900  0.58903400  1
  Y  Y31  1  0.25019100  0.65569100  0.59885200  1
  Y  Y32  1  0.48632600  0.85970000  0.24316500  1
  Y  Y33  1  0.01367400  0.35970000  0.25683500  1
  Y  Y34  1  0.48846600  0.13492200  0.41973500  1
  Y  Y35  1  0.98846600  0.36507800  0.91973500  1
  Y  Y36  1  0.98846600  0.13492200  0.08026500  1
  Y  Y37  1  0.52119300  0.88949900  0.91096600  1
  Y  Y38  1  0.01153400  0.63492200  0.08026500  1
  Y  Y39  1  0.24895400  0.87246500  0.77146000  1
  W  W40  1  0.25181200  0.87668800  0.08550500  1
  W  W41  1  0.75181200  0.87668800  0.41449500  1
  W  W42  1  0.24818800  0.12331200  0.58550500  1
  W  W43  1  0.74818800  0.37668800  0.08550500  1
  W  W44  1  0.25181200  0.62331200  0.91449500  1
  W  W45  1  0.75181200  0.62331200  0.58550500  1
  W  W46  1  0.24818800  0.37668800  0.41449500  1
  W  W47  1  0.74818800  0.12331200  0.91449500  1
  O  O48  1  0.19103200  0.75000000  0.00000000  1
  O  O49  1  0.89283100  0.49125500  0.32937100  1
  O  O50  1  0.38029000  0.78379600  0.67761500  1
  O  O51  1  0.30896800  0.25000000  0.50000000  1
  O  O52  1  0.38525500  0.50610800  0.65853900  1
  O  O53  1  0.12943000  0.24814900  0.63278500  1
  O  O54  1  0.62993300  0.78678400  0.34330000  1
  O  O55  1  0.88012900  0.25000000  0.50000000  1
  O  O56  1  0.62993300  0.71321600  0.65670000  1
  O  O57  1  0.12187200  0.97820700  0.04136600  1
  O  O58  1  0.62187200  0.97820700  0.45863400  1
  O  O59  1  0.87057000  0.74814900  0.63278500  1
  O  O60  1  0.12419800  0.05492700  0.51229800  1
  O  O61  1  0.11971000  0.21620400  0.17761500  1
  O  O62  1  0.11474500  0.00610800  0.84146100  1
  O  O63  1  0.61987100  0.75000000  0.00000000  1
  O  O64  1  0.37580200  0.55492700  0.98770200  1
  O  O65  1  0.87812200  0.27012400  0.67874400  1
  O  O66  1  0.38696700  0.75000000  0.50000000  1
  O  O67  1  0.37580200  0.94507300  0.01229800  1
  O  O68  1  0.89283100  0.00874500  0.67062900  1
  O  O69  1  0.69103200  0.75000000  0.50000000  1
  O  O70  1  0.10716900  0.50874500  0.67062900  1
  O  O71  1  0.11987100  0.75000000  0.50000000  1
  O  O72  1  0.12993300  0.71321600  0.84330000  1
  O  O73  1  0.12993300  0.78678400  0.15670000  1
  O  O74  1  0.38029000  0.71620400  0.32238500  1
  O  O75  1  0.62187800  0.72987600  0.17874400  1
  O  O76  1  0.37006700  0.21321600  0.65670000  1
  O  O77  1  0.37812200  0.27012400  0.82125600  1
  O  O78  1  0.88696700  0.75000000  0.00000000  1
  O  O79  1  0.81156400  0.51606000  0.67020600  1
  O  O80  1  0.12419800  0.44507300  0.48770200  1
  O  O81  1  0.37812800  0.02179300  0.54136600  1
  O  O82  1  0.12187800  0.77012400  0.67874400  1
  O  O83  1  0.62187800  0.77012400  0.82125600  1
  O  O84  1  0.12943000  0.25185100  0.36721500  1
  O  O85  1  0.12187800  0.72987600  0.32125600  1
  O  O86  1  0.60716900  0.99125500  0.17062900  1
  O  O87  1  0.11474500  0.49389200  0.15853900  1
  O  O88  1  0.61971000  0.28379600  0.67761500  1
  O  O89  1  0.37057000  0.75185100  0.13278500  1
  O  O90  1  0.39283100  0.00874500  0.82937100  1
  O  O91  1  0.68843600  0.48394000  0.17020600  1
  O  O92  1  0.87812800  0.47820700  0.04136600  1
  O  O93  1  0.39283100  0.49125500  0.17062900  1
  O  O94  1  0.12187200  0.52179300  0.95863400  1
  O  O95  1  0.61474500  0.00610800  0.65853900  1
  O  O96  1  0.88029000  0.78379600  0.82238500  1
  O  O97  1  0.87812200  0.22987600  0.32125600  1
  O  O98  1  0.18843600  0.48394000  0.32979400  1
  O  O99  1  0.87812800  0.02179300  0.95863400  1
  O  O100  1  0.11971000  0.28379600  0.82238500  1
  O  O101  1  0.31156400  0.51606000  0.82979400  1
  O  O102  1  0.37812800  0.47820700  0.45863400  1
  O  O103  1  0.31156400  0.98394000  0.17020600  1
  O  O104  1  0.88525500  0.50610800  0.84146100  1
  O  O105  1  0.37006700  0.28678400  0.34330000  1
  O  O106  1  0.11303300  0.25000000  0.00000000  1
  O  O107  1  0.87006700  0.21321600  0.84330000  1
  O  O108  1  0.10716900  0.99125500  0.32937100  1
  O  O109  1  0.62419800  0.05492700  0.98770200  1
  O  O110  1  0.68843600  0.01606000  0.82979400  1
  O  O111  1  0.37057000  0.74814900  0.86721500  1
  O  O112  1  0.18843600  0.01606000  0.67020600  1
  O  O113  1  0.81156400  0.98394000  0.32979400  1
  O  O114  1  0.88029000  0.71620400  0.17761500  1
  O  O115  1  0.61303300  0.25000000  0.50000000  1
  O  O116  1  0.61474500  0.49389200  0.34146100  1
  O  O117  1  0.37812200  0.22987600  0.17874400  1
  O  O118  1  0.38012900  0.25000000  0.00000000  1
  O  O119  1  0.62943000  0.24814900  0.86721500  1
  O  O120  1  0.80896800  0.25000000  0.00000000  1
  O  O121  1  0.87057000  0.75185100  0.36721500  1
  O  O122  1  0.87580200  0.55492700  0.51229800  1
  O  O123  1  0.62943000  0.25185100  0.13278500  1
  O  O124  1  0.61971000  0.21620400  0.32238500  1
  O  O125  1  0.60716900  0.50874500  0.82937100  1
  O  O126  1  0.87006700  0.28678400  0.15670000  1
  O  O127  1  0.88525500  0.99389200  0.15853900  1
  O  O128  1  0.62419800  0.44507300  0.01229800  1
  O  O129  1  0.38525500  0.99389200  0.34146100  1
  O  O130  1  0.87580200  0.94507300  0.48770200  1
  O  O131  1  0.62187200  0.52179300  0.54136600  1
