# generated using pymatgen
data_Zn(BO3)3
_symmetry_space_group_name_H-M   'P 1'
_cell_length_a   7.56589700
_cell_length_b   8.75331600
_cell_length_c   8.88925500
_cell_angle_alpha   90.00000000
_cell_angle_beta   90.00000000
_cell_angle_gamma   90.00000000
_symmetry_Int_Tables_number   1
_chemical_formula_structural   Zn(BO3)3
_chemical_formula_sum   'Zn4 B12 O36'
_cell_volume   588.70591090
_cell_formula_units_Z   4
loop_
 _symmetry_equiv_pos_site_id
 _symmetry_equiv_pos_as_xyz
  1  'x, y, z'
loop_
 _atom_site_type_symbol
 _atom_site_label
 _atom_site_symmetry_multiplicity
 _atom_site_fract_x
 _atom_site_fract_y
 _atom_site_fract_z
 _atom_site_occupancy
  Zn  Zn0  1  0.25000000  0.20871300  0.96524000  1
  Zn  Zn1  1  0.25000000  0.29128700  0.46524000  1
  Zn  Zn2  1  0.75000000  0.79128700  0.03476000  1
  Zn  Zn3  1  0.75000000  0.70871300  0.53476000  1
  B  B4  1  0.42015100  0.08292600  0.25101600  1
  B  B5  1  0.07984900  0.41707400  0.75101600  1
  B  B6  1  0.92015100  0.91707400  0.74898400  1
  B  B7  1  0.57984900  0.58292600  0.24898400  1
  B  B8  1  0.57984900  0.91707400  0.74898400  1
  B  B9  1  0.92015100  0.58292600  0.24898400  1
  B  B10  1  0.07984900  0.08292600  0.25101600  1
  B  B11  1  0.42015100  0.41707400  0.75101600  1
  B  B12  1  0.25000000  0.85097300  0.31522000  1
  B  B13  1  0.25000000  0.64902700  0.81522000  1
  B  B14  1  0.75000000  0.14902700  0.68478000  1
  B  B15  1  0.75000000  0.35097300  0.18478000  1
  O  O16  1  0.45176300  0.17133900  0.38288400  1
  O  O17  1  0.04823700  0.32866100  0.88288400  1
  O  O18  1  0.95176300  0.82866100  0.61711600  1
  O  O19  1  0.54823700  0.67133900  0.11711600  1
  O  O20  1  0.54823700  0.82866100  0.61711600  1
  O  O21  1  0.95176300  0.67133900  0.11711600  1
  O  O22  1  0.04823700  0.17133900  0.38288400  1
  O  O23  1  0.45176300  0.32866100  0.88288400  1
  O  O24  1  0.25000000  0.12725900  0.17109600  1
  O  O25  1  0.25000000  0.37274100  0.67109600  1
  O  O26  1  0.75000000  0.87274100  0.82890400  1
  O  O27  1  0.75000000  0.62725900  0.32890400  1
  O  O28  1  0.54789500  0.10261600  0.12489700  1
  O  O29  1  0.95210500  0.39738400  0.62489700  1
  O  O30  1  0.04789500  0.89738400  0.87510300  1
  O  O31  1  0.45210500  0.60261600  0.37510300  1
  O  O32  1  0.45210500  0.89738400  0.87510300  1
  O  O33  1  0.04789500  0.60261600  0.37510300  1
  O  O34  1  0.95210500  0.10261600  0.12489700  1
  O  O35  1  0.54789500  0.39738400  0.62489700  1
  O  O36  1  0.40971800  0.92228600  0.30094200  1
  O  O37  1  0.09028200  0.57771400  0.80094200  1
  O  O38  1  0.90971800  0.07771400  0.69905800  1
  O  O39  1  0.59028200  0.42228600  0.19905800  1
  O  O40  1  0.59028200  0.07771400  0.69905800  1
  O  O41  1  0.90971800  0.42228600  0.19905800  1
  O  O42  1  0.09028200  0.92228600  0.30094200  1
  O  O43  1  0.40971800  0.57771400  0.80094200  1
  O  O44  1  0.25000000  0.68972700  0.34207400  1
  O  O45  1  0.25000000  0.81027300  0.84207400  1
  O  O46  1  0.75000000  0.31027300  0.65792600  1
  O  O47  1  0.75000000  0.18972700  0.15792600  1
  O  O48  1  0.25000000  0.07611200  0.78653500  1
  O  O49  1  0.25000000  0.42388800  0.28653500  1
  O  O50  1  0.75000000  0.92388800  0.21346500  1
  O  O51  1  0.75000000  0.57611200  0.71346500  1
