# generated using pymatgen
data_Rb5Tl3O
_symmetry_space_group_name_H-M   'P 1'
_cell_length_a   17.85418126
_cell_length_b   17.85418126
_cell_length_c   9.43854400
_cell_angle_alpha   90.00000000
_cell_angle_beta   90.00000000
_cell_angle_gamma   151.14800860
_symmetry_Int_Tables_number   1
_chemical_formula_structural   Rb5Tl3O
_chemical_formula_sum   'Rb20 Tl12 O4'
_cell_volume   1451.86418841
_cell_formula_units_Z   4
loop_
 _symmetry_equiv_pos_site_id
 _symmetry_equiv_pos_as_xyz
  1  'x, y, z'
loop_
 _atom_site_type_symbol
 _atom_site_label
 _atom_site_symmetry_multiplicity
 _atom_site_fract_x
 _atom_site_fract_y
 _atom_site_fract_z
 _atom_site_occupancy
  Rb  Rb0  1  0.44804200  0.55195800  0.53412600  1
  Rb  Rb1  1  0.04182600  0.50822900  0.25000000  1
  Rb  Rb2  1  0.44804200  0.55195800  0.96587400  1
  Rb  Rb3  1  0.12051700  0.37164300  0.25000000  1
  Rb  Rb4  1  0.95817400  0.49177100  0.75000000  1
  Rb  Rb5  1  0.55195800  0.44804200  0.46587400  1
  Rb  Rb6  1  0.20822800  0.19422100  0.75000000  1
  Rb  Rb7  1  0.37164300  0.12051700  0.75000000  1
  Rb  Rb8  1  0.19422100  0.20822800  0.25000000  1
  Rb  Rb9  1  0.55195800  0.44804200  0.03412600  1
  Rb  Rb10  1  0.32011700  0.67988300  0.53351200  1
  Rb  Rb11  1  0.67988300  0.32011700  0.46648800  1
  Rb  Rb12  1  0.62835700  0.87948300  0.25000000  1
  Rb  Rb13  1  0.67988300  0.32011700  0.03351200  1
  Rb  Rb14  1  0.50822900  0.04182600  0.75000000  1
  Rb  Rb15  1  0.87948300  0.62835700  0.75000000  1
  Rb  Rb16  1  0.80577900  0.79177200  0.75000000  1
  Rb  Rb17  1  0.32011700  0.67988300  0.96648800  1
  Rb  Rb18  1  0.79177200  0.80577900  0.25000000  1
  Rb  Rb19  1  0.49177100  0.95817400  0.25000000  1
  Tl  Tl20  1  0.07663900  0.33150400  0.75000000  1
  Tl  Tl21  1  0.81622800  0.18377200  0.56260500  1
  Tl  Tl22  1  0.92336100  0.66849600  0.25000000  1
  Tl  Tl23  1  0.07836400  0.92163600  0.45139900  1
  Tl  Tl24  1  0.33150400  0.07663900  0.25000000  1
  Tl  Tl25  1  0.18377200  0.81622800  0.06260500  1
  Tl  Tl26  1  0.18377200  0.81622800  0.43739500  1
  Tl  Tl27  1  0.92163600  0.07836400  0.95139900  1
  Tl  Tl28  1  0.07836400  0.92163600  0.04860100  1
  Tl  Tl29  1  0.92163600  0.07836400  0.54860100  1
  Tl  Tl30  1  0.81622800  0.18377200  0.93739500  1
  Tl  Tl31  1  0.66849600  0.92336100  0.75000000  1
  O  O32  1  0.67396500  0.32603500  0.75000000  1
  O  O33  1  0.48628800  0.51371200  0.25000000  1
  O  O34  1  0.32603500  0.67396500  0.25000000  1
  O  O35  1  0.51371200  0.48628800  0.75000000  1
