# generated using pymatgen
data_UTiNb2O10
_symmetry_space_group_name_H-M   'P 1'
_cell_length_a   10.69763202
_cell_length_b   9.38300323
_cell_length_c   7.28526177
_cell_angle_alpha   78.74802085
_cell_angle_beta   59.34477231
_cell_angle_gamma   41.90720684
_symmetry_Int_Tables_number   1
_chemical_formula_structural   UTiNb2O10
_chemical_formula_sum   'U2 Ti2 Nb4 O20'
_cell_volume   397.96346825
_cell_formula_units_Z   2
loop_
 _symmetry_equiv_pos_site_id
 _symmetry_equiv_pos_as_xyz
  1  'x, y, z'
loop_
 _atom_site_type_symbol
 _atom_site_label
 _atom_site_symmetry_multiplicity
 _atom_site_fract_x
 _atom_site_fract_y
 _atom_site_fract_z
 _atom_site_occupancy
  U  U0  1  0.75000000  0.75000000  0.75000000  1
  U  U1  1  0.50000000  0.50000000  0.50000000  1
  Ti  Ti2  1  0.25000000  0.25000000  0.25000000  1
  Ti  Ti3  1  0.00000000  0.00000000  0.00000000  1
  Nb  Nb4  1  0.02941800  0.02941800  0.47058200  1
  Nb  Nb5  1  0.77941800  0.77941800  0.22058200  1
  Nb  Nb6  1  0.47058200  0.47058200  0.02941800  1
  Nb  Nb7  1  0.22058200  0.22058200  0.77941800  1
  O  O8  1  0.70336400  0.29663600  0.70336400  1
  O  O9  1  0.95336400  0.54663600  0.95336400  1
  O  O10  1  0.95096300  0.55169400  0.34685500  1
  O  O11  1  0.60443800  0.60443800  0.39556200  1
  O  O12  1  0.09951200  0.90314500  0.69830600  1
  O  O13  1  0.69830600  0.29903700  0.09951200  1
  O  O14  1  0.29663600  0.70336400  0.29663600  1
  O  O15  1  0.55169400  0.95096300  0.15048800  1
  O  O16  1  0.54663600  0.95336400  0.54663600  1
  O  O17  1  0.90314500  0.09951200  0.29903700  1
  O  O18  1  0.15048800  0.34685500  0.55169400  1
  O  O19  1  0.13427900  0.13427900  0.36572100  1
  O  O20  1  0.36572100  0.36572100  0.13427900  1
  O  O21  1  0.85443800  0.85443800  0.64556200  1
  O  O22  1  0.39556200  0.39556200  0.60443800  1
  O  O23  1  0.11572100  0.11572100  0.88427900  1
  O  O24  1  0.64556200  0.64556200  0.85443800  1
  O  O25  1  0.88427900  0.88427900  0.11572100  1
  O  O26  1  0.34685500  0.15048800  0.95096300  1
  O  O27  1  0.29903700  0.69830600  0.90314500  1
