# generated using pymatgen
data_Ag2Mo3SeO12
_symmetry_space_group_name_H-M   'P 1'
_cell_length_a   11.26793800
_cell_length_b   7.50215300
_cell_length_c   13.35218881
_cell_angle_alpha   71.74847852
_cell_angle_beta   90.00000000
_cell_angle_gamma   90.00000000
_symmetry_Int_Tables_number   1
_chemical_formula_structural   Ag2Mo3SeO12
_chemical_formula_sum   'Ag8 Mo12 Se4 O48'
_cell_volume   1071.92664370
_cell_formula_units_Z   4
loop_
 _symmetry_equiv_pos_site_id
 _symmetry_equiv_pos_as_xyz
  1  'x, y, z'
loop_
 _atom_site_type_symbol
 _atom_site_label
 _atom_site_symmetry_multiplicity
 _atom_site_fract_x
 _atom_site_fract_y
 _atom_site_fract_z
 _atom_site_occupancy
  Ag  Ag0  1  0.07136100  0.25626600  0.18080800  1
  Ag  Ag1  1  0.92863900  0.74373400  0.81919200  1
  Ag  Ag2  1  0.60112500  0.78457600  0.81003400  1
  Ag  Ag3  1  0.39887500  0.21542400  0.18996600  1
  Ag  Ag4  1  0.42863900  0.25626600  0.68080800  1
  Ag  Ag5  1  0.10112500  0.21542400  0.68996600  1
  Ag  Ag6  1  0.89887500  0.78457600  0.31003400  1
  Ag  Ag7  1  0.57136100  0.74373400  0.31919200  1
  Mo  Mo8  1  0.75227700  0.79749700  0.05715600  1
  Mo  Mo9  1  0.91744200  0.20915900  0.94177400  1
  Mo  Mo10  1  0.58255800  0.20915900  0.44177400  1
  Mo  Mo11  1  0.24772300  0.20250300  0.94284400  1
  Mo  Mo12  1  0.91748600  0.20366800  0.43071800  1
  Mo  Mo13  1  0.08251400  0.79633200  0.56928200  1
  Mo  Mo14  1  0.41748600  0.79633200  0.06928200  1
  Mo  Mo15  1  0.74772300  0.79749700  0.55715600  1
  Mo  Mo16  1  0.41744200  0.79084100  0.55822600  1
  Mo  Mo17  1  0.25227700  0.20250300  0.44284400  1
  Mo  Mo18  1  0.58251400  0.20366800  0.93071800  1
  Mo  Mo19  1  0.08255800  0.79084100  0.05822600  1
  Se  Se20  1  0.80754100  0.14934000  0.69206100  1
  Se  Se21  1  0.19245900  0.85066000  0.30793900  1
  Se  Se22  1  0.69245900  0.14934000  0.19206100  1
  Se  Se23  1  0.30754100  0.85066000  0.80793900  1
  O  O24  1  0.41599500  0.86268300  0.18533000  1
  O  O25  1  0.41740500  0.13356800  0.96684000  1
  O  O26  1  0.40460700  0.91294000  0.70096400  1
  O  O27  1  0.74841800  0.12297900  0.46358000  1
  O  O28  1  0.08259500  0.13356800  0.46684000  1
  O  O29  1  0.26926500  0.07880900  0.80850500  1
  O  O30  1  0.91726500  0.42530400  0.84354900  1
  O  O31  1  0.91411400  0.21217800  0.59282500  1
  O  O32  1  0.74522000  0.58414200  0.65479800  1
  O  O33  1  0.41411400  0.78782200  0.90717500  1
  O  O34  1  0.58588600  0.21217800  0.09282500  1
  O  O35  1  0.23073500  0.07880900  0.30850500  1
  O  O36  1  0.41726500  0.57469600  0.65645100  1
  O  O37  1  0.73539800  0.73451300  0.44080300  1
  O  O38  1  0.73073500  0.92119100  0.19149500  1
  O  O39  1  0.42658100  0.72105800  0.44519200  1
  O  O40  1  0.08273500  0.57469600  0.15645100  1
  O  O41  1  0.75158200  0.12297900  0.96358000  1
  O  O42  1  0.90460700  0.08706000  0.79903600  1
  O  O43  1  0.08400500  0.86268300  0.68533000  1
  O  O44  1  0.23539800  0.26548700  0.05919700  1
  O  O45  1  0.26460200  0.26548700  0.55919700  1
  O  O46  1  0.91740500  0.86643200  0.53316000  1
  O  O47  1  0.58273500  0.42530400  0.34354900  1
  O  O48  1  0.91561800  0.44573200  0.38035300  1
  O  O49  1  0.76460200  0.73451300  0.94080300  1
  O  O50  1  0.25478000  0.41585800  0.34520200  1
  O  O51  1  0.24841800  0.87702100  0.03642000  1
  O  O52  1  0.41952700  0.11370400  0.44560000  1
  O  O53  1  0.24522000  0.41585800  0.84520200  1
  O  O54  1  0.41561800  0.55426800  0.11964700  1
  O  O55  1  0.25158200  0.87702100  0.53642000  1
  O  O56  1  0.08438200  0.55426800  0.61964700  1
  O  O57  1  0.08588600  0.78782200  0.40717500  1
  O  O58  1  0.07341900  0.72105800  0.94519200  1
  O  O59  1  0.59539300  0.08706000  0.29903600  1
  O  O60  1  0.91952700  0.88629600  0.05440000  1
  O  O61  1  0.75478000  0.58414200  0.15479800  1
  O  O62  1  0.92658100  0.27894200  0.05480800  1
  O  O63  1  0.58400500  0.13731700  0.81467000  1
  O  O64  1  0.08047300  0.11370400  0.94560000  1
  O  O65  1  0.58259500  0.86643200  0.03316000  1
  O  O66  1  0.09539300  0.91294000  0.20096400  1
  O  O67  1  0.58438200  0.44573200  0.88035300  1
  O  O68  1  0.58047300  0.88629600  0.55440000  1
  O  O69  1  0.91599500  0.13731700  0.31467000  1
  O  O70  1  0.57341900  0.27894200  0.55480800  1
  O  O71  1  0.76926500  0.92119100  0.69149500  1
