# generated using pymatgen
data_Ag2BrNO3
_symmetry_space_group_name_H-M   'P 1'
_cell_length_a   5.15686000
_cell_length_b   6.90573100
_cell_length_c   13.26076100
_cell_angle_alpha   90.00000000
_cell_angle_beta   90.00000000
_cell_angle_gamma   90.00000000
_symmetry_Int_Tables_number   1
_chemical_formula_structural   Ag2BrNO3
_chemical_formula_sum   'Ag8 Br4 N4 O12'
_cell_volume   472.24073506
_cell_formula_units_Z   4
loop_
 _symmetry_equiv_pos_site_id
 _symmetry_equiv_pos_as_xyz
  1  'x, y, z'
loop_
 _atom_site_type_symbol
 _atom_site_label
 _atom_site_symmetry_multiplicity
 _atom_site_fract_x
 _atom_site_fract_y
 _atom_site_fract_z
 _atom_site_occupancy
  Ag  Ag0  1  0.25000000  0.35410600  0.24532100  1
  Ag  Ag1  1  0.25000000  0.74785900  0.53124600  1
  Ag  Ag2  1  0.75000000  0.75214100  0.03124600  1
  Ag  Ag3  1  0.75000000  0.25214100  0.46875400  1
  Ag  Ag4  1  0.75000000  0.14589400  0.74532100  1
  Ag  Ag5  1  0.75000000  0.64589400  0.75467900  1
  Ag  Ag6  1  0.25000000  0.24785900  0.96875400  1
  Ag  Ag7  1  0.25000000  0.85410600  0.25467900  1
  Br  Br8  1  0.75000000  0.88800600  0.59175900  1
  Br  Br9  1  0.25000000  0.61199400  0.09175900  1
  Br  Br10  1  0.75000000  0.38800600  0.90824100  1
  Br  Br11  1  0.25000000  0.11199400  0.40824100  1
  N  N12  1  0.25000000  0.85632200  0.85230400  1
  N  N13  1  0.25000000  0.35632200  0.64769600  1
  N  N14  1  0.75000000  0.14367800  0.14769600  1
  N  N15  1  0.75000000  0.64367800  0.35230400  1
  O  O16  1  0.25000000  0.21323000  0.70736600  1
  O  O17  1  0.03695100  0.42966800  0.61758200  1
  O  O18  1  0.75000000  0.78677000  0.29263400  1
  O  O19  1  0.46304900  0.42966800  0.61758200  1
  O  O20  1  0.03695100  0.92966800  0.88241800  1
  O  O21  1  0.46304900  0.92966800  0.88241800  1
  O  O22  1  0.25000000  0.71323000  0.79263400  1
  O  O23  1  0.75000000  0.28677000  0.20736600  1
  O  O24  1  0.53695100  0.07033200  0.11758200  1
  O  O25  1  0.96304900  0.57033200  0.38241800  1
  O  O26  1  0.96304900  0.07033200  0.11758200  1
  O  O27  1  0.53695100  0.57033200  0.38241800  1
