# generated using pymatgen
data_ZnS
_symmetry_space_group_name_H-M   'P 1'
_cell_length_a   3.85395617
_cell_length_b   3.85395617
_cell_length_c   56.68939100
_cell_angle_alpha   90.00000000
_cell_angle_beta   90.00000000
_cell_angle_gamma   120.00000296
_symmetry_Int_Tables_number   1
_chemical_formula_structural   ZnS
_chemical_formula_sum   'Zn18 S18'
_cell_volume   729.19881334
_cell_formula_units_Z   18
loop_
 _symmetry_equiv_pos_site_id
 _symmetry_equiv_pos_as_xyz
  1  'x, y, z'
loop_
 _atom_site_type_symbol
 _atom_site_label
 _atom_site_symmetry_multiplicity
 _atom_site_fract_x
 _atom_site_fract_y
 _atom_site_fract_z
 _atom_site_occupancy
  Zn  Zn0  1  0.00000000  0.00000000  0.16666200  1
  Zn  Zn1  1  0.00000000  0.00000000  0.44443700  1
  Zn  Zn2  1  0.66666700  0.33333300  0.33333100  1
  Zn  Zn3  1  0.00000000  0.00000000  0.55557400  1
  Zn  Zn4  1  0.00000000  0.00000000  0.72221900  1
  Zn  Zn5  1  0.33333300  0.66666700  0.05556100  1
  Zn  Zn6  1  0.33333300  0.66666700  0.61111200  1
  Zn  Zn7  1  0.66666700  0.33333300  0.11111300  1
  Zn  Zn8  1  0.00000000  0.00000000  0.00001300  1
  Zn  Zn9  1  0.33333300  0.66666700  0.22221900  1
  Zn  Zn10  1  0.00000000  0.00000000  0.27779000  1
  Zn  Zn11  1  0.66666700  0.33333300  0.77779200  1
  Zn  Zn12  1  0.66666700  0.33333300  0.94443900  1
  Zn  Zn13  1  0.33333300  0.66666700  0.38889200  1
  Zn  Zn14  1  0.33333300  0.66666700  0.83333300  1
  Zn  Zn15  1  0.66666700  0.33333300  0.66666200  1
  Zn  Zn16  1  0.66666700  0.33333300  0.49999700  1
  Zn  Zn17  1  0.00000000  0.00000000  0.88888600  1
  S  S18  1  0.00000000  0.00000000  0.93052200  1
  S  S19  1  0.00000000  0.00000000  0.04166800  1
  S  S20  1  0.66666700  0.33333300  0.70829800  1
  S  S21  1  0.00000000  0.00000000  0.59722700  1
  S  S22  1  0.33333300  0.66666700  0.43055700  1
  S  S23  1  0.00000000  0.00000000  0.31943800  1
  S  S24  1  0.66666700  0.33333300  0.15277900  1
  S  S25  1  0.66666700  0.33333300  0.37499700  1
  S  S26  1  0.33333300  0.66666700  0.09722800  1
  S  S27  1  0.66666700  0.33333300  0.98614300  1
  S  S28  1  0.66666700  0.33333300  0.81944500  1
  S  S29  1  0.00000000  0.00000000  0.76392300  1
  S  S30  1  0.33333300  0.66666700  0.65277800  1
  S  S31  1  0.00000000  0.00000000  0.48607500  1
  S  S32  1  0.66666700  0.33333300  0.54170200  1
  S  S33  1  0.33333300  0.66666700  0.26392200  1
  S  S34  1  0.00000000  0.00000000  0.20829800  1
  S  S35  1  0.33333300  0.66666700  0.87499800  1
