# generated using pymatgen
data_Zn3(PO6)2
_symmetry_space_group_name_H-M   'P 1'
_cell_length_a   4.95423800
_cell_length_b   10.97606100
_cell_length_c   17.54147900
_cell_angle_alpha   90.00000000
_cell_angle_beta   90.00000000
_cell_angle_gamma   90.00000000
_symmetry_Int_Tables_number   1
_chemical_formula_structural   Zn3(PO6)2
_chemical_formula_sum   'Zn12 P8 O48'
_cell_volume   953.87086952
_cell_formula_units_Z   4
loop_
 _symmetry_equiv_pos_site_id
 _symmetry_equiv_pos_as_xyz
  1  'x, y, z'
loop_
 _atom_site_type_symbol
 _atom_site_label
 _atom_site_symmetry_multiplicity
 _atom_site_fract_x
 _atom_site_fract_y
 _atom_site_fract_z
 _atom_site_occupancy
  Zn  Zn0  1  0.33014300  0.64680300  0.99263000  1
  Zn  Zn1  1  0.16985700  0.14680300  0.50737000  1
  Zn  Zn2  1  0.66985700  0.35319700  0.49263000  1
  Zn  Zn3  1  0.83014300  0.85319700  0.00737000  1
  Zn  Zn4  1  0.66985700  0.35319700  0.00737000  1
  Zn  Zn5  1  0.83014300  0.85319700  0.49263000  1
  Zn  Zn6  1  0.33014300  0.64680300  0.50737000  1
  Zn  Zn7  1  0.16985700  0.14680300  0.99263000  1
  Zn  Zn8  1  0.48317800  0.66818100  0.25000000  1
  Zn  Zn9  1  0.01682200  0.16818100  0.25000000  1
  Zn  Zn10  1  0.51682200  0.33181900  0.75000000  1
  Zn  Zn11  1  0.98317800  0.83181900  0.75000000  1
  P  P12  1  0.83436200  0.59866900  0.09424100  1
  P  P13  1  0.66563800  0.09866900  0.40575900  1
  P  P14  1  0.16563800  0.40133100  0.59424100  1
  P  P15  1  0.33436200  0.90133100  0.90575900  1
  P  P16  1  0.16563800  0.40133100  0.90575900  1
  P  P17  1  0.33436200  0.90133100  0.59424100  1
  P  P18  1  0.83436200  0.59866900  0.40575900  1
  P  P19  1  0.66563800  0.09866900  0.09424100  1
  O  O20  1  0.75177800  0.65855400  0.17075000  1
  O  O21  1  0.74822200  0.15855400  0.32925000  1
  O  O22  1  0.24822200  0.34144600  0.67075000  1
  O  O23  1  0.25177800  0.84144600  0.82925000  1
  O  O24  1  0.24822200  0.34144600  0.82925000  1
  O  O25  1  0.25177800  0.84144600  0.67075000  1
  O  O26  1  0.75177800  0.65855400  0.32925000  1
  O  O27  1  0.74822200  0.15855400  0.17075000  1
  O  O28  1  0.14381200  0.60703400  0.08769700  1
  O  O29  1  0.35618800  0.10703400  0.41230300  1
  O  O30  1  0.85618800  0.39296600  0.58769700  1
  O  O31  1  0.64381200  0.89296600  0.91230300  1
  O  O32  1  0.85618800  0.39296600  0.91230300  1
  O  O33  1  0.64381200  0.89296600  0.58769700  1
  O  O34  1  0.14381200  0.60703400  0.41230300  1
  O  O35  1  0.35618800  0.10703400  0.08769700  1
  O  O36  1  0.70816400  0.67988700  0.02786900  1
  O  O37  1  0.79183600  0.17988700  0.47213100  1
  O  O38  1  0.29183600  0.32011300  0.52786900  1
  O  O39  1  0.20816400  0.82011300  0.97213100  1
  O  O40  1  0.29183600  0.32011300  0.97213100  1
  O  O41  1  0.20816400  0.82011300  0.52786900  1
  O  O42  1  0.70816400  0.67988700  0.47213100  1
  O  O43  1  0.79183600  0.17988700  0.02786900  1
  O  O44  1  0.77535500  0.96872400  0.08807700  1
  O  O45  1  0.72464500  0.46872400  0.41192300  1
  O  O46  1  0.22464500  0.03127600  0.58807700  1
  O  O47  1  0.27535500  0.53127600  0.91192300  1
  O  O48  1  0.22464500  0.03127600  0.91192300  1
  O  O49  1  0.27535500  0.53127600  0.58807700  1
  O  O50  1  0.77535500  0.96872400  0.41192300  1
  O  O51  1  0.72464500  0.46872400  0.08807700  1
  O  O52  1  0.12480400  0.87050400  0.25000000  1
  O  O53  1  0.37519600  0.37050400  0.25000000  1
  O  O54  1  0.87519600  0.12949600  0.75000000  1
  O  O55  1  0.62480400  0.62949600  0.75000000  1
  O  O56  1  0.13439800  0.58972100  0.25000000  1
  O  O57  1  0.36560200  0.08972100  0.25000000  1
  O  O58  1  0.86560200  0.41027900  0.75000000  1
  O  O59  1  0.63439800  0.91027900  0.75000000  1
  O  O60  1  0.23266200  0.83024400  0.18792600  1
  O  O61  1  0.26733800  0.33024400  0.31207400  1
  O  O62  1  0.76733800  0.16975600  0.68792600  1
  O  O63  1  0.73266200  0.66975600  0.81207400  1
  O  O64  1  0.76733800  0.16975600  0.81207400  1
  O  O65  1  0.73266200  0.66975600  0.68792600  1
  O  O66  1  0.23266200  0.83024400  0.31207400  1
  O  O67  1  0.26733800  0.33024400  0.18792600  1
