# generated using pymatgen
data_TeS2(NCl)2
_symmetry_space_group_name_H-M   'P 1'
_cell_length_a   11.25121081
_cell_length_b   11.25121081
_cell_length_c   7.75902790
_cell_angle_alpha   83.80858390
_cell_angle_beta   83.80858390
_cell_angle_gamma   49.65493899
_symmetry_Int_Tables_number   1
_chemical_formula_structural   TeS2(NCl)2
_chemical_formula_sum   'Te4 S8 N8 Cl8'
_cell_volume   743.29871341
_cell_formula_units_Z   4
loop_
 _symmetry_equiv_pos_site_id
 _symmetry_equiv_pos_as_xyz
  1  'x, y, z'
loop_
 _atom_site_type_symbol
 _atom_site_label
 _atom_site_symmetry_multiplicity
 _atom_site_fract_x
 _atom_site_fract_y
 _atom_site_fract_z
 _atom_site_occupancy
  Te  Te0  1  0.23256500  0.56755800  0.69953500  1
  Te  Te1  1  0.43244200  0.76743500  0.80046500  1
  Te  Te2  1  0.56755800  0.23256500  0.19953500  1
  Te  Te3  1  0.76743500  0.43244200  0.30046500  1
  S  S4  1  0.09982200  0.31021400  0.17722400  1
  S  S5  1  0.84287600  0.99496700  0.12938600  1
  S  S6  1  0.99496700  0.84287600  0.62938600  1
  S  S7  1  0.31021400  0.09982200  0.67722400  1
  S  S8  1  0.90017800  0.68978600  0.82277600  1
  S  S9  1  0.68978600  0.90017800  0.32277600  1
  S  S10  1  0.00503300  0.15712400  0.37061400  1
  S  S11  1  0.15712400  0.00503300  0.87061400  1
  N  N12  1  0.92077500  0.45059300  0.17110800  1
  N  N13  1  0.54940700  0.07922500  0.32889200  1
  N  N14  1  0.45059300  0.92077500  0.67110800  1
  N  N15  1  0.85941600  0.83923000  0.71779000  1
  N  N16  1  0.14058400  0.16077000  0.28221000  1
  N  N17  1  0.83923000  0.85941600  0.21779000  1
  N  N18  1  0.16077000  0.14058400  0.78221000  1
  N  N19  1  0.07922500  0.54940700  0.82889200  1
  Cl  Cl20  1  0.65969100  0.27165900  0.48349400  1
  Cl  Cl21  1  0.22223200  0.47103500  0.42674600  1
  Cl  Cl22  1  0.34030900  0.72834100  0.51650600  1
  Cl  Cl23  1  0.52896500  0.77776800  0.07325400  1
  Cl  Cl24  1  0.27165900  0.65969100  0.98349400  1
  Cl  Cl25  1  0.77776800  0.52896500  0.57325400  1
  Cl  Cl26  1  0.72834100  0.34030900  0.01650600  1
  Cl  Cl27  1  0.47103500  0.22223200  0.92674600  1
