# generated using pymatgen
data_S4N3O2F
_symmetry_space_group_name_H-M   'P 1'
_cell_length_a   5.74016800
_cell_length_b   8.30292400
_cell_length_c   17.17838668
_cell_angle_alpha   66.80490040
_cell_angle_beta   90.00000000
_cell_angle_gamma   90.00000000
_symmetry_Int_Tables_number   1
_chemical_formula_structural   S4N3O2F
_chemical_formula_sum   'S16 N12 O8 F4'
_cell_volume   752.54664293
_cell_formula_units_Z   4
loop_
 _symmetry_equiv_pos_site_id
 _symmetry_equiv_pos_as_xyz
  1  'x, y, z'
loop_
 _atom_site_type_symbol
 _atom_site_label
 _atom_site_symmetry_multiplicity
 _atom_site_fract_x
 _atom_site_fract_y
 _atom_site_fract_z
 _atom_site_occupancy
  S  S0  1  0.29301000  0.79327500  0.23482800  1
  S  S1  1  0.44634700  0.34712200  0.61424800  1
  S  S2  1  0.25838100  0.83413900  0.95349200  1
  S  S3  1  0.26924000  0.47353100  0.36932100  1
  S  S4  1  0.79301000  0.20672500  0.26517200  1
  S  S5  1  0.74161900  0.16586100  0.04650800  1
  S  S6  1  0.94634700  0.65287800  0.88575200  1
  S  S7  1  0.55365300  0.65287800  0.38575200  1
  S  S8  1  0.23076000  0.47353100  0.86932100  1
  S  S9  1  0.20699000  0.79327500  0.73482800  1
  S  S10  1  0.76924000  0.52646900  0.13067900  1
  S  S11  1  0.70699000  0.20672500  0.76517200  1
  S  S12  1  0.75838100  0.16586100  0.54650800  1
  S  S13  1  0.73076000  0.52646900  0.63067900  1
  S  S14  1  0.24161900  0.83413900  0.45349200  1
  S  S15  1  0.05365300  0.34712200  0.11424800  1
  N  N16  1  0.66480400  0.38637600  0.21823100  1
  N  N17  1  0.16480400  0.61362400  0.28176900  1
  N  N18  1  0.97992500  0.79479300  0.78834500  1
  N  N19  1  0.02626500  0.72214600  0.95638400  1
  N  N20  1  0.83519600  0.38637600  0.71823100  1
  N  N21  1  0.33519600  0.61362400  0.78176900  1
  N  N22  1  0.47373500  0.72214600  0.45638400  1
  N  N23  1  0.52626500  0.27785400  0.54361600  1
  N  N24  1  0.97373500  0.27785400  0.04361600  1
  N  N25  1  0.47992500  0.20520700  0.71165500  1
  N  N26  1  0.52007500  0.79479300  0.28834500  1
  N  N27  1  0.02007500  0.20520700  0.21165500  1
  O  O28  1  0.56769700  0.17173100  0.10576600  1
  O  O29  1  0.67920200  0.19101100  0.96184500  1
  O  O30  1  0.06769700  0.82826900  0.39423400  1
  O  O31  1  0.82079800  0.19101100  0.46184500  1
  O  O32  1  0.93230300  0.17173100  0.60576600  1
  O  O33  1  0.17920200  0.80898900  0.53815500  1
  O  O34  1  0.43230300  0.82826900  0.89423400  1
  O  O35  1  0.32079800  0.80898900  0.03815500  1
  F  F36  1  0.15578400  0.03087900  0.91161500  1
  F  F37  1  0.34421600  0.03087900  0.41161500  1
  F  F38  1  0.84421600  0.96912100  0.08838500  1
  F  F39  1  0.65578400  0.96912100  0.58838500  1
