# generated using pymatgen
data_BaTeF6
_symmetry_space_group_name_H-M   'P 1'
_cell_length_a   10.90811229
_cell_length_b   9.01450206
_cell_length_c   8.96653143
_cell_angle_alpha   74.69414749
_cell_angle_beta   52.85323642
_cell_angle_gamma   52.45261608
_symmetry_Int_Tables_number   1
_chemical_formula_structural   BaTeF6
_chemical_formula_sum   'Ba4 Te4 F24'
_cell_volume   549.60348459
_cell_formula_units_Z   4
loop_
 _symmetry_equiv_pos_site_id
 _symmetry_equiv_pos_as_xyz
  1  'x, y, z'
loop_
 _atom_site_type_symbol
 _atom_site_label
 _atom_site_symmetry_multiplicity
 _atom_site_fract_x
 _atom_site_fract_y
 _atom_site_fract_z
 _atom_site_occupancy
  Ba  Ba0  1  0.21229100  0.01779600  0.63605300  1
  Ba  Ba1  1  0.13386000  0.63605300  0.01779600  1
  Ba  Ba2  1  0.23220400  0.03770900  0.11614000  1
  Ba  Ba3  1  0.61394700  0.11614000  0.03770900  1
  Te  Te4  1  0.73755800  0.47791600  0.55186000  1
  Te  Te5  1  0.69814000  0.01733500  0.51244200  1
  Te  Te6  1  0.23266500  0.55186000  0.47791600  1
  Te  Te7  1  0.77208400  0.51244200  0.01733500  1
  F  F8  1  0.31135000  0.28406600  0.46583400  1
  F  F9  1  0.72391800  0.96168700  0.28534100  1
  F  F10  1  0.93505200  0.47846300  0.74481200  1
  F  F11  1  0.56786000  0.40543900  0.76501200  1
  F  F12  1  0.29046100  0.49199900  0.66796400  1
  F  F13  1  0.77153700  0.31494800  0.40832700  1
  F  F14  1  0.26294100  0.84085100  0.90290600  1
  F  F15  1  0.48498800  0.98831200  0.68214000  1
  F  F16  1  0.26168800  0.76501200  0.40543900  1
  F  F17  1  0.84456100  0.68214000  0.98831200  1
  F  F18  1  0.93875000  0.46583400  0.28406600  1
  F  F19  1  0.99330200  0.90290600  0.84085100  1
  F  F20  1  0.84167300  0.74481200  0.47846300  1
  F  F21  1  0.40914900  0.98705900  0.25669800  1
  F  F22  1  0.50518800  0.40832700  0.31494800  1
  F  F23  1  0.54957600  0.66796400  0.49199900  1
  F  F24  1  0.75800100  0.95953900  0.70042400  1
  F  F25  1  0.58203600  0.70042400  0.95953900  1
  F  F26  1  0.78416600  0.31125000  0.93865000  1
  F  F27  1  0.34709400  0.25669800  0.98705900  1
  F  F28  1  0.96593400  0.93865000  0.31125000  1
  F  F29  1  0.96465900  0.22094600  0.52608200  1
  F  F30  1  0.02905400  0.28534100  0.96168700  1
  F  F31  1  0.28831300  0.52608200  0.22094600  1
