# generated using pymatgen
data_Nd4Cu2O7
_symmetry_space_group_name_H-M   'P 1'
_cell_length_a   6.68362899
_cell_length_b   6.68362899
_cell_length_c   8.52856418
_cell_angle_alpha   71.39476577
_cell_angle_beta   71.39476577
_cell_angle_gamma   33.01233502
_symmetry_Int_Tables_number   1
_chemical_formula_structural   Nd4Cu2O7
_chemical_formula_sum   'Nd4 Cu2 O7'
_cell_volume   195.73587867
_cell_formula_units_Z   1
loop_
 _symmetry_equiv_pos_site_id
 _symmetry_equiv_pos_as_xyz
  1  'x, y, z'
loop_
 _atom_site_type_symbol
 _atom_site_label
 _atom_site_symmetry_multiplicity
 _atom_site_fract_x
 _atom_site_fract_y
 _atom_site_fract_z
 _atom_site_occupancy
  Nd  Nd0  1  0.34069700  0.34069700  0.31923400  1
  Nd  Nd1  1  0.65930300  0.65930300  0.68076600  1
  Nd  Nd2  1  0.64263500  0.64263500  0.16605100  1
  Nd  Nd3  1  0.35736500  0.35736500  0.83394900  1
  Cu  Cu4  1  0.00000000  0.00000000  0.00000000  1
  Cu  Cu5  1  0.00000000  0.00000000  0.50000000  1
  O  O6  1  0.01026600  0.01026600  0.70892300  1
  O  O7  1  0.27514800  0.27514800  0.61527300  1
  O  O8  1  0.50000000  0.50000000  0.00000000  1
  O  O9  1  0.74793900  0.74793900  0.88009500  1
  O  O10  1  0.72485200  0.72485200  0.38472700  1
  O  O11  1  0.25206100  0.25206100  0.11990500  1
  O  O12  1  0.98973400  0.98973400  0.29107700  1
