# generated using pymatgen
data_CdSO3
_symmetry_space_group_name_H-M   'P 1'
_cell_length_a   12.82371000
_cell_length_b   5.65376900
_cell_length_c   8.75328922
_cell_angle_alpha   79.78013993
_cell_angle_beta   90.00000000
_cell_angle_gamma   90.00000000
_symmetry_Int_Tables_number   1
_chemical_formula_structural   CdSO3
_chemical_formula_sum   'Cd8 S8 O24'
_cell_volume   624.56455950
_cell_formula_units_Z   8
loop_
 _symmetry_equiv_pos_site_id
 _symmetry_equiv_pos_as_xyz
  1  'x, y, z'
loop_
 _atom_site_type_symbol
 _atom_site_label
 _atom_site_symmetry_multiplicity
 _atom_site_fract_x
 _atom_site_fract_y
 _atom_site_fract_z
 _atom_site_occupancy
  Cd  Cd0  1  0.41965400  0.32050300  0.88487700  1
  Cd  Cd1  1  0.25406200  0.86700200  0.65355900  1
  Cd  Cd2  1  0.91965400  0.67949700  0.61512300  1
  Cd  Cd3  1  0.74593800  0.13299800  0.34644100  1
  Cd  Cd4  1  0.75406200  0.13299800  0.84644100  1
  Cd  Cd5  1  0.58034600  0.67949700  0.11512300  1
  Cd  Cd6  1  0.08034600  0.32050300  0.38487700  1
  Cd  Cd7  1  0.24593800  0.86700200  0.15355900  1
  S  S8  1  0.32567400  0.46148600  0.48395200  1
  S  S9  1  0.17432600  0.46148600  0.98395200  1
  S  S10  1  0.82567400  0.53851400  0.01604800  1
  S  S11  1  0.67432600  0.53851400  0.51604800  1
  S  S12  1  0.97894000  0.90320000  0.24724700  1
  S  S13  1  0.52106000  0.90320000  0.74724700  1
  S  S14  1  0.02106000  0.09680000  0.75275300  1
  S  S15  1  0.47894000  0.09680000  0.25275300  1
  O  O16  1  0.09166900  0.00459200  0.24557300  1
  O  O17  1  0.24089200  0.68811800  0.91942500  1
  O  O18  1  0.57671200  0.08223600  0.83791200  1
  O  O19  1  0.75910800  0.31188200  0.08057500  1
  O  O20  1  0.25910800  0.68811800  0.41942500  1
  O  O21  1  0.65674000  0.49187300  0.34831400  1
  O  O22  1  0.97817500  0.66360800  0.36585800  1
  O  O23  1  0.74565500  0.75063100  0.00400200  1
  O  O24  1  0.34326000  0.50812700  0.65168600  1
  O  O25  1  0.90833100  0.99540800  0.75442700  1
  O  O26  1  0.02182500  0.33639200  0.63414200  1
  O  O27  1  0.75434500  0.75063100  0.50400200  1
  O  O28  1  0.40833100  0.00459200  0.74557300  1
  O  O29  1  0.15674000  0.50812700  0.15168600  1
  O  O30  1  0.84326000  0.49187300  0.84831400  1
  O  O31  1  0.24565500  0.24936900  0.49599800  1
  O  O32  1  0.74089200  0.31188200  0.58057500  1
  O  O33  1  0.07671200  0.91776400  0.66208800  1
  O  O34  1  0.92328800  0.08223600  0.33791200  1
  O  O35  1  0.59166900  0.99540800  0.25442700  1
  O  O36  1  0.52182500  0.66360800  0.86585800  1
  O  O37  1  0.25434500  0.24936900  0.99599800  1
  O  O38  1  0.47817500  0.33639200  0.13414200  1
  O  O39  1  0.42328800  0.91776400  0.16208800  1
