# generated using pymatgen
data_FeWClO4
_symmetry_space_group_name_H-M   'P 1'
_cell_length_a   5.57693900
_cell_length_b   6.79975900
_cell_length_c   6.79975700
_cell_angle_alpha   90.00000000
_cell_angle_beta   90.00000000
_cell_angle_gamma   90.00000000
_symmetry_Int_Tables_number   1
_chemical_formula_structural   FeWClO4
_chemical_formula_sum   'Fe2 W2 Cl2 O8'
_cell_volume   257.85930486
_cell_formula_units_Z   2
loop_
 _symmetry_equiv_pos_site_id
 _symmetry_equiv_pos_as_xyz
  1  'x, y, z'
loop_
 _atom_site_type_symbol
 _atom_site_label
 _atom_site_symmetry_multiplicity
 _atom_site_fract_x
 _atom_site_fract_y
 _atom_site_fract_z
 _atom_site_occupancy
  Fe  Fe0  1  0.72778200  0.75000000  0.75000000  1
  Fe  Fe1  1  0.27224800  0.25000000  0.24999900  1
  W  W2  1  0.99999700  0.25000000  0.75000000  1
  W  W3  1  0.99999700  0.75000000  0.25000000  1
  Cl  Cl4  1  0.32563200  0.75000000  0.75000000  1
  Cl  Cl5  1  0.67436200  0.25000000  0.25000000  1
  O  O6  1  0.18978500  0.25000000  0.53366700  1
  O  O7  1  0.18978500  0.96633300  0.25000000  1
  O  O8  1  0.81021000  0.03367300  0.75000000  1
  O  O9  1  0.81021000  0.46632700  0.75000000  1
  O  O10  1  0.81021000  0.75000000  0.46632800  1
  O  O11  1  0.18978500  0.53366700  0.25000000  1
  O  O12  1  0.18978500  0.25000000  0.96633300  1
  O  O13  1  0.81021000  0.75000000  0.03367300  1
