# generated using pymatgen
data_SiO2
_symmetry_space_group_name_H-M   'P 1'
_cell_length_a   12.66723493
_cell_length_b   11.33349384
_cell_length_c   11.21071226
_cell_angle_alpha   68.36991471
_cell_angle_beta   56.27445638
_cell_angle_gamma   55.35562890
_symmetry_Int_Tables_number   1
_chemical_formula_structural   SiO2
_chemical_formula_sum   'Si18 O36'
_cell_volume   1097.95031295
_cell_formula_units_Z   18
loop_
 _symmetry_equiv_pos_site_id
 _symmetry_equiv_pos_as_xyz
  1  'x, y, z'
loop_
 _atom_site_type_symbol
 _atom_site_label
 _atom_site_symmetry_multiplicity
 _atom_site_fract_x
 _atom_site_fract_y
 _atom_site_fract_z
 _atom_site_occupancy
  Si  Si0  1  0.32181600  0.29764000  0.92805300  1
  Si  Si1  1  0.92593400  0.70585400  0.07406600  1
  Si  Si2  1  0.45249100  0.92805300  0.29764000  1
  Si  Si3  1  0.29764000  0.32181600  0.45249100  1
  Si  Si4  1  0.07194700  0.54750900  0.67818400  1
  Si  Si5  1  0.54750900  0.07194700  0.70236000  1
  Si  Si6  1  0.38990300  0.78787200  0.61009700  1
  Si  Si7  1  0.21212800  0.61009700  0.78787200  1
  Si  Si8  1  0.92805300  0.45249100  0.32181600  1
  Si  Si9  1  0.07406600  0.29414600  0.92593400  1
  Si  Si10  1  0.70236000  0.67818400  0.54750900  1
  Si  Si11  1  0.70585400  0.92593400  0.29414600  1
  Si  Si12  1  0.25000000  0.25000000  0.25000000  1
  Si  Si13  1  0.67818400  0.70236000  0.07194700  1
  Si  Si14  1  0.29414600  0.07406600  0.70585400  1
  Si  Si15  1  0.78787200  0.38990300  0.21212800  1
  Si  Si16  1  0.75000000  0.75000000  0.75000000  1
  Si  Si17  1  0.61009700  0.21212800  0.38990300  1
  O  O18  1  0.68489200  0.92317000  0.71216100  1
  O  O19  1  0.44932400  0.31440600  0.40039100  1
  O  O20  1  0.56410400  0.96665600  0.28610700  1
  O  O21  1  0.52950500  0.83430800  0.16569200  1
  O  O22  1  0.32022400  0.28783900  0.07683000  1
  O  O23  1  0.96665600  0.56410400  0.18313400  1
  O  O24  1  0.71389300  0.81686600  0.43589600  1
  O  O25  1  0.16569200  0.47049500  0.52950500  1
  O  O26  1  0.40039100  0.83587900  0.44932400  1
  O  O27  1  0.83430800  0.52950500  0.47049500  1
  O  O28  1  0.14965700  0.14965700  0.85034300  1
  O  O29  1  0.55067600  0.68559400  0.59960900  1
  O  O30  1  0.03334400  0.43589600  0.81686600  1
  O  O31  1  0.81686600  0.71389300  0.03334400  1
  O  O32  1  0.68559400  0.55067600  0.16412100  1
  O  O33  1  0.47049500  0.16569200  0.83430800  1
  O  O34  1  0.92903700  0.30483200  0.07096300  1
  O  O35  1  0.85034300  0.85034300  0.14965700  1
  O  O36  1  0.07683000  0.31510800  0.32022400  1
  O  O37  1  0.59960900  0.16412100  0.55067600  1
  O  O38  1  0.18313400  0.28610700  0.96665600  1
  O  O39  1  0.43589600  0.03334400  0.71389300  1
  O  O40  1  0.69516800  0.07096300  0.30483200  1
  O  O41  1  0.30191800  0.69808200  0.69808200  1
  O  O42  1  0.71216100  0.67977600  0.68489200  1
  O  O43  1  0.83587900  0.40039100  0.31440600  1
  O  O44  1  0.31440600  0.44932400  0.83587900  1
  O  O45  1  0.69808200  0.30191800  0.30191800  1
  O  O46  1  0.28610700  0.18313400  0.56410400  1
  O  O47  1  0.28783900  0.32022400  0.31510800  1
  O  O48  1  0.16412100  0.59960900  0.68559400  1
  O  O49  1  0.30483200  0.92903700  0.69516800  1
  O  O50  1  0.31510800  0.07683000  0.28783900  1
  O  O51  1  0.92317000  0.68489200  0.67977600  1
  O  O52  1  0.67977600  0.71216100  0.92317000  1
  O  O53  1  0.07096300  0.69516800  0.92903700  1
