# generated using pymatgen
data_NaLaMgWO6
_symmetry_space_group_name_H-M   'P 1'
_cell_length_a   5.60353200
_cell_length_b   5.60353200
_cell_length_c   8.01979900
_cell_angle_alpha   90.00000000
_cell_angle_beta   90.00000000
_cell_angle_gamma   90.00000000
_symmetry_Int_Tables_number   1
_chemical_formula_structural   NaLaMgWO6
_chemical_formula_sum   'Na2 La2 Mg2 W2 O12'
_cell_volume   251.81824710
_cell_formula_units_Z   2
loop_
 _symmetry_equiv_pos_site_id
 _symmetry_equiv_pos_as_xyz
  1  'x, y, z'
loop_
 _atom_site_type_symbol
 _atom_site_label
 _atom_site_symmetry_multiplicity
 _atom_site_fract_x
 _atom_site_fract_y
 _atom_site_fract_z
 _atom_site_occupancy
  Na  Na0  1  0.00000000  0.00000000  0.50000000  1
  Na  Na1  1  0.50000000  0.50000000  0.50000000  1
  La  La2  1  0.00000000  0.00000000  0.00000000  1
  La  La3  1  0.50000000  0.50000000  0.00000000  1
  Mg  Mg4  1  0.00000000  0.50000000  0.25520400  1
  Mg  Mg5  1  0.50000000  0.00000000  0.74479600  1
  W  W6  1  0.00000000  0.50000000  0.74305500  1
  W  W7  1  0.50000000  0.00000000  0.25694500  1
  O  O8  1  0.24345400  0.25654600  0.77042300  1
  O  O9  1  0.25654600  0.24345400  0.22957700  1
  O  O10  1  0.00000000  0.50000000  0.99646000  1
  O  O11  1  0.24345400  0.74345400  0.77042300  1
  O  O12  1  0.00000000  0.50000000  0.50992600  1
  O  O13  1  0.50000000  0.00000000  0.00354000  1
  O  O14  1  0.25654600  0.75654600  0.22957700  1
  O  O15  1  0.75654600  0.25654600  0.77042300  1
  O  O16  1  0.50000000  0.00000000  0.49007400  1
  O  O17  1  0.75654600  0.74345400  0.77042300  1
  O  O18  1  0.74345400  0.75654600  0.22957700  1
  O  O19  1  0.74345400  0.24345400  0.22957700  1
