# generated using pymatgen
data_ZnS
_symmetry_space_group_name_H-M   'P 1'
_cell_length_a   3.85328638
_cell_length_b   3.85328638
_cell_length_c   69.24930200
_cell_angle_alpha   90.00000000
_cell_angle_beta   90.00000000
_cell_angle_gamma   120.00000648
_symmetry_Int_Tables_number   1
_chemical_formula_structural   ZnS
_chemical_formula_sum   'Zn22 S22'
_cell_volume   890.44803087
_cell_formula_units_Z   22
loop_
 _symmetry_equiv_pos_site_id
 _symmetry_equiv_pos_as_xyz
  1  'x, y, z'
loop_
 _atom_site_type_symbol
 _atom_site_label
 _atom_site_symmetry_multiplicity
 _atom_site_fract_x
 _atom_site_fract_y
 _atom_site_fract_z
 _atom_site_occupancy
  Zn  Zn0  1  0.00000000  0.00000000  0.36360100  1
  Zn  Zn1  1  0.00000000  0.00000000  0.63639600  1
  Zn  Zn2  1  0.33333300  0.66666700  0.86361900  1
  Zn  Zn3  1  0.66666700  0.33333300  0.31816900  1
  Zn  Zn4  1  0.66666700  0.33333300  0.95451600  1
  Zn  Zn5  1  0.66666700  0.33333300  0.04547900  1
  Zn  Zn6  1  0.33333300  0.66666700  0.54546800  1
  Zn  Zn7  1  0.33333300  0.66666700  0.27271900  1
  Zn  Zn8  1  0.33333300  0.66666700  0.13639600  1
  Zn  Zn9  1  0.00000000  0.00000000  0.90909600  1
  Zn  Zn10  1  0.66666700  0.33333300  0.72729200  1
  Zn  Zn11  1  0.66666700  0.33333300  0.59090400  1
  Zn  Zn12  1  0.66666700  0.33333300  0.18182100  1
  Zn  Zn13  1  0.33333300  0.66666700  0.68182100  1
  Zn  Zn14  1  0.00000000  0.00000000  0.09090400  1
  Zn  Zn15  1  0.33333300  0.66666700  0.40909500  1
  Zn  Zn16  1  0.00000000  0.00000000  0.77271700  1
  Zn  Zn17  1  0.66666700  0.33333300  0.45452000  1
  Zn  Zn18  1  0.33333300  0.66666700  0.99999600  1
  Zn  Zn19  1  0.00000000  0.00000000  0.22729600  1
  Zn  Zn20  1  0.66666700  0.33333300  0.81820600  1
  Zn  Zn21  1  0.00000000  0.00000000  0.49999900  1
  S  S22  1  0.66666700  0.33333300  0.76135100  1
  S  S23  1  0.33333300  0.66666700  0.89770600  1
  S  S24  1  0.33333300  0.66666700  0.30679900  1
  S  S25  1  0.66666700  0.33333300  0.07953600  1
  S  S26  1  0.00000000  0.00000000  0.53409300  1
  S  S27  1  0.66666700  0.33333300  0.85227700  1
  S  S28  1  0.66666700  0.33333300  0.48860600  1
  S  S29  1  0.00000000  0.00000000  0.94317700  1
  S  S30  1  0.00000000  0.00000000  0.26137800  1
  S  S31  1  0.00000000  0.00000000  0.12500100  1
  S  S32  1  0.33333300  0.66666700  0.17047500  1
  S  S33  1  0.00000000  0.00000000  0.67047300  1
  S  S34  1  0.00000000  0.00000000  0.39769900  1
  S  S35  1  0.66666700  0.33333300  0.35223800  1
  S  S36  1  0.33333300  0.66666700  0.57953600  1
  S  S37  1  0.66666700  0.33333300  0.21590700  1
  S  S38  1  0.66666700  0.33333300  0.98858100  1
  S  S39  1  0.33333300  0.66666700  0.44317800  1
  S  S40  1  0.33333300  0.66666700  0.71590700  1
  S  S41  1  0.33333300  0.66666700  0.03411700  1
  S  S42  1  0.00000000  0.00000000  0.80683100  1
  S  S43  1  0.66666700  0.33333300  0.62500100  1
