# generated using pymatgen
data_SiO2
_symmetry_space_group_name_H-M   'P 1'
_cell_length_a   4.81508200
_cell_length_b   4.85851948
_cell_length_c   5.94885080
_cell_angle_alpha   90.67733011
_cell_angle_beta   93.39711738
_cell_angle_gamma   104.98269620
_symmetry_Int_Tables_number   1
_chemical_formula_structural   SiO2
_chemical_formula_sum   'Si4 O8'
_cell_volume   134.14785163
_cell_formula_units_Z   4
loop_
 _symmetry_equiv_pos_site_id
 _symmetry_equiv_pos_as_xyz
  1  'x, y, z'
loop_
 _atom_site_type_symbol
 _atom_site_label
 _atom_site_symmetry_multiplicity
 _atom_site_fract_x
 _atom_site_fract_y
 _atom_site_fract_z
 _atom_site_occupancy
  Si  Si0  1  0.92226400  0.88483100  0.10364600  1
  Si  Si1  1  0.05395700  0.67751700  0.55373200  1
  Si  Si2  1  0.57022700  0.17001600  0.80074600  1
  Si  Si3  1  0.27574600  0.47635900  0.16997500  1
  O  O4  1  0.26210100  0.99768000  0.65798600  1
  O  O5  1  0.70494300  0.89956800  0.88175700  1
  O  O6  1  0.49691700  0.35787200  0.01748800  1
  O  O7  1  0.18270500  0.74182200  0.04104200  1
  O  O8  1  0.31015800  0.56162400  0.44078300  1
  O  O9  1  0.83482400  0.74308900  0.34737200  1
  O  O10  1  0.99542700  0.21628800  0.17114300  1
  O  O11  1  0.83093200  0.40861300  0.68040000  1
