# generated using pymatgen
data_Te3W2Se4(Cl4O)2
_symmetry_space_group_name_H-M   'P 1'
_cell_length_a   8.49063065
_cell_length_b   8.49063065
_cell_length_c   15.47213838
_cell_angle_alpha   81.40803720
_cell_angle_beta   81.40803720
_cell_angle_gamma   81.99163298
_symmetry_Int_Tables_number   1
_chemical_formula_structural   Te3W2Se4(Cl4O)2
_chemical_formula_sum   'Te6 W4 Se8 Cl16 O4'
_cell_volume   1082.66741200
_cell_formula_units_Z   2
loop_
 _symmetry_equiv_pos_site_id
 _symmetry_equiv_pos_as_xyz
  1  'x, y, z'
loop_
 _atom_site_type_symbol
 _atom_site_label
 _atom_site_symmetry_multiplicity
 _atom_site_fract_x
 _atom_site_fract_y
 _atom_site_fract_z
 _atom_site_occupancy
  Te  Te0  1  0.86393400  0.03437700  0.15514500  1
  Te  Te1  1  0.86669700  0.14474600  0.84943100  1
  Te  Te2  1  0.03700500  0.75695900  0.96026000  1
  Te  Te3  1  0.03437700  0.86393400  0.65514500  1
  Te  Te4  1  0.14474600  0.86669700  0.34943100  1
  Te  Te5  1  0.75695900  0.03700500  0.46026000  1
  W  W6  1  0.46340000  0.44417500  0.28471300  1
  W  W7  1  0.45684700  0.43921900  0.03535500  1
  W  W8  1  0.43921900  0.45684700  0.53535500  1
  W  W9  1  0.44417500  0.46340000  0.78471300  1
  Se  Se10  1  0.86499600  0.77996400  0.38125100  1
  Se  Se11  1  0.12224500  0.03729400  0.92979600  1
  Se  Se12  1  0.02385800  0.14562200  0.68904100  1
  Se  Se13  1  0.03729400  0.12224500  0.42979600  1
  Se  Se14  1  0.77996400  0.86499600  0.88125100  1
  Se  Se15  1  0.75223900  0.88028800  0.62083400  1
  Se  Se16  1  0.14562200  0.02385800  0.18904100  1
  Se  Se17  1  0.88028800  0.75223900  0.12083400  1
  Cl  Cl18  1  0.42563100  0.16217100  0.31216500  1
  Cl  Cl19  1  0.47672500  0.73785000  0.49856200  1
  Cl  Cl20  1  0.73785000  0.47672500  0.99856200  1
  Cl  Cl21  1  0.74721300  0.37146500  0.26747300  1
  Cl  Cl22  1  0.39910600  0.17934100  0.55817700  1
  Cl  Cl23  1  0.50415700  0.72124500  0.25325400  1
  Cl  Cl24  1  0.37698100  0.72765000  0.01858800  1
  Cl  Cl25  1  0.16217100  0.42563100  0.81216500  1
  Cl  Cl26  1  0.52869400  0.15608400  0.04208000  1
  Cl  Cl27  1  0.17934100  0.39910600  0.05817700  1
  Cl  Cl28  1  0.72124500  0.50415700  0.75325400  1
  Cl  Cl29  1  0.72765000  0.37698100  0.51858800  1
  Cl  Cl30  1  0.37146500  0.74721300  0.76747300  1
  Cl  Cl31  1  0.17556200  0.52461300  0.29347600  1
  Cl  Cl32  1  0.52461300  0.17556200  0.79347600  1
  Cl  Cl33  1  0.15608400  0.52869400  0.54208000  1
  O  O34  1  0.46411700  0.43706000  0.15729300  1
  O  O35  1  0.45249600  0.44949300  0.40722900  1
  O  O36  1  0.43706000  0.46411700  0.65729300  1
  O  O37  1  0.44949300  0.45249600  0.90722900  1
