# generated using pymatgen
data_ZnS
_symmetry_space_group_name_H-M   'P 1'
_cell_length_a   3.85195981
_cell_length_b   3.85195981
_cell_length_c   44.10330400
_cell_angle_alpha   90.00000000
_cell_angle_beta   90.00000000
_cell_angle_gamma   119.99999681
_symmetry_Int_Tables_number   1
_chemical_formula_structural   ZnS
_chemical_formula_sum   'Zn14 S14'
_cell_volume   566.71572952
_cell_formula_units_Z   14
loop_
 _symmetry_equiv_pos_site_id
 _symmetry_equiv_pos_as_xyz
  1  'x, y, z'
loop_
 _atom_site_type_symbol
 _atom_site_label
 _atom_site_symmetry_multiplicity
 _atom_site_fract_x
 _atom_site_fract_y
 _atom_site_fract_z
 _atom_site_occupancy
  Zn  Zn0  1  0.00000000  0.00000000  0.14285800  1
  Zn  Zn1  1  0.66666700  0.33333300  0.07142700  1
  Zn  Zn2  1  0.00000000  0.00000000  0.57142900  1
  Zn  Zn3  1  0.00000000  0.00000000  0.78570700  1
  Zn  Zn4  1  0.33333300  0.66666700  0.71428500  1
  Zn  Zn5  1  0.33333300  0.66666700  0.28571100  1
  Zn  Zn6  1  0.66666700  0.33333300  0.21431100  1
  Zn  Zn7  1  0.66666700  0.33333300  0.64288100  1
  Zn  Zn8  1  0.33333300  0.66666700  0.42859100  1
  Zn  Zn9  1  0.00000000  0.00000000  0.92858500  1
  Zn  Zn10  1  0.66666700  0.33333300  0.49999700  1
  Zn  Zn11  1  0.00000000  0.00000000  0.35714100  1
  Zn  Zn12  1  0.33333300  0.66666700  0.00002000  1
  Zn  Zn13  1  0.33333300  0.66666700  0.85715000  1
  S  S14  1  0.33333300  0.66666700  0.76780800  1
  S  S15  1  0.00000000  0.00000000  0.98217900  1
  S  S16  1  0.00000000  0.00000000  0.19647100  1
  S  S17  1  0.66666700  0.33333300  0.69642200  1
  S  S18  1  0.33333300  0.66666700  0.91070300  1
  S  S19  1  0.33333300  0.66666700  0.48213200  1
  S  S20  1  0.00000000  0.00000000  0.41075200  1
  S  S21  1  0.33333300  0.66666700  0.33923500  1
  S  S22  1  0.66666700  0.33333300  0.55352100  1
  S  S23  1  0.00000000  0.00000000  0.83927900  1
  S  S24  1  0.33333300  0.66666700  0.05356200  1
  S  S25  1  0.66666700  0.33333300  0.26785000  1
  S  S26  1  0.00000000  0.00000000  0.62504000  1
  S  S27  1  0.66666700  0.33333300  0.12495100  1
