# generated using pymatgen
data_NaSbMoO5
_symmetry_space_group_name_H-M   'P 1'
_cell_length_a   11.20099800
_cell_length_b   5.73584400
_cell_length_c   8.69752035
_cell_angle_alpha   77.30717703
_cell_angle_beta   90.00000000
_cell_angle_gamma   90.00000000
_symmetry_Int_Tables_number   1
_chemical_formula_structural   NaSbMoO5
_chemical_formula_sum   'Na4 Sb4 Mo4 O20'
_cell_volume   545.13543514
_cell_formula_units_Z   4
loop_
 _symmetry_equiv_pos_site_id
 _symmetry_equiv_pos_as_xyz
  1  'x, y, z'
loop_
 _atom_site_type_symbol
 _atom_site_label
 _atom_site_symmetry_multiplicity
 _atom_site_fract_x
 _atom_site_fract_y
 _atom_site_fract_z
 _atom_site_occupancy
  Na  Na0  1  0.35994600  0.46680600  0.58463700  1
  Na  Na1  1  0.14005400  0.96680600  0.58463700  1
  Na  Na2  1  0.85994600  0.03319400  0.41536300  1
  Na  Na3  1  0.64005400  0.53319400  0.41536300  1
  Sb  Sb4  1  0.16412700  0.18025400  0.94982900  1
  Sb  Sb5  1  0.83587300  0.81974600  0.05017100  1
  Sb  Sb6  1  0.66412700  0.31974600  0.05017100  1
  Sb  Sb7  1  0.33587300  0.68025400  0.94982900  1
  Mo  Mo8  1  0.40813700  0.05799600  0.29676700  1
  Mo  Mo9  1  0.09186300  0.55799600  0.29676700  1
  Mo  Mo10  1  0.59186300  0.94200400  0.70323300  1
  Mo  Mo11  1  0.90813700  0.44200400  0.70323300  1
  O  O12  1  0.95801000  0.74872400  0.25073900  1
  O  O13  1  0.81864500  0.34057700  0.56357100  1
  O  O14  1  0.54199000  0.24872400  0.25073900  1
  O  O15  1  0.95347600  0.74088600  0.62835700  1
  O  O16  1  0.17290900  0.57538200  0.11245400  1
  O  O17  1  0.32709100  0.07538200  0.11245400  1
  O  O18  1  0.45347600  0.75911400  0.37164300  1
  O  O19  1  0.54652400  0.24088600  0.62835700  1
  O  O20  1  0.73699000  0.54914200  0.16646500  1
  O  O21  1  0.45801000  0.75127600  0.74926100  1
  O  O22  1  0.31864500  0.15942300  0.43642900  1
  O  O23  1  0.23699000  0.95085800  0.83353500  1
  O  O24  1  0.68135500  0.84057700  0.56357100  1
  O  O25  1  0.67290900  0.92461800  0.88754600  1
  O  O26  1  0.26301000  0.45085800  0.83353500  1
  O  O27  1  0.04652400  0.25911400  0.37164300  1
  O  O28  1  0.82709100  0.42461800  0.88754600  1
  O  O29  1  0.04199000  0.25127600  0.74926100  1
  O  O30  1  0.76301000  0.04914200  0.16646500  1
  O  O31  1  0.18135500  0.65942300  0.43642900  1
