# generated using pymatgen
data_NpV4O12
_symmetry_space_group_name_H-M   'P 1'
_cell_length_a   15.83664349
_cell_length_b   15.83664349
_cell_length_c   15.83664349
_cell_angle_alpha   148.24106582
_cell_angle_beta   148.24106582
_cell_angle_gamma   45.52962970
_symmetry_Int_Tables_number   1
_chemical_formula_structural   NpV4O12
_chemical_formula_sum   'Np4 V16 O48'
_cell_volume   1096.74645866
_cell_formula_units_Z   4
loop_
 _symmetry_equiv_pos_site_id
 _symmetry_equiv_pos_as_xyz
  1  'x, y, z'
loop_
 _atom_site_type_symbol
 _atom_site_label
 _atom_site_symmetry_multiplicity
 _atom_site_fract_x
 _atom_site_fract_y
 _atom_site_fract_z
 _atom_site_occupancy
  Np  Np0  1  0.50000000  0.00000000  0.50000000  1
  Np  Np1  1  0.25000000  0.25000000  0.00000000  1
  Np  Np2  1  0.75000000  0.75000000  0.00000000  1
  Np  Np3  1  0.00000000  0.50000000  0.50000000  1
  V  V4  1  0.67810800  0.17990400  0.21121200  1
  V  V5  1  0.82009600  0.03130800  0.49820400  1
  V  V6  1  0.46869200  0.67990400  0.50179600  1
  V  V7  1  0.17810800  0.96689500  0.49820400  1
  V  V8  1  0.92990400  0.21869200  0.00179600  1
  V  V9  1  0.78130800  0.78310500  0.71121200  1
  V  V10  1  0.07189200  0.07009600  0.28878800  1
  V  V11  1  0.28130800  0.57009600  0.99820400  1
  V  V12  1  0.71689500  0.71869200  0.28878800  1
  V  V13  1  0.96869200  0.46689500  0.78878800  1
  V  V14  1  0.42990400  0.42810800  0.71121200  1
  V  V15  1  0.32009600  0.82189200  0.78878800  1
  V  V16  1  0.57189200  0.28310500  0.00179600  1
  V  V17  1  0.03310500  0.53130800  0.21121200  1
  V  V18  1  0.53310500  0.32189200  0.50179600  1
  V  V19  1  0.21689500  0.92810800  0.99820400  1
  O  O20  1  0.43559400  0.37500000  0.56059400  1
  O  O21  1  0.91456500  0.91456500  0.00000000  1
  O  O22  1  0.51603800  0.21583500  0.16173800  1
  O  O23  1  0.60430000  0.80409700  0.33826200  1
  O  O24  1  0.35851800  0.98633500  0.24192300  1
  O  O25  1  0.69590300  0.89570000  0.66173800  1
  O  O26  1  0.08543500  0.08543500  0.00000000  1
  O  O27  1  0.39148200  0.26366500  0.25807700  1
  O  O28  1  0.83543500  0.33543500  0.50000000  1
  O  O29  1  0.74441200  0.11659500  0.75807700  1
  O  O30  1  0.28416500  0.98396200  0.83826200  1
  O  O31  1  0.19590300  0.53416500  0.80020300  1
  O  O32  1  0.88340500  0.64148200  0.62781700  1
  O  O33  1  0.73396200  0.39570000  0.19979700  1
  O  O34  1  0.23633500  0.10851800  0.74192300  1
  O  O35  1  0.55409700  0.71583500  0.69979700  1
  O  O36  1  0.41456500  0.41456500  0.00000000  1
  O  O37  1  0.46583500  0.26603800  0.66173800  1
  O  O38  1  0.64570000  0.48396200  0.69979700  1
  O  O39  1  0.31440600  0.87500000  0.93940600  1
  O  O40  1  0.10430000  0.76603800  0.80020300  1
  O  O41  1  0.96583500  0.30409700  0.19979700  1
  O  O42  1  0.00558800  0.13340500  0.74192300  1
  O  O43  1  0.50558800  0.76366500  0.87218300  1
  O  O44  1  0.33543500  0.83543500  0.50000000  1
  O  O45  1  0.24441200  0.48633500  0.62781700  1
  O  O46  1  0.62500000  0.68559400  0.56059400  1
  O  O47  1  0.86659500  0.60851800  0.87218300  1
  O  O48  1  0.73633500  0.99441200  0.12781700  1
  O  O49  1  0.51366500  0.14148200  0.75807700  1
  O  O50  1  0.81440600  0.87500000  0.43940600  1
  O  O51  1  0.16456500  0.66456500  0.50000000  1
  O  O52  1  0.58543500  0.58543500  0.00000000  1
  O  O53  1  0.14570000  0.44590300  0.16173800  1
  O  O54  1  0.05409700  0.35430000  0.83826200  1
  O  O55  1  0.36659500  0.49441200  0.25807700  1
  O  O56  1  0.12500000  0.56440600  0.93940600  1
  O  O57  1  0.78416500  0.94590300  0.30020300  1
  O  O58  1  0.93559400  0.37500000  0.06059400  1
  O  O59  1  0.01366500  0.25558800  0.37218300  1
  O  O60  1  0.38340500  0.75558800  0.24192300  1
  O  O61  1  0.01603800  0.85430000  0.30020300  1
  O  O62  1  0.89148200  0.63340500  0.12781700  1
  O  O63  1  0.85851800  0.61659500  0.37218300  1
  O  O64  1  0.62500000  0.18559400  0.06059400  1
  O  O65  1  0.23396200  0.03416500  0.33826200  1
  O  O66  1  0.12500000  0.06440600  0.43940600  1
  O  O67  1  0.66456500  0.16456500  0.50000000  1
