# generated using pymatgen
data_VO3
_symmetry_space_group_name_H-M   'P 1'
_cell_length_a   6.15597249
_cell_length_b   6.15597249
_cell_length_c   12.47787365
_cell_angle_alpha   86.44387495
_cell_angle_beta   86.44387495
_cell_angle_gamma   34.63136092
_symmetry_Int_Tables_number   1
_chemical_formula_structural   VO3
_chemical_formula_sum   'V4 O12'
_cell_volume   268.15666157
_cell_formula_units_Z   4
loop_
 _symmetry_equiv_pos_site_id
 _symmetry_equiv_pos_as_xyz
  1  'x, y, z'
loop_
 _atom_site_type_symbol
 _atom_site_label
 _atom_site_symmetry_multiplicity
 _atom_site_fract_x
 _atom_site_fract_y
 _atom_site_fract_z
 _atom_site_occupancy
  V  V0  1  0.07563900  0.07563900  0.86297600  1
  V  V1  1  0.92436100  0.92436100  0.13702400  1
  V  V2  1  0.78356700  0.78356700  0.86137900  1
  V  V3  1  0.21643300  0.21643300  0.13862100  1
  O  O4  1  0.61206000  0.61206000  0.89139600  1
  O  O5  1  0.38794000  0.38794000  0.10860400  1
  O  O6  1  0.92616900  0.92616900  0.91282700  1
  O  O7  1  0.07383100  0.07383100  0.08717300  1
  O  O8  1  0.24577900  0.24577900  0.89590700  1
  O  O9  1  0.75422100  0.75422100  0.10409300  1
  O  O10  1  0.07386000  0.07386000  0.73501300  1
  O  O11  1  0.92614000  0.92614000  0.26498700  1
  O  O12  1  0.80329900  0.80329900  0.73363700  1
  O  O13  1  0.19670100  0.19670100  0.26636300  1
  O  O14  1  0.44790900  0.44790900  0.49638200  1
  O  O15  1  0.55209100  0.55209100  0.50361800  1
