# generated using pymatgen
data_Na3Fe2(PO4)3
_symmetry_space_group_name_H-M   'P 1'
_cell_length_a   8.84698128
_cell_length_b   8.84698128
_cell_length_c   8.90897937
_cell_angle_alpha   59.75687650
_cell_angle_beta   59.75687650
_cell_angle_gamma   60.15068847
_symmetry_Int_Tables_number   1
_chemical_formula_structural   Na3Fe2(PO4)3
_chemical_formula_sum   'Na6 Fe4 P6 O24'
_cell_volume   491.79699861
_cell_formula_units_Z   2
loop_
 _symmetry_equiv_pos_site_id
 _symmetry_equiv_pos_as_xyz
  1  'x, y, z'
loop_
 _atom_site_type_symbol
 _atom_site_label
 _atom_site_symmetry_multiplicity
 _atom_site_fract_x
 _atom_site_fract_y
 _atom_site_fract_z
 _atom_site_occupancy
  Na  Na0  1  0.24840200  0.10902000  0.38398700  1
  Na  Na1  1  0.75159800  0.89098000  0.61601300  1
  Na  Na2  1  0.10902000  0.24840200  0.88398700  1
  Na  Na3  1  0.89098000  0.75159800  0.11601300  1
  Na  Na4  1  0.00000000  0.50000000  0.50000000  1
  Na  Na5  1  0.50000000  0.00000000  0.00000000  1
  Fe  Fe6  1  0.64220700  0.15335500  0.14646700  1
  Fe  Fe7  1  0.84664500  0.35779300  0.35353300  1
  Fe  Fe8  1  0.35779300  0.84664500  0.85353300  1
  Fe  Fe9  1  0.15335500  0.64220700  0.64646700  1
  P  P10  1  0.25259500  0.45016200  0.03660100  1
  P  P11  1  0.54983800  0.74740500  0.46339900  1
  P  P12  1  0.04414200  0.95585800  0.25000000  1
  P  P13  1  0.74740500  0.54983800  0.96339900  1
  P  P14  1  0.45016200  0.25259500  0.53660100  1
  P  P15  1  0.95585800  0.04414200  0.75000000  1
  O  O16  1  0.56438200  0.91310700  0.27620200  1
  O  O17  1  0.37491100  0.70981800  0.51407800  1
  O  O18  1  0.41648100  0.26839000  0.06727500  1
  O  O19  1  0.08689300  0.43561800  0.22379800  1
  O  O20  1  0.06172900  0.77934400  0.42191500  1
  O  O21  1  0.93827100  0.22065600  0.57808500  1
  O  O22  1  0.20164900  0.46785600  0.88474400  1
  O  O23  1  0.62508900  0.29018200  0.48592200  1
  O  O24  1  0.73161000  0.58351900  0.43272500  1
  O  O25  1  0.12685700  0.01533800  0.78241900  1
  O  O26  1  0.43561800  0.08689300  0.72379800  1
  O  O27  1  0.77934400  0.06172900  0.92191500  1
  O  O28  1  0.29018200  0.62508900  0.98592200  1
  O  O29  1  0.46785600  0.20164900  0.38474400  1
  O  O30  1  0.58351900  0.73161000  0.93272500  1
  O  O31  1  0.98466200  0.87314300  0.71758100  1
  O  O32  1  0.87314300  0.98466200  0.21758100  1
  O  O33  1  0.79835100  0.53214400  0.11525600  1
  O  O34  1  0.91310700  0.56438200  0.77620200  1
  O  O35  1  0.22065600  0.93827100  0.07808500  1
  O  O36  1  0.26839000  0.41648100  0.56727500  1
  O  O37  1  0.70981800  0.37491100  0.01407800  1
  O  O38  1  0.53214400  0.79835100  0.61525600  1
  O  O39  1  0.01533800  0.12685700  0.28241900  1
