# generated using pymatgen
data_K3SO4F
_symmetry_space_group_name_H-M   'P 1'
_cell_length_a   7.60991994
_cell_length_b   7.60991994
_cell_length_c   7.60991994
_cell_angle_alpha   121.90274322
_cell_angle_beta   121.90274322
_cell_angle_gamma   86.73478200
_symmetry_Int_Tables_number   1
_chemical_formula_structural   K3SO4F
_chemical_formula_sum   'K6 S2 O8 F2'
_cell_volume   302.12396432
_cell_formula_units_Z   2
loop_
 _symmetry_equiv_pos_site_id
 _symmetry_equiv_pos_as_xyz
  1  'x, y, z'
loop_
 _atom_site_type_symbol
 _atom_site_label
 _atom_site_symmetry_multiplicity
 _atom_site_fract_x
 _atom_site_fract_y
 _atom_site_fract_z
 _atom_site_occupancy
  K  K0  1  0.19296200  0.69296200  0.88592400  1
  K  K1  1  0.75000000  0.75000000  0.00000000  1
  K  K2  1  0.30703800  0.19296200  0.50000000  1
  K  K3  1  0.80703800  0.30703800  0.11407600  1
  K  K4  1  0.69296200  0.80703800  0.50000000  1
  K  K5  1  0.25000000  0.25000000  0.00000000  1
  S  S6  1  0.75000000  0.25000000  0.50000000  1
  S  S7  1  0.25000000  0.75000000  0.50000000  1
  O  O8  1  0.05490000  0.78740100  0.50000000  1
  O  O9  1  0.44510000  0.94510000  0.73250100  1
  O  O10  1  0.78740100  0.28740100  0.73250100  1
  O  O11  1  0.21259900  0.71259900  0.26749900  1
  O  O12  1  0.28740100  0.55490000  0.50000000  1
  O  O13  1  0.55490000  0.05490000  0.26749900  1
  O  O14  1  0.71259900  0.44510000  0.50000000  1
  O  O15  1  0.94510000  0.21259900  0.50000000  1
  F  F16  1  0.50000000  0.50000000  0.00000000  1
  F  F17  1  0.00000000  0.00000000  0.00000000  1
