# generated using pymatgen
data_GaAgS2
_symmetry_space_group_name_H-M   'P 1'
_cell_length_a   5.77884361
_cell_length_b   5.77884361
_cell_length_c   6.63277695
_cell_angle_alpha   64.77740595
_cell_angle_beta   64.77740595
_cell_angle_gamma   90.05703975
_symmetry_Int_Tables_number   1
_chemical_formula_structural   GaAgS2
_chemical_formula_sum   'Ga2 Ag2 S4'
_cell_volume   176.70979901
_cell_formula_units_Z   2
loop_
 _symmetry_equiv_pos_site_id
 _symmetry_equiv_pos_as_xyz
  1  'x, y, z'
loop_
 _atom_site_type_symbol
 _atom_site_label
 _atom_site_symmetry_multiplicity
 _atom_site_fract_x
 _atom_site_fract_y
 _atom_site_fract_z
 _atom_site_occupancy
  Ga  Ga0  1  0.36778400  0.61271300  0.99230700  1
  Ga  Ga1  1  0.61271300  0.36778400  0.49230700  1
  Ag  Ag2  1  0.89961100  0.10598100  0.99474800  1
  Ag  Ag3  1  0.10598100  0.89961100  0.49474800  1
  S  S4  1  0.27788400  0.50663600  0.73035200  1
  S  S5  1  0.99526000  0.69013100  0.25759400  1
  S  S6  1  0.50663600  0.27788400  0.23035200  1
  S  S7  1  0.69013100  0.99526000  0.75759400  1
