# generated using pymatgen
data_Y3Si2Cl5O6
_symmetry_space_group_name_H-M   'P 1'
_cell_length_a   7.47494223
_cell_length_b   7.47494223
_cell_length_c   11.73300419
_cell_angle_alpha   80.60674702
_cell_angle_beta   80.60674702
_cell_angle_gamma   88.66100032
_symmetry_Int_Tables_number   1
_chemical_formula_structural   Y3Si2Cl5O6
_chemical_formula_sum   'Y6 Si4 Cl10 O12'
_cell_volume   638.11227159
_cell_formula_units_Z   2
loop_
 _symmetry_equiv_pos_site_id
 _symmetry_equiv_pos_as_xyz
  1  'x, y, z'
loop_
 _atom_site_type_symbol
 _atom_site_label
 _atom_site_symmetry_multiplicity
 _atom_site_fract_x
 _atom_site_fract_y
 _atom_site_fract_z
 _atom_site_occupancy
  Y  Y0  1  0.41658300  0.91805400  0.33036600  1
  Y  Y1  1  0.58341700  0.08194600  0.66963400  1
  Y  Y2  1  0.00000000  0.50000000  0.00000000  1
  Y  Y3  1  0.91805400  0.41658300  0.33036600  1
  Y  Y4  1  0.08194600  0.58341700  0.66963400  1
  Y  Y5  1  0.50000000  0.00000000  0.00000000  1
  Si  Si6  1  0.88998600  0.18199600  0.85567800  1
  Si  Si7  1  0.81800400  0.11001400  0.14432200  1
  Si  Si8  1  0.18199600  0.88998600  0.85567800  1
  Si  Si9  1  0.11001400  0.81800400  0.14432200  1
  Cl  Cl10  1  0.68501700  0.68501700  0.00159500  1
  Cl  Cl11  1  0.62086000  0.62086000  0.35533600  1
  Cl  Cl12  1  0.88104100  0.33015600  0.57881900  1
  Cl  Cl13  1  0.66984400  0.11895900  0.42118100  1
  Cl  Cl14  1  0.78379500  0.78379500  0.66170500  1
  Cl  Cl15  1  0.31498300  0.31498300  0.99840500  1
  Cl  Cl16  1  0.33015600  0.88104100  0.57881900  1
  Cl  Cl17  1  0.21620500  0.21620500  0.33829500  1
  Cl  Cl18  1  0.11895900  0.66984400  0.42118100  1
  Cl  Cl19  1  0.37914000  0.37914000  0.64466400  1
  O  O20  1  0.04689200  0.04689200  0.80550000  1
  O  O21  1  0.69222800  0.13234300  0.82808900  1
  O  O22  1  0.13234300  0.69222800  0.82808900  1
  O  O23  1  0.95310800  0.95310800  0.19450000  1
  O  O24  1  0.95614800  0.39259000  0.82811400  1
  O  O25  1  0.30777200  0.86765700  0.17191100  1
  O  O26  1  0.39259000  0.95614800  0.82811400  1
  O  O27  1  0.60741000  0.04385200  0.17188600  1
  O  O28  1  0.14246700  0.85753300  0.00000000  1
  O  O29  1  0.04385200  0.60741000  0.17188600  1
  O  O30  1  0.85753300  0.14246700  0.00000000  1
  O  O31  1  0.86765700  0.30777200  0.17191100  1
