# generated using pymatgen
data_CaTa2Bi2O9
_symmetry_space_group_name_H-M   'P 1'
_cell_length_a   13.46934785
_cell_length_b   13.46934785
_cell_length_c   13.46934785
_cell_angle_alpha   163.84137319
_cell_angle_beta   163.84137319
_cell_angle_gamma   22.92878610
_symmetry_Int_Tables_number   1
_chemical_formula_structural   CaTa2Bi2O9
_chemical_formula_sum   'Ca1 Ta2 Bi2 O9'
_cell_volume   189.22149091
_cell_formula_units_Z   1
loop_
 _symmetry_equiv_pos_site_id
 _symmetry_equiv_pos_as_xyz
  1  'x, y, z'
loop_
 _atom_site_type_symbol
 _atom_site_label
 _atom_site_symmetry_multiplicity
 _atom_site_fract_x
 _atom_site_fract_y
 _atom_site_fract_z
 _atom_site_occupancy
  Ca  Ca0  1  0.50000000  0.50000000  0.00000000  1
  Ta  Ta1  1  0.92046200  0.92046200  0.00000000  1
  Ta  Ta2  1  0.07953800  0.07953800  0.00000000  1
  Bi  Bi3  1  0.20001300  0.20001300  0.00000000  1
  Bi  Bi4  1  0.79998700  0.79998700  0.00000000  1
  O  O5  1  0.43481700  0.93481700  0.50000000  1
  O  O6  1  0.34507000  0.34507000  0.00000000  1
  O  O7  1  0.75000000  0.25000000  0.50000000  1
  O  O8  1  0.25000000  0.75000000  0.50000000  1
  O  O9  1  0.93481700  0.43481700  0.50000000  1
  O  O10  1  0.56518300  0.06518300  0.50000000  1
  O  O11  1  0.06518300  0.56518300  0.50000000  1
  O  O12  1  0.65493000  0.65493000  0.00000000  1
  O  O13  1  0.00000000  0.00000000  0.00000000  1
