# generated using pymatgen
data_Ba5Ru2Cl2O9
_symmetry_space_group_name_H-M   'P 1'
_cell_length_a   6.02961300
_cell_length_b   14.52819600
_cell_length_c   15.57496800
_cell_angle_alpha   90.00000000
_cell_angle_beta   90.00000000
_cell_angle_gamma   90.00000000
_symmetry_Int_Tables_number   1
_chemical_formula_structural   Ba5Ru2Cl2O9
_chemical_formula_sum   'Ba20 Ru8 Cl8 O36'
_cell_volume   1364.35784354
_cell_formula_units_Z   4
loop_
 _symmetry_equiv_pos_site_id
 _symmetry_equiv_pos_as_xyz
  1  'x, y, z'
loop_
 _atom_site_type_symbol
 _atom_site_label
 _atom_site_symmetry_multiplicity
 _atom_site_fract_x
 _atom_site_fract_y
 _atom_site_fract_z
 _atom_site_occupancy
  Ba  Ba0  1  0.75000000  0.72998900  0.50208900  1
  Ba  Ba1  1  0.25000000  0.67173300  0.79098200  1
  Ba  Ba2  1  0.75000000  0.01997700  0.37297000  1
  Ba  Ba3  1  0.25000000  0.51997700  0.12703000  1
  Ba  Ba4  1  0.75000000  0.44218700  0.43018000  1
  Ba  Ba5  1  0.25000000  0.27001100  0.49791100  1
  Ba  Ba6  1  0.75000000  0.85409800  0.76048300  1
  Ba  Ba7  1  0.75000000  0.64590200  0.26048300  1
  Ba  Ba8  1  0.75000000  0.17173300  0.70901800  1
  Ba  Ba9  1  0.75000000  0.05781300  0.93018000  1
  Ba  Ba10  1  0.25000000  0.98002300  0.62703000  1
  Ba  Ba11  1  0.75000000  0.48002300  0.87297000  1
  Ba  Ba12  1  0.75000000  0.32826700  0.20901800  1
  Ba  Ba13  1  0.25000000  0.94218700  0.06982000  1
  Ba  Ba14  1  0.25000000  0.22998900  0.99791100  1
  Ba  Ba15  1  0.25000000  0.82826700  0.29098200  1
  Ba  Ba16  1  0.25000000  0.35409800  0.73951700  1
  Ba  Ba17  1  0.25000000  0.55781300  0.56982000  1
  Ba  Ba18  1  0.75000000  0.77001100  0.00208900  1
  Ba  Ba19  1  0.25000000  0.14590200  0.23951700  1
  Ru  Ru20  1  0.75000000  0.43782800  0.65407500  1
  Ru  Ru21  1  0.25000000  0.93782800  0.84592500  1
  Ru  Ru22  1  0.25000000  0.37485100  0.30255300  1
  Ru  Ru23  1  0.25000000  0.12514900  0.80255300  1
  Ru  Ru24  1  0.75000000  0.87485100  0.19744700  1
  Ru  Ru25  1  0.25000000  0.56217200  0.34592500  1
  Ru  Ru26  1  0.75000000  0.62514900  0.69744700  1
  Ru  Ru27  1  0.75000000  0.06217200  0.15407500  1
  Cl  Cl28  1  0.25000000  0.44455000  0.92733900  1
  Cl  Cl29  1  0.75000000  0.94455000  0.57266100  1
  Cl  Cl30  1  0.75000000  0.55545000  0.07266100  1
  Cl  Cl31  1  0.25000000  0.68592900  0.99099400  1
  Cl  Cl32  1  0.25000000  0.81407100  0.49099400  1
  Cl  Cl33  1  0.75000000  0.18592900  0.50900600  1
  Cl  Cl34  1  0.75000000  0.31407100  0.00900600  1
  Cl  Cl35  1  0.25000000  0.05545000  0.42733900  1
  O  O36  1  0.50854100  0.11313200  0.09096300  1
  O  O37  1  0.02243100  0.20382500  0.84282400  1
  O  O38  1  0.47756900  0.29617500  0.34282400  1
  O  O39  1  0.25000000  0.64882900  0.25411200  1
  O  O40  1  0.25000000  0.33036800  0.18313500  1
  O  O41  1  0.75000000  0.94392200  0.07968400  1
  O  O42  1  0.75000000  0.66963200  0.81686500  1
  O  O43  1  0.47836400  0.01993200  0.77333400  1
  O  O44  1  0.75000000  0.14882900  0.24588800  1
  O  O45  1  0.97756900  0.79617500  0.15717600  1
  O  O46  1  0.25000000  0.05607800  0.92031600  1
  O  O47  1  0.75000000  0.35117100  0.74588800  1
  O  O48  1  0.25000000  0.85117100  0.75411200  1
  O  O49  1  0.52243100  0.70382500  0.65717600  1
  O  O50  1  0.99145900  0.11313200  0.09096300  1
  O  O51  1  0.47756900  0.20382500  0.84282400  1
  O  O52  1  0.52163600  0.98006800  0.22666600  1
  O  O53  1  0.50854100  0.38686800  0.59096300  1
  O  O54  1  0.52163600  0.51993200  0.72666600  1
  O  O55  1  0.00854100  0.61313200  0.40903700  1
  O  O56  1  0.49145900  0.61313200  0.40903700  1
  O  O57  1  0.99145900  0.38686800  0.59096300  1
  O  O58  1  0.02243100  0.29617500  0.34282400  1
  O  O59  1  0.00854100  0.88686800  0.90903700  1
  O  O60  1  0.02163600  0.48006800  0.27333400  1
  O  O61  1  0.97756900  0.70382500  0.65717600  1
  O  O62  1  0.02163600  0.01993200  0.77333400  1
  O  O63  1  0.52243100  0.79617500  0.15717600  1
  O  O64  1  0.97836400  0.98006800  0.22666600  1
  O  O65  1  0.75000000  0.55607800  0.57968400  1
  O  O66  1  0.25000000  0.44392200  0.42031600  1
  O  O67  1  0.49145900  0.88686800  0.90903700  1
  O  O68  1  0.47836400  0.48006800  0.27333400  1
  O  O69  1  0.75000000  0.83036800  0.31686500  1
  O  O70  1  0.97836400  0.51993200  0.72666600  1
  O  O71  1  0.25000000  0.16963200  0.68313500  1
