# generated using pymatgen
data_Nd2O3
_symmetry_space_group_name_H-M   'P 1'
_cell_length_a   7.50546335
_cell_length_b   7.50546335
_cell_length_c   9.05741714
_cell_angle_alpha   80.15714555
_cell_angle_beta   80.15714555
_cell_angle_gamma   28.59617074
_symmetry_Int_Tables_number   1
_chemical_formula_structural   Nd2O3
_chemical_formula_sum   'Nd6 O9'
_cell_volume   240.37926008
_cell_formula_units_Z   3
loop_
 _symmetry_equiv_pos_site_id
 _symmetry_equiv_pos_as_xyz
  1  'x, y, z'
loop_
 _atom_site_type_symbol
 _atom_site_label
 _atom_site_symmetry_multiplicity
 _atom_site_fract_x
 _atom_site_fract_y
 _atom_site_fract_z
 _atom_site_occupancy
  Nd  Nd0  1  0.36553400  0.36553400  0.48980900  1
  Nd  Nd1  1  0.63446600  0.63446600  0.51019100  1
  Nd  Nd2  1  0.69073300  0.69073300  0.86214300  1
  Nd  Nd3  1  0.03319800  0.03319800  0.18825100  1
  Nd  Nd4  1  0.30926700  0.30926700  0.13785700  1
  Nd  Nd5  1  0.96680200  0.96680200  0.81174900  1
  O  O6  1  0.52623200  0.52623200  0.34400900  1
  O  O7  1  0.47376800  0.47376800  0.65599100  1
  O  O8  1  0.79811900  0.79811900  0.62689300  1
  O  O9  1  0.87081900  0.87081900  0.28564800  1
  O  O10  1  0.50000000  0.50000000  0.00000000  1
  O  O11  1  0.12918100  0.12918100  0.71435200  1
  O  O12  1  0.17533500  0.17533500  0.02662800  1
  O  O13  1  0.82466500  0.82466500  0.97337200  1
  O  O14  1  0.20188100  0.20188100  0.37310700  1
