# generated using pymatgen
data_KCoO2
_symmetry_space_group_name_H-M   'P 1'
_cell_length_a   5.43138549
_cell_length_b   5.43138549
_cell_length_c   5.43138549
_cell_angle_alpha   115.01959359
_cell_angle_beta   115.01959359
_cell_angle_gamma   98.86713479
_symmetry_Int_Tables_number   1
_chemical_formula_structural   KCoO2
_chemical_formula_sum   'K2 Co2 O4'
_cell_volume   120.26106874
_cell_formula_units_Z   2
loop_
 _symmetry_equiv_pos_site_id
 _symmetry_equiv_pos_as_xyz
  1  'x, y, z'
loop_
 _atom_site_type_symbol
 _atom_site_label
 _atom_site_symmetry_multiplicity
 _atom_site_fract_x
 _atom_site_fract_y
 _atom_site_fract_z
 _atom_site_occupancy
  K  K0  1  0.50000000  0.50000000  0.00000000  1
  K  K1  1  0.25000000  0.75000000  0.50000000  1
  Co  Co2  1  0.00000000  0.00000000  0.00000000  1
  Co  Co3  1  0.75000000  0.25000000  0.50000000  1
  O  O4  1  0.72301800  0.07760100  0.10629800  1
  O  O5  1  0.97130300  0.61671900  0.89370200  1
  O  O6  1  0.38328100  0.27698200  0.35458300  1
  O  O7  1  0.92239900  0.02869700  0.64541700  1
