# generated using pymatgen
data_Ba5B4(O5F)2
_symmetry_space_group_name_H-M   'P 1'
_cell_length_a   11.11509333
_cell_length_b   11.11509333
_cell_length_c   8.73350921
_cell_angle_alpha   85.02128260
_cell_angle_beta   85.02128260
_cell_angle_gamma   37.79051606
_symmetry_Int_Tables_number   1
_chemical_formula_structural   Ba5B4(O5F)2
_chemical_formula_sum   'Ba10 B8 O20 F4'
_cell_volume   658.38828435
_cell_formula_units_Z   2
loop_
 _symmetry_equiv_pos_site_id
 _symmetry_equiv_pos_as_xyz
  1  'x, y, z'
loop_
 _atom_site_type_symbol
 _atom_site_label
 _atom_site_symmetry_multiplicity
 _atom_site_fract_x
 _atom_site_fract_y
 _atom_site_fract_z
 _atom_site_occupancy
  Ba  Ba0  1  0.44498100  0.55501900  0.75000000  1
  Ba  Ba1  1  0.20178600  0.96891500  0.39186400  1
  Ba  Ba2  1  0.55501900  0.44498100  0.25000000  1
  Ba  Ba3  1  0.18642600  0.41267800  0.80546800  1
  Ba  Ba4  1  0.81357400  0.58732200  0.19453200  1
  Ba  Ba5  1  0.03108500  0.79821400  0.10813600  1
  Ba  Ba6  1  0.58732200  0.81357400  0.69453200  1
  Ba  Ba7  1  0.96891500  0.20178600  0.89186400  1
  Ba  Ba8  1  0.79821400  0.03108500  0.60813600  1
  Ba  Ba9  1  0.41267800  0.18642600  0.30546800  1
  B  B10  1  0.94369600  0.68066500  0.41661300  1
  B  B11  1  0.77567700  0.41244700  0.50558000  1
  B  B12  1  0.31933500  0.05630400  0.08338700  1
  B  B13  1  0.05630400  0.31933500  0.58338700  1
  B  B14  1  0.58755300  0.22432300  0.99442000  1
  B  B15  1  0.22432300  0.58755300  0.49442000  1
  B  B16  1  0.68066500  0.94369600  0.91661300  1
  B  B17  1  0.41244700  0.77567700  0.00558000  1
  O  O18  1  0.35142100  0.94800300  0.96631600  1
  O  O19  1  0.94800300  0.35142100  0.46631600  1
  O  O20  1  0.19314100  0.72393700  0.41938600  1
  O  O21  1  0.27606300  0.80685900  0.08061400  1
  O  O22  1  0.57668400  0.04863300  0.78538100  1
  O  O23  1  0.40287500  0.40457100  0.54204100  1
  O  O24  1  0.72393700  0.19314100  0.91938600  1
  O  O25  1  0.25057900  0.18896100  0.55658900  1
  O  O26  1  0.04863300  0.57668400  0.28538100  1
  O  O27  1  0.59712500  0.59542900  0.45795900  1
  O  O28  1  0.40457100  0.40287500  0.04204100  1
  O  O29  1  0.18896100  0.25057900  0.05658900  1
  O  O30  1  0.81103900  0.74942100  0.94341100  1
  O  O31  1  0.74942100  0.81103900  0.44341100  1
  O  O32  1  0.80685900  0.27606300  0.58061400  1
  O  O33  1  0.95136700  0.42331600  0.71461900  1
  O  O34  1  0.64857900  0.05199700  0.03368400  1
  O  O35  1  0.59542900  0.59712500  0.95795900  1
  O  O36  1  0.05199700  0.64857900  0.53368400  1
  O  O37  1  0.42331600  0.95136700  0.21461900  1
  F  F38  1  0.25541100  0.90469200  0.69451700  1
  F  F39  1  0.90469200  0.25541100  0.19451700  1
  F  F40  1  0.74458900  0.09530800  0.30548300  1
  F  F41  1  0.09530800  0.74458900  0.80548300  1
