# generated using pymatgen
data_YbSmSe3
_symmetry_space_group_name_H-M   'P 1'
_cell_length_a   7.49944976
_cell_length_b   7.49944976
_cell_length_c   9.26056300
_cell_angle_alpha   90.00000000
_cell_angle_beta   90.00000000
_cell_angle_gamma   148.47840826
_symmetry_Int_Tables_number   1
_chemical_formula_structural   YbSmSe3
_chemical_formula_sum   'Yb2 Sm2 Se6'
_cell_volume   272.30038340
_cell_formula_units_Z   2
loop_
 _symmetry_equiv_pos_site_id
 _symmetry_equiv_pos_as_xyz
  1  'x, y, z'
loop_
 _atom_site_type_symbol
 _atom_site_label
 _atom_site_symmetry_multiplicity
 _atom_site_fract_x
 _atom_site_fract_y
 _atom_site_fract_z
 _atom_site_occupancy
  Yb  Yb0  1  0.00000000  0.00000000  0.00000000  1
  Yb  Yb1  1  0.00000000  0.00000000  0.50000000  1
  Sm  Sm2  1  0.24830200  0.75169800  0.75000000  1
  Sm  Sm3  1  0.75169800  0.24830200  0.25000000  1
  Se  Se4  1  0.11128000  0.88872000  0.25000000  1
  Se  Se5  1  0.88872000  0.11128000  0.75000000  1
  Se  Se6  1  0.64277600  0.35722400  0.57604900  1
  Se  Se7  1  0.35722400  0.64277600  0.42395100  1
  Se  Se8  1  0.64277600  0.35722400  0.92395100  1
  Se  Se9  1  0.35722400  0.64277600  0.07604900  1
