# generated using pymatgen
data_CuH3C2NO4
_symmetry_space_group_name_H-M   'P 1'
_cell_length_a   8.66412100
_cell_length_b   9.67038600
_cell_length_c   11.25667900
_cell_angle_alpha   90.00000000
_cell_angle_beta   90.00000000
_cell_angle_gamma   90.00000000
_symmetry_Int_Tables_number   1
_chemical_formula_structural   CuH3C2NO4
_chemical_formula_sum   'Cu8 H24 C16 N8 O32'
_cell_volume   943.14528988
_cell_formula_units_Z   8
loop_
 _symmetry_equiv_pos_site_id
 _symmetry_equiv_pos_as_xyz
  1  'x, y, z'
loop_
 _atom_site_type_symbol
 _atom_site_label
 _atom_site_symmetry_multiplicity
 _atom_site_fract_x
 _atom_site_fract_y
 _atom_site_fract_z
 _atom_site_occupancy
  Cu  Cu0  1  0.88679800  0.76033000  0.07358000  1
  Cu  Cu1  1  0.11320200  0.73967000  0.57358000  1
  Cu  Cu2  1  0.38679800  0.73967000  0.07358000  1
  Cu  Cu3  1  0.61320200  0.76033000  0.57358000  1
  Cu  Cu4  1  0.38679800  0.23967000  0.42642000  1
  Cu  Cu5  1  0.88679800  0.26033000  0.42642000  1
  Cu  Cu6  1  0.61320200  0.26033000  0.92642000  1
  Cu  Cu7  1  0.11320200  0.23967000  0.92642000  1
  H  H8  1  0.75089600  0.10915700  0.27282500  1
  H  H9  1  0.22472700  0.72697500  0.25985700  1
  H  H10  1  0.24910400  0.89084300  0.72717500  1
  H  H11  1  0.10965200  0.30366100  0.70569900  1
  H  H12  1  0.89034800  0.19633900  0.20569900  1
  H  H13  1  0.60965200  0.19633900  0.70569900  1
  H  H14  1  0.39034800  0.80366100  0.29430100  1
  H  H15  1  0.39034800  0.30366100  0.20569900  1
  H  H16  1  0.77527300  0.27302500  0.74014300  1
  H  H17  1  0.27527300  0.72697500  0.75985700  1
  H  H18  1  0.25089600  0.39084300  0.27282500  1
  H  H19  1  0.22472700  0.22697500  0.24014300  1
  H  H20  1  0.89034800  0.69633900  0.29430100  1
  H  H21  1  0.10965200  0.80366100  0.79430100  1
  H  H22  1  0.72472700  0.77302500  0.25985700  1
  H  H23  1  0.27527300  0.22697500  0.74014300  1
  H  H24  1  0.77527300  0.77302500  0.75985700  1
  H  H25  1  0.24910400  0.39084300  0.77282500  1
  H  H26  1  0.25089600  0.89084300  0.22717500  1
  H  H27  1  0.72472700  0.27302500  0.24014300  1
  H  H28  1  0.60965200  0.69633900  0.79430100  1
  H  H29  1  0.75089600  0.60915700  0.22717500  1
  H  H30  1  0.74910400  0.10915700  0.77282500  1
  H  H31  1  0.74910400  0.60915700  0.72717500  1
  C  C32  1  0.51183200  0.47768600  0.06467700  1
  C  C33  1  0.98816800  0.97768600  0.93532300  1
  C  C34  1  0.51183200  0.97768600  0.43532300  1
  C  C35  1  0.98816800  0.47768600  0.56467700  1
  C  C36  1  0.08488100  0.51330800  0.01963600  1
  C  C37  1  0.08488100  0.01330800  0.48036400  1
  C  C38  1  0.01183200  0.02231400  0.06467700  1
  C  C39  1  0.91511900  0.48669200  0.98036400  1
  C  C40  1  0.58488100  0.98669200  0.01963600  1
  C  C41  1  0.48816800  0.02231400  0.56467700  1
  C  C42  1  0.41511900  0.01330800  0.98036400  1
  C  C43  1  0.91511900  0.98669200  0.51963600  1
  C  C44  1  0.41511900  0.51330800  0.51963600  1
  C  C45  1  0.48816800  0.52231400  0.93532300  1
  C  C46  1  0.01183200  0.52231400  0.43532300  1
  C  C47  1  0.58488100  0.48669200  0.48036400  1
  N  N48  1  0.30514900  0.79715600  0.23125300  1
  N  N49  1  0.19485100  0.79715600  0.73125300  1
  N  N50  1  0.80514900  0.70284400  0.23125300  1
  N  N51  1  0.80514900  0.20284400  0.26874700  1
  N  N52  1  0.19485100  0.29715600  0.76874700  1
  N  N53  1  0.69485100  0.20284400  0.76874700  1
  N  N54  1  0.30514900  0.29715600  0.26874700  1
  N  N55  1  0.69485100  0.70284400  0.73125300  1
  O  O56  1  0.52180200  0.93598100  0.64525800  1
  O  O57  1  0.97819800  0.43598100  0.35474200  1
  O  O58  1  0.02180200  0.56401900  0.64525800  1
  O  O59  1  0.06266800  0.64407600  0.41708200  1
  O  O60  1  0.81775000  0.58464500  0.99586400  1
  O  O61  1  0.02180200  0.06401900  0.85474200  1
  O  O62  1  0.52180200  0.43598100  0.85474200  1
  O  O63  1  0.56266800  0.35592400  0.08291800  1
  O  O64  1  0.43733200  0.64407600  0.91708200  1
  O  O65  1  0.11642300  0.62914900  0.06400500  1
  O  O66  1  0.88357700  0.37085100  0.93599500  1
  O  O67  1  0.93733200  0.35592400  0.58291800  1
  O  O68  1  0.11642300  0.12914900  0.43599500  1
  O  O69  1  0.38357700  0.12914900  0.93599500  1
  O  O70  1  0.06266800  0.14407600  0.08291800  1
  O  O71  1  0.81775000  0.08464500  0.50413600  1
  O  O72  1  0.61642300  0.87085100  0.06400500  1
  O  O73  1  0.47819800  0.06401900  0.35474200  1
  O  O74  1  0.18225000  0.41535500  0.00413600  1
  O  O75  1  0.18225000  0.91535500  0.49586400  1
  O  O76  1  0.31775000  0.41535500  0.50413600  1
  O  O77  1  0.88357700  0.87085100  0.56400500  1
  O  O78  1  0.68225000  0.08464500  0.00413600  1
  O  O79  1  0.38357700  0.62914900  0.56400500  1
  O  O80  1  0.47819800  0.56401900  0.14525800  1
  O  O81  1  0.61642300  0.37085100  0.43599500  1
  O  O82  1  0.68225000  0.58464500  0.49586400  1
  O  O83  1  0.93733200  0.85592400  0.91708200  1
  O  O84  1  0.56266800  0.85592400  0.41708200  1
  O  O85  1  0.97819800  0.93598100  0.14525800  1
  O  O86  1  0.31775000  0.91535500  0.99586400  1
  O  O87  1  0.43733200  0.14407600  0.58291800  1
