# generated using pymatgen
data_Lu(PO3)3
_symmetry_space_group_name_H-M   'P 1'
_cell_length_a   12.32931890
_cell_length_b   12.32931890
_cell_length_c   10.08039365
_cell_angle_alpha   69.71293462
_cell_angle_beta   69.71293462
_cell_angle_gamma   110.14186539
_symmetry_Int_Tables_number   1
_chemical_formula_structural   Lu(PO3)3
_chemical_formula_sum   'Lu6 P18 O54'
_cell_volume   1144.85347968
_cell_formula_units_Z   6
loop_
 _symmetry_equiv_pos_site_id
 _symmetry_equiv_pos_as_xyz
  1  'x, y, z'
loop_
 _atom_site_type_symbol
 _atom_site_label
 _atom_site_symmetry_multiplicity
 _atom_site_fract_x
 _atom_site_fract_y
 _atom_site_fract_z
 _atom_site_occupancy
  Lu  Lu0  1  0.09350200  0.27031200  0.48331400  1
  Lu  Lu1  1  0.45348500  0.94314700  0.44848900  1
  Lu  Lu2  1  0.60392200  0.76034200  0.98509500  1
  Lu  Lu3  1  0.27031200  0.09350200  0.98331400  1
  Lu  Lu4  1  0.76034200  0.60392200  0.48509500  1
  Lu  Lu5  1  0.94314700  0.45348500  0.94848900  1
  P  P6  1  0.40609300  0.67780500  0.80736500  1
  P  P7  1  0.74162600  0.34408900  0.79264400  1
  P  P8  1  0.53805600  0.13788800  0.62893600  1
  P  P9  1  0.39354100  0.44955600  0.75735300  1
  P  P10  1  0.48367300  0.21097400  0.12729000  1
  P  P11  1  0.13788800  0.53805600  0.12893600  1
  P  P12  1  0.12039400  0.73694200  0.23947700  1
  P  P13  1  0.79830400  0.86353600  0.14808100  1
  P  P14  1  0.67780500  0.40609300  0.30736500  1
  P  P15  1  0.81509900  0.09352500  0.19110600  1
  P  P16  1  0.44955600  0.39354100  0.25735300  1
  P  P17  1  0.73694200  0.12039500  0.73947700  1
  P  P18  1  0.34408900  0.74162600  0.29264400  1
  P  P19  1  0.05975000  0.00043100  0.82215400  1
  P  P20  1  0.09352500  0.81509900  0.69110600  1
  P  P21  1  0.00043100  0.05975000  0.32215400  1
  P  P22  1  0.86353600  0.79830400  0.64808100  1
  P  P23  1  0.21097400  0.48367300  0.62729000  1
  O  O24  1  0.32024700  0.61894400  0.44705400  1
  O  O25  1  0.09364400  0.63242600  0.17792000  1
  O  O26  1  0.37642500  0.12195700  0.11202400  1
  O  O27  1  0.21751500  0.88035900  0.09175500  1
  O  O28  1  0.03499700  0.08249500  0.69997400  1
  O  O29  1  0.79570100  0.67092200  0.64915500  1
  O  O30  1  0.42237900  0.76179800  0.64491800  1
  O  O31  1  0.03581700  0.46215500  0.09680300  1
  O  O32  1  0.53164000  0.54363900  0.13227300  1
  O  O33  1  0.44629500  0.31479000  0.16020500  1
  O  O34  1  0.30539700  0.33111600  0.38992800  1
  O  O35  1  0.08249500  0.03499700  0.19997400  1
  O  O36  1  0.45614300  0.15997100  0.75514000  1
  O  O37  1  0.16085600  0.07503300  0.85619600  1
  O  O38  1  0.98195800  0.69965100  0.35922000  1
  O  O39  1  0.88201100  0.91954900  0.49645700  1
  O  O40  1  0.46215500  0.03581700  0.59680300  1
  O  O41  1  0.91954900  0.88201100  0.99645700  1
  O  O42  1  0.02066500  0.84928500  0.59084400  1
  O  O43  1  0.54363900  0.53164000  0.63227300  1
  O  O44  1  0.12195700  0.37642500  0.61202400  1
  O  O45  1  0.63242600  0.09364400  0.67792000  1
  O  O46  1  0.88035900  0.21751500  0.59175500  1
  O  O47  1  0.51482100  0.14201600  0.25102300  1
  O  O48  1  0.84928500  0.02066500  0.09084400  1
  O  O49  1  0.72900700  0.52484600  0.32813300  1
  O  O50  1  0.15997100  0.45614300  0.25514000  1
  O  O51  1  0.86811700  0.41637200  0.79098700  1
  O  O52  1  0.07503300  0.16085600  0.35619600  1
  O  O53  1  0.35299200  0.52302400  0.85293800  1
  O  O54  1  0.79568100  0.79414600  0.30524500  1
  O  O55  1  0.14201600  0.51482100  0.75102300  1
  O  O56  1  0.18931100  0.69897700  0.34424700  1
  O  O57  1  0.10559200  0.90857000  0.76882400  1
  O  O58  1  0.00550300  0.66832200  0.82958900  1
  O  O59  1  0.67092200  0.79570100  0.14915500  1
  O  O60  1  0.27813700  0.65518200  0.95449900  1
  O  O61  1  0.69897700  0.18931100  0.84424700  1
  O  O62  1  0.86659400  0.23583600  0.06400800  1
  O  O63  1  0.33111600  0.30539700  0.88992800  1
  O  O64  1  0.41182500  0.73821900  0.13971600  1
  O  O65  1  0.76179800  0.42237900  0.14491800  1
  O  O66  1  0.66832200  0.00550300  0.32958900  1
  O  O67  1  0.90857000  0.10559200  0.26882400  1
  O  O68  1  0.79414600  0.79568100  0.80524500  1
  O  O69  1  0.41637200  0.86811700  0.29098700  1
  O  O70  1  0.52302400  0.35299200  0.35293800  1
  O  O71  1  0.23583600  0.86659400  0.56400800  1
  O  O72  1  0.65518200  0.27813700  0.45449900  1
  O  O73  1  0.61894400  0.32024700  0.94705400  1
  O  O74  1  0.52484600  0.72900700  0.82813300  1
  O  O75  1  0.69965100  0.98195800  0.85922000  1
  O  O76  1  0.73821900  0.41182500  0.63971600  1
  O  O77  1  0.31479000  0.44629500  0.66020500  1
