# generated using pymatgen
data_SiO2
_symmetry_space_group_name_H-M   'P 1'
_cell_length_a   10.90672984
_cell_length_b   10.90672984
_cell_length_c   10.90672962
_cell_angle_alpha   43.33980553
_cell_angle_beta   43.33980553
_cell_angle_gamma   43.33980334
_symmetry_Int_Tables_number   1
_chemical_formula_structural   SiO2
_chemical_formula_sum   'Si12 O24'
_cell_volume   554.32522827
_cell_formula_units_Z   12
loop_
 _symmetry_equiv_pos_site_id
 _symmetry_equiv_pos_as_xyz
  1  'x, y, z'
loop_
 _atom_site_type_symbol
 _atom_site_label
 _atom_site_symmetry_multiplicity
 _atom_site_fract_x
 _atom_site_fract_y
 _atom_site_fract_z
 _atom_site_occupancy
  Si  Si0  1  0.95897500  0.04929900  0.63933600  1
  Si  Si1  1  0.54102500  0.86066400  0.45070100  1
  Si  Si2  1  0.54929900  0.45897500  0.13933600  1
  Si  Si3  1  0.86066400  0.45070100  0.54102500  1
  Si  Si4  1  0.36066400  0.04102500  0.95070100  1
  Si  Si5  1  0.04929900  0.63933600  0.95897500  1
  Si  Si6  1  0.04102500  0.95070100  0.36066400  1
  Si  Si7  1  0.45070100  0.54102500  0.86066400  1
  Si  Si8  1  0.45897500  0.13933600  0.54929900  1
  Si  Si9  1  0.13933600  0.54929900  0.45897500  1
  Si  Si10  1  0.63933600  0.95897500  0.04929900  1
  Si  Si11  1  0.95070100  0.36066400  0.04102500  1
  O  O12  1  0.82305000  0.74797300  0.09635500  1
  O  O13  1  0.90364500  0.17695000  0.25202700  1
  O  O14  1  0.00000000  0.00000000  0.50000000  1
  O  O15  1  0.40364500  0.75202700  0.67695000  1
  O  O16  1  0.24797300  0.32305000  0.59635500  1
  O  O17  1  0.59635500  0.24797300  0.32305000  1
  O  O18  1  0.75202700  0.67695000  0.40364500  1
  O  O19  1  0.17695000  0.25202700  0.90364500  1
  O  O20  1  0.09635500  0.82305000  0.74797300  1
  O  O21  1  0.99405600  0.25000000  0.50594400  1
  O  O22  1  0.50594400  0.99405600  0.25000000  1
  O  O23  1  0.50000000  0.50000000  0.00000000  1
  O  O24  1  0.00594400  0.75000000  0.49405600  1
  O  O25  1  0.67695000  0.40364500  0.75202700  1
  O  O26  1  0.49405600  0.00594400  0.75000000  1
  O  O27  1  0.25000000  0.50594400  0.99405600  1
  O  O28  1  0.50000000  0.00000000  0.00000000  1
  O  O29  1  0.75000000  0.49405600  0.00594400  1
  O  O30  1  0.25202700  0.90364500  0.17695000  1
  O  O31  1  0.50000000  0.00000000  0.50000000  1
  O  O32  1  0.74797300  0.09635500  0.82305000  1
  O  O33  1  0.00000000  0.50000000  0.00000000  1
  O  O34  1  0.00000000  0.50000000  0.50000000  1
  O  O35  1  0.32305000  0.59635500  0.24797300  1
