# generated using pymatgen
data_ZnC4(NCl2)2
_symmetry_space_group_name_H-M   'P 1'
_cell_length_a   12.00518200
_cell_length_b   7.58001800
_cell_length_c   15.22511293
_cell_angle_alpha   63.37526555
_cell_angle_beta   90.00000000
_cell_angle_gamma   90.00000000
_symmetry_Int_Tables_number   1
_chemical_formula_structural   ZnC4(NCl2)2
_chemical_formula_sum   'Zn4 C16 N8 Cl16'
_cell_volume   1238.56274051
_cell_formula_units_Z   4
loop_
 _symmetry_equiv_pos_site_id
 _symmetry_equiv_pos_as_xyz
  1  'x, y, z'
loop_
 _atom_site_type_symbol
 _atom_site_label
 _atom_site_symmetry_multiplicity
 _atom_site_fract_x
 _atom_site_fract_y
 _atom_site_fract_z
 _atom_site_occupancy
  Zn  Zn0  1  0.68624300  0.41161900  0.36668100  1
  Zn  Zn1  1  0.18624300  0.58838100  0.13331900  1
  Zn  Zn2  1  0.31375700  0.58838100  0.63331900  1
  Zn  Zn3  1  0.81375700  0.41161900  0.86668100  1
  C  C4  1  0.42976800  0.20637600  0.70984500  1
  C  C5  1  0.92976800  0.79362400  0.79015500  1
  C  C6  1  0.57023200  0.79362400  0.29015500  1
  C  C7  1  0.07023200  0.20637600  0.20984500  1
  C  C8  1  0.51495800  0.98168400  0.64502300  1
  C  C9  1  0.01495800  0.01831600  0.85497700  1
  C  C10  1  0.48504200  0.01831600  0.35497700  1
  C  C11  1  0.98504200  0.98168400  0.14502300  1
  C  C12  1  0.64044300  0.44785900  0.12995600  1
  C  C13  1  0.14044300  0.55214100  0.37004400  1
  C  C14  1  0.35955700  0.55214100  0.87004400  1
  C  C15  1  0.85955700  0.44785900  0.62995600  1
  C  C16  1  0.22491600  0.21435300  0.42821300  1
  C  C17  1  0.72491600  0.78564700  0.07178700  1
  C  C18  1  0.77508400  0.78564700  0.57178700  1
  C  C19  1  0.27508400  0.21435300  0.92821300  1
  N  N20  1  0.46960200  0.10185200  0.66386100  1
  N  N21  1  0.96960200  0.89814800  0.83613900  1
  N  N22  1  0.53039800  0.89814800  0.33613900  1
  N  N23  1  0.03039800  0.10185200  0.16386100  1
  N  N24  1  0.69136600  0.62286700  0.08918900  1
  N  N25  1  0.19136600  0.37713300  0.41081100  1
  N  N26  1  0.30863400  0.37713300  0.91081100  1
  N  N27  1  0.80863400  0.62286700  0.58918900  1
  Cl  Cl28  1  0.72746500  0.74525100  0.32875800  1
  Cl  Cl29  1  0.22746500  0.25474900  0.17124200  1
  Cl  Cl30  1  0.27253500  0.25474900  0.67124200  1
  Cl  Cl31  1  0.77253500  0.74525100  0.82875800  1
  Cl  Cl32  1  0.82258000  0.30319000  0.57404900  1
  Cl  Cl33  1  0.32258000  0.69681000  0.92595100  1
  Cl  Cl34  1  0.17742000  0.69681000  0.42595100  1
  Cl  Cl35  1  0.67742000  0.30319000  0.07404900  1
  Cl  Cl36  1  0.79880400  0.22484900  0.34188300  1
  Cl  Cl37  1  0.29880400  0.77515100  0.15811700  1
  Cl  Cl38  1  0.20119600  0.77515100  0.65811700  1
  Cl  Cl39  1  0.70119600  0.22484900  0.84188300  1
  Cl  Cl40  1  0.51204700  0.49525200  0.38178500  1
  Cl  Cl41  1  0.01204700  0.50474800  0.11821500  1
  Cl  Cl42  1  0.48795300  0.50474800  0.61821500  1
  Cl  Cl43  1  0.98795300  0.49525200  0.88178500  1
