# generated using pymatgen
data_NbVF6
_symmetry_space_group_name_H-M   'P 1'
_cell_length_a   5.78855031
_cell_length_b   5.78855031
_cell_length_c   5.78854986
_cell_angle_alpha   57.39888097
_cell_angle_beta   57.39888097
_cell_angle_gamma   57.39887441
_symmetry_Int_Tables_number   1
_chemical_formula_structural   NbVF6
_chemical_formula_sum   'Nb1 V1 F6'
_cell_volume   128.94039461
_cell_formula_units_Z   1
loop_
 _symmetry_equiv_pos_site_id
 _symmetry_equiv_pos_as_xyz
  1  'x, y, z'
loop_
 _atom_site_type_symbol
 _atom_site_label
 _atom_site_symmetry_multiplicity
 _atom_site_fract_x
 _atom_site_fract_y
 _atom_site_fract_z
 _atom_site_occupancy
  Nb  Nb0  1  0.50000000  0.50000000  0.50000000  1
  V  V1  1  0.00000000  0.00000000  0.00000000  1
  F  F2  1  0.25727000  0.82678800  0.66368500  1
  F  F3  1  0.66368500  0.25727000  0.82678800  1
  F  F4  1  0.17321200  0.33631500  0.74273000  1
  F  F5  1  0.33631500  0.74273000  0.17321200  1
  F  F6  1  0.74273000  0.17321200  0.33631500  1
  F  F7  1  0.82678800  0.66368500  0.25727000  1
