# generated using pymatgen
data_Rb2V2Cu(PO6)2
_symmetry_space_group_name_H-M   'P 1'
_cell_length_a   11.63704800
_cell_length_b   5.06662400
_cell_length_c   9.64248300
_cell_angle_alpha   86.12008443
_cell_angle_beta   90.00000000
_cell_angle_gamma   90.00000000
_symmetry_Int_Tables_number   1
_chemical_formula_structural   Rb2V2Cu(PO6)2
_chemical_formula_sum   'Rb4 V4 Cu2 P4 O24'
_cell_volume   567.22304101
_cell_formula_units_Z   2
loop_
 _symmetry_equiv_pos_site_id
 _symmetry_equiv_pos_as_xyz
  1  'x, y, z'
loop_
 _atom_site_type_symbol
 _atom_site_label
 _atom_site_symmetry_multiplicity
 _atom_site_fract_x
 _atom_site_fract_y
 _atom_site_fract_z
 _atom_site_occupancy
  Rb  Rb0  1  0.36468000  0.55905800  0.10572400  1
  Rb  Rb1  1  0.63532000  0.44094200  0.89427600  1
  Rb  Rb2  1  0.86468000  0.44094200  0.39427600  1
  Rb  Rb3  1  0.13532000  0.55905800  0.60572400  1
  V  V4  1  0.88532000  0.94548700  0.74957600  1
  V  V5  1  0.11468000  0.05451300  0.25042400  1
  V  V6  1  0.38532000  0.05451300  0.75042400  1
  V  V7  1  0.61468000  0.94548700  0.24957600  1
  Cu  Cu8  1  0.00000000  0.50000000  0.00000000  1
  Cu  Cu9  1  0.50000000  0.50000000  0.50000000  1
  P  P10  1  0.86268400  0.98894000  0.08262100  1
  P  P11  1  0.13731600  0.01106000  0.91737900  1
  P  P12  1  0.36268400  0.01106000  0.41737900  1
  P  P13  1  0.63731600  0.98894000  0.58262100  1
  O  O14  1  0.17178500  0.93098600  0.07014900  1
  O  O15  1  0.26462700  0.93243200  0.32033600  1
  O  O16  1  0.47194700  0.89873200  0.86476600  1
  O  O17  1  0.12634900  0.36850100  0.28509600  1
  O  O18  1  0.52805300  0.10126800  0.13523400  1
  O  O19  1  0.97194700  0.10126800  0.63523400  1
  O  O20  1  0.96961100  0.16416100  0.11882200  1
  O  O21  1  0.67178500  0.06901400  0.42985100  1
  O  O22  1  0.73537300  0.06756800  0.67966400  1
  O  O23  1  0.53038900  0.16416100  0.61882200  1
  O  O24  1  0.38983800  0.30826800  0.39397400  1
  O  O25  1  0.46961100  0.83583900  0.38117800  1
  O  O26  1  0.23537300  0.93243200  0.82033600  1
  O  O27  1  0.03038900  0.83583900  0.88117800  1
  O  O28  1  0.37365100  0.36850100  0.78509600  1
  O  O29  1  0.88983800  0.69173200  0.10602600  1
  O  O30  1  0.02805300  0.89873200  0.36476600  1
  O  O31  1  0.11016200  0.30826800  0.89397400  1
  O  O32  1  0.62634900  0.63149900  0.21490400  1
  O  O33  1  0.87365100  0.63149900  0.71490400  1
  O  O34  1  0.82821500  0.06901400  0.92985100  1
  O  O35  1  0.61016200  0.69173200  0.60602600  1
  O  O36  1  0.32821500  0.93098600  0.57014900  1
  O  O37  1  0.76462700  0.06756800  0.17966400  1
