# generated using pymatgen
data_HgO
_symmetry_space_group_name_H-M   'P 1'
_cell_length_a   5.82209700
_cell_length_b   6.73641700
_cell_length_c   7.42844858
_cell_angle_alpha   88.83157374
_cell_angle_beta   90.00000000
_cell_angle_gamma   90.00000000
_symmetry_Int_Tables_number   1
_chemical_formula_structural   HgO
_chemical_formula_sum   'Hg8 O8'
_cell_volume   291.28371858
_cell_formula_units_Z   8
loop_
 _symmetry_equiv_pos_site_id
 _symmetry_equiv_pos_as_xyz
  1  'x, y, z'
loop_
 _atom_site_type_symbol
 _atom_site_label
 _atom_site_symmetry_multiplicity
 _atom_site_fract_x
 _atom_site_fract_y
 _atom_site_fract_z
 _atom_site_occupancy
  Hg  Hg0  1  0.75000000  0.12155300  0.12399400  1
  Hg  Hg1  1  0.75000000  0.11396000  0.62203900  1
  Hg  Hg2  1  0.25000000  0.88604000  0.37796100  1
  Hg  Hg3  1  0.75000000  0.61398200  0.61727600  1
  Hg  Hg4  1  0.25000000  0.38601800  0.38272400  1
  Hg  Hg5  1  0.25000000  0.37874900  0.88239200  1
  Hg  Hg6  1  0.75000000  0.62125100  0.11760800  1
  Hg  Hg7  1  0.25000000  0.87844700  0.87600600  1
  O  O8  1  0.25000000  0.13447500  0.71865300  1
  O  O9  1  0.75000000  0.85872600  0.78027200  1
  O  O10  1  0.75000000  0.36504300  0.45846500  1
  O  O11  1  0.75000000  0.86552500  0.28134700  1
  O  O12  1  0.75000000  0.37172700  0.95955300  1
  O  O13  1  0.25000000  0.62827300  0.04044700  1
  O  O14  1  0.25000000  0.14127400  0.21972800  1
  O  O15  1  0.25000000  0.63495700  0.54153500  1
