# generated using pymatgen
data_BaV2(CuO4)2
_symmetry_space_group_name_H-M   'P 1'
_cell_length_a   10.13257010
_cell_length_b   10.13257010
_cell_length_c   10.13257010
_cell_angle_alpha   99.44035386
_cell_angle_beta   99.44035386
_cell_angle_gamma   132.21839990
_symmetry_Int_Tables_number   1
_chemical_formula_structural   BaV2(CuO4)2
_chemical_formula_sum   'Ba4 V8 Cu8 O32'
_cell_volume   704.42337431
_cell_formula_units_Z   4
loop_
 _symmetry_equiv_pos_site_id
 _symmetry_equiv_pos_as_xyz
  1  'x, y, z'
loop_
 _atom_site_type_symbol
 _atom_site_label
 _atom_site_symmetry_multiplicity
 _atom_site_fract_x
 _atom_site_fract_y
 _atom_site_fract_z
 _atom_site_occupancy
  Ba  Ba0  1  0.50000000  0.50000000  0.00000000  1
  Ba  Ba1  1  0.00000000  0.00000000  0.00000000  1
  Ba  Ba2  1  0.75000000  0.25000000  0.50000000  1
  Ba  Ba3  1  0.25000000  0.75000000  0.50000000  1
  V  V4  1  0.02491000  0.37500000  0.14991000  1
  V  V5  1  0.12500000  0.97509000  0.35009000  1
  V  V6  1  0.62500000  0.32644700  0.20144700  1
  V  V7  1  0.67355300  0.87500000  0.29855300  1
  V  V8  1  0.12500000  0.42355300  0.79855300  1
  V  V9  1  0.57644700  0.37500000  0.70144700  1
  V  V10  1  0.62500000  0.77491000  0.64991000  1
  V  V11  1  0.22509000  0.87500000  0.85009000  1
  Cu  Cu12  1  0.33058600  0.85074000  0.16665500  1
  Cu  Cu13  1  0.10074000  0.08058600  0.66665500  1
  Cu  Cu14  1  0.14926000  0.31591500  0.47984500  1
  Cu  Cu15  1  0.91941400  0.58606900  0.02015500  1
  Cu  Cu16  1  0.56591500  0.89926000  0.97984500  1
  Cu  Cu17  1  0.83606900  0.66941400  0.52015500  1
  Cu  Cu18  1  0.41393100  0.43408500  0.33334500  1
  Cu  Cu19  1  0.68408500  0.16393100  0.83334500  1
  O  O20  1  0.55232900  0.18335800  0.68516900  1
  O  O21  1  0.05786800  0.69646900  0.68451300  1
  O  O22  1  0.81664200  0.50181100  0.36897200  1
  O  O23  1  0.62335600  0.76195600  0.81548700  1
  O  O24  1  0.49818900  0.86716100  0.31483100  1
  O  O25  1  0.32926300  0.63746200  0.94127100  1
  O  O26  1  0.13283900  0.44767100  0.63102800  1
  O  O27  1  0.55380900  0.11253800  0.19180100  1
  O  O28  1  0.19849100  0.19520800  0.35204300  1
  O  O29  1  0.80479200  0.15683500  0.00328200  1
  O  O30  1  0.63799200  0.44619100  0.55872900  1
  O  O31  1  0.01195600  0.37335600  0.31548700  1
  O  O32  1  0.88746200  0.07926300  0.44127100  1
  O  O33  1  0.40683500  0.55479200  0.50328200  1
  O  O34  1  0.19213200  0.37664400  0.13860000  1
  O  O35  1  0.61200800  0.67073700  0.30819900  1
  O  O36  1  0.44520800  0.94849100  0.85204300  1
  O  O37  1  0.23804400  0.05353100  0.86140000  1
  O  O38  1  0.36253800  0.30380900  0.69180100  1
  O  O39  1  0.05150900  0.90355200  0.49671800  1
  O  O40  1  0.15355200  0.80150900  0.99671800  1
  O  O41  1  0.92073700  0.36200800  0.80819900  1
  O  O42  1  0.69619100  0.38799200  0.05872900  1
  O  O43  1  0.84316500  0.84644800  0.64795700  1
  O  O44  1  0.94646900  0.80786800  0.18451300  1
  O  O45  1  0.30353100  0.98804400  0.36140000  1
  O  O46  1  0.43335800  0.30232900  0.18516900  1
  O  O47  1  0.09644800  0.59316500  0.14795700  1
  O  O48  1  0.62664400  0.94213200  0.63860000  1
  O  O49  1  0.11716100  0.24818900  0.81483100  1
  O  O50  1  0.75181100  0.56664200  0.86897200  1
  O  O51  1  0.69767100  0.88283900  0.13102800  1
