# generated using pymatgen
data_AlTlF4
_symmetry_space_group_name_H-M   'P 1'
_cell_length_a   7.46007867
_cell_length_b   7.46007867
_cell_length_c   7.46007867
_cell_angle_alpha   139.15723773
_cell_angle_beta   139.15723773
_cell_angle_gamma   59.13517725
_symmetry_Int_Tables_number   1
_chemical_formula_structural   AlTlF4
_chemical_formula_sum   'Al2 Tl2 F8'
_cell_volume   175.85427070
_cell_formula_units_Z   2
loop_
 _symmetry_equiv_pos_site_id
 _symmetry_equiv_pos_as_xyz
  1  'x, y, z'
loop_
 _atom_site_type_symbol
 _atom_site_label
 _atom_site_symmetry_multiplicity
 _atom_site_fract_x
 _atom_site_fract_y
 _atom_site_fract_z
 _atom_site_occupancy
  Al  Al0  1  0.50000000  0.50000000  0.00000000  1
  Al  Al1  1  0.00000000  0.00000000  0.00000000  1
  Tl  Tl2  1  0.75000000  0.25000000  0.50000000  1
  Tl  Tl3  1  0.25000000  0.75000000  0.50000000  1
  F  F4  1  0.63833500  0.63833500  0.00000000  1
  F  F5  1  0.77709100  0.72290900  0.50000000  1
  F  F6  1  0.86166500  0.86166500  0.00000000  1
  F  F7  1  0.36166500  0.36166500  0.00000000  1
  F  F8  1  0.27709100  0.77709100  0.05418200  1
  F  F9  1  0.22290900  0.27709100  0.50000000  1
  F  F10  1  0.72290900  0.22290900  0.94581800  1
  F  F11  1  0.13833500  0.13833500  0.00000000  1
