# generated using pymatgen
data_Cu2WS4
_symmetry_space_group_name_H-M   'P 1'
_cell_length_a   6.56233402
_cell_length_b   6.56233402
_cell_length_c   6.56233402
_cell_angle_alpha   130.86267016
_cell_angle_beta   130.86267016
_cell_angle_gamma   72.03135831
_symmetry_Int_Tables_number   1
_chemical_formula_structural   Cu2WS4
_chemical_formula_sum   'Cu2 W1 S4'
_cell_volume   158.06681266
_cell_formula_units_Z   1
loop_
 _symmetry_equiv_pos_site_id
 _symmetry_equiv_pos_as_xyz
  1  'x, y, z'
loop_
 _atom_site_type_symbol
 _atom_site_label
 _atom_site_symmetry_multiplicity
 _atom_site_fract_x
 _atom_site_fract_y
 _atom_site_fract_z
 _atom_site_occupancy
  Cu  Cu0  1  0.50000000  0.00000000  0.50000000  1
  Cu  Cu1  1  0.00000000  0.50000000  0.50000000  1
  W  W2  1  0.00000000  0.00000000  0.00000000  1
  S  S3  1  0.88533000  0.35984500  0.00000000  1
  S  S4  1  0.35984500  0.88533000  0.00000000  1
  S  S5  1  0.11467000  0.11467000  0.47451500  1
  S  S6  1  0.64015500  0.64015500  0.52548500  1
