# generated using pymatgen
data_Na2Si2O5
_symmetry_space_group_name_H-M   'P 1'
_cell_length_a   9.47136404
_cell_length_b   9.47136404
_cell_length_c   9.47136404
_cell_angle_alpha   98.25251723
_cell_angle_beta   98.25251723
_cell_angle_gamma   135.47363105
_symmetry_Int_Tables_number   1
_chemical_formula_structural   Na2Si2O5
_chemical_formula_sum   'Na8 Si8 O20'
_cell_volume   551.38788331
_cell_formula_units_Z   4
loop_
 _symmetry_equiv_pos_site_id
 _symmetry_equiv_pos_as_xyz
  1  'x, y, z'
loop_
 _atom_site_type_symbol
 _atom_site_label
 _atom_site_symmetry_multiplicity
 _atom_site_fract_x
 _atom_site_fract_y
 _atom_site_fract_z
 _atom_site_occupancy
  Na  Na0  1  0.66690100  0.21873300  0.71166500  1
  Na  Na1  1  0.20523600  0.41690100  0.94816800  1
  Na  Na2  1  0.04476400  0.33309900  0.55183200  1
  Na  Na3  1  0.58309900  0.53126700  0.78833500  1
  Na  Na4  1  0.50706800  0.95523600  0.28833500  1
  Na  Na5  1  0.74293200  0.79476400  0.21166500  1
  Na  Na6  1  0.46873300  0.25706800  0.05183200  1
  Na  Na7  1  0.78126700  0.49293200  0.44816800  1
  Si  Si8  1  0.65110500  0.82576500  0.58983100  1
  Si  Si9  1  0.31127400  0.40110500  0.32534000  1
  Si  Si10  1  0.07576500  0.98593400  0.67466000  1
  Si  Si11  1  0.23593400  0.06127400  0.41016900  1
  Si  Si12  1  0.17423500  0.76406600  0.82534000  1
  Si  Si13  1  0.93872600  0.34889500  0.17466000  1
  Si  Si14  1  0.01406600  0.68872600  0.08983100  1
  Si  Si15  1  0.59889500  0.92423500  0.91016900  1
  O  O16  1  0.71136500  0.97931400  0.49640800  1
  O  O17  1  0.62500000  0.87500000  0.75000000  1
  O  O18  1  0.76709400  0.53504300  0.99640800  1
  O  O19  1  0.07978500  0.57890100  0.14668800  1
  O  O20  1  0.02068600  0.51709400  0.73205100  1
  O  O21  1  0.81778700  0.81690400  0.64668800  1
  O  O22  1  0.18309600  0.82978500  0.00088300  1
  O  O23  1  0.82890100  0.18221300  0.99911700  1
  O  O24  1  0.22931400  0.23290600  0.76794900  1
  O  O25  1  0.78504300  0.28863500  0.26794900  1
  O  O26  1  0.06690400  0.92021500  0.49911700  1
  O  O27  1  0.12500000  0.87500000  0.75000000  1
  O  O28  1  0.53863500  0.77068600  0.00359200  1
  O  O29  1  0.46495700  0.46136500  0.23205100  1
  O  O30  1  0.43221300  0.93309600  0.85331200  1
  O  O31  1  0.42109900  0.56778700  0.50088300  1
  O  O32  1  0.48290600  0.21495700  0.50359200  1
  O  O33  1  0.17021500  0.17109900  0.35331200  1
  O  O34  1  0.12500000  0.87500000  0.25000000  1
  O  O35  1  0.12500000  0.37500000  0.25000000  1
