# generated using pymatgen
data_K2Be2Zn2Si3O11
_symmetry_space_group_name_H-M   'P 1'
_cell_length_a   9.64579200
_cell_length_b   9.64579200
_cell_length_c   9.64579200
_cell_angle_alpha   138.54975313
_cell_angle_beta   119.26616332
_cell_angle_gamma   76.20798083
_symmetry_Int_Tables_number   1
_chemical_formula_structural   K2Be2Zn2Si3O11
_chemical_formula_sum   'K4 Be4 Zn4 Si6 O22'
_cell_volume   505.36222693
_cell_formula_units_Z   2
loop_
 _symmetry_equiv_pos_site_id
 _symmetry_equiv_pos_as_xyz
  1  'x, y, z'
loop_
 _atom_site_type_symbol
 _atom_site_label
 _atom_site_symmetry_multiplicity
 _atom_site_fract_x
 _atom_site_fract_y
 _atom_site_fract_z
 _atom_site_occupancy
  K  K0  1  0.38842600  0.13842600  0.25000000  1
  K  K1  1  0.19866700  0.44866700  0.75000000  1
  K  K2  1  0.61157400  0.86157400  0.75000000  1
  K  K3  1  0.80133300  0.55133300  0.25000000  1
  Be  Be4  1  0.00000000  0.17498100  0.17498100  1
  Be  Be5  1  0.50000000  0.82501900  0.32501900  1
  Be  Be6  1  0.00000000  0.82501900  0.82501900  1
  Be  Be7  1  0.50000000  0.17498100  0.67498100  1
  Zn  Zn8  1  0.84923300  0.50000000  0.84923300  1
  Zn  Zn9  1  0.15076700  0.00000000  0.65076700  1
  Zn  Zn10  1  0.84923300  0.00000000  0.34923300  1
  Zn  Zn11  1  0.15076700  0.50000000  0.15076700  1
  Si  Si12  1  0.77666600  0.36696800  0.40969800  1
  Si  Si13  1  0.45726900  0.36696800  0.09030200  1
  Si  Si14  1  0.22333400  0.63303200  0.59030200  1
  Si  Si15  1  0.84731900  0.09731900  0.75000000  1
  Si  Si16  1  0.15268100  0.90268100  0.25000000  1
  Si  Si17  1  0.54273100  0.63303200  0.90969800  1
  O  O18  1  0.07562000  0.96421500  0.11140500  1
  O  O19  1  0.35281000  0.96421500  0.38859500  1
  O  O20  1  0.85642300  0.22190600  0.23519400  1
  O  O21  1  0.42240500  0.67240500  0.75000000  1
  O  O22  1  0.26907100  0.27662500  0.99244600  1
  O  O23  1  0.57759500  0.32759500  0.25000000  1
  O  O24  1  0.08945700  0.64240500  0.05294800  1
  O  O25  1  0.78417900  0.27662500  0.50755400  1
  O  O26  1  0.21582100  0.72337500  0.49244600  1
  O  O27  1  0.51328800  0.77809400  0.13451700  1
  O  O28  1  0.51328800  0.37877100  0.73519400  1
  O  O29  1  0.92438000  0.03578500  0.88859500  1
  O  O30  1  0.85642300  0.62122900  0.63451700  1
  O  O31  1  0.48671200  0.62122900  0.26480600  1
  O  O32  1  0.14357700  0.77809400  0.76480600  1
  O  O33  1  0.48671200  0.22190600  0.86548300  1
  O  O34  1  0.91054300  0.96349100  0.55294800  1
  O  O35  1  0.73092900  0.72337500  0.00755400  1
  O  O36  1  0.91054300  0.35759500  0.94705200  1
  O  O37  1  0.08945700  0.03650900  0.44705200  1
  O  O38  1  0.64719000  0.03578500  0.61140500  1
  O  O39  1  0.14357700  0.37877100  0.36548300  1
