# generated using pymatgen
data_K4Cr(NO5)2
_symmetry_space_group_name_H-M   'P 1'
_cell_length_a   11.33874000
_cell_length_b   9.98099900
_cell_length_c   10.34172797
_cell_angle_alpha   73.89693055
_cell_angle_beta   90.00000000
_cell_angle_gamma   90.00000000
_symmetry_Int_Tables_number   1
_chemical_formula_structural   K4Cr(NO5)2
_chemical_formula_sum   'K16 Cr4 N8 O40'
_cell_volume   1124.47233368
_cell_formula_units_Z   4
loop_
 _symmetry_equiv_pos_site_id
 _symmetry_equiv_pos_as_xyz
  1  'x, y, z'
loop_
 _atom_site_type_symbol
 _atom_site_label
 _atom_site_symmetry_multiplicity
 _atom_site_fract_x
 _atom_site_fract_y
 _atom_site_fract_z
 _atom_site_occupancy
  K  K0  1  0.62729500  0.89316700  0.08181800  1
  K  K1  1  0.62305100  0.46624600  0.35938600  1
  K  K2  1  0.11983400  0.46720400  0.36110400  1
  K  K3  1  0.37270500  0.10683300  0.91818200  1
  K  K4  1  0.87502800  0.11439200  0.90224400  1
  K  K5  1  0.87270500  0.39316700  0.08181800  1
  K  K6  1  0.37694900  0.53375400  0.64061400  1
  K  K7  1  0.12729500  0.60683300  0.91818200  1
  K  K8  1  0.87694900  0.96624600  0.35938600  1
  K  K9  1  0.38016600  0.96720400  0.36110400  1
  K  K10  1  0.88016600  0.53279600  0.63889600  1
  K  K11  1  0.61983400  0.03279600  0.63889600  1
  K  K12  1  0.12305100  0.03375400  0.64061400  1
  K  K13  1  0.62497200  0.61439200  0.90224400  1
  K  K14  1  0.12497200  0.88560800  0.09775600  1
  K  K15  1  0.37502800  0.38560800  0.09775600  1
  Cr  Cr16  1  0.88330900  0.80947100  0.79513500  1
  Cr  Cr17  1  0.11669100  0.19052900  0.20486500  1
  Cr  Cr18  1  0.38330900  0.69052900  0.20486500  1
  Cr  Cr19  1  0.61669100  0.30947100  0.79513500  1
  N  N20  1  0.14039000  0.73020500  0.50545900  1
  N  N21  1  0.64039000  0.76979500  0.49454100  1
  N  N22  1  0.12862500  0.29718100  0.84771900  1
  N  N23  1  0.85961000  0.26979500  0.49454100  1
  N  N24  1  0.35961000  0.23020500  0.50545900  1
  N  N25  1  0.62862500  0.20281900  0.15228100  1
  N  N26  1  0.87137500  0.70281900  0.15228100  1
  N  N27  1  0.37137500  0.79718100  0.84771900  1
  O  O28  1  0.62839900  0.33020000  0.15234800  1
  O  O29  1  0.10492900  0.15253500  0.37133200  1
  O  O30  1  0.88282300  0.63630300  0.85833200  1
  O  O31  1  0.72569800  0.14138500  0.14685900  1
  O  O32  1  0.22569800  0.35861500  0.85314100  1
  O  O33  1  0.60492900  0.34746500  0.62866800  1
  O  O34  1  0.12472100  0.60485100  0.57731500  1
  O  O35  1  0.27430200  0.85861500  0.85314100  1
  O  O36  1  0.96804600  0.63832600  0.15581000  1
  O  O37  1  0.71110200  0.69168400  0.45412400  1
  O  O38  1  0.11717700  0.36369700  0.14166800  1
  O  O39  1  0.49843700  0.62387600  0.14292700  1
  O  O40  1  0.24139500  0.12573500  0.16104400  1
  O  O41  1  0.39507100  0.65253500  0.37133200  1
  O  O42  1  0.74139500  0.37426500  0.83895600  1
  O  O43  1  0.53195400  0.13832600  0.15581000  1
  O  O44  1  0.25860500  0.62573500  0.16104400  1
  O  O45  1  0.37160100  0.66980000  0.84765200  1
  O  O46  1  0.61717700  0.13630300  0.85833200  1
  O  O47  1  0.46804600  0.86167400  0.84419000  1
  O  O48  1  0.12839900  0.16980000  0.84765200  1
  O  O49  1  0.58609800  0.72613400  0.60521400  1
  O  O50  1  0.41390200  0.27386600  0.39478600  1
  O  O51  1  0.37527900  0.10485100  0.57731500  1
  O  O52  1  0.91390200  0.22613400  0.60521400  1
  O  O53  1  0.21110200  0.80831600  0.54587600  1
  O  O54  1  0.38282300  0.86369700  0.14166800  1
  O  O55  1  0.87160100  0.83020000  0.15234800  1
  O  O56  1  0.00156300  0.12387600  0.14292700  1
  O  O57  1  0.75860500  0.87426500  0.83895600  1
  O  O58  1  0.62472100  0.89514900  0.42268500  1
  O  O59  1  0.99843700  0.87612400  0.85707300  1
  O  O60  1  0.50156300  0.37612400  0.85707300  1
  O  O61  1  0.08609800  0.77386600  0.39478600  1
  O  O62  1  0.87527900  0.39514900  0.42268500  1
  O  O63  1  0.78889800  0.19168400  0.45412400  1
  O  O64  1  0.03195400  0.36167400  0.84419000  1
  O  O65  1  0.89507100  0.84746500  0.62866800  1
  O  O66  1  0.77430200  0.64138500  0.14685900  1
  O  O67  1  0.28889800  0.30831600  0.54587600  1
