# generated using pymatgen
data_Na2YMoPO8
_symmetry_space_group_name_H-M   'P 1'
_cell_length_a   11.51575455
_cell_length_b   11.51575455
_cell_length_c   11.51575455
_cell_angle_alpha   144.77056401
_cell_angle_beta   115.77062642
_cell_angle_gamma   75.42671483
_symmetry_Int_Tables_number   1
_chemical_formula_structural   Na2YMoPO8
_chemical_formula_sum   'Na8 Y4 Mo4 P4 O32'
_cell_volume   777.40259876
_cell_formula_units_Z   4
loop_
 _symmetry_equiv_pos_site_id
 _symmetry_equiv_pos_as_xyz
  1  'x, y, z'
loop_
 _atom_site_type_symbol
 _atom_site_label
 _atom_site_symmetry_multiplicity
 _atom_site_fract_x
 _atom_site_fract_y
 _atom_site_fract_z
 _atom_site_occupancy
  Na  Na0  1  0.71092000  0.66353900  0.06861200  1
  Na  Na1  1  0.21092000  0.14230800  0.04738100  1
  Na  Na2  1  0.28908000  0.33646100  0.93138800  1
  Na  Na3  1  0.09492700  0.64230800  0.43138800  1
  Na  Na4  1  0.40507300  0.83646100  0.54738100  1
  Na  Na5  1  0.78908000  0.85769200  0.95261900  1
  Na  Na6  1  0.90507300  0.35769200  0.56861200  1
  Na  Na7  1  0.59492700  0.16353900  0.45261900  1
  Y  Y8  1  0.82212700  0.75000000  0.57212700  1
  Y  Y9  1  0.17787300  0.25000000  0.42787300  1
  Y  Y10  1  0.32212700  0.75000000  0.07212700  1
  Y  Y11  1  0.67787300  0.25000000  0.92787300  1
  Mo  Mo12  1  0.57190100  0.32190100  0.25000000  1
  Mo  Mo13  1  0.92809900  0.17809900  0.75000000  1
  Mo  Mo14  1  0.42809900  0.67809900  0.75000000  1
  Mo  Mo15  1  0.07190100  0.82190100  0.25000000  1
  P  P16  1  0.06910500  0.75000000  0.81910500  1
  P  P17  1  0.56910500  0.75000000  0.31910500  1
  P  P18  1  0.93089500  0.25000000  0.18089500  1
  P  P19  1  0.43089500  0.25000000  0.68089500  1
  O  O20  1  0.92568400  0.69516000  0.75682300  1
  O  O21  1  0.65294400  0.58836000  0.48380100  1
  O  O22  1  0.06166300  0.80484000  0.73052400  1
  O  O23  1  0.60155500  0.69157600  0.82887400  1
  O  O24  1  0.57431600  0.33113900  0.76947600  1
  O  O25  1  0.89844500  0.72731900  0.09002000  1
  O  O26  1  0.42568400  0.66886100  0.23052400  1
  O  O27  1  0.14003500  0.56771400  0.72404600  1
  O  O28  1  0.39544000  0.83085700  0.98380100  1
  O  O29  1  0.65633200  0.58401100  0.22404600  1
  O  O30  1  0.07431600  0.30484000  0.24317700  1
  O  O31  1  0.36270100  0.77268100  0.67112600  1
  O  O32  1  0.15294400  0.66914300  0.06458400  1
  O  O33  1  0.85996500  0.43228600  0.27595400  1
  O  O34  1  0.35996500  0.08401100  0.42767900  1
  O  O35  1  0.56166300  0.83113900  0.25682300  1
  O  O36  1  0.84366800  0.06771400  0.92767900  1
  O  O37  1  0.84705600  0.33085700  0.93541600  1
  O  O38  1  0.43833700  0.16886100  0.74317700  1
  O  O39  1  0.10155500  0.27268100  0.90998000  1
  O  O40  1  0.86270100  0.19157600  0.59002000  1
  O  O41  1  0.93833700  0.19516000  0.26947600  1
  O  O42  1  0.34705600  0.41164000  0.51619900  1
  O  O43  1  0.64003500  0.91598900  0.57232100  1
  O  O44  1  0.10456000  0.08836000  0.43541600  1
  O  O45  1  0.60456000  0.16914300  0.01619900  1
  O  O46  1  0.89544000  0.91164000  0.56458400  1
  O  O47  1  0.63729900  0.22731900  0.32887400  1
  O  O48  1  0.13729900  0.80842400  0.40998000  1
  O  O49  1  0.15633200  0.93228600  0.07232100  1
  O  O50  1  0.39844500  0.30842400  0.17112600  1
  O  O51  1  0.34366800  0.41598900  0.77595400  1
