# generated using pymatgen
data_KC(NO2)3
_symmetry_space_group_name_H-M   'P 1'
_cell_length_a   8.36588500
_cell_length_b   7.77806000
_cell_length_c   11.19877744
_cell_angle_alpha   55.67717347
_cell_angle_beta   90.00000000
_cell_angle_gamma   90.00000000
_symmetry_Int_Tables_number   1
_chemical_formula_structural   KC(NO2)3
_chemical_formula_sum   'K4 C4 N12 O24'
_cell_volume   601.82114210
_cell_formula_units_Z   4
loop_
 _symmetry_equiv_pos_site_id
 _symmetry_equiv_pos_as_xyz
  1  'x, y, z'
loop_
 _atom_site_type_symbol
 _atom_site_label
 _atom_site_symmetry_multiplicity
 _atom_site_fract_x
 _atom_site_fract_y
 _atom_site_fract_z
 _atom_site_occupancy
  K  K0  1  0.60495700  0.11359100  0.13355600  1
  K  K1  1  0.39504300  0.88640900  0.86644400  1
  K  K2  1  0.10495700  0.88640900  0.36644400  1
  K  K3  1  0.89504300  0.11359100  0.63355600  1
  C  C4  1  0.87919600  0.58854500  0.12165700  1
  C  C5  1  0.37919600  0.41145500  0.37834300  1
  C  C6  1  0.12080400  0.41145500  0.87834300  1
  C  C7  1  0.62080400  0.58854500  0.62165700  1
  N  N8  1  0.26564500  0.33202400  0.48952200  1
  N  N9  1  0.42923200  0.62039900  0.29942800  1
  N  N10  1  0.23435500  0.33202400  0.98952200  1
  N  N11  1  0.57076800  0.37960100  0.70057200  1
  N  N12  1  0.54679300  0.72372800  0.65418200  1
  N  N13  1  0.07076800  0.62039900  0.79942800  1
  N  N14  1  0.04679300  0.27627200  0.84581800  1
  N  N15  1  0.92923200  0.37960100  0.20057200  1
  N  N16  1  0.76564500  0.66797600  0.01047800  1
  N  N17  1  0.73435500  0.66797600  0.51047800  1
  N  N18  1  0.95320700  0.72372800  0.15418200  1
  N  N19  1  0.45320700  0.27627200  0.34581800  1
  O  O20  1  0.87221600  0.86178000  0.14948300  1
  O  O21  1  0.12778400  0.13822000  0.85051700  1
  O  O22  1  0.62778400  0.86178000  0.64948300  1
  O  O23  1  0.75231600  0.86234900  0.42971200  1
  O  O24  1  0.18515700  0.45345600  0.50559700  1
  O  O25  1  0.81484300  0.54654400  0.49440300  1
  O  O26  1  0.01181400  0.69766100  0.67609100  1
  O  O27  1  0.41415500  0.72395900  0.35325200  1
  O  O28  1  0.31484300  0.45345600  0.00559700  1
  O  O29  1  0.25231600  0.13765100  0.07028800  1
  O  O30  1  0.24768400  0.13765100  0.57028800  1
  O  O31  1  0.58584500  0.27604100  0.64674800  1
  O  O32  1  0.51181400  0.30233900  0.82390900  1
  O  O33  1  0.08584500  0.72395900  0.85325200  1
  O  O34  1  0.37221600  0.13822000  0.35051700  1
  O  O35  1  0.98818600  0.30233900  0.32390900  1
  O  O36  1  0.59776900  0.30463700  0.31349400  1
  O  O37  1  0.74768400  0.86234900  0.92971200  1
  O  O38  1  0.68515700  0.54654400  0.99440300  1
  O  O39  1  0.90223100  0.30463700  0.81349400  1
  O  O40  1  0.48818600  0.69766100  0.17609100  1
  O  O41  1  0.91415500  0.27604100  0.14674800  1
  O  O42  1  0.09776900  0.69536300  0.18650600  1
  O  O43  1  0.40223100  0.69536300  0.68650600  1
