# generated using pymatgen
data_Na2PtO3
_symmetry_space_group_name_H-M   'P 1'
_cell_length_a   5.52532413
_cell_length_b   5.52532413
_cell_length_c   10.84713987
_cell_angle_alpha   85.00879323
_cell_angle_beta   85.00879323
_cell_angle_gamma   120.01484857
_symmetry_Int_Tables_number   1
_chemical_formula_structural   Na2PtO3
_chemical_formula_sum   'Na8 Pt4 O12'
_cell_volume   282.36897268
_cell_formula_units_Z   4
loop_
 _symmetry_equiv_pos_site_id
 _symmetry_equiv_pos_as_xyz
  1  'x, y, z'
loop_
 _atom_site_type_symbol
 _atom_site_label
 _atom_site_symmetry_multiplicity
 _atom_site_fract_x
 _atom_site_fract_y
 _atom_site_fract_z
 _atom_site_occupancy
  Na  Na0  1  0.08326300  0.91673700  0.75000000  1
  Na  Na1  1  0.68017100  0.83933900  0.99905600  1
  Na  Na2  1  0.91673700  0.08326300  0.25000000  1
  Na  Na3  1  0.16066100  0.31982900  0.50094400  1
  Na  Na4  1  0.31982900  0.16066100  0.00094400  1
  Na  Na5  1  0.00000000  0.50000000  0.00000000  1
  Na  Na6  1  0.83933900  0.68017100  0.49905600  1
  Na  Na7  1  0.50000000  0.00000000  0.50000000  1
  Pt  Pt8  1  0.25038400  0.74961600  0.25000000  1
  Pt  Pt9  1  0.58331000  0.41669000  0.25000000  1
  Pt  Pt10  1  0.74961600  0.25038400  0.75000000  1
  Pt  Pt11  1  0.41669000  0.58331000  0.75000000  1
  O  O12  1  0.51861300  0.68544400  0.35390800  1
  O  O13  1  0.88127500  0.40968700  0.35382900  1
  O  O14  1  0.68544400  0.51861300  0.85390800  1
  O  O15  1  0.48138700  0.31455600  0.64609200  1
  O  O16  1  0.40968700  0.88127500  0.85382900  1
  O  O17  1  0.59031300  0.11872500  0.14617100  1
  O  O18  1  0.04802000  0.24267900  0.85421400  1
  O  O19  1  0.11872500  0.59031300  0.64617100  1
  O  O20  1  0.24267900  0.04802000  0.35421400  1
  O  O21  1  0.95198000  0.75732100  0.14578600  1
  O  O22  1  0.75732100  0.95198000  0.64578600  1
  O  O23  1  0.31455600  0.48138700  0.14609200  1
