# generated using pymatgen
data_VIr
_symmetry_space_group_name_H-M   'P 1'
_cell_length_a   8.65966523
_cell_length_b   8.65966523
_cell_length_c   6.64202255
_cell_angle_alpha   71.37945860
_cell_angle_beta   71.37945860
_cell_angle_gamma   80.01859669
_symmetry_Int_Tables_number   1
_chemical_formula_structural   VIr
_chemical_formula_sum   'V16 Ir16'
_cell_volume   445.88829655
_cell_formula_units_Z   16
loop_
 _symmetry_equiv_pos_site_id
 _symmetry_equiv_pos_as_xyz
  1  'x, y, z'
loop_
 _atom_site_type_symbol
 _atom_site_label
 _atom_site_symmetry_multiplicity
 _atom_site_fract_x
 _atom_site_fract_y
 _atom_site_fract_z
 _atom_site_occupancy
  V  V0  1  0.00457500  0.26430600  0.28075200  1
  V  V1  1  0.26430600  0.00457500  0.28075200  1
  V  V2  1  0.75776500  0.51765200  0.26268600  1
  V  V3  1  0.51765200  0.75776500  0.26268600  1
  V  V4  1  0.86615600  0.13384400  0.00000000  1
  V  V5  1  0.13384400  0.86615600  0.00000000  1
  V  V6  1  0.61478100  0.38521900  0.00000000  1
  V  V7  1  0.38521900  0.61478100  0.00000000  1
  V  V8  1  0.12323900  0.37331900  0.50813000  1
  V  V9  1  0.37331900  0.12323900  0.50813000  1
  V  V10  1  0.87676100  0.62668100  0.49187000  1
  V  V11  1  0.62668100  0.87676100  0.49187000  1
  V  V12  1  0.73569400  0.99542500  0.71924800  1
  V  V13  1  0.99542500  0.73569400  0.71924800  1
  V  V14  1  0.48234800  0.24223500  0.73731400  1
  V  V15  1  0.24223500  0.48234800  0.73731400  1
  Ir  Ir16  1  0.31362700  0.31362700  0.12028100  1
  Ir  Ir17  1  0.04752400  0.04752400  0.65060200  1
  Ir  Ir18  1  0.82727200  0.82727200  0.09069200  1
  Ir  Ir19  1  0.55750000  0.55750000  0.63114600  1
  Ir  Ir20  1  0.44250000  0.44250000  0.36885400  1
  Ir  Ir21  1  0.17272800  0.17272800  0.90930800  1
  Ir  Ir22  1  0.95247600  0.95247600  0.34939800  1
  Ir  Ir23  1  0.68637300  0.68637300  0.87971900  1
  Ir  Ir24  1  0.07189200  0.56943000  0.10409200  1
  Ir  Ir25  1  0.56943000  0.07189200  0.10409200  1
  Ir  Ir26  1  0.80027600  0.30455200  0.64145700  1
  Ir  Ir27  1  0.30455200  0.80027600  0.64145700  1
  Ir  Ir28  1  0.19972400  0.69544800  0.35854300  1
  Ir  Ir29  1  0.69544800  0.19972400  0.35854300  1
  Ir  Ir30  1  0.92810800  0.43057000  0.89590800  1
  Ir  Ir31  1  0.43057000  0.92810800  0.89590800  1
