# generated using pymatgen
data_KV2CrO7
_symmetry_space_group_name_H-M   'P 1'
_cell_length_a   4.93412900
_cell_length_b   6.97864600
_cell_length_c   8.36943531
_cell_angle_alpha   78.28094268
_cell_angle_beta   90.00000000
_cell_angle_gamma   90.00000000
_symmetry_Int_Tables_number   1
_chemical_formula_structural   KV2CrO7
_chemical_formula_sum   'K2 V4 Cr2 O14'
_cell_volume   282.18206513
_cell_formula_units_Z   2
loop_
 _symmetry_equiv_pos_site_id
 _symmetry_equiv_pos_as_xyz
  1  'x, y, z'
loop_
 _atom_site_type_symbol
 _atom_site_label
 _atom_site_symmetry_multiplicity
 _atom_site_fract_x
 _atom_site_fract_y
 _atom_site_fract_z
 _atom_site_occupancy
  K  K0  1  0.39849900  0.25000000  0.50000000  1
  K  K1  1  0.60150100  0.75000000  0.50000000  1
  V  V2  1  0.00250400  0.12337600  0.17327400  1
  V  V3  1  0.99749600  0.87662400  0.82672600  1
  V  V4  1  0.99749600  0.62337600  0.17327400  1
  V  V5  1  0.00250400  0.37662400  0.82672600  1
  Cr  Cr6  1  0.50000000  0.50000000  0.00000000  1
  Cr  Cr7  1  0.50000000  0.00000000  0.00000000  1
  O  O8  1  0.32237000  0.01903300  0.20960400  1
  O  O9  1  0.12932300  0.88267900  0.64574800  1
  O  O10  1  0.15858800  0.11284600  0.88485800  1
  O  O11  1  0.12932300  0.61732100  0.35425200  1
  O  O12  1  0.87067700  0.11732100  0.35425200  1
  O  O13  1  0.67763000  0.51903300  0.20960400  1
  O  O14  1  0.84141200  0.88715400  0.11514200  1
  O  O15  1  0.15858800  0.38715400  0.11514200  1
  O  O16  1  0.28371200  0.75000000  0.00000000  1
  O  O17  1  0.71628800  0.25000000  0.00000000  1
  O  O18  1  0.32237000  0.48096700  0.79039600  1
  O  O19  1  0.67763000  0.98096700  0.79039600  1
  O  O20  1  0.87067700  0.38267900  0.64574800  1
  O  O21  1  0.84141200  0.61284600  0.88485800  1
