# generated using pymatgen
data_BaMnO3
_symmetry_space_group_name_H-M   'P 1'
_cell_length_a   5.77248915
_cell_length_b   5.77248915
_cell_length_c   19.26893200
_cell_angle_alpha   90.00000000
_cell_angle_beta   90.00000000
_cell_angle_gamma   119.99999024
_symmetry_Int_Tables_number   1
_chemical_formula_structural   BaMnO3
_chemical_formula_sum   'Ba8 Mn8 O24'
_cell_volume   556.05092671
_cell_formula_units_Z   8
loop_
 _symmetry_equiv_pos_site_id
 _symmetry_equiv_pos_as_xyz
  1  'x, y, z'
loop_
 _atom_site_type_symbol
 _atom_site_label
 _atom_site_symmetry_multiplicity
 _atom_site_fract_x
 _atom_site_fract_y
 _atom_site_fract_z
 _atom_site_occupancy
  Ba  Ba0  1  0.33333300  0.66666700  0.12719700  1
  Ba  Ba1  1  0.66666700  0.33333300  0.62719700  1
  Ba  Ba2  1  0.00000000  0.00000000  0.25000000  1
  Ba  Ba3  1  0.00000000  0.00000000  0.00000000  1
  Ba  Ba4  1  0.33333300  0.66666700  0.37280300  1
  Ba  Ba5  1  0.00000000  0.00000000  0.75000000  1
  Ba  Ba6  1  0.66666700  0.33333300  0.87280300  1
  Ba  Ba7  1  0.00000000  0.00000000  0.50000000  1
  Mn  Mn8  1  0.33333300  0.66666700  0.81531600  1
  Mn  Mn9  1  0.66666700  0.33333300  0.05272300  1
  Mn  Mn10  1  0.33333300  0.66666700  0.94727700  1
  Mn  Mn11  1  0.33333300  0.66666700  0.55272300  1
  Mn  Mn12  1  0.66666700  0.33333300  0.18468400  1
  Mn  Mn13  1  0.33333300  0.66666700  0.68468400  1
  Mn  Mn14  1  0.66666700  0.33333300  0.31531600  1
  Mn  Mn15  1  0.66666700  0.33333300  0.44727700  1
  O  O16  1  0.96392400  0.48196200  0.25000000  1
  O  O17  1  0.50000000  0.50000000  0.50000000  1
  O  O18  1  0.37255300  0.18627600  0.12053000  1
  O  O19  1  0.03607600  0.51803800  0.75000000  1
  O  O20  1  0.81372400  0.62744700  0.12053000  1
  O  O21  1  0.18627600  0.37255300  0.87947000  1
  O  O22  1  0.18627600  0.81372400  0.87947000  1
  O  O23  1  0.62744700  0.81372400  0.87947000  1
  O  O24  1  0.62744700  0.81372400  0.62053000  1
  O  O25  1  0.50000000  0.00000000  0.50000000  1
  O  O26  1  0.48196200  0.96392400  0.75000000  1
  O  O27  1  0.51803800  0.03607600  0.25000000  1
  O  O28  1  0.18627600  0.81372400  0.62053000  1
  O  O29  1  0.18627600  0.37255300  0.62053000  1
  O  O30  1  0.50000000  0.00000000  0.00000000  1
  O  O31  1  0.37255300  0.18627600  0.37947000  1
  O  O32  1  0.48196200  0.51803800  0.75000000  1
  O  O33  1  0.81372400  0.18627600  0.37947000  1
  O  O34  1  0.51803800  0.48196200  0.25000000  1
  O  O35  1  0.00000000  0.50000000  0.50000000  1
  O  O36  1  0.00000000  0.50000000  0.00000000  1
  O  O37  1  0.81372400  0.18627600  0.12053000  1
  O  O38  1  0.81372400  0.62744700  0.37947000  1
  O  O39  1  0.50000000  0.50000000  0.00000000  1
