# generated using pymatgen
data_V4(P2O7)3
_symmetry_space_group_name_H-M   'P 1'
_cell_length_a   7.63084000
_cell_length_b   9.73022600
_cell_length_c   21.78863000
_cell_angle_alpha   90.00000000
_cell_angle_beta   90.00000000
_cell_angle_gamma   90.00000000
_symmetry_Int_Tables_number   1
_chemical_formula_structural   V4(P2O7)3
_chemical_formula_sum   'V16 P24 O84'
_cell_volume   1617.80137118
_cell_formula_units_Z   4
loop_
 _symmetry_equiv_pos_site_id
 _symmetry_equiv_pos_as_xyz
  1  'x, y, z'
loop_
 _atom_site_type_symbol
 _atom_site_label
 _atom_site_symmetry_multiplicity
 _atom_site_fract_x
 _atom_site_fract_y
 _atom_site_fract_z
 _atom_site_occupancy
  V  V0  1  0.55362100  0.76062200  0.49636000  1
  V  V1  1  0.44637900  0.23937800  0.50364000  1
  V  V2  1  0.55333100  0.22067400  0.75645200  1
  V  V3  1  0.94637900  0.76062200  0.49636000  1
  V  V4  1  0.05333100  0.72067400  0.74354800  1
  V  V5  1  0.05362100  0.26062200  0.00364000  1
  V  V6  1  0.44666900  0.77932600  0.24354800  1
  V  V7  1  0.44637900  0.26062200  0.00364000  1
  V  V8  1  0.55333100  0.27932600  0.25645200  1
  V  V9  1  0.05362100  0.23937800  0.50364000  1
  V  V10  1  0.55362100  0.73937800  0.99636000  1
  V  V11  1  0.05333100  0.77932600  0.24354800  1
  V  V12  1  0.94637900  0.73937800  0.99636000  1
  V  V13  1  0.44666900  0.72067400  0.74354800  1
  V  V14  1  0.94666900  0.27932600  0.25645200  1
  V  V15  1  0.94666900  0.22067400  0.75645200  1
  P  P16  1  0.75000000  0.46766800  0.54777300  1
  P  P17  1  0.25000000  0.44657200  0.80066600  1
  P  P18  1  0.25000000  0.53233200  0.45222700  1
  P  P19  1  0.25000000  0.97111200  0.43873800  1
  P  P20  1  0.75000000  0.49847500  0.68918200  1
  P  P21  1  0.25000000  0.50152500  0.31081800  1
  P  P22  1  0.75000000  0.00152500  0.18918200  1
  P  P23  1  0.75000000  0.55342800  0.19933400  1
  P  P24  1  0.75000000  0.94657200  0.69933400  1
  P  P25  1  0.25000000  0.66727600  0.10934500  1
  P  P26  1  0.25000000  0.34272300  0.14175300  1
  P  P27  1  0.75000000  0.16727600  0.39065500  1
  P  P28  1  0.25000000  0.99847500  0.81081800  1
  P  P29  1  0.75000000  0.84272300  0.35824700  1
  P  P30  1  0.75000000  0.33272400  0.89065500  1
  P  P31  1  0.75000000  0.47111200  0.06126200  1
  P  P32  1  0.25000000  0.05342800  0.30066600  1
  P  P33  1  0.25000000  0.15727700  0.64175300  1
  P  P34  1  0.75000000  0.03233200  0.04777300  1
  P  P35  1  0.75000000  0.65727700  0.85824700  1
  P  P36  1  0.25000000  0.52888800  0.93873800  1
  P  P37  1  0.25000000  0.96766800  0.95222700  1
  P  P38  1  0.75000000  0.02888800  0.56126200  1
  P  P39  1  0.25000000  0.83272400  0.60934500  1
  O  O40  1  0.41826900  0.60701200  0.94704000  1
  O  O41  1  0.91876700  0.19720700  0.42601300  1
  O  O42  1  0.58117400  0.92261900  0.19960700  1
  O  O43  1  0.41882600  0.42261900  0.30039300  1
  O  O44  1  0.58117400  0.57738100  0.69960700  1
  O  O45  1  0.41876700  0.69720700  0.07398700  1
  O  O46  1  0.58123300  0.19720700  0.42601300  1
  O  O47  1  0.75000000  0.04731500  0.11960700  1
  O  O48  1  0.25000000  0.26729600  0.07781100  1
  O  O49  1  0.91746000  0.39808100  0.52729800  1
  O  O50  1  0.75000000  0.60553800  0.02275900  1
  O  O51  1  0.25000000  0.58947600  0.76885100  1
  O  O52  1  0.75000000  0.35643300  0.72180300  1
  O  O53  1  0.41746000  0.89808100  0.97270200  1
  O  O54  1  0.91752000  0.69084700  0.82307100  1
  O  O55  1  0.41746000  0.60191900  0.47270200  1
  O  O56  1  0.08117400  0.07738100  0.80039300  1
  O  O57  1  0.75000000  0.45268500  0.61960700  1
  O  O58  1  0.08254000  0.89808100  0.97270200  1
  O  O59  1  0.41917600  0.37413400  0.78621000  1
  O  O60  1  0.91746000  0.10191900  0.02729800  1
  O  O61  1  0.41752000  0.30915300  0.17692900  1
  O  O62  1  0.08082400  0.12586600  0.28621000  1
  O  O63  1  0.75000000  0.41052400  0.23114900  1
  O  O64  1  0.08254000  0.60191900  0.47270200  1
  O  O65  1  0.25000000  0.54731500  0.38039300  1
  O  O66  1  0.25000000  0.75025700  0.67087000  1
  O  O67  1  0.58082400  0.62586600  0.21379000  1
  O  O68  1  0.58123300  0.30279300  0.92601300  1
  O  O69  1  0.25000000  0.02812200  0.37109600  1
  O  O70  1  0.25000000  0.47187800  0.87109600  1
  O  O71  1  0.41917600  0.12586600  0.28621000  1
  O  O72  1  0.75000000  0.00629000  0.37254400  1
  O  O73  1  0.25000000  0.95268500  0.88039300  1
  O  O74  1  0.75000000  0.87688900  0.03134900  1
  O  O75  1  0.75000000  0.52812200  0.12890400  1
  O  O76  1  0.58248000  0.69084700  0.82307100  1
  O  O77  1  0.91826900  0.39298800  0.05296000  1
  O  O78  1  0.75000000  0.62311100  0.53134900  1
  O  O79  1  0.75000000  0.73270400  0.92218900  1
  O  O80  1  0.75000000  0.97187800  0.62890400  1
  O  O81  1  0.91882600  0.57738100  0.69960700  1
  O  O82  1  0.08082400  0.37413400  0.78621000  1
  O  O83  1  0.08117400  0.42261900  0.30039300  1
  O  O84  1  0.91876700  0.30279300  0.92601300  1
  O  O85  1  0.91826900  0.10701200  0.55296000  1
  O  O86  1  0.58254000  0.39808100  0.52729800  1
  O  O87  1  0.25000000  0.99371000  0.62745600  1
  O  O88  1  0.41882600  0.07738100  0.80039300  1
  O  O89  1  0.41826900  0.89298800  0.44704000  1
  O  O90  1  0.75000000  0.24974300  0.32913000  1
  O  O91  1  0.25000000  0.85643300  0.77819700  1
  O  O92  1  0.58082400  0.87413400  0.71379000  1
  O  O93  1  0.25000000  0.50629000  0.12745600  1
  O  O94  1  0.25000000  0.64356700  0.27819700  1
  O  O95  1  0.25000000  0.12311100  0.96865100  1
  O  O96  1  0.91917600  0.87413400  0.71379000  1
  O  O97  1  0.75000000  0.25025700  0.82913000  1
  O  O98  1  0.58248000  0.80915300  0.32307100  1
  O  O99  1  0.25000000  0.10553800  0.47724100  1
  O  O100  1  0.75000000  0.14356700  0.22180300  1
  O  O101  1  0.08123300  0.80279300  0.57398700  1
  O  O102  1  0.08173100  0.89298800  0.44704000  1
  O  O103  1  0.08248000  0.19084700  0.67692900  1
  O  O104  1  0.08248000  0.30915300  0.17692900  1
  O  O105  1  0.25000000  0.74974300  0.17087000  1
  O  O106  1  0.08173100  0.60701200  0.94704000  1
  O  O107  1  0.58254000  0.10191900  0.02729800  1
  O  O108  1  0.25000000  0.91052400  0.26885100  1
  O  O109  1  0.75000000  0.49371000  0.87254400  1
  O  O110  1  0.58173100  0.10701200  0.55296000  1
  O  O111  1  0.75000000  0.08947600  0.73114900  1
  O  O112  1  0.25000000  0.39446200  0.97724100  1
  O  O113  1  0.91917600  0.62586600  0.21379000  1
  O  O114  1  0.25000000  0.23270400  0.57781100  1
  O  O115  1  0.58173100  0.39298800  0.05296000  1
  O  O116  1  0.91752000  0.80915300  0.32307100  1
  O  O117  1  0.75000000  0.89446200  0.52275900  1
  O  O118  1  0.75000000  0.76729600  0.42218900  1
  O  O119  1  0.41752000  0.19084700  0.67692900  1
  O  O120  1  0.41876700  0.80279300  0.57398700  1
  O  O121  1  0.08123300  0.69720700  0.07398700  1
  O  O122  1  0.25000000  0.37688900  0.46865100  1
  O  O123  1  0.91882600  0.92261900  0.19960700  1
