# generated using pymatgen
data_KBa4Au(CO)4
_symmetry_space_group_name_H-M   'P 1'
_cell_length_a   8.90956854
_cell_length_b   8.90956854
_cell_length_c   8.90956854
_cell_angle_alpha   139.53898096
_cell_angle_beta   139.53898096
_cell_angle_gamma   58.55396376
_symmetry_Int_Tables_number   1
_chemical_formula_structural   KBa4Au(CO)4
_chemical_formula_sum   'K1 Ba4 Au1 C4 O4'
_cell_volume   295.06896744
_cell_formula_units_Z   1
loop_
 _symmetry_equiv_pos_site_id
 _symmetry_equiv_pos_as_xyz
  1  'x, y, z'
loop_
 _atom_site_type_symbol
 _atom_site_label
 _atom_site_symmetry_multiplicity
 _atom_site_fract_x
 _atom_site_fract_y
 _atom_site_fract_z
 _atom_site_occupancy
  K  K0  1  0.50000000  0.50000000  0.00000000  1
  Ba  Ba1  1  0.11801600  0.61801600  0.50000000  1
  Ba  Ba2  1  0.88198400  0.38198400  0.50000000  1
  Ba  Ba3  1  0.61801600  0.11801600  0.50000000  1
  Ba  Ba4  1  0.38198400  0.88198400  0.50000000  1
  Au  Au5  1  0.00000000  0.00000000  0.00000000  1
  C  C6  1  0.30912800  0.30912800  0.00000000  1
  C  C7  1  0.69087200  0.69087200  0.00000000  1
  C  C8  1  0.22741400  0.22741400  0.00000000  1
  C  C9  1  0.77258600  0.77258600  0.00000000  1
  O  O10  1  0.77040500  0.77040500  0.54081000  1
  O  O11  1  0.22959500  0.77040500  0.00000000  1
  O  O12  1  0.77040500  0.22959500  0.00000000  1
  O  O13  1  0.22959500  0.22959500  0.45919000  1
