# generated using pymatgen
data_Nd3MoO7
_symmetry_space_group_name_H-M   'P 1'
_cell_length_a   7.66161600
_cell_length_b   7.72367400
_cell_length_c   10.95126100
_cell_angle_alpha   90.00000000
_cell_angle_beta   90.00000000
_cell_angle_gamma   90.00000000
_symmetry_Int_Tables_number   1
_chemical_formula_structural   Nd3MoO7
_chemical_formula_sum   'Nd12 Mo4 O28'
_cell_volume   648.04989677
_cell_formula_units_Z   4
loop_
 _symmetry_equiv_pos_site_id
 _symmetry_equiv_pos_as_xyz
  1  'x, y, z'
loop_
 _atom_site_type_symbol
 _atom_site_label
 _atom_site_symmetry_multiplicity
 _atom_site_fract_x
 _atom_site_fract_y
 _atom_site_fract_z
 _atom_site_occupancy
  Nd  Nd0  1  0.76104700  0.20934900  0.49447500  1
  Nd  Nd1  1  0.99848600  0.03700800  0.22331400  1
  Nd  Nd2  1  0.49848600  0.46299200  0.77668600  1
  Nd  Nd3  1  0.50164100  0.45109100  0.23099100  1
  Nd  Nd4  1  0.99835900  0.54890900  0.73099100  1
  Nd  Nd5  1  0.00151400  0.53700800  0.27668600  1
  Nd  Nd6  1  0.00164100  0.04890900  0.76900900  1
  Nd  Nd7  1  0.49835900  0.95109100  0.26900900  1
  Nd  Nd8  1  0.26104700  0.29065100  0.50552500  1
  Nd  Nd9  1  0.50151400  0.96299200  0.72331400  1
  Nd  Nd10  1  0.73895300  0.79065100  0.99447500  1
  Nd  Nd11  1  0.23895300  0.70934900  0.00552500  1
  Mo  Mo12  1  0.75364900  0.25190100  0.00115900  1
  Mo  Mo13  1  0.24635100  0.75190100  0.49884100  1
  Mo  Mo14  1  0.25364900  0.24809900  0.99884100  1
  Mo  Mo15  1  0.74635100  0.74809900  0.50115900  1
  O  O16  1  0.21787000  0.45774700  0.88081200  1
  O  O17  1  0.49680500  0.81328000  0.49287600  1
  O  O18  1  0.28213100  0.56069000  0.62698000  1
  O  O19  1  0.71719400  0.56416800  0.37958800  1
  O  O20  1  0.49706500  0.21795400  0.36677700  1
  O  O21  1  0.78213100  0.93931000  0.37302000  1
  O  O22  1  0.99706500  0.28204600  0.63322300  1
  O  O23  1  0.28280600  0.06416800  0.12041200  1
  O  O24  1  0.79190000  0.38952100  0.14689900  1
  O  O25  1  0.20810000  0.88952100  0.35310100  1
  O  O26  1  0.21786900  0.43931000  0.12698000  1
  O  O27  1  0.98693700  0.75927900  0.13194600  1
  O  O28  1  0.70810000  0.61047900  0.64689900  1
  O  O29  1  0.71786900  0.06069000  0.87302000  1
  O  O30  1  0.99680500  0.68672000  0.50712400  1
  O  O31  1  0.78213000  0.95774700  0.61918800  1
  O  O32  1  0.51306300  0.24072100  0.63194600  1
  O  O33  1  0.50293500  0.71795400  0.13322300  1
  O  O34  1  0.78280600  0.43583200  0.87958800  1
  O  O35  1  0.01306300  0.25927900  0.36805400  1
  O  O36  1  0.48693700  0.74072100  0.86805400  1
  O  O37  1  0.00293500  0.78204600  0.86677700  1
  O  O38  1  0.28213000  0.54225300  0.38081200  1
  O  O39  1  0.00319500  0.18672000  0.99287600  1
  O  O40  1  0.50319500  0.31328000  0.00712400  1
  O  O41  1  0.29190000  0.11047900  0.85310100  1
  O  O42  1  0.21719400  0.93583200  0.62041200  1
  O  O43  1  0.71787000  0.04225300  0.11918800  1
