# generated using pymatgen
data_MnH11C5NO6
_symmetry_space_group_name_H-M   'P 1'
_cell_length_a   8.36258900
_cell_length_b   9.17263800
_cell_length_c   12.18008000
_cell_angle_alpha   90.00000000
_cell_angle_beta   90.00000000
_cell_angle_gamma   90.00000000
_symmetry_Int_Tables_number   1
_chemical_formula_structural   MnH11C5NO6
_chemical_formula_sum   'Mn4 H44 C20 N4 O24'
_cell_volume   934.29741653
_cell_formula_units_Z   4
loop_
 _symmetry_equiv_pos_site_id
 _symmetry_equiv_pos_as_xyz
  1  'x, y, z'
loop_
 _atom_site_type_symbol
 _atom_site_label
 _atom_site_symmetry_multiplicity
 _atom_site_fract_x
 _atom_site_fract_y
 _atom_site_fract_z
 _atom_site_occupancy
  Mn  Mn0  1  0.99619800  0.02965000  0.00024000  1
  Mn  Mn1  1  0.49619800  0.47035000  0.50024000  1
  Mn  Mn2  1  0.00380200  0.97035000  0.50024000  1
  Mn  Mn3  1  0.50380200  0.52965000  0.00024000  1
  H  H4  1  0.70811700  0.17343600  0.46477400  1
  H  H5  1  0.36830100  0.15146000  0.80421800  1
  H  H6  1  0.00555000  0.67004700  0.30600600  1
  H  H7  1  0.15207500  0.38390500  0.72454300  1
  H  H8  1  0.82542100  0.50541400  0.71450100  1
  H  H9  1  0.17457900  0.49458600  0.21450100  1
  H  H10  1  0.93588000  0.72731600  0.79915900  1
  H  H11  1  0.13169900  0.65146000  0.80421800  1
  H  H12  1  0.92943500  0.01533800  0.74298600  1
  H  H13  1  0.97607700  0.57943800  0.88812100  1
  H  H14  1  0.07056500  0.98466200  0.24298600  1
  H  H15  1  0.06412000  0.27268400  0.29915900  1
  H  H16  1  0.57056500  0.51533800  0.74298600  1
  H  H17  1  0.49445000  0.17004700  0.30600600  1
  H  H18  1  0.56412000  0.22731600  0.79915900  1
  H  H19  1  0.50555000  0.82995300  0.80600600  1
  H  H20  1  0.49133300  0.93737400  0.13537600  1
  H  H21  1  0.29188300  0.82656400  0.96477400  1
  H  H22  1  0.76976200  0.75388000  0.04665200  1
  H  H23  1  0.47607700  0.92056200  0.38812100  1
  H  H24  1  0.32542100  0.99458600  0.21450100  1
  H  H25  1  0.79188300  0.67343600  0.46477400  1
  H  H26  1  0.26976200  0.74612000  0.54665200  1
  H  H27  1  0.20811700  0.32656400  0.96477400  1
  H  H28  1  0.42943500  0.48466200  0.24298600  1
  H  H29  1  0.43588000  0.77268400  0.29915900  1
  H  H30  1  0.52392300  0.07943800  0.88812100  1
  H  H31  1  0.34792500  0.88390500  0.72454300  1
  H  H32  1  0.98629800  0.30416400  0.66811100  1
  H  H33  1  0.99445000  0.32995300  0.80600600  1
  H  H34  1  0.23023800  0.24612000  0.54665200  1
  H  H35  1  0.67457900  0.00541400  0.71450100  1
  H  H36  1  0.65207500  0.11609500  0.22454300  1
  H  H37  1  0.84792500  0.61609500  0.22454300  1
  H  H38  1  0.50866700  0.06262600  0.63537600  1
  H  H39  1  0.99133300  0.56262600  0.63537600  1
  H  H40  1  0.48629800  0.19583600  0.16811100  1
  H  H41  1  0.63169900  0.84854000  0.30421800  1
  H  H42  1  0.86830100  0.34854000  0.30421800  1
  H  H43  1  0.51370200  0.80416400  0.66811100  1
  H  H44  1  0.73023800  0.25388000  0.04665200  1
  H  H45  1  0.01370200  0.69583600  0.16811100  1
  H  H46  1  0.02392300  0.42056200  0.38812100  1
  H  H47  1  0.00866700  0.43737400  0.13537600  1
  C  C48  1  0.05770100  0.98575200  0.75005300  1
  C  C49  1  0.78310900  0.30525800  0.97254500  1
  C  C50  1  0.04518900  0.47752500  0.21646100  1
  C  C51  1  0.00378800  0.62577900  0.80725200  1
  C  C52  1  0.22972200  0.76339700  0.02954500  1
  C  C53  1  0.54518900  0.02247500  0.71646100  1
  C  C54  1  0.49621200  0.12577900  0.80725200  1
  C  C55  1  0.99621200  0.37422100  0.30725200  1
  C  C56  1  0.44229900  0.48575200  0.75005300  1
  C  C57  1  0.95481100  0.52247500  0.71646100  1
  C  C58  1  0.45481100  0.97752500  0.21646100  1
  C  C59  1  0.21689100  0.69474200  0.47254500  1
  C  C60  1  0.71689100  0.80525800  0.97254500  1
  C  C61  1  0.77027800  0.23660300  0.52954500  1
  C  C62  1  0.72972200  0.73660300  0.52954500  1
  C  C63  1  0.94229900  0.01424800  0.25005300  1
  C  C64  1  0.28310900  0.19474200  0.47254500  1
  C  C65  1  0.55770100  0.51424800  0.25005300  1
  C  C66  1  0.50378800  0.87422100  0.30725200  1
  C  C67  1  0.27027800  0.26339700  0.02954500  1
  N  N68  1  0.52837500  0.12533100  0.23016800  1
  N  N69  1  0.02837500  0.37466900  0.73016800  1
  N  N70  1  0.47162500  0.87466900  0.73016800  1
  N  N71  1  0.97162500  0.62533100  0.23016800  1
  O  O72  1  0.40573000  0.25765200  0.43155100  1
  O  O73  1  0.12176200  0.99046800  0.84404900  1
  O  O74  1  0.09427000  0.75765200  0.43155100  1
  O  O75  1  0.59721900  0.68442100  0.56463500  1
  O  O76  1  0.86925500  0.05055000  0.16223900  1
  O  O77  1  0.79266900  0.85311500  0.56387100  1
  O  O78  1  0.90278100  0.18442100  0.56463500  1
  O  O79  1  0.63074500  0.55055000  0.16223900  1
  O  O80  1  0.62176200  0.50953200  0.34404900  1
  O  O81  1  0.21935600  0.08020700  0.43546500  1
  O  O82  1  0.59427000  0.74234800  0.93155100  1
  O  O83  1  0.40278100  0.31557900  0.06463500  1
  O  O84  1  0.90573000  0.24234800  0.93155100  1
  O  O85  1  0.71935600  0.41979300  0.93546500  1
  O  O86  1  0.09721900  0.81557900  0.06463500  1
  O  O87  1  0.37823800  0.49046800  0.84404900  1
  O  O88  1  0.87823800  0.00953200  0.34404900  1
  O  O89  1  0.20733100  0.14688500  0.06387100  1
  O  O90  1  0.36925500  0.44945000  0.66223900  1
  O  O91  1  0.78064400  0.91979300  0.93546500  1
  O  O92  1  0.29266900  0.64688500  0.06387100  1
  O  O93  1  0.13074500  0.94945000  0.66223900  1
  O  O94  1  0.28064400  0.58020700  0.43546500  1
  O  O95  1  0.70733100  0.35311500  0.56387100  1
