# generated using pymatgen
data_YC3O8
_symmetry_space_group_name_H-M   'P 1'
_cell_length_a   7.28630800
_cell_length_b   8.99395800
_cell_length_c   12.60830100
_cell_angle_alpha   90.00000000
_cell_angle_beta   90.00000000
_cell_angle_gamma   90.00000000
_symmetry_Int_Tables_number   1
_chemical_formula_structural   YC3O8
_chemical_formula_sum   'Y4 C12 O32'
_cell_volume   826.25661374
_cell_formula_units_Z   4
loop_
 _symmetry_equiv_pos_site_id
 _symmetry_equiv_pos_as_xyz
  1  'x, y, z'
loop_
 _atom_site_type_symbol
 _atom_site_label
 _atom_site_symmetry_multiplicity
 _atom_site_fract_x
 _atom_site_fract_y
 _atom_site_fract_z
 _atom_site_occupancy
  Y  Y0  1  0.74654600  0.45895900  0.79704100  1
  Y  Y1  1  0.25345400  0.95895900  0.70295900  1
  Y  Y2  1  0.75345400  0.54104100  0.29704100  1
  Y  Y3  1  0.24654600  0.04104100  0.20295900  1
  C  C4  1  0.93270800  0.29750300  0.05276800  1
  C  C5  1  0.06729200  0.79750300  0.44723200  1
  C  C6  1  0.56729200  0.70249700  0.55276800  1
  C  C7  1  0.43270800  0.20249700  0.94723200  1
  C  C8  1  0.95165600  0.78849900  0.04183700  1
  C  C9  1  0.04834400  0.28849900  0.45816300  1
  C  C10  1  0.54834400  0.21150100  0.54183700  1
  C  C11  1  0.45165600  0.71150100  0.95816300  1
  C  C12  1  0.97324500  0.14161800  0.75216600  1
  C  C13  1  0.02675500  0.64161800  0.74783400  1
  C  C14  1  0.52675500  0.85838200  0.25216600  1
  C  C15  1  0.47324500  0.35838200  0.24783400  1
  O  O16  1  0.85705700  0.37001500  0.98868600  1
  O  O17  1  0.14294300  0.87001500  0.51131400  1
  O  O18  1  0.64294300  0.62998500  0.48868600  1
  O  O19  1  0.35705700  0.12998500  0.01131400  1
  O  O20  1  0.00647600  0.20732700  0.10531500  1
  O  O21  1  0.99352400  0.70732700  0.39468500  1
  O  O22  1  0.49352400  0.79267300  0.60531500  1
  O  O23  1  0.50647600  0.29267300  0.89468500  1
  O  O24  1  0.87915900  0.72025100  0.97500100  1
  O  O25  1  0.12084100  0.22025100  0.52499900  1
  O  O26  1  0.62084100  0.27974900  0.47500100  1
  O  O27  1  0.37915900  0.77974900  0.02499900  1
  O  O28  1  0.02481900  0.86526300  0.10474500  1
  O  O29  1  0.97518100  0.36526300  0.39525500  1
  O  O30  1  0.47518100  0.13473700  0.60474500  1
  O  O31  1  0.52481900  0.63473700  0.89525500  1
  O  O32  1  0.84315700  0.23769000  0.75787500  1
  O  O33  1  0.15684300  0.73769000  0.74212500  1
  O  O34  1  0.65684300  0.76231000  0.25787500  1
  O  O35  1  0.34315700  0.26231000  0.24212500  1
  O  O36  1  0.95408200  0.02341500  0.69415100  1
  O  O37  1  0.04591800  0.52341500  0.80584900  1
  O  O38  1  0.54591800  0.97658500  0.19415100  1
  O  O39  1  0.45408200  0.47658500  0.30584900  1
  O  O40  1  0.56958200  0.47765400  0.66410400  1
  O  O41  1  0.43041800  0.97765400  0.83589600  1
  O  O42  1  0.93041800  0.52234600  0.16410400  1
  O  O43  1  0.06958200  0.02234600  0.33589600  1
  O  O44  1  0.87047200  0.65866300  0.69883800  1
  O  O45  1  0.12952800  0.15866300  0.80116200  1
  O  O46  1  0.62952800  0.34133700  0.19883800  1
  O  O47  1  0.37047200  0.84133700  0.30116200  1
