# generated using pymatgen
data_Mn3Nb2ZnO9
_symmetry_space_group_name_H-M   'P 1'
_cell_length_a   5.36636576
_cell_length_b   5.36636576
_cell_length_c   14.53427600
_cell_angle_alpha   90.00000000
_cell_angle_beta   90.00000000
_cell_angle_gamma   119.99999699
_symmetry_Int_Tables_number   1
_chemical_formula_structural   Mn3Nb2ZnO9
_chemical_formula_sum   'Mn6 Nb4 Zn2 O18'
_cell_volume   362.48044894
_cell_formula_units_Z   2
loop_
 _symmetry_equiv_pos_site_id
 _symmetry_equiv_pos_as_xyz
  1  'x, y, z'
loop_
 _atom_site_type_symbol
 _atom_site_label
 _atom_site_symmetry_multiplicity
 _atom_site_fract_x
 _atom_site_fract_y
 _atom_site_fract_z
 _atom_site_occupancy
  Mn  Mn0  1  0.66666700  0.33333300  0.69758900  1
  Mn  Mn1  1  0.66666700  0.33333300  0.98130700  1
  Mn  Mn2  1  0.66666700  0.33333300  0.48130700  1
  Mn  Mn3  1  0.33333300  0.66666700  0.51347400  1
  Mn  Mn4  1  0.33333300  0.66666700  0.01347400  1
  Mn  Mn5  1  0.66666700  0.33333300  0.19758900  1
  Nb  Nb6  1  0.00000000  0.00000000  0.85790700  1
  Nb  Nb7  1  0.00000000  0.00000000  0.14113500  1
  Nb  Nb8  1  0.00000000  0.00000000  0.64113500  1
  Nb  Nb9  1  0.00000000  0.00000000  0.35790700  1
  Zn  Zn10  1  0.33333300  0.66666700  0.79434600  1
  Zn  Zn11  1  0.33333300  0.66666700  0.29434600  1
  O  O12  1  0.33643100  0.30939100  0.08491600  1
  O  O13  1  0.66372200  0.68959000  0.91390000  1
  O  O14  1  0.01010800  0.28663600  0.24969700  1
  O  O15  1  0.27652800  0.98989200  0.24969700  1
  O  O16  1  0.97296000  0.66356900  0.08491600  1
  O  O17  1  0.69060900  0.66356900  0.58491600  1
  O  O18  1  0.71336400  0.98989200  0.74969700  1
  O  O19  1  0.02586800  0.33627800  0.91390000  1
  O  O20  1  0.02586800  0.68959000  0.41390000  1
  O  O21  1  0.33643100  0.02704000  0.58491600  1
  O  O22  1  0.27652800  0.28663600  0.74969700  1
  O  O23  1  0.97296000  0.30939100  0.58491600  1
  O  O24  1  0.71336400  0.72347200  0.24969700  1
  O  O25  1  0.31041000  0.97413200  0.91390000  1
  O  O26  1  0.69060900  0.02704000  0.08491600  1
  O  O27  1  0.66372200  0.97413200  0.41390000  1
  O  O28  1  0.31041000  0.33627800  0.41390000  1
  O  O29  1  0.01010800  0.72347200  0.74969700  1
