# generated using pymatgen
data_V(CrS2)2
_symmetry_space_group_name_H-M   'P 1'
_cell_length_a   6.47963324
_cell_length_b   6.47963324
_cell_length_c   6.11209945
_cell_angle_alpha   62.27992110
_cell_angle_beta   62.27992110
_cell_angle_gamma   30.63224125
_symmetry_Int_Tables_number   1
_chemical_formula_structural   V(CrS2)2
_chemical_formula_sum   'V1 Cr2 S4'
_cell_volume   114.54326384
_cell_formula_units_Z   1
loop_
 _symmetry_equiv_pos_site_id
 _symmetry_equiv_pos_as_xyz
  1  'x, y, z'
loop_
 _atom_site_type_symbol
 _atom_site_label
 _atom_site_symmetry_multiplicity
 _atom_site_fract_x
 _atom_site_fract_y
 _atom_site_fract_z
 _atom_site_occupancy
  V  V0  1  0.00000000  0.00000000  0.00000000  1
  Cr  Cr1  1  0.74146100  0.74146100  0.27569100  1
  Cr  Cr2  1  0.25853900  0.25853900  0.72430900  1
  S  S3  1  0.87592700  0.87592700  0.44724800  1
  S  S4  1  0.12407300  0.12407300  0.55275200  1
  S  S5  1  0.63271100  0.63271100  0.02812600  1
  S  S6  1  0.36728900  0.36728900  0.97187400  1
