# generated using pymatgen
data_SiO2
_symmetry_space_group_name_H-M   'P 1'
_cell_length_a   11.00515127
_cell_length_b   11.00515127
_cell_length_c   11.00515191
_cell_angle_alpha   114.35565716
_cell_angle_beta   114.35565716
_cell_angle_gamma   114.35565699
_symmetry_Int_Tables_number   1
_chemical_formula_structural   SiO2
_chemical_formula_sum   'Si12 O24'
_cell_volume   787.97768220
_cell_formula_units_Z   12
loop_
 _symmetry_equiv_pos_site_id
 _symmetry_equiv_pos_as_xyz
  1  'x, y, z'
loop_
 _atom_site_type_symbol
 _atom_site_label
 _atom_site_symmetry_multiplicity
 _atom_site_fract_x
 _atom_site_fract_y
 _atom_site_fract_z
 _atom_site_occupancy
  Si  Si0  1  0.63874000  0.47169900  0.04286000  1
  Si  Si1  1  0.04286000  0.63874000  0.47169900  1
  Si  Si2  1  0.95714000  0.36126000  0.52830100  1
  Si  Si3  1  0.86126000  0.45714000  0.02830100  1
  Si  Si4  1  0.45714000  0.02830100  0.86126000  1
  Si  Si5  1  0.02830100  0.86126000  0.45714000  1
  Si  Si6  1  0.97169900  0.13874000  0.54286000  1
  Si  Si7  1  0.54286000  0.97169900  0.13874000  1
  Si  Si8  1  0.47169900  0.04286000  0.63874000  1
  Si  Si9  1  0.52830100  0.95714000  0.36126000  1
  Si  Si10  1  0.13874000  0.54286000  0.97169900  1
  Si  Si11  1  0.36126000  0.52830100  0.95714000  1
  O  O12  1  0.50000000  0.50000000  0.00000000  1
  O  O13  1  0.67987500  0.25000000  0.82012500  1
  O  O14  1  0.00000000  0.50000000  0.00000000  1
  O  O15  1  0.82012500  0.67987500  0.25000000  1
  O  O16  1  0.52069100  0.97930900  0.75000000  1
  O  O17  1  0.03321400  0.46678600  0.75000000  1
  O  O18  1  0.75000000  0.03321400  0.46678600  1
  O  O19  1  0.53321400  0.25000000  0.96678600  1
  O  O20  1  0.96678600  0.53321400  0.25000000  1
  O  O21  1  0.32012500  0.75000000  0.17987500  1
  O  O22  1  0.47930900  0.02069100  0.25000000  1
  O  O23  1  0.75000000  0.52069100  0.97930900  1
  O  O24  1  0.25000000  0.47930900  0.02069100  1
  O  O25  1  0.25000000  0.82012500  0.67987500  1
  O  O26  1  0.25000000  0.96678600  0.53321400  1
  O  O27  1  0.50000000  0.00000000  0.00000000  1
  O  O28  1  0.00000000  0.50000000  0.50000000  1
  O  O29  1  0.50000000  0.00000000  0.50000000  1
  O  O30  1  0.46678600  0.75000000  0.03321400  1
  O  O31  1  0.97930900  0.75000000  0.52069100  1
  O  O32  1  0.17987500  0.32012500  0.75000000  1
  O  O33  1  0.75000000  0.17987500  0.32012500  1
  O  O34  1  0.02069100  0.25000000  0.47930900  1
  O  O35  1  0.00000000  0.00000000  0.50000000  1
