# generated using pymatgen
data_TiS
_symmetry_space_group_name_H-M   'P 1'
_cell_length_a   9.08462859
_cell_length_b   9.08462859
_cell_length_c   9.08462860
_cell_angle_alpha   21.90495526
_cell_angle_beta   21.90495526
_cell_angle_gamma   21.90495899
_symmetry_Int_Tables_number   1
_chemical_formula_structural   TiS
_chemical_formula_sum   'Ti3 S3'
_cell_volume   91.47113214
_cell_formula_units_Z   3
loop_
 _symmetry_equiv_pos_site_id
 _symmetry_equiv_pos_as_xyz
  1  'x, y, z'
loop_
 _atom_site_type_symbol
 _atom_site_label
 _atom_site_symmetry_multiplicity
 _atom_site_fract_x
 _atom_site_fract_y
 _atom_site_fract_z
 _atom_site_occupancy
  Ti  Ti0  1  0.50000000  0.50000000  0.50000000  1
  Ti  Ti1  1  0.61871000  0.61871000  0.61871000  1
  Ti  Ti2  1  0.38129000  0.38129000  0.38129000  1
  S  S3  1  0.00000000  0.00000000  0.00000000  1
  S  S4  1  0.77663600  0.77663600  0.77663600  1
  S  S5  1  0.22336400  0.22336400  0.22336400  1
