# generated using pymatgen
data_S
_symmetry_space_group_name_H-M   'P 1'
_cell_length_a   11.59914200
_cell_length_b   11.85825300
_cell_length_c   11.86138595
_cell_angle_alpha   81.64063854
_cell_angle_beta   90.00000000
_cell_angle_gamma   90.00000000
_symmetry_Int_Tables_number   1
_chemical_formula_structural   S
_chemical_formula_sum   S48
_cell_volume   1614.14763074
_cell_formula_units_Z   48
loop_
 _symmetry_equiv_pos_site_id
 _symmetry_equiv_pos_as_xyz
  1  'x, y, z'
loop_
 _atom_site_type_symbol
 _atom_site_label
 _atom_site_symmetry_multiplicity
 _atom_site_fract_x
 _atom_site_fract_y
 _atom_site_fract_z
 _atom_site_occupancy
  S  S0  1  0.31974200  0.21254400  0.73035300  1
  S  S1  1  0.01763700  0.95029800  0.96146900  1
  S  S2  1  0.81974200  0.78745600  0.26964700  1
  S  S3  1  0.07615900  0.65972300  0.24573100  1
  S  S4  1  0.15462300  0.45334000  0.95097000  1
  S  S5  1  0.85114000  0.72328100  0.74602400  1
  S  S6  1  0.59310500  0.84639300  0.77507900  1
  S  S7  1  0.18024700  0.76447900  0.13488700  1
  S  S8  1  0.98083500  0.75791400  0.34158300  1
  S  S9  1  0.44160400  0.83315500  0.33617400  1
  S  S10  1  0.06858300  0.29960500  0.96086600  1
  S  S11  1  0.68966900  0.75348200  0.67505800  1
  S  S12  1  0.51763700  0.04970200  0.03853100  1
  S  S13  1  0.49000000  0.73658000  0.88203400  1
  S  S14  1  0.09310500  0.15360700  0.22492100  1
  S  S15  1  0.31930000  0.05470300  0.83036600  1
  S  S16  1  0.84585900  0.92465500  0.00185500  1
  S  S17  1  0.94160400  0.16684500  0.66382600  1
  S  S18  1  0.23572500  0.92842800  0.49911700  1
  S  S19  1  0.38146600  0.56225400  0.44975600  1
  S  S20  1  0.57615900  0.34027700  0.75426900  1
  S  S21  1  0.17395500  0.65724400  0.61079600  1
  S  S22  1  0.73572500  0.07157200  0.50088300  1
  S  S23  1  0.35319000  0.43752900  0.15976500  1
  S  S24  1  0.40750700  0.94084500  0.45388400  1
  S  S25  1  0.35114000  0.27671900  0.25397600  1
  S  S26  1  0.60149400  0.20493900  0.02249200  1
  S  S27  1  0.81930000  0.94529700  0.16963400  1
  S  S28  1  0.56858300  0.70039500  0.03913400  1
  S  S29  1  0.90750700  0.05915500  0.54611600  1
  S  S30  1  0.51008800  0.68279600  0.41865900  1
  S  S31  1  0.32072400  0.55847800  0.61375300  1
  S  S32  1  0.32615800  0.42411700  0.99030600  1
  S  S33  1  0.18966900  0.24651800  0.32494200  1
  S  S34  1  0.82615800  0.57588300  0.00969400  1
  S  S35  1  0.48083500  0.24208600  0.65841700  1
  S  S36  1  0.67395500  0.34275600  0.38920400  1
  S  S37  1  0.99000000  0.26342000  0.11796600  1
  S  S38  1  0.21750000  0.81632600  0.64835000  1
  S  S39  1  0.68024700  0.23552100  0.86511300  1
  S  S40  1  0.34585900  0.07534500  0.99814500  1
  S  S41  1  0.85319000  0.56247100  0.84023500  1
  S  S42  1  0.65462300  0.54666000  0.04903000  1
  S  S43  1  0.01008800  0.31720400  0.58134100  1
  S  S44  1  0.88146600  0.43774600  0.55024400  1
  S  S45  1  0.71750000  0.18367400  0.35165000  1
  S  S46  1  0.82072400  0.44152200  0.38624700  1
  S  S47  1  0.10149400  0.79506100  0.97750800  1
