# generated using pymatgen
data_V(BrO2)3
_symmetry_space_group_name_H-M   'P 1'
_cell_length_a   4.62117700
_cell_length_b   6.02357100
_cell_length_c   12.34540301
_cell_angle_alpha   85.30792528
_cell_angle_beta   90.00000000
_cell_angle_gamma   90.00000000
_symmetry_Int_Tables_number   1
_chemical_formula_structural   V(BrO2)3
_chemical_formula_sum   'V2 Br6 O12'
_cell_volume   342.49482852
_cell_formula_units_Z   2
loop_
 _symmetry_equiv_pos_site_id
 _symmetry_equiv_pos_as_xyz
  1  'x, y, z'
loop_
 _atom_site_type_symbol
 _atom_site_label
 _atom_site_symmetry_multiplicity
 _atom_site_fract_x
 _atom_site_fract_y
 _atom_site_fract_z
 _atom_site_occupancy
  V  V0  1  0.50000000  0.00000000  0.50000000  1
  V  V1  1  0.00000000  0.00000000  0.00000000  1
  Br  Br2  1  0.50000000  0.50000000  0.00000000  1
  Br  Br3  1  0.00000000  0.50000000  0.50000000  1
  Br  Br4  1  0.62416300  0.18300000  0.68932700  1
  Br  Br5  1  0.12416300  0.81700000  0.81067300  1
  Br  Br6  1  0.37583700  0.81700000  0.31067300  1
  Br  Br7  1  0.87583700  0.18300000  0.18932700  1
  O  O8  1  0.44605100  0.64624300  0.85348800  1
  O  O9  1  0.94605100  0.35375700  0.64651200  1
  O  O10  1  0.55394900  0.35375700  0.14651200  1
  O  O11  1  0.05394900  0.64624300  0.35348800  1
  O  O12  1  0.39420100  0.27244000  0.45292600  1
  O  O13  1  0.89420100  0.72756000  0.04707400  1
  O  O14  1  0.60579900  0.72756000  0.54707400  1
  O  O15  1  0.10579900  0.27244000  0.95292600  1
  O  O16  1  0.10304800  0.93238400  0.52605900  1
  O  O17  1  0.60304800  0.06761600  0.97394100  1
  O  O18  1  0.89695200  0.06761600  0.47394100  1
  O  O19  1  0.39695200  0.93238400  0.02605900  1
