# generated using pymatgen
data_Mn13Si2SbO24
_symmetry_space_group_name_H-M   'P 1'
_cell_length_a   11.82491320
_cell_length_b   11.82491320
_cell_length_c   11.15958200
_cell_angle_alpha   90.00000000
_cell_angle_beta   90.00000000
_cell_angle_gamma   119.99999553
_symmetry_Int_Tables_number   1
_chemical_formula_structural   Mn13Si2SbO24
_chemical_formula_sum   'Mn39 Si6 Sb3 O72'
_cell_volume   1351.37071138
_cell_formula_units_Z   3
loop_
 _symmetry_equiv_pos_site_id
 _symmetry_equiv_pos_as_xyz
  1  'x, y, z'
loop_
 _atom_site_type_symbol
 _atom_site_label
 _atom_site_symmetry_multiplicity
 _atom_site_fract_x
 _atom_site_fract_y
 _atom_site_fract_z
 _atom_site_occupancy
  Mn  Mn0  1  0.00000000  0.52245600  0.25720400  1
  Mn  Mn1  1  0.00000000  0.16193700  0.72959600  1
  Mn  Mn2  1  0.33608600  0.82893500  0.72204700  1
  Mn  Mn3  1  0.66177600  0.66177600  0.49028200  1
  Mn  Mn4  1  0.83159200  0.50432100  0.48910500  1
  Mn  Mn5  1  0.33822400  0.00000000  0.49028200  1
  Mn  Mn6  1  0.83401100  0.00000000  0.50104700  1
  Mn  Mn7  1  0.83084900  0.50112100  0.99051300  1
  Mn  Mn8  1  0.00000000  0.83281300  0.99106500  1
  Mn  Mn9  1  0.67027200  0.16915100  0.99051300  1
  Mn  Mn10  1  0.82893500  0.33608600  0.72204700  1
  Mn  Mn11  1  0.15845100  0.33021000  0.25885000  1
  Mn  Mn12  1  0.49887900  0.32972800  0.99051300  1
  Mn  Mn13  1  0.16718700  0.16718700  0.99106500  1
  Mn  Mn14  1  0.16915100  0.67027200  0.99051300  1
  Mn  Mn15  1  0.32972800  0.49887900  0.99051300  1
  Mn  Mn16  1  0.83281300  0.00000000  0.99106500  1
  Mn  Mn17  1  0.16840800  0.67272900  0.48910500  1
  Mn  Mn18  1  0.50432100  0.83159200  0.48910500  1
  Mn  Mn19  1  0.32727100  0.49567900  0.48910500  1
  Mn  Mn20  1  0.00000000  0.83401100  0.50104700  1
  Mn  Mn21  1  0.83806300  0.83806300  0.72959600  1
  Mn  Mn22  1  0.49284800  0.66391400  0.72204700  1
  Mn  Mn23  1  0.00000000  0.33822400  0.49028200  1
  Mn  Mn24  1  0.16598900  0.16598900  0.50104700  1
  Mn  Mn25  1  0.67272900  0.16840800  0.48910500  1
  Mn  Mn26  1  0.17176000  0.84154900  0.25885000  1
  Mn  Mn27  1  0.52245600  0.00000000  0.25720400  1
  Mn  Mn28  1  0.16193700  0.00000000  0.72959600  1
  Mn  Mn29  1  0.84154900  0.17176000  0.25885000  1
  Mn  Mn30  1  0.17106500  0.50715200  0.72204700  1
  Mn  Mn31  1  0.66979000  0.82824000  0.25885000  1
  Mn  Mn32  1  0.82824000  0.66979000  0.25885000  1
  Mn  Mn33  1  0.49567900  0.32727100  0.48910500  1
  Mn  Mn34  1  0.50112100  0.83084900  0.99051300  1
  Mn  Mn35  1  0.33021000  0.15845100  0.25885000  1
  Mn  Mn36  1  0.66391400  0.49284800  0.72204700  1
  Mn  Mn37  1  0.47754400  0.47754400  0.25720400  1
  Mn  Mn38  1  0.50715200  0.17106500  0.72204700  1
  Si  Si39  1  0.33333300  0.66666700  0.23334700  1
  Si  Si40  1  0.00000000  0.00000000  0.22597500  1
  Si  Si41  1  0.66744700  0.00000000  0.74855000  1
  Si  Si42  1  0.33255300  0.33255300  0.74855000  1
  Si  Si43  1  0.66666700  0.33333300  0.23334700  1
  Si  Si44  1  0.00000000  0.66744700  0.74855000  1
  Sb  Sb45  1  0.65953900  0.65953900  0.99163800  1
  Sb  Sb46  1  0.00000000  0.34046100  0.99163800  1
  Sb  Sb47  1  0.34046100  0.00000000  0.99163800  1
  O  O48  1  0.66115800  0.51312800  0.89774500  1
  O  O49  1  0.47312600  0.66265000  0.54384300  1
  O  O50  1  0.45977300  0.33063900  0.69542500  1
  O  O51  1  0.53341100  0.32570500  0.28460100  1
  O  O52  1  0.85168000  0.19362300  0.08297200  1
  O  O53  1  0.81047500  0.33735000  0.54384300  1
  O  O54  1  0.66265000  0.47312600  0.54384300  1
  O  O55  1  0.00000000  0.33535200  0.69249800  1
  O  O56  1  0.81630900  0.14293900  0.43547400  1
  O  O57  1  0.20378900  0.20378900  0.69708500  1
  O  O58  1  0.33057900  0.33057900  0.89792800  1
  O  O59  1  0.66936100  0.12913400  0.69542500  1
  O  O60  1  0.14832000  0.34194300  0.08297200  1
  O  O61  1  0.13921600  0.00000000  0.55541300  1
  O  O62  1  0.00000000  0.00000000  0.77379800  1
  O  O63  1  0.35473600  0.00000000  0.29034800  1
  O  O64  1  0.51312800  0.66115800  0.89774500  1
  O  O65  1  0.13009000  0.00000000  0.27402400  1
  O  O66  1  0.46178100  0.46178100  0.43433900  1
  O  O67  1  0.00000000  0.69225200  0.22443900  1
  O  O68  1  0.50726600  0.50726600  0.08203300  1
  O  O69  1  0.18952500  0.52687400  0.54384300  1
  O  O70  1  0.32663000  0.18369100  0.43547400  1
  O  O71  1  0.66666700  0.33333300  0.08379000  1
  O  O72  1  0.64526400  0.64526400  0.29034800  1
  O  O73  1  0.65805700  0.80637700  0.08297200  1
  O  O74  1  0.00000000  0.53821900  0.43433900  1
  O  O75  1  0.66666700  0.33333300  0.75877000  1
  O  O76  1  0.52687400  0.18952500  0.54384300  1
  O  O77  1  0.80637700  0.65805700  0.08297200  1
  O  O78  1  0.00000000  0.13009000  0.27402400  1
  O  O79  1  0.33884200  0.85197000  0.89774500  1
  O  O80  1  0.66942100  0.00000000  0.89792800  1
  O  O81  1  0.33063900  0.45977300  0.69542500  1
  O  O82  1  0.00000000  0.18998600  0.90177400  1
  O  O83  1  0.69225200  0.00000000  0.22443900  1
  O  O84  1  0.33735000  0.81047500  0.54384300  1
  O  O85  1  0.00000000  0.35473600  0.29034800  1
  O  O86  1  0.32570500  0.53341100  0.28460100  1
  O  O87  1  0.30774800  0.30774800  0.22443900  1
  O  O88  1  0.33333300  0.66666700  0.08379000  1
  O  O89  1  0.00000000  0.00000000  0.07517300  1
  O  O90  1  0.19362300  0.85168000  0.08297200  1
  O  O91  1  0.18998600  0.00000000  0.90177400  1
  O  O92  1  0.33535200  0.00000000  0.69249800  1
  O  O93  1  0.12913400  0.66936100  0.69542500  1
  O  O94  1  0.20770600  0.67429500  0.28460100  1
  O  O95  1  0.46658900  0.79229400  0.28460100  1
  O  O96  1  0.79229400  0.46658900  0.28460100  1
  O  O97  1  0.67429500  0.20770600  0.28460100  1
  O  O98  1  0.49273400  0.00000000  0.08203300  1
  O  O99  1  0.81001400  0.81001400  0.90177400  1
  O  O100  1  0.00000000  0.79621100  0.69708500  1
  O  O101  1  0.00000000  0.66942100  0.89792800  1
  O  O102  1  0.14293900  0.81630900  0.43547400  1
  O  O103  1  0.00000000  0.49273400  0.08203300  1
  O  O104  1  0.48687200  0.14803000  0.89774500  1
  O  O105  1  0.85197000  0.33884200  0.89774500  1
  O  O106  1  0.67337000  0.85706100  0.43547400  1
  O  O107  1  0.66464800  0.66464800  0.69249800  1
  O  O108  1  0.79621100  0.00000000  0.69708500  1
  O  O109  1  0.86078400  0.86078400  0.55541300  1
  O  O110  1  0.14803000  0.48687200  0.89774500  1
  O  O111  1  0.86991000  0.86991000  0.27402400  1
  O  O112  1  0.34194300  0.14832000  0.08297200  1
  O  O113  1  0.53821900  0.00000000  0.43433900  1
  O  O114  1  0.85706100  0.67337000  0.43547400  1
  O  O115  1  0.00000000  0.13921600  0.55541300  1
  O  O116  1  0.33333300  0.66666700  0.75877000  1
  O  O117  1  0.18369100  0.32663000  0.43547400  1
  O  O118  1  0.54022700  0.87086600  0.69542500  1
  O  O119  1  0.87086600  0.54022700  0.69542500  1
