# generated using pymatgen
data_K3Mo2BrO7
_symmetry_space_group_name_H-M   'P 1'
_cell_length_a   6.15560225
_cell_length_b   6.15560225
_cell_length_c   15.93393700
_cell_angle_alpha   90.00000000
_cell_angle_beta   90.00000000
_cell_angle_gamma   120.00000272
_symmetry_Int_Tables_number   1
_chemical_formula_structural   K3Mo2BrO7
_chemical_formula_sum   'K6 Mo4 Br2 O14'
_cell_volume   522.87131324
_cell_formula_units_Z   2
loop_
 _symmetry_equiv_pos_site_id
 _symmetry_equiv_pos_as_xyz
  1  'x, y, z'
loop_
 _atom_site_type_symbol
 _atom_site_label
 _atom_site_symmetry_multiplicity
 _atom_site_fract_x
 _atom_site_fract_y
 _atom_site_fract_z
 _atom_site_occupancy
  K  K0  1  0.66666700  0.33333300  0.45851200  1
  K  K1  1  0.33333300  0.66666700  0.54148800  1
  K  K2  1  0.33333300  0.66666700  0.95851200  1
  K  K3  1  0.66666700  0.33333300  0.75000000  1
  K  K4  1  0.66666700  0.33333300  0.04148800  1
  K  K5  1  0.33333300  0.66666700  0.25000000  1
  Mo  Mo6  1  0.00000000  0.00000000  0.36962100  1
  Mo  Mo7  1  0.00000000  0.00000000  0.13037900  1
  Mo  Mo8  1  0.00000000  0.00000000  0.63037900  1
  Mo  Mo9  1  0.00000000  0.00000000  0.86962100  1
  Br  Br10  1  0.66666700  0.33333300  0.25000000  1
  Br  Br11  1  0.33333300  0.66666700  0.75000000  1
  O  O12  1  0.84449700  0.15550300  0.59180200  1
  O  O13  1  0.15550300  0.84449700  0.40819800  1
  O  O14  1  0.84449700  0.68899500  0.90819800  1
  O  O15  1  0.15550300  0.31100500  0.40819800  1
  O  O16  1  0.15550300  0.84449700  0.09180200  1
  O  O17  1  0.31100500  0.15550300  0.59180200  1
  O  O18  1  0.68899500  0.84449700  0.40819800  1
  O  O19  1  0.31100500  0.15550300  0.90819800  1
  O  O20  1  0.68899500  0.84449700  0.09180200  1
  O  O21  1  0.00000000  0.00000000  0.75000000  1
  O  O22  1  0.15550300  0.31100500  0.09180200  1
  O  O23  1  0.84449700  0.68899500  0.59180200  1
  O  O24  1  0.00000000  0.00000000  0.25000000  1
  O  O25  1  0.84449700  0.15550300  0.90819800  1
