# generated using pymatgen
data_SbXeO2F7
_symmetry_space_group_name_H-M   'P 1'
_cell_length_a   5.93005300
_cell_length_b   10.53429500
_cell_length_c   12.35155189
_cell_angle_alpha   86.82319355
_cell_angle_beta   90.00000000
_cell_angle_gamma   90.00000000
_symmetry_Int_Tables_number   1
_chemical_formula_structural   SbXeO2F7
_chemical_formula_sum   'Sb4 Xe4 O8 F28'
_cell_volume   770.40248575
_cell_formula_units_Z   4
loop_
 _symmetry_equiv_pos_site_id
 _symmetry_equiv_pos_as_xyz
  1  'x, y, z'
loop_
 _atom_site_type_symbol
 _atom_site_label
 _atom_site_symmetry_multiplicity
 _atom_site_fract_x
 _atom_site_fract_y
 _atom_site_fract_z
 _atom_site_occupancy
  Sb  Sb0  1  0.29068300  0.66912700  0.37201900  1
  Sb  Sb1  1  0.79068300  0.33087300  0.12798100  1
  Sb  Sb2  1  0.20931700  0.66912700  0.87201900  1
  Sb  Sb3  1  0.70931700  0.33087300  0.62798100  1
  Xe  Xe4  1  0.81644500  0.80181600  0.13251600  1
  Xe  Xe5  1  0.68355500  0.80181600  0.63251600  1
  Xe  Xe6  1  0.18355500  0.19818400  0.86748400  1
  Xe  Xe7  1  0.31644500  0.19818400  0.36748400  1
  O  O8  1  0.59917100  0.12758800  0.38921900  1
  O  O9  1  0.38373800  0.11036800  0.95814900  1
  O  O10  1  0.90082900  0.12758800  0.88921900  1
  O  O11  1  0.61626200  0.88963200  0.04185100  1
  O  O12  1  0.09917100  0.87241200  0.11078100  1
  O  O13  1  0.88373800  0.88963200  0.54185100  1
  O  O14  1  0.40082900  0.87241200  0.61078100  1
  O  O15  1  0.11626200  0.11036800  0.45814900  1
  F  F16  1  0.82172800  0.51104600  0.12762900  1
  F  F17  1  0.38104900  0.65121700  0.00189000  1
  F  F18  1  0.98053000  0.33972600  0.71619100  1
  F  F19  1  0.43209800  0.31695500  0.54402100  1
  F  F20  1  0.74431300  0.89228200  0.26967300  1
  F  F21  1  0.67827200  0.51104600  0.62762900  1
  F  F22  1  0.32172800  0.48895400  0.37237100  1
  F  F23  1  0.51947000  0.33972600  0.21619100  1
  F  F24  1  0.76284500  0.15083100  0.13445900  1
  F  F25  1  0.75568700  0.89228200  0.76967300  1
  F  F26  1  0.61895100  0.34878300  0.99811000  1
  F  F27  1  0.53065100  0.32026600  0.75971600  1
  F  F28  1  0.25568700  0.10771800  0.73032700  1
  F  F29  1  0.26284500  0.84916900  0.36554100  1
  F  F30  1  0.23715500  0.84916900  0.86554100  1
  F  F31  1  0.96934900  0.32026600  0.25971600  1
  F  F32  1  0.24431300  0.10771800  0.23032700  1
  F  F33  1  0.46934900  0.67973400  0.24028400  1
  F  F34  1  0.93209800  0.68304500  0.95597900  1
  F  F35  1  0.17827200  0.48895400  0.87237100  1
  F  F36  1  0.56790200  0.68304500  0.45597900  1
  F  F37  1  0.01947000  0.66027400  0.28380900  1
  F  F38  1  0.11895100  0.65121700  0.50189000  1
  F  F39  1  0.06790200  0.31695500  0.04402100  1
  F  F40  1  0.73715500  0.15083100  0.63445900  1
  F  F41  1  0.88104900  0.34878300  0.49811000  1
  F  F42  1  0.48053000  0.66027400  0.78380900  1
  F  F43  1  0.03065100  0.67973400  0.74028400  1
