# generated using pymatgen
data_SiO2
_symmetry_space_group_name_H-M   'P 1'
_cell_length_a   9.25887393
_cell_length_b   9.25887393
_cell_length_c   9.00605082
_cell_angle_alpha   81.26680256
_cell_angle_beta   81.26680256
_cell_angle_gamma   110.94477018
_symmetry_Int_Tables_number   1
_chemical_formula_structural   SiO2
_chemical_formula_sum   'Si12 O24'
_cell_volume   694.69398545
_cell_formula_units_Z   12
loop_
 _symmetry_equiv_pos_site_id
 _symmetry_equiv_pos_as_xyz
  1  'x, y, z'
loop_
 _atom_site_type_symbol
 _atom_site_label
 _atom_site_symmetry_multiplicity
 _atom_site_fract_x
 _atom_site_fract_y
 _atom_site_fract_z
 _atom_site_occupancy
  Si  Si0  1  0.20130800  0.00028000  0.69231500  1
  Si  Si1  1  0.00028000  0.20130800  0.69231500  1
  Si  Si2  1  0.90894400  0.70344400  0.66965900  1
  Si  Si3  1  0.40411900  0.88928300  0.89579600  1
  Si  Si4  1  0.09880400  0.30000000  0.32914400  1
  Si  Si5  1  0.59610100  0.10474500  0.10692100  1
  Si  Si6  1  0.80001600  0.00540500  0.31471100  1
  Si  Si7  1  0.88928300  0.40411900  0.89579600  1
  Si  Si8  1  0.00540500  0.80001600  0.31471100  1
  Si  Si9  1  0.70344400  0.90894400  0.66965900  1
  Si  Si10  1  0.10474500  0.59610100  0.10692100  1
  Si  Si11  1  0.30000000  0.09880400  0.32914400  1
  O  O12  1  0.68774300  0.00944700  0.19453700  1
  O  O13  1  0.24569600  0.24569600  0.28197900  1
  O  O14  1  0.99331700  0.49643900  0.00601000  1
  O  O15  1  0.76545100  0.76545100  0.69531200  1
  O  O16  1  0.06464300  0.82317900  0.71602400  1
  O  O17  1  0.27147500  0.72172400  0.99706800  1
  O  O18  1  0.49643900  0.99331700  0.00601000  1
  O  O19  1  0.12041400  0.12041400  0.74393100  1
  O  O20  1  0.18102900  0.93964700  0.28749500  1
  O  O21  1  0.00944700  0.68774300  0.19453700  1
  O  O22  1  0.29683100  0.06690200  0.51271800  1
  O  O23  1  0.82317900  0.06464300  0.71602400  1
  O  O24  1  0.93964700  0.18102900  0.28749500  1
  O  O25  1  0.99189100  0.32346400  0.80059300  1
  O  O26  1  0.95349700  0.69388500  0.49022300  1
  O  O27  1  0.69388500  0.95349700  0.49022300  1
  O  O28  1  0.14432100  0.47826700  0.23281300  1
  O  O29  1  0.72172400  0.27147500  0.99706800  1
  O  O30  1  0.87679600  0.87679600  0.28427200  1
  O  O31  1  0.32346400  0.99189100  0.80059300  1
  O  O32  1  0.47826700  0.14432100  0.23281300  1
  O  O33  1  0.84966200  0.52749900  0.77656000  1
  O  O34  1  0.52749900  0.84966200  0.77656000  1
  O  O35  1  0.06690200  0.29683100  0.51271800  1
