# generated using pymatgen
data_Ni3TeMo2O11
_symmetry_space_group_name_H-M   'P 1'
_cell_length_a   6.56195881
_cell_length_b   6.56195881
_cell_length_c   10.29998148
_cell_angle_alpha   80.21775383
_cell_angle_beta   80.21775383
_cell_angle_gamma   84.97074872
_symmetry_Int_Tables_number   1
_chemical_formula_structural   Ni3TeMo2O11
_chemical_formula_sum   'Ni6 Te2 Mo4 O22'
_cell_volume   429.91690070
_cell_formula_units_Z   2
loop_
 _symmetry_equiv_pos_site_id
 _symmetry_equiv_pos_as_xyz
  1  'x, y, z'
loop_
 _atom_site_type_symbol
 _atom_site_label
 _atom_site_symmetry_multiplicity
 _atom_site_fract_x
 _atom_site_fract_y
 _atom_site_fract_z
 _atom_site_occupancy
  Ni  Ni0  1  0.91172100  0.56020300  0.86857200  1
  Ni  Ni1  1  0.08827900  0.43979700  0.13142800  1
  Ni  Ni2  1  0.43979700  0.08827900  0.13142800  1
  Ni  Ni3  1  0.73814900  0.73814900  0.61085900  1
  Ni  Ni4  1  0.56020300  0.91172100  0.86857200  1
  Ni  Ni5  1  0.26185100  0.26185100  0.38914100  1
  Te  Te6  1  0.41427700  0.41427700  0.81622100  1
  Te  Te7  1  0.58572300  0.58572300  0.18377900  1
  Mo  Mo8  1  0.21236500  0.78763500  0.50000000  1
  Mo  Mo9  1  0.96904500  0.96904500  0.23918400  1
  Mo  Mo10  1  0.78763500  0.21236500  0.50000000  1
  Mo  Mo11  1  0.03095500  0.03095500  0.76081600  1
  O  O12  1  0.71742300  0.03032400  0.19788500  1
  O  O13  1  0.80227900  0.47096700  0.06761400  1
  O  O14  1  0.22124500  0.54769100  0.44274700  1
  O  O15  1  0.52903300  0.19772100  0.93238600  1
  O  O16  1  0.72618100  0.03344600  0.67043500  1
  O  O17  1  0.45230900  0.77875500  0.55725300  1
  O  O18  1  0.38140600  0.38140600  0.19221200  1
  O  O19  1  0.19772100  0.52903300  0.93238600  1
  O  O20  1  0.77875500  0.45230900  0.55725300  1
  O  O21  1  0.03032400  0.71742300  0.19788500  1
  O  O22  1  0.96967600  0.28257700  0.80211500  1
  O  O23  1  0.03344600  0.72618100  0.67043500  1
  O  O24  1  0.47096700  0.80227900  0.06761400  1
  O  O25  1  0.61859400  0.61859400  0.80778800  1
  O  O26  1  0.10642900  0.10642900  0.56204000  1
  O  O27  1  0.89357100  0.89357100  0.43796000  1
  O  O28  1  0.27381900  0.96655400  0.32956500  1
  O  O29  1  0.28257700  0.96967600  0.80211500  1
  O  O30  1  0.86647400  0.86647400  0.89386400  1
  O  O31  1  0.96655400  0.27381900  0.32956500  1
  O  O32  1  0.13352600  0.13352600  0.10613600  1
  O  O33  1  0.54769100  0.22124500  0.44274700  1
