# generated using pymatgen
data_Ag2P2PbO7
_symmetry_space_group_name_H-M   'P 1'
_cell_length_a   5.50616287
_cell_length_b   7.10518108
_cell_length_c   10.42408392
_cell_angle_alpha   107.91683827
_cell_angle_beta   93.26549795
_cell_angle_gamma   111.31540062
_symmetry_Int_Tables_number   1
_chemical_formula_structural   Ag2P2PbO7
_chemical_formula_sum   'Ag4 P4 Pb2 O14'
_cell_volume   354.87826526
_cell_formula_units_Z   2
loop_
 _symmetry_equiv_pos_site_id
 _symmetry_equiv_pos_as_xyz
  1  'x, y, z'
loop_
 _atom_site_type_symbol
 _atom_site_label
 _atom_site_symmetry_multiplicity
 _atom_site_fract_x
 _atom_site_fract_y
 _atom_site_fract_z
 _atom_site_occupancy
  Ag  Ag0  1  0.66317300  0.89599800  0.19368200  1
  Ag  Ag1  1  0.90826300  0.22989700  0.97305100  1
  Ag  Ag2  1  0.09173700  0.77010300  0.02694900  1
  Ag  Ag3  1  0.33682700  0.10400200  0.80631800  1
  P  P4  1  0.49052300  0.36489100  0.16339900  1
  P  P5  1  0.50947700  0.63510900  0.83660100  1
  P  P6  1  0.72989700  0.84729600  0.63823000  1
  P  P7  1  0.27010300  0.15270400  0.36177000  1
  Pb  Pb8  1  0.85672500  0.36722100  0.63097500  1
  Pb  Pb9  1  0.14327500  0.63277900  0.36902500  1
  O  O10  1  0.78115100  0.08373000  0.72742700  1
  O  O11  1  0.69221700  0.83947400  0.95571900  1
  O  O12  1  0.02640700  0.20538600  0.34086600  1
  O  O13  1  0.21670200  0.54850200  0.85115200  1
  O  O14  1  0.21884900  0.91627000  0.27257300  1
  O  O15  1  0.61949600  0.45700800  0.80677100  1
  O  O16  1  0.38050400  0.54299200  0.19322900  1
  O  O17  1  0.49564800  0.69526200  0.69746600  1
  O  O18  1  0.50435200  0.30473800  0.30253400  1
  O  O19  1  0.61296600  0.79195700  0.48942600  1
  O  O20  1  0.38703400  0.20804300  0.51057400  1
  O  O21  1  0.97359300  0.79461400  0.65913400  1
  O  O22  1  0.78329800  0.45149800  0.14884800  1
  O  O23  1  0.30778300  0.16052600  0.04428100  1
