# generated using pymatgen
data_CS3N5Cl
_symmetry_space_group_name_H-M   'P 1'
_cell_length_a   10.97268600
_cell_length_b   5.01101600
_cell_length_c   14.76452713
_cell_angle_alpha   74.97737533
_cell_angle_beta   90.00000000
_cell_angle_gamma   90.00000000
_symmetry_Int_Tables_number   1
_chemical_formula_structural   CS3N5Cl
_chemical_formula_sum   'C4 S12 N20 Cl4'
_cell_volume   784.07223198
_cell_formula_units_Z   4
loop_
 _symmetry_equiv_pos_site_id
 _symmetry_equiv_pos_as_xyz
  1  'x, y, z'
loop_
 _atom_site_type_symbol
 _atom_site_label
 _atom_site_symmetry_multiplicity
 _atom_site_fract_x
 _atom_site_fract_y
 _atom_site_fract_z
 _atom_site_occupancy
  C  C0  1  0.36059100  0.94423200  0.80879400  1
  C  C1  1  0.63940900  0.05576800  0.19120600  1
  C  C2  1  0.13940900  0.94423200  0.30879400  1
  C  C3  1  0.86059100  0.05576800  0.69120600  1
  S  S4  1  0.77760100  0.71738500  0.30353100  1
  S  S5  1  0.22239900  0.28261500  0.69646900  1
  S  S6  1  0.33176900  0.10423500  0.54521200  1
  S  S7  1  0.72239900  0.71738500  0.80353100  1
  S  S8  1  0.97021400  0.70171200  0.82092200  1
  S  S9  1  0.02978600  0.29828800  0.17907800  1
  S  S10  1  0.83176900  0.89576500  0.95478800  1
  S  S11  1  0.27760100  0.28261500  0.19646900  1
  S  S12  1  0.47021400  0.29828800  0.67907800  1
  S  S13  1  0.16823100  0.10423500  0.04521200  1
  S  S14  1  0.66823100  0.89576500  0.45478800  1
  S  S15  1  0.52978600  0.70171200  0.32092200  1
  N  N16  1  0.03968800  0.15523100  0.08303300  1
  N  N17  1  0.75384300  0.97892000  0.21224500  1
  N  N18  1  0.96031200  0.84476900  0.91696700  1
  N  N19  1  0.74615700  0.97892000  0.71224500  1
  N  N20  1  0.03304000  0.02547900  0.26883100  1
  N  N21  1  0.25384300  0.02108000  0.28775500  1
  N  N22  1  0.46696000  0.02547900  0.76883100  1
  N  N23  1  0.28489800  0.13120600  0.10238500  1
  N  N24  1  0.24615700  0.02108000  0.78775500  1
  N  N25  1  0.84505100  0.52316400  0.82292400  1
  N  N26  1  0.71510200  0.86879400  0.89761500  1
  N  N27  1  0.15494900  0.47683600  0.17707600  1
  N  N28  1  0.53304000  0.97452100  0.23116900  1
  N  N29  1  0.78489800  0.86879400  0.39761500  1
  N  N30  1  0.53968800  0.84476900  0.41696700  1
  N  N31  1  0.46031200  0.15523100  0.58303300  1
  N  N32  1  0.65494900  0.52316400  0.32292400  1
  N  N33  1  0.34505100  0.47683600  0.67707600  1
  N  N34  1  0.96696000  0.97452100  0.73116900  1
  N  N35  1  0.21510200  0.13120600  0.60238500  1
  Cl  Cl36  1  0.37425900  0.68452400  0.91343100  1
  Cl  Cl37  1  0.87425900  0.31547600  0.58656900  1
  Cl  Cl38  1  0.12574100  0.68452400  0.41343100  1
  Cl  Cl39  1  0.62574100  0.31547600  0.08656900  1
