# generated using pymatgen
data_AlPO4
_symmetry_space_group_name_H-M   'P 1'
_cell_length_a   8.59217800
_cell_length_b   9.90434400
_cell_length_c   14.09458103
_cell_angle_alpha   69.63652265
_cell_angle_beta   90.00000000
_cell_angle_gamma   90.00000000
_symmetry_Int_Tables_number   1
_chemical_formula_structural   AlPO4
_chemical_formula_sum   'Al10 P10 O40'
_cell_volume   1124.48658444
_cell_formula_units_Z   10
loop_
 _symmetry_equiv_pos_site_id
 _symmetry_equiv_pos_as_xyz
  1  'x, y, z'
loop_
 _atom_site_type_symbol
 _atom_site_label
 _atom_site_symmetry_multiplicity
 _atom_site_fract_x
 _atom_site_fract_y
 _atom_site_fract_z
 _atom_site_occupancy
  Al  Al0  1  0.36110600  0.56685400  0.87579100  1
  Al  Al1  1  0.36419400  0.72449200  0.55538700  1
  Al  Al2  1  0.36175300  0.16347500  0.26954500  1
  Al  Al3  1  0.86175300  0.83652500  0.73045500  1
  Al  Al4  1  0.36632800  0.58144600  0.26896800  1
  Al  Al5  1  0.86632800  0.41855400  0.73103200  1
  Al  Al6  1  0.86419400  0.27550800  0.44461300  1
  Al  Al7  1  0.86276600  0.83722700  0.34123100  1
  Al  Al8  1  0.86110600  0.43314600  0.12420900  1
  Al  Al9  1  0.36276600  0.16277300  0.65876900  1
  P  P10  1  0.98344200  0.55506800  0.89228600  1
  P  P11  1  0.99079600  0.70988000  0.56901000  1
  P  P12  1  0.49158900  0.85486400  0.71082700  1
  P  P13  1  0.98750600  0.57116900  0.27990200  1
  P  P14  1  0.99158900  0.14513600  0.28917300  1
  P  P15  1  0.48344200  0.44493200  0.10771400  1
  P  P16  1  0.98917900  0.15106300  0.67793900  1
  P  P17  1  0.48917900  0.84893700  0.32206100  1
  P  P18  1  0.49079600  0.29012000  0.43099000  1
  P  P19  1  0.48750600  0.42883100  0.72009800  1
  O  O20  1  0.44261800  0.51217700  0.99570900  1
  O  O21  1  0.42038800  0.29271600  0.70839500  1
  O  O22  1  0.65952800  0.42086900  0.11914200  1
  O  O23  1  0.92752400  0.55646200  0.62089800  1
  O  O24  1  0.94261800  0.48782300  0.00429100  1
  O  O25  1  0.89864100  0.70101400  0.84763600  1
  O  O26  1  0.16612200  0.16809900  0.30218500  1
  O  O27  1  0.94413800  0.25551400  0.73210800  1
  O  O28  1  0.44413800  0.74448600  0.26789200  1
  O  O29  1  0.90329300  0.15234200  0.38284900  1
  O  O30  1  0.91345400  0.55295800  0.18570400  1
  O  O31  1  0.42752400  0.44353800  0.37910200  1
  O  O32  1  0.66404200  0.29825600  0.45513800  1
  O  O33  1  0.93299700  0.45190000  0.83792500  1
  O  O34  1  0.43745000  0.78899000  0.43312900  1
  O  O35  1  0.16396100  0.58758500  0.26598000  1
  O  O36  1  0.39898700  0.21881000  0.52876200  1
  O  O37  1  0.47368600  0.20020200  0.36186100  1
  O  O38  1  0.66612200  0.83190100  0.69781500  1
  O  O39  1  0.97368600  0.79979800  0.63813900  1
  O  O40  1  0.40329300  0.84765800  0.61715100  1
  O  O41  1  0.43244500  0.73859200  0.80755600  1
  O  O42  1  0.90934300  0.00610100  0.73344000  1
  O  O43  1  0.93244500  0.26140800  0.19244400  1
  O  O44  1  0.41345400  0.44704200  0.81429600  1
  O  O45  1  0.40934300  0.99389900  0.26656000  1
  O  O46  1  0.66546300  0.87167900  0.31724800  1
  O  O47  1  0.89898700  0.78119000  0.47123800  1
  O  O48  1  0.46575700  0.00324300  0.71989300  1
  O  O49  1  0.92038800  0.70728400  0.29160500  1
  O  O50  1  0.96575700  0.99675700  0.28010700  1
  O  O51  1  0.16546300  0.12832100  0.68275200  1
  O  O52  1  0.93745000  0.21101000  0.56687100  1
  O  O53  1  0.43299700  0.54810000  0.16207500  1
  O  O54  1  0.95150400  0.44001800  0.37521800  1
  O  O55  1  0.45150400  0.55998200  0.62478200  1
  O  O56  1  0.66396100  0.41241500  0.73402000  1
  O  O57  1  0.16404200  0.70174400  0.54486200  1
  O  O58  1  0.15952800  0.57913100  0.88085800  1
  O  O59  1  0.39864100  0.29898600  0.15236400  1
