# generated using pymatgen
data_Fe3BO5
_symmetry_space_group_name_H-M   'P 1'
_cell_length_a   6.10859200
_cell_length_b   9.45637500
_cell_length_c   12.56957300
_cell_angle_alpha   90.00000000
_cell_angle_beta   90.00000000
_cell_angle_gamma   90.00000000
_symmetry_Int_Tables_number   1
_chemical_formula_structural   Fe3BO5
_chemical_formula_sum   'Fe24 B8 O40'
_cell_volume   726.08310228
_cell_formula_units_Z   8
loop_
 _symmetry_equiv_pos_site_id
 _symmetry_equiv_pos_as_xyz
  1  'x, y, z'
loop_
 _atom_site_type_symbol
 _atom_site_label
 _atom_site_symmetry_multiplicity
 _atom_site_fract_x
 _atom_site_fract_y
 _atom_site_fract_z
 _atom_site_occupancy
  Fe  Fe0  1  0.75000000  0.49673900  0.00224600  1
  Fe  Fe1  1  0.75000000  0.00326100  0.50224600  1
  Fe  Fe2  1  0.75000000  0.25595200  0.61124300  1
  Fe  Fe3  1  0.51215600  0.00000500  0.27805100  1
  Fe  Fe4  1  0.01215600  0.99999500  0.72194900  1
  Fe  Fe5  1  0.25000000  0.25985400  0.61169200  1
  Fe  Fe6  1  0.51215600  0.49999500  0.77805100  1
  Fe  Fe7  1  0.98784400  0.49999500  0.77805100  1
  Fe  Fe8  1  0.75000000  0.24404800  0.11124300  1
  Fe  Fe9  1  0.25000000  0.24014600  0.11169200  1
  Fe  Fe10  1  0.01215600  0.50000500  0.22194900  1
  Fe  Fe11  1  0.50000000  0.50000000  0.50000000  1
  Fe  Fe12  1  0.25000000  0.99673900  0.49775400  1
  Fe  Fe13  1  0.25000000  0.50326100  0.99775400  1
  Fe  Fe14  1  0.48784400  0.99999500  0.72194900  1
  Fe  Fe15  1  0.48784400  0.50000500  0.22194900  1
  Fe  Fe16  1  0.98784400  0.00000500  0.27805100  1
  Fe  Fe17  1  0.75000000  0.74014600  0.38830800  1
  Fe  Fe18  1  0.00000000  0.50000000  0.50000000  1
  Fe  Fe19  1  0.75000000  0.75985400  0.88830800  1
  Fe  Fe20  1  0.00000000  0.00000000  0.00000000  1
  Fe  Fe21  1  0.25000000  0.75595200  0.88875700  1
  Fe  Fe22  1  0.50000000  0.00000000  0.00000000  1
  Fe  Fe23  1  0.25000000  0.74404800  0.38875700  1
  B  B24  1  0.25000000  0.27065900  0.36043500  1
  B  B25  1  0.75000000  0.22272900  0.85850400  1
  B  B26  1  0.25000000  0.77727100  0.14149600  1
  B  B27  1  0.75000000  0.77065900  0.13956500  1
  B  B28  1  0.25000000  0.72272900  0.64149600  1
  B  B29  1  0.25000000  0.22934100  0.86043500  1
  B  B30  1  0.75000000  0.72934100  0.63956500  1
  B  B31  1  0.75000000  0.27727100  0.35850400  1
  O  O32  1  0.75000000  0.35020800  0.45447000  1
  O  O33  1  0.25000000  0.63038000  0.14086100  1
  O  O34  1  0.49840700  0.89679300  0.85719500  1
  O  O35  1  0.50427500  0.89018600  0.42233600  1
  O  O36  1  0.25000000  0.65009800  0.73714300  1
  O  O37  1  0.25000000  0.37551600  0.85862000  1
  O  O38  1  0.99572500  0.60981400  0.92233600  1
  O  O39  1  0.99840700  0.39679300  0.64280500  1
  O  O40  1  0.50159300  0.39679300  0.64280500  1
  O  O41  1  0.99572500  0.89018600  0.42233600  1
  O  O42  1  0.99840700  0.10320700  0.14280500  1
  O  O43  1  0.49572500  0.39018600  0.07766400  1
  O  O44  1  0.50159300  0.10320700  0.14280500  1
  O  O45  1  0.50427500  0.60981400  0.92233600  1
  O  O46  1  0.49572500  0.10981400  0.57766400  1
  O  O47  1  0.25000000  0.15616500  0.76460900  1
  O  O48  1  0.75000000  0.65350200  0.54491600  1
  O  O49  1  0.25000000  0.34383500  0.26460900  1
  O  O50  1  0.25000000  0.85020800  0.04553000  1
  O  O51  1  0.75000000  0.62448400  0.14138000  1
  O  O52  1  0.00427500  0.39018600  0.07766400  1
  O  O53  1  0.75000000  0.14979200  0.95447000  1
  O  O54  1  0.25000000  0.64979200  0.54553000  1
  O  O55  1  0.49840700  0.60320700  0.35719500  1
  O  O56  1  0.75000000  0.87551600  0.64138000  1
  O  O57  1  0.00159300  0.89679300  0.85719500  1
  O  O58  1  0.25000000  0.34649800  0.45508400  1
  O  O59  1  0.75000000  0.84383500  0.23539100  1
  O  O60  1  0.25000000  0.15350200  0.95508400  1
  O  O61  1  0.75000000  0.13038000  0.35913900  1
  O  O62  1  0.00427500  0.10981400  0.57766400  1
  O  O63  1  0.75000000  0.84649800  0.04491600  1
  O  O64  1  0.75000000  0.65616500  0.73539100  1
  O  O65  1  0.25000000  0.86962000  0.64086100  1
  O  O66  1  0.00159300  0.60320700  0.35719500  1
  O  O67  1  0.25000000  0.84990200  0.23714300  1
  O  O68  1  0.75000000  0.34990200  0.26285700  1
  O  O69  1  0.75000000  0.36962000  0.85913900  1
  O  O70  1  0.75000000  0.15009800  0.76285700  1
  O  O71  1  0.25000000  0.12448400  0.35862000  1
