# generated using pymatgen
data_SiO2
_symmetry_space_group_name_H-M   'P 1'
_cell_length_a   16.13070561
_cell_length_b   16.13070561
_cell_length_c   16.13070541
_cell_angle_alpha   51.12487715
_cell_angle_beta   51.12487715
_cell_angle_gamma   51.12487870
_symmetry_Int_Tables_number   1
_chemical_formula_structural   SiO2
_chemical_formula_sum   'Si40 O80'
_cell_volume   2347.13390601
_cell_formula_units_Z   40
loop_
 _symmetry_equiv_pos_site_id
 _symmetry_equiv_pos_as_xyz
  1  'x, y, z'
loop_
 _atom_site_type_symbol
 _atom_site_label
 _atom_site_symmetry_multiplicity
 _atom_site_fract_x
 _atom_site_fract_y
 _atom_site_fract_z
 _atom_site_occupancy
  Si  Si0  1  0.76995700  0.12958200  0.77284200  1
  Si  Si1  1  0.81340200  0.38465100  0.00958800  1
  Si  Si2  1  0.77282500  0.03004700  0.40007300  1
  Si  Si3  1  0.03004700  0.40007300  0.77282500  1
  Si  Si4  1  0.01149900  0.22304900  0.76515100  1
  Si  Si5  1  0.22717500  0.96995300  0.59992700  1
  Si  Si6  1  0.21359400  0.21359400  0.21359400  1
  Si  Si7  1  0.61561400  0.64757800  0.23381300  1
  Si  Si8  1  0.23004300  0.87041800  0.22715800  1
  Si  Si9  1  0.61534900  0.99041200  0.18659800  1
  Si  Si10  1  0.12958200  0.77284200  0.76995700  1
  Si  Si11  1  0.22304900  0.76515100  0.01149900  1
  Si  Si12  1  0.59992700  0.22717500  0.96995300  1
  Si  Si13  1  0.76618700  0.38438600  0.35242200  1
  Si  Si14  1  0.22715800  0.23004300  0.87041800  1
  Si  Si15  1  0.00958800  0.81340200  0.38465100  1
  Si  Si16  1  0.64757800  0.23381300  0.61561400  1
  Si  Si17  1  0.02636100  0.64747100  0.62892000  1
  Si  Si18  1  0.18659800  0.61534900  0.99041200  1
  Si  Si19  1  0.76515100  0.01149900  0.22304900  1
  Si  Si20  1  0.98850100  0.77695100  0.23484900  1
  Si  Si21  1  0.37108000  0.97363900  0.35252900  1
  Si  Si22  1  0.78640600  0.78640600  0.78640600  1
  Si  Si23  1  0.77284200  0.76995700  0.12958200  1
  Si  Si24  1  0.86315200  0.86315200  0.86315200  1
  Si  Si25  1  0.77695100  0.23484900  0.98850100  1
  Si  Si26  1  0.40007300  0.77282500  0.03004700  1
  Si  Si27  1  0.35242200  0.76618700  0.38438600  1
  Si  Si28  1  0.96995300  0.59992700  0.22717500  1
  Si  Si29  1  0.38465100  0.00958800  0.81340200  1
  Si  Si30  1  0.87041800  0.22715800  0.23004300  1
  Si  Si31  1  0.99041200  0.18659800  0.61534900  1
  Si  Si32  1  0.23381300  0.61561400  0.64757800  1
  Si  Si33  1  0.35252900  0.37108000  0.97363900  1
  Si  Si34  1  0.64747100  0.62892000  0.02636100  1
  Si  Si35  1  0.97363900  0.35252900  0.37108000  1
  Si  Si36  1  0.62892000  0.02636100  0.64747100  1
  Si  Si37  1  0.23484900  0.98850100  0.77695100  1
  Si  Si38  1  0.38438600  0.35242200  0.76618700  1
  Si  Si39  1  0.13684800  0.13684800  0.13684800  1
  O  O40  1  0.52389200  0.66809700  0.03227500  1
  O  O41  1  0.96772500  0.47610800  0.33190300  1
  O  O42  1  0.95139800  0.28185900  0.50697600  1
  O  O43  1  0.75236600  0.34431700  0.99695800  1
  O  O44  1  0.10462500  0.79154400  0.12080700  1
  O  O45  1  0.33190300  0.96772500  0.47610800  1
  O  O46  1  0.70271400  0.89984400  0.71837700  1
  O  O47  1  0.72200700  0.89304200  0.13214800  1
  O  O48  1  0.82481400  0.82481400  0.82481400  1
  O  O49  1  0.17518600  0.17518600  0.17518600  1
  O  O50  1  0.28185900  0.50697600  0.95139800  1
  O  O51  1  0.78003600  0.99650400  0.85073600  1
  O  O52  1  0.30904700  0.68394200  0.51962300  1
  O  O53  1  0.81522100  0.33326100  0.26270900  1
  O  O54  1  0.14926400  0.21996400  0.00349600  1
  O  O55  1  0.88754400  0.91624600  0.42065600  1
  O  O56  1  0.24763400  0.65568300  0.00304200  1
  O  O57  1  0.91624600  0.42065600  0.88754400  1
  O  O58  1  0.86785200  0.27799300  0.10695800  1
  O  O59  1  0.79678300  0.14607700  0.32992800  1
  O  O60  1  0.03227500  0.52389200  0.66809700  1
  O  O61  1  0.27799300  0.10695800  0.86785200  1
  O  O62  1  0.26270900  0.81522100  0.33326100  1
  O  O63  1  0.11245600  0.08375400  0.57934400  1
  O  O64  1  0.14607700  0.32992800  0.79678300  1
  O  O65  1  0.47610800  0.33190300  0.96772500  1
  O  O66  1  0.35224600  0.87444800  0.37140400  1
  O  O67  1  0.26683400  0.97263800  0.66893100  1
  O  O68  1  0.31605800  0.48037700  0.69095300  1
  O  O69  1  0.87444800  0.37140400  0.35224600  1
  O  O70  1  0.51962300  0.30904700  0.68394200  1
  O  O71  1  0.89537500  0.20845600  0.87919300  1
  O  O72  1  0.37140400  0.35224600  0.87444800  1
  O  O73  1  0.68394200  0.51962300  0.30904700  1
  O  O74  1  0.89984400  0.71837700  0.70271400  1
  O  O75  1  0.73729100  0.18477900  0.66673900  1
  O  O76  1  0.97263800  0.66893100  0.26683400  1
  O  O77  1  0.28162300  0.29728600  0.10015600  1
  O  O78  1  0.04860200  0.71814100  0.49302400  1
  O  O79  1  0.49302400  0.04860200  0.71814100  1
  O  O80  1  0.50697600  0.95139800  0.28185900  1
  O  O81  1  0.64775400  0.12555200  0.62859600  1
  O  O82  1  0.20845600  0.87919300  0.89537500  1
  O  O83  1  0.33106900  0.73316600  0.02736200  1
  O  O84  1  0.12555200  0.62859600  0.64775400  1
  O  O85  1  0.20321700  0.85392300  0.67007200  1
  O  O86  1  0.08375400  0.57934400  0.11245600  1
  O  O87  1  0.99650400  0.85073600  0.78003600  1
  O  O88  1  0.10695800  0.86785200  0.27799300  1
  O  O89  1  0.73316600  0.02736200  0.33106900  1
  O  O90  1  0.89304200  0.13214800  0.72200700  1
  O  O91  1  0.85392300  0.67007200  0.20321700  1
  O  O92  1  0.62859600  0.64775400  0.12555200  1
  O  O93  1  0.66673900  0.73729100  0.18477900  1
  O  O94  1  0.02736200  0.33106900  0.73316600  1
  O  O95  1  0.67007200  0.20321700  0.85392300  1
  O  O96  1  0.00304200  0.24763400  0.65568300  1
  O  O97  1  0.13214800  0.72200700  0.89304200  1
  O  O98  1  0.21996400  0.00349600  0.14926400  1
  O  O99  1  0.12080700  0.10462500  0.79154400  1
  O  O100  1  0.71837700  0.70271400  0.89984400  1
  O  O101  1  0.18477900  0.66673900  0.73729100  1
  O  O102  1  0.66809700  0.03227500  0.52389200  1
  O  O103  1  0.71814100  0.49302400  0.04860200  1
  O  O104  1  0.32992800  0.79678300  0.14607700  1
  O  O105  1  0.69095300  0.31605800  0.48037700  1
  O  O106  1  0.00349600  0.14926400  0.21996400  1
  O  O107  1  0.65568300  0.00304200  0.24763400  1
  O  O108  1  0.66893100  0.26683400  0.97263800  1
  O  O109  1  0.57934400  0.11245600  0.08375400  1
  O  O110  1  0.29728600  0.10015600  0.28162300  1
  O  O111  1  0.33326100  0.26270900  0.81522100  1
  O  O112  1  0.85073600  0.78003600  0.99650400  1
  O  O113  1  0.42065600  0.88754400  0.91624600  1
  O  O114  1  0.99695800  0.75236600  0.34431700  1
  O  O115  1  0.34431700  0.99695800  0.75236600  1
  O  O116  1  0.10015600  0.28162300  0.29728600  1
  O  O117  1  0.87919300  0.89537500  0.20845600  1
  O  O118  1  0.79154400  0.12080700  0.10462500  1
  O  O119  1  0.48037700  0.69095300  0.31605800  1
