# generated using pymatgen
data_V2O3
_symmetry_space_group_name_H-M   'P 1'
_cell_length_a   7.44287252
_cell_length_b   3.95008334
_cell_length_c   3.95008255
_cell_angle_alpha   94.97947384
_cell_angle_beta   79.02903487
_cell_angle_gamma   100.97097148
_symmetry_Int_Tables_number   1
_chemical_formula_structural   V2O3
_chemical_formula_sum   'V4 O6'
_cell_volume   111.77191448
_cell_formula_units_Z   2
loop_
 _symmetry_equiv_pos_site_id
 _symmetry_equiv_pos_as_xyz
  1  'x, y, z'
loop_
 _atom_site_type_symbol
 _atom_site_label
 _atom_site_symmetry_multiplicity
 _atom_site_fract_x
 _atom_site_fract_y
 _atom_site_fract_z
 _atom_site_occupancy
  V  V0  1  0.66601400  0.82088900  0.43943200  1
  V  V1  1  0.16601400  0.56056800  0.17911100  1
  V  V2  1  0.33398600  0.17911100  0.56056800  1
  V  V3  1  0.83398600  0.43943200  0.82088900  1
  O  O4  1  0.39943900  0.69804200  0.40933500  1
  O  O5  1  0.10056100  0.40933500  0.69804200  1
  O  O6  1  0.60056100  0.30195800  0.59066500  1
  O  O7  1  0.89943900  0.59066500  0.30195800  1
  O  O8  1  0.25000000  0.09554900  0.09554900  1
  O  O9  1  0.75000000  0.90445100  0.90445100  1
