# generated using pymatgen
data_NaPO3
_symmetry_space_group_name_H-M   'P 1'
_cell_length_a   6.10052500
_cell_length_b   7.75079000
_cell_length_c   13.39288207
_cell_angle_alpha   58.93873240
_cell_angle_beta   90.00000000
_cell_angle_gamma   90.00000000
_symmetry_Int_Tables_number   1
_chemical_formula_structural   NaPO3
_chemical_formula_sum   'Na8 P8 O24'
_cell_volume   542.46714944
_cell_formula_units_Z   8
loop_
 _symmetry_equiv_pos_site_id
 _symmetry_equiv_pos_as_xyz
  1  'x, y, z'
loop_
 _atom_site_type_symbol
 _atom_site_label
 _atom_site_symmetry_multiplicity
 _atom_site_fract_x
 _atom_site_fract_y
 _atom_site_fract_z
 _atom_site_occupancy
  Na  Na0  1  0.67073400  0.80836100  0.00074200  1
  Na  Na1  1  0.17073400  0.19163900  0.49925800  1
  Na  Na2  1  0.57427100  0.19319100  0.69458600  1
  Na  Na3  1  0.42572900  0.80680900  0.30541400  1
  Na  Na4  1  0.32926600  0.19163900  0.99925800  1
  Na  Na5  1  0.07427100  0.80680900  0.80541400  1
  Na  Na6  1  0.92572900  0.19319100  0.19458600  1
  Na  Na7  1  0.82926600  0.80836100  0.50074200  1
  P  P8  1  0.07851400  0.34370400  0.69020300  1
  P  P9  1  0.57851400  0.65629600  0.80979700  1
  P  P10  1  0.84491500  0.27645700  0.90271600  1
  P  P11  1  0.42148600  0.34370400  0.19020300  1
  P  P12  1  0.92148600  0.65629600  0.30979700  1
  P  P13  1  0.65508500  0.27645700  0.40271600  1
  P  P14  1  0.34491500  0.72354300  0.59728400  1
  P  P15  1  0.15508500  0.72354300  0.09728400  1
  O  O16  1  0.62152200  0.45376600  0.12292100  1
  O  O17  1  0.55406100  0.71506000  0.67457400  1
  O  O18  1  0.56351100  0.19622600  0.52214200  1
  O  O19  1  0.15038200  0.82445600  0.61511300  1
  O  O20  1  0.34472400  0.15910200  0.19021800  1
  O  O21  1  0.12152200  0.54623400  0.37707900  1
  O  O22  1  0.84961800  0.17554400  0.38488700  1
  O  O23  1  0.79645100  0.51616600  0.84605800  1
  O  O24  1  0.05406100  0.28494000  0.82542600  1
  O  O25  1  0.15527600  0.15910200  0.69021800  1
  O  O26  1  0.20354900  0.48383400  0.15394200  1
  O  O27  1  0.65527600  0.84089800  0.80978200  1
  O  O28  1  0.84472400  0.84089800  0.30978200  1
  O  O29  1  0.94593900  0.71506000  0.17457400  1
  O  O30  1  0.43648900  0.80377400  0.47785800  1
  O  O31  1  0.29645100  0.48383400  0.65394200  1
  O  O32  1  0.44593900  0.28494000  0.32542600  1
  O  O33  1  0.70354900  0.51616600  0.34605800  1
  O  O34  1  0.06351100  0.80377400  0.97785800  1
  O  O35  1  0.93648900  0.19622600  0.02214200  1
  O  O36  1  0.65038200  0.17554400  0.88488700  1
  O  O37  1  0.37847800  0.54623400  0.87707900  1
  O  O38  1  0.87847800  0.45376600  0.62292100  1
  O  O39  1  0.34961800  0.82445600  0.11511300  1
