# generated using pymatgen
data_Rb2Ag4Pd3(NO2)12
_symmetry_space_group_name_H-M   'P 1'
_cell_length_a   24.51252900
_cell_length_b   7.32664400
_cell_length_c   9.85793979
_cell_angle_alpha   51.51924585
_cell_angle_beta   90.00000000
_cell_angle_gamma   90.00000000
_symmetry_Int_Tables_number   1
_chemical_formula_structural   Rb2Ag4Pd3(NO2)12
_chemical_formula_sum   'Rb4 Ag8 Pd6 N24 O48'
_cell_volume   1385.92503806
_cell_formula_units_Z   2
loop_
 _symmetry_equiv_pos_site_id
 _symmetry_equiv_pos_as_xyz
  1  'x, y, z'
loop_
 _atom_site_type_symbol
 _atom_site_label
 _atom_site_symmetry_multiplicity
 _atom_site_fract_x
 _atom_site_fract_y
 _atom_site_fract_z
 _atom_site_occupancy
  Rb  Rb0  1  0.13341500  0.31309800  0.58717100  1
  Rb  Rb1  1  0.63341500  0.68690200  0.91282900  1
  Rb  Rb2  1  0.86658500  0.68690200  0.41282900  1
  Rb  Rb3  1  0.36658500  0.31309800  0.08717100  1
  Ag  Ag4  1  0.31707600  0.57479100  0.31779500  1
  Ag  Ag5  1  0.52725900  0.23176100  0.39350100  1
  Ag  Ag6  1  0.18292400  0.57479100  0.81779500  1
  Ag  Ag7  1  0.81707600  0.42520900  0.18220500  1
  Ag  Ag8  1  0.02725900  0.76823900  0.10649900  1
  Ag  Ag9  1  0.47274100  0.76823900  0.60649900  1
  Ag  Ag10  1  0.97274100  0.23176100  0.89350100  1
  Ag  Ag11  1  0.68292400  0.42520900  0.68220500  1
  Pd  Pd12  1  0.67561300  0.82926200  0.28080300  1
  Pd  Pd13  1  0.82438700  0.82926200  0.78080300  1
  Pd  Pd14  1  0.50000000  0.00000000  0.00000000  1
  Pd  Pd15  1  0.32438700  0.17073800  0.71919700  1
  Pd  Pd16  1  0.17561300  0.17073800  0.21919700  1
  Pd  Pd17  1  0.00000000  0.00000000  0.50000000  1
  N  N18  1  0.37615900  0.01648500  0.64952600  1
  N  N19  1  0.26769600  0.91592800  0.79671900  1
  N  N20  1  0.22791600  0.32991000  0.28216300  1
  N  N21  1  0.43282200  0.78306400  0.10198500  1
  N  N22  1  0.62384100  0.98351500  0.35047400  1
  N  N23  1  0.06717800  0.78306400  0.60198500  1
  N  N24  1  0.50339300  0.01584000  0.78187800  1
  N  N25  1  0.49660700  0.98416000  0.21812200  1
  N  N26  1  0.72791600  0.67009000  0.21783700  1
  N  N27  1  0.73230400  0.08407200  0.20328100  1
  N  N28  1  0.38311300  0.42242100  0.64704400  1
  N  N29  1  0.56717800  0.21693600  0.89801500  1
  N  N30  1  0.11688700  0.42242100  0.14704400  1
  N  N31  1  0.87615900  0.98351500  0.85047400  1
  N  N32  1  0.76769600  0.08407200  0.70328100  1
  N  N33  1  0.93282200  0.21693600  0.39801500  1
  N  N34  1  0.99660700  0.01584000  0.28187800  1
  N  N35  1  0.88311300  0.57757900  0.85295600  1
  N  N36  1  0.27208400  0.32991000  0.78216300  1
  N  N37  1  0.61688700  0.57757900  0.35295600  1
  N  N38  1  0.00339300  0.98416000  0.71812200  1
  N  N39  1  0.12384100  0.01648500  0.14952600  1
  N  N40  1  0.23230400  0.91592800  0.29671900  1
  N  N41  1  0.77208400  0.67009000  0.71783700  1
  O  O42  1  0.61288800  0.88116500  0.50547800  1
  O  O43  1  0.38763000  0.86349600  0.10308500  1
  O  O44  1  0.88763000  0.13650400  0.39691500  1
  O  O45  1  0.98151300  0.83886200  0.29907700  1
  O  O46  1  0.20980200  0.47276600  0.29951600  1
  O  O47  1  0.79019800  0.52723400  0.70048400  1
  O  O48  1  0.72759200  0.04460000  0.79725900  1
  O  O49  1  0.43786500  0.57481600  0.16657800  1
  O  O50  1  0.11360000  0.59705800  0.99021000  1
  O  O51  1  0.77439400  0.27775400  0.56066800  1
  O  O52  1  0.93786500  0.42518400  0.33342200  1
  O  O53  1  0.99231500  0.79883100  0.86482400  1
  O  O54  1  0.22151000  0.29193200  0.79616200  1
  O  O55  1  0.27240800  0.95540000  0.20274100  1
  O  O56  1  0.11288800  0.11883500  0.99452200  1
  O  O57  1  0.22759200  0.95540000  0.70274100  1
  O  O58  1  0.00768500  0.20116900  0.13517600  1
  O  O59  1  0.48151300  0.16113800  0.20092300  1
  O  O60  1  0.77849000  0.70806800  0.20383800  1
  O  O61  1  0.77240800  0.04460000  0.29725900  1
  O  O62  1  0.01848700  0.16113800  0.70092300  1
  O  O63  1  0.56213500  0.42518400  0.83342200  1
  O  O64  1  0.29019800  0.47276600  0.79951600  1
  O  O65  1  0.11237000  0.86349600  0.60308500  1
  O  O66  1  0.72151000  0.70806800  0.70383800  1
  O  O67  1  0.70980200  0.52723400  0.20048400  1
  O  O68  1  0.89787100  0.17575600  0.73395900  1
  O  O69  1  0.10212900  0.82424400  0.26604100  1
  O  O70  1  0.08673500  0.40867200  0.25529300  1
  O  O71  1  0.50768500  0.79883100  0.36482400  1
  O  O72  1  0.91326500  0.59132800  0.74470700  1
  O  O73  1  0.88640000  0.40294200  0.00979000  1
  O  O74  1  0.49231500  0.20116900  0.63517600  1
  O  O75  1  0.61360000  0.40294200  0.50979000  1
  O  O76  1  0.22560600  0.72224600  0.43933200  1
  O  O77  1  0.60212900  0.17575600  0.23395900  1
  O  O78  1  0.72560600  0.27775400  0.06066800  1
  O  O79  1  0.27439400  0.72224600  0.93933200  1
  O  O80  1  0.38640000  0.59705800  0.49021000  1
  O  O81  1  0.27849000  0.29193200  0.29616200  1
  O  O82  1  0.06213500  0.57481600  0.66657800  1
  O  O83  1  0.61237000  0.13650400  0.89691500  1
  O  O84  1  0.41326500  0.40867200  0.75529300  1
  O  O85  1  0.88711200  0.88116500  0.00547800  1
  O  O86  1  0.58673500  0.59132800  0.24470700  1
  O  O87  1  0.38711200  0.11883500  0.49452200  1
  O  O88  1  0.51848700  0.83886200  0.79907700  1
  O  O89  1  0.39787100  0.82424400  0.76604100  1
