# generated using pymatgen
data_SiO2
_symmetry_space_group_name_H-M   'P 1'
_cell_length_a   13.48489068
_cell_length_b   13.48489068
_cell_length_c   5.45161186
_cell_angle_alpha   84.74048979
_cell_angle_beta   84.74048979
_cell_angle_gamma   88.33778408
_symmetry_Int_Tables_number   1
_chemical_formula_structural   SiO2
_chemical_formula_sum   'Si16 O32'
_cell_volume   982.79128017
_cell_formula_units_Z   16
loop_
 _symmetry_equiv_pos_site_id
 _symmetry_equiv_pos_as_xyz
  1  'x, y, z'
loop_
 _atom_site_type_symbol
 _atom_site_label
 _atom_site_symmetry_multiplicity
 _atom_site_fract_x
 _atom_site_fract_y
 _atom_site_fract_z
 _atom_site_occupancy
  Si  Si0  1  0.05709600  0.44052100  0.42119300  1
  Si  Si1  1  0.24582900  0.39737800  0.13995000  1
  Si  Si2  1  0.44160500  0.44160500  0.95937400  1
  Si  Si3  1  0.55947900  0.94290400  0.57880700  1
  Si  Si4  1  0.39737800  0.24582900  0.13995000  1
  Si  Si5  1  0.60262200  0.75417100  0.86005000  1
  Si  Si6  1  0.05865400  0.05865400  0.03637900  1
  Si  Si7  1  0.25051200  0.09974300  0.20922100  1
  Si  Si8  1  0.94290400  0.55947900  0.57880700  1
  Si  Si9  1  0.74948800  0.90025700  0.79077900  1
  Si  Si10  1  0.55839500  0.55839500  0.04062600  1
  Si  Si11  1  0.75417100  0.60262200  0.86005000  1
  Si  Si12  1  0.44052100  0.05709600  0.42119300  1
  Si  Si13  1  0.90025700  0.74948800  0.79077900  1
  Si  Si14  1  0.09974300  0.25051200  0.20922100  1
  Si  Si15  1  0.94134600  0.94134600  0.96362100  1
  O  O16  1  0.17394300  0.46282200  0.32518200  1
  O  O17  1  0.48228100  0.48228100  0.21757100  1
  O  O18  1  0.17363200  0.17363200  0.36680200  1
  O  O19  1  0.03386200  0.32340600  0.38968600  1
  O  O20  1  0.82605700  0.53717800  0.67481800  1
  O  O21  1  0.32283700  0.32283700  0.29489200  1
  O  O22  1  0.46282200  0.17394300  0.32518200  1
  O  O23  1  0.32640500  0.17000400  0.01424900  1
  O  O24  1  0.03441100  0.17770000  0.06479000  1
  O  O25  1  0.32340600  0.03386200  0.38968600  1
  O  O26  1  0.53597200  0.67888600  0.05995500  1
  O  O27  1  0.51771900  0.51771900  0.78242900  1
  O  O28  1  0.46402800  0.32111400  0.94004500  1
  O  O29  1  0.01868500  0.01868500  0.78277900  1
  O  O30  1  0.82999600  0.67359500  0.98575100  1
  O  O31  1  0.97634100  0.52355200  0.29699200  1
  O  O32  1  0.96558900  0.82230000  0.93521000  1
  O  O33  1  0.17770000  0.03441100  0.06479000  1
  O  O34  1  0.47644800  0.02365900  0.70300800  1
  O  O35  1  0.67359500  0.82999600  0.98575100  1
  O  O36  1  0.53717800  0.82605700  0.67481800  1
  O  O37  1  0.67888600  0.53597200  0.05995500  1
  O  O38  1  0.32111400  0.46402800  0.94004500  1
  O  O39  1  0.67716300  0.67716300  0.70510800  1
  O  O40  1  0.52355200  0.97634100  0.29699200  1
  O  O41  1  0.96613800  0.67659400  0.61031400  1
  O  O42  1  0.02365900  0.47644800  0.70300800  1
  O  O43  1  0.82230000  0.96558900  0.93521000  1
  O  O44  1  0.17000400  0.32640500  0.01424900  1
  O  O45  1  0.82636800  0.82636800  0.63319800  1
  O  O46  1  0.67659400  0.96613800  0.61031400  1
  O  O47  1  0.98131500  0.98131500  0.21722100  1
