# generated using pymatgen
data_VO3
_symmetry_space_group_name_H-M   'P 1'
_cell_length_a   5.38254990
_cell_length_b   8.80843900
_cell_length_c   7.67312972
_cell_angle_alpha   90.00000000
_cell_angle_beta   106.35823093
_cell_angle_gamma   90.00000000
_symmetry_Int_Tables_number   1
_chemical_formula_structural   VO3
_chemical_formula_sum   'V6 O18'
_cell_volume   349.07068926
_cell_formula_units_Z   6
loop_
 _symmetry_equiv_pos_site_id
 _symmetry_equiv_pos_as_xyz
  1  'x, y, z'
loop_
 _atom_site_type_symbol
 _atom_site_label
 _atom_site_symmetry_multiplicity
 _atom_site_fract_x
 _atom_site_fract_y
 _atom_site_fract_z
 _atom_site_occupancy
  V  V0  1  0.46209300  0.46220000  0.18171700  1
  V  V1  1  0.53790700  0.96220000  0.81828300  1
  V  V2  1  0.53790700  0.53780000  0.81828300  1
  V  V3  1  0.46209300  0.03780000  0.18171700  1
  V  V4  1  0.94998500  0.25000000  0.06597800  1
  V  V5  1  0.05001500  0.75000000  0.93402200  1
  O  O6  1  0.66950500  0.40260200  0.02184700  1
  O  O7  1  0.33049500  0.90260200  0.97815300  1
  O  O8  1  0.33049500  0.59739800  0.97815300  1
  O  O9  1  0.66950500  0.09739800  0.02184700  1
  O  O10  1  0.16058700  0.39755400  0.20734400  1
  O  O11  1  0.83941300  0.89755400  0.79265600  1
  O  O12  1  0.83941300  0.60244600  0.79265600  1
  O  O13  1  0.16058700  0.10244600  0.20734400  1
  O  O14  1  0.61473900  0.25000000  0.29983900  1
  O  O15  1  0.38526100  0.75000000  0.70016100  1
  O  O16  1  0.03767100  0.25000000  0.88244300  1
  O  O17  1  0.96232900  0.75000000  0.11755700  1
  O  O18  1  0.60446600  0.57011300  0.34759400  1
  O  O19  1  0.39553400  0.07011300  0.65240600  1
  O  O20  1  0.39553400  0.42988700  0.65240600  1
  O  O21  1  0.60446600  0.92988700  0.34759400  1
  O  O22  1  0.80350600  0.25000000  0.45307100  1
  O  O23  1  0.19649400  0.75000000  0.54692900  1
