# generated using pymatgen
data_CuSb(MoO4)2
_symmetry_space_group_name_H-M   'P 1'
_cell_length_a   11.36570212
_cell_length_b   11.36570212
_cell_length_c   5.63526603
_cell_angle_alpha   79.26734509
_cell_angle_beta   79.26734509
_cell_angle_gamma   25.21428698
_symmetry_Int_Tables_number   1
_chemical_formula_structural   CuSb(MoO4)2
_chemical_formula_sum   'Cu2 Sb2 Mo4 O16'
_cell_volume   304.41534367
_cell_formula_units_Z   2
loop_
 _symmetry_equiv_pos_site_id
 _symmetry_equiv_pos_as_xyz
  1  'x, y, z'
loop_
 _atom_site_type_symbol
 _atom_site_label
 _atom_site_symmetry_multiplicity
 _atom_site_fract_x
 _atom_site_fract_y
 _atom_site_fract_z
 _atom_site_occupancy
  Cu  Cu0  1  0.50000000  0.00000000  0.50000000  1
  Cu  Cu1  1  0.00000000  0.50000000  0.00000000  1
  Sb  Sb2  1  0.80863200  0.19136800  0.25000000  1
  Sb  Sb3  1  0.19136800  0.80863200  0.75000000  1
  Mo  Mo4  1  0.12061600  0.60476500  0.27654900  1
  Mo  Mo5  1  0.39523500  0.87938400  0.22345100  1
  Mo  Mo6  1  0.87938400  0.39523500  0.72345100  1
  Mo  Mo7  1  0.60476500  0.12061600  0.77654900  1
  O  O8  1  0.12139700  0.20131500  0.03823400  1
  O  O9  1  0.43154100  0.36077300  0.98641500  1
  O  O10  1  0.63222800  0.78927700  0.21106500  1
  O  O11  1  0.96139500  0.14269400  0.88073500  1
  O  O12  1  0.85730600  0.03860500  0.61926500  1
  O  O13  1  0.79868500  0.87860300  0.46176600  1
  O  O14  1  0.87860300  0.79868500  0.96176600  1
  O  O15  1  0.63922700  0.56845900  0.51358500  1
  O  O16  1  0.14269400  0.96139500  0.38073500  1
  O  O17  1  0.20131500  0.12139700  0.53823400  1
  O  O18  1  0.21072300  0.36777200  0.28893500  1
  O  O19  1  0.78927700  0.63222800  0.71106500  1
  O  O20  1  0.36077300  0.43154100  0.48641500  1
  O  O21  1  0.36777200  0.21072300  0.78893500  1
  O  O22  1  0.56845900  0.63922700  0.01358500  1
  O  O23  1  0.03860500  0.85730600  0.11926500  1
