# generated using pymatgen
data_K2Ni4P4O15
_symmetry_space_group_name_H-M   'P 1'
_cell_length_a   8.65821003
_cell_length_b   8.65821003
_cell_length_c   18.36510919
_cell_angle_alpha   82.13761516
_cell_angle_beta   82.13761516
_cell_angle_gamma   105.92504065
_symmetry_Int_Tables_number   1
_chemical_formula_structural   K2Ni4P4O15
_chemical_formula_sum   'K8 Ni16 P16 O60'
_cell_volume   1289.30285989
_cell_formula_units_Z   4
loop_
 _symmetry_equiv_pos_site_id
 _symmetry_equiv_pos_as_xyz
  1  'x, y, z'
loop_
 _atom_site_type_symbol
 _atom_site_label
 _atom_site_symmetry_multiplicity
 _atom_site_fract_x
 _atom_site_fract_y
 _atom_site_fract_z
 _atom_site_occupancy
  K  K0  1  0.55272400  0.33574300  0.95549400  1
  K  K1  1  0.90694700  0.40976600  0.79702000  1
  K  K2  1  0.44727600  0.66425700  0.04450600  1
  K  K3  1  0.33574300  0.55272400  0.45549400  1
  K  K4  1  0.59023400  0.09305300  0.70298000  1
  K  K5  1  0.09305300  0.59023400  0.20298000  1
  K  K6  1  0.40976600  0.90694700  0.29702000  1
  K  K7  1  0.66425700  0.44727600  0.54450600  1
  Ni  Ni8  1  0.04244100  0.15093100  0.93194000  1
  Ni  Ni9  1  0.73174300  0.08783700  0.06885100  1
  Ni  Ni10  1  0.26825700  0.91216300  0.93114900  1
  Ni  Ni11  1  0.17577800  0.82422200  0.75000000  1
  Ni  Ni12  1  0.91216300  0.26825700  0.43114900  1
  Ni  Ni13  1  0.82422200  0.17577800  0.25000000  1
  Ni  Ni14  1  0.84906900  0.95755900  0.56806000  1
  Ni  Ni15  1  0.08783700  0.73174300  0.56885100  1
  Ni  Ni16  1  0.95755900  0.84906900  0.06806000  1
  Ni  Ni17  1  0.53697400  0.46302600  0.25000000  1
  Ni  Ni18  1  0.15093100  0.04244100  0.43194000  1
  Ni  Ni19  1  0.00000000  0.50000000  0.00000000  1
  Ni  Ni20  1  0.04616800  0.95383200  0.25000000  1
  Ni  Ni21  1  0.50000000  0.00000000  0.50000000  1
  Ni  Ni22  1  0.46302600  0.53697400  0.75000000  1
  Ni  Ni23  1  0.95383200  0.04616800  0.75000000  1
  P  P24  1  0.28166700  0.15895300  0.82009000  1
  P  P25  1  0.31159800  0.00679100  0.09862400  1
  P  P26  1  0.00679000  0.31159800  0.59862400  1
  P  P27  1  0.10513100  0.22355800  0.09842900  1
  P  P28  1  0.84104700  0.71833300  0.67991000  1
  P  P29  1  0.77644200  0.89486900  0.40157100  1
  P  P30  1  0.23509700  0.55478100  0.88016600  1
  P  P31  1  0.22355800  0.10513100  0.59842900  1
  P  P32  1  0.44521900  0.76490300  0.61983400  1
  P  P33  1  0.89486900  0.77644200  0.90157100  1
  P  P34  1  0.68840200  0.99321000  0.90137600  1
  P  P35  1  0.99320900  0.68840200  0.40137600  1
  P  P36  1  0.76490300  0.44521900  0.11983400  1
  P  P37  1  0.71833300  0.84104700  0.17991000  1
  P  P38  1  0.15895300  0.28166700  0.32009000  1
  P  P39  1  0.55478100  0.23509700  0.38016600  1
  O  O40  1  0.29236600  0.41777900  0.26557500  1
  O  O41  1  0.81431000  0.72193600  0.41947000  1
  O  O42  1  0.29886900  0.98609400  0.81259100  1
  O  O43  1  0.38700600  0.81625000  0.69260900  1
  O  O44  1  0.93794500  0.24965400  0.68164000  1
  O  O45  1  0.66708800  0.22437700  0.44036800  1
  O  O46  1  0.70113100  0.01390600  0.18740900  1
  O  O47  1  0.95408700  0.50853100  0.42862600  1
  O  O48  1  0.41777900  0.29236600  0.76557500  1
  O  O49  1  0.49146900  0.04591300  0.07137400  1
  O  O50  1  0.86096500  0.59470400  0.92738600  1
  O  O51  1  0.18569000  0.27806400  0.58053000  1
  O  O52  1  0.82606800  0.89336000  0.68536000  1
  O  O53  1  0.90300900  0.60650000  0.07880700  1
  O  O54  1  0.60650000  0.90300900  0.57880700  1
  O  O55  1  0.71187300  0.83872500  0.09393100  1
  O  O56  1  0.28812700  0.16127500  0.90606900  1
  O  O57  1  0.72193600  0.81431000  0.91947000  1
  O  O58  1  0.33291200  0.77562300  0.55963200  1
  O  O59  1  0.24965400  0.93794500  0.18164000  1
  O  O60  1  0.99401300  0.11538100  0.05149100  1
  O  O61  1  0.78921100  0.10597400  0.94885300  1
  O  O62  1  0.59310300  0.46564300  0.13764400  1
  O  O63  1  0.75034600  0.06205500  0.81836000  1
  O  O64  1  0.21078900  0.89402600  0.05114700  1
  O  O65  1  0.89402600  0.21078900  0.55114700  1
  O  O66  1  0.58222100  0.70763400  0.23442500  1
  O  O67  1  0.06205500  0.75034600  0.31836000  1
  O  O68  1  0.11538100  0.99401300  0.55149100  1
  O  O69  1  0.88461900  0.00598700  0.44850900  1
  O  O70  1  0.10597400  0.78921100  0.44885300  1
  O  O71  1  0.39350000  0.09699100  0.42119300  1
  O  O72  1  0.89336000  0.82606800  0.18536000  1
  O  O73  1  0.59470400  0.86096500  0.42738600  1
  O  O74  1  0.09699100  0.39350000  0.92119300  1
  O  O75  1  0.40689700  0.53435700  0.86235600  1
  O  O76  1  0.50853100  0.95408700  0.92862600  1
  O  O77  1  0.77562300  0.33291200  0.05963200  1
  O  O78  1  0.83468700  0.96022200  0.31773600  1
  O  O79  1  0.16531300  0.03977800  0.68226400  1
  O  O80  1  0.40529600  0.13903500  0.57261400  1
  O  O81  1  0.70763400  0.58222100  0.73442500  1
  O  O82  1  0.18375000  0.61299400  0.80739100  1
  O  O83  1  0.27806400  0.18569000  0.08053000  1
  O  O84  1  0.53435700  0.40689700  0.36235600  1
  O  O85  1  0.13903500  0.40529600  0.07261400  1
  O  O86  1  0.83872500  0.71187300  0.59393100  1
  O  O87  1  0.81625000  0.38700600  0.19260900  1
  O  O88  1  0.22437700  0.66708800  0.94036800  1
  O  O89  1  0.98609400  0.29886900  0.31259100  1
  O  O90  1  0.96022200  0.83468700  0.81773600  1
  O  O91  1  0.46564300  0.59310300  0.63764400  1
  O  O92  1  0.00598700  0.88461900  0.94850900  1
  O  O93  1  0.16127500  0.28812700  0.40606900  1
  O  O94  1  0.03977800  0.16531300  0.18226400  1
  O  O95  1  0.04591300  0.49146900  0.57137400  1
  O  O96  1  0.01390600  0.70113100  0.68740900  1
  O  O97  1  0.10664000  0.17393200  0.81464000  1
  O  O98  1  0.17393200  0.10664000  0.31464000  1
  O  O99  1  0.61299400  0.18375000  0.30739100  1
