# generated using pymatgen
data_Mo4O11
_symmetry_space_group_name_H-M   'P 1'
_cell_length_a   5.59916200
_cell_length_b   6.89605000
_cell_length_c   25.20770336
_cell_angle_alpha   86.10989260
_cell_angle_beta   90.00000000
_cell_angle_gamma   90.00000000
_symmetry_Int_Tables_number   1
_chemical_formula_structural   Mo4O11
_chemical_formula_sum   'Mo16 O44'
_cell_volume   971.07986338
_cell_formula_units_Z   4
loop_
 _symmetry_equiv_pos_site_id
 _symmetry_equiv_pos_as_xyz
  1  'x, y, z'
loop_
 _atom_site_type_symbol
 _atom_site_label
 _atom_site_symmetry_multiplicity
 _atom_site_fract_x
 _atom_site_fract_y
 _atom_site_fract_z
 _atom_site_occupancy
  Mo  Mo0  1  0.22165500  0.68325100  0.04471800  1
  Mo  Mo1  1  0.23185500  0.33964300  0.27969200  1
  Mo  Mo2  1  0.72887000  0.99804600  0.33647700  1
  Mo  Mo3  1  0.27834500  0.68325100  0.54471800  1
  Mo  Mo4  1  0.26814500  0.33964300  0.77969200  1
  Mo  Mo5  1  0.77834500  0.31674900  0.95528200  1
  Mo  Mo6  1  0.22887000  0.00195400  0.16352300  1
  Mo  Mo7  1  0.23611400  0.66159200  0.39887800  1
  Mo  Mo8  1  0.26388600  0.66159200  0.89887800  1
  Mo  Mo9  1  0.72165500  0.31674900  0.45528200  1
  Mo  Mo10  1  0.76388600  0.33840800  0.60112200  1
  Mo  Mo11  1  0.77113000  0.99804600  0.83647700  1
  Mo  Mo12  1  0.27113000  0.00195400  0.66352300  1
  Mo  Mo13  1  0.76814500  0.66035700  0.72030800  1
  Mo  Mo14  1  0.73611400  0.33840800  0.10112200  1
  Mo  Mo15  1  0.73185500  0.66035700  0.22030800  1
  O  O16  1  0.00323500  0.20575900  0.11879700  1
  O  O17  1  0.53237700  0.86093800  0.68209900  1
  O  O18  1  0.23625100  0.16732600  0.21589800  1
  O  O19  1  0.45524400  0.51608400  0.06184700  1
  O  O20  1  0.76513400  0.11783300  0.91320800  1
  O  O21  1  0.05916800  0.43860100  0.94472500  1
  O  O22  1  0.50323500  0.79424100  0.38120300  1
  O  O23  1  0.50910000  0.17009800  0.12288600  1
  O  O24  1  0.24475700  0.77197800  0.47583400  1
  O  O25  1  0.76374900  0.83267400  0.78410200  1
  O  O26  1  0.26513400  0.88216700  0.58679200  1
  O  O27  1  0.46762300  0.13906200  0.31790100  1
  O  O28  1  0.99676500  0.79424100  0.88120300  1
  O  O29  1  0.94083200  0.56139900  0.05527500  1
  O  O30  1  0.03237700  0.13906200  0.81790100  1
  O  O31  1  0.55916800  0.56139900  0.55527500  1
  O  O32  1  0.73625100  0.83267400  0.28410200  1
  O  O33  1  0.49923500  0.50712700  0.74477900  1
  O  O34  1  0.95664600  0.16690700  0.31326800  1
  O  O35  1  0.00076500  0.50712700  0.24477900  1
  O  O36  1  0.72612900  0.50193900  0.15338600  1
  O  O37  1  0.54475600  0.48391600  0.93815300  1
  O  O38  1  0.23486600  0.88216700  0.08679200  1
  O  O39  1  0.73486600  0.11783300  0.41320800  1
  O  O40  1  0.49676500  0.20575900  0.61879700  1
  O  O41  1  0.45664600  0.83309300  0.18673200  1
  O  O42  1  0.00910000  0.82990200  0.37711400  1
  O  O43  1  0.99090000  0.17009800  0.62288600  1
  O  O44  1  0.75524300  0.22802200  0.52416600  1
  O  O45  1  0.99923500  0.49287300  0.75522100  1
  O  O46  1  0.44083200  0.43860100  0.44472500  1
  O  O47  1  0.50076500  0.49287300  0.25522100  1
  O  O48  1  0.27387100  0.49806100  0.84661400  1
  O  O49  1  0.25524300  0.77197800  0.97583400  1
  O  O50  1  0.04475600  0.51608400  0.56184700  1
  O  O51  1  0.77387100  0.50193900  0.65338600  1
  O  O52  1  0.49090000  0.82990200  0.87711400  1
  O  O53  1  0.22612900  0.49806100  0.34661400  1
  O  O54  1  0.26374900  0.16732600  0.71589800  1
  O  O55  1  0.96762300  0.86093800  0.18209900  1
  O  O56  1  0.04335400  0.83309300  0.68673200  1
  O  O57  1  0.95524400  0.48391600  0.43815300  1
  O  O58  1  0.54335400  0.16690700  0.81326800  1
  O  O59  1  0.74475700  0.22802200  0.02416600  1
