# generated using pymatgen
data_SiO2
_symmetry_space_group_name_H-M   'P 1'
_cell_length_a   14.07355423
_cell_length_b   14.07355423
_cell_length_c   14.07355423
_cell_angle_alpha   118.68590145
_cell_angle_beta   114.98069212
_cell_angle_gamma   95.60556299
_symmetry_Int_Tables_number   1
_chemical_formula_structural   SiO2
_chemical_formula_sum   'Si36 O72'
_cell_volume   2052.35090760
_cell_formula_units_Z   36
loop_
 _symmetry_equiv_pos_site_id
 _symmetry_equiv_pos_as_xyz
  1  'x, y, z'
loop_
 _atom_site_type_symbol
 _atom_site_label
 _atom_site_symmetry_multiplicity
 _atom_site_fract_x
 _atom_site_fract_y
 _atom_site_fract_z
 _atom_site_occupancy
  Si  Si0  1  0.43489300  0.29754000  0.06554300  1
  Si  Si1  1  0.67967300  0.47197100  0.30577900  1
  Si  Si2  1  0.17967300  0.87389400  0.20770200  1
  Si  Si3  1  0.66619200  0.87389400  0.69422100  1
  Si  Si4  1  0.27263300  0.73331800  0.67064500  1
  Si  Si5  1  0.73113300  0.73113300  0.50000000  1
  Si  Si6  1  0.06267300  0.73331800  0.46068500  1
  Si  Si7  1  0.56510700  0.70246000  0.93445700  1
  Si  Si8  1  0.56267300  0.10198800  0.32935500  1
  Si  Si9  1  0.93489300  0.86935000  0.13735300  1
  Si  Si10  1  0.29656000  0.16468400  0.66132600  1
  Si  Si11  1  0.20344000  0.86476600  0.86812400  1
  Si  Si12  1  0.32032700  0.52802900  0.69422100  1
  Si  Si13  1  0.23113300  0.73113300  0.00000000  1
  Si  Si14  1  0.23199600  0.29754000  0.86264700  1
  Si  Si15  1  0.06510700  0.13065000  0.86264700  1
  Si  Si16  1  0.43732700  0.89801200  0.67064500  1
  Si  Si17  1  0.83380800  0.52802900  0.20770200  1
  Si  Si18  1  0.82032700  0.12610600  0.79229800  1
  Si  Si19  1  0.00335800  0.13523400  0.33867400  1
  Si  Si20  1  0.33380800  0.12610600  0.30577900  1
  Si  Si21  1  0.76800400  0.70246000  0.13735300  1
  Si  Si22  1  0.72736700  0.26668200  0.32935500  1
  Si  Si23  1  0.49664200  0.83531600  0.13187600  1
  Si  Si24  1  0.70344000  0.83531600  0.33867400  1
  Si  Si25  1  0.26886700  0.26886700  0.50000000  1
  Si  Si26  1  0.50335800  0.16468400  0.86812400  1
  Si  Si27  1  0.26800400  0.13065000  0.06554300  1
  Si  Si28  1  0.79656000  0.13523400  0.13187600  1
  Si  Si29  1  0.76886700  0.26886700  0.00000000  1
  Si  Si30  1  0.16619200  0.47197100  0.79229800  1
  Si  Si31  1  0.93732700  0.26668200  0.53931500  1
  Si  Si32  1  0.77263300  0.10198800  0.53931500  1
  Si  Si33  1  0.73199600  0.86935000  0.93445700  1
  Si  Si34  1  0.99664200  0.86476600  0.66132600  1
  Si  Si35  1  0.22736700  0.89801200  0.46068500  1
  O  O36  1  0.14488900  0.13434600  0.98945700  1
  O  O37  1  0.35511100  0.34456800  0.98945700  1
  O  O38  1  0.21292400  0.40963100  0.86433900  1
  O  O39  1  0.42392400  0.18443800  0.76051400  1
  O  O40  1  0.02940800  0.00502700  0.73312600  1
  O  O41  1  0.01424600  0.81595600  0.54166500  1
  O  O42  1  0.66079100  0.77066000  0.56889500  1
  O  O43  1  0.52940800  0.79628300  0.02438100  1
  O  O44  1  0.54529200  0.40963100  0.19670700  1
  O  O45  1  0.15673800  0.70382600  0.54708800  1
  O  O46  1  0.71292400  0.84858500  0.80329300  1
  O  O47  1  0.22219600  0.87230000  0.33330500  1
  O  O48  1  0.38262200  0.80108000  0.68370200  1
  O  O49  1  0.29823500  0.40810400  0.56889500  1
  O  O50  1  0.28707600  0.15141500  0.19670700  1
  O  O51  1  0.24947200  0.00000000  0.24947200  1
  O  O52  1  0.20176500  0.77066000  0.10986800  1
  O  O53  1  0.83920900  0.40810400  0.10986800  1
  O  O54  1  0.97059200  0.99497300  0.26687400  1
  O  O55  1  0.70176500  0.59189600  0.43110500  1
  O  O56  1  0.53899500  0.87230000  0.65010400  1
  O  O57  1  0.45470800  0.59036900  0.80329300  1
  O  O58  1  0.78707600  0.59036900  0.13566100  1
  O  O59  1  0.77780400  0.12770000  0.66669500  1
  O  O60  1  0.27429100  0.81595600  0.80171000  1
  O  O61  1  0.65673800  0.10965000  0.45291200  1
  O  O62  1  0.72219600  0.38889100  0.34989600  1
  O  O63  1  0.63204000  0.76647700  0.89851800  1
  O  O64  1  0.13421900  0.19746700  0.39088500  1
  O  O65  1  0.03899500  0.38889100  0.66669500  1
  O  O66  1  0.72570900  0.18404400  0.19829000  1
  O  O67  1  0.51424600  0.97258100  0.19829000  1
  O  O68  1  0.07607600  0.83659000  0.76051400  1
  O  O69  1  0.69341700  0.75666600  0.39088500  1
  O  O70  1  0.95470800  0.15141500  0.86433900  1
  O  O71  1  0.84326200  0.29617400  0.45291200  1
  O  O72  1  0.77190200  0.79628300  0.26687400  1
  O  O73  1  0.30658300  0.24333400  0.60911500  1
  O  O74  1  0.27190200  0.00502700  0.97561900  1
  O  O75  1  0.48575400  0.02741900  0.80171000  1
  O  O76  1  0.63421900  0.24333400  0.93675200  1
  O  O77  1  0.04529200  0.84858500  0.13566100  1
  O  O78  1  0.47059200  0.20371700  0.97561900  1
  O  O79  1  0.86578100  0.80253300  0.60911500  1
  O  O80  1  0.96100500  0.61110900  0.33330500  1
  O  O81  1  0.80658300  0.19746700  0.06324800  1
  O  O82  1  0.79823500  0.22934000  0.89013200  1
  O  O83  1  0.92392400  0.16341000  0.23948600  1
  O  O84  1  0.77429100  0.97258100  0.45833500  1
  O  O85  1  0.11737800  0.80108000  0.41845800  1
  O  O86  1  0.22570900  0.02741900  0.54166500  1
  O  O87  1  0.36578100  0.75666600  0.06324800  1
  O  O88  1  0.64488900  0.65543200  0.01054300  1
  O  O89  1  0.16079100  0.59189600  0.89013200  1
  O  O90  1  0.74947200  0.50000000  0.24947200  1
  O  O91  1  0.19341700  0.80253300  0.93675200  1
  O  O92  1  0.72809800  0.99497300  0.02438100  1
  O  O93  1  0.88262200  0.19892000  0.58154200  1
  O  O94  1  0.75052800  0.00000000  0.75052800  1
  O  O95  1  0.13204000  0.23352300  0.86556300  1
  O  O96  1  0.27780400  0.61110900  0.65010400  1
  O  O97  1  0.34326200  0.89035000  0.54708800  1
  O  O98  1  0.61737800  0.19892000  0.31629800  1
  O  O99  1  0.46100500  0.12770000  0.34989600  1
  O  O100  1  0.22809800  0.20371700  0.73312600  1
  O  O101  1  0.85511100  0.86565400  0.01054300  1
  O  O102  1  0.25052800  0.50000000  0.75052800  1
  O  O103  1  0.36796000  0.23352300  0.10148200  1
  O  O104  1  0.57607600  0.81556200  0.23948600  1
  O  O105  1  0.98575400  0.18404400  0.45833500  1
  O  O106  1  0.33920900  0.22934000  0.43110500  1
  O  O107  1  0.86796000  0.76647700  0.13443700  1
