# generated using pymatgen
data_Te4W(OF4)5
_symmetry_space_group_name_H-M   'P 1'
_cell_length_a   9.98144400
_cell_length_b   10.48341337
_cell_length_c   10.88988537
_cell_angle_alpha   75.59751335
_cell_angle_beta   87.10762989
_cell_angle_gamma   83.40802524
_symmetry_Int_Tables_number   1
_chemical_formula_structural   Te4W(OF4)5
_chemical_formula_sum   'Te8 W2 O10 F40'
_cell_volume   1096.12015493
_cell_formula_units_Z   2
loop_
 _symmetry_equiv_pos_site_id
 _symmetry_equiv_pos_as_xyz
  1  'x, y, z'
loop_
 _atom_site_type_symbol
 _atom_site_label
 _atom_site_symmetry_multiplicity
 _atom_site_fract_x
 _atom_site_fract_y
 _atom_site_fract_z
 _atom_site_occupancy
  Te  Te0  1  0.75882300  0.62638700  0.85160900  1
  Te  Te1  1  0.82493000  0.68633600  0.35215200  1
  Te  Te2  1  0.29740300  0.81357700  0.57942200  1
  Te  Te3  1  0.70259700  0.18642300  0.42057800  1
  Te  Te4  1  0.27269800  0.87127900  0.08728900  1
  Te  Te5  1  0.24117700  0.37361300  0.14839100  1
  Te  Te6  1  0.72730200  0.12872100  0.91271100  1
  Te  Te7  1  0.17507000  0.31366400  0.64784800  1
  W  W8  1  0.27052600  0.58796800  0.36948300  1
  W  W9  1  0.72947400  0.41203200  0.63051700  1
  O  O10  1  0.75639500  0.54964200  0.47522300  1
  O  O11  1  0.44303900  0.56946300  0.35614000  1
  O  O12  1  0.76447400  0.28552500  0.52624400  1
  O  O13  1  0.21630900  0.46611000  0.27843900  1
  O  O14  1  0.55696100  0.43053700  0.64386000  1
  O  O15  1  0.23552600  0.71447500  0.47375600  1
  O  O16  1  0.78369100  0.53389000  0.72156100  1
  O  O17  1  0.24360500  0.45035800  0.52477700  1
  O  O18  1  0.77706900  0.26942800  0.77666400  1
  O  O19  1  0.22293100  0.73057200  0.22333600  1
  F  F20  1  0.89937800  0.81857000  0.22897300  1
  F  F21  1  0.35530400  0.91371900  0.68267800  1
  F  F22  1  0.68218400  0.99072000  0.04775500  1
  F  F23  1  0.70218000  0.03814500  0.55765000  1
  F  F24  1  0.64469600  0.08628100  0.31732200  1
  F  F25  1  0.59688400  0.08753200  0.81533300  1
  F  F26  1  0.26249200  0.27972400  0.02250700  1
  F  F27  1  0.16489400  0.52196300  0.02941800  1
  F  F28  1  0.69901400  0.33216900  0.28043500  1
  F  F29  1  0.59705400  0.24376900  0.97192600  1
  F  F30  1  0.10062200  0.18143000  0.77102700  1
  F  F31  1  0.47829400  0.76275000  0.54236400  1
  F  F32  1  0.17066100  0.41450400  0.76718100  1
  F  F33  1  0.73750800  0.72027600  0.97749300  1
  F  F34  1  0.65318600  0.76705900  0.30542100  1
  F  F35  1  0.52170600  0.23725000  0.45763600  1
  F  F36  1  0.68094700  0.77693600  0.73692100  1
  F  F37  1  0.07060400  0.31591400  0.18848900  1
  F  F38  1  0.14419600  0.98881400  0.14444900  1
  F  F39  1  0.40294600  0.75623100  0.02807400  1
  F  F40  1  0.58761900  0.56969500  0.89435500  1
  F  F41  1  0.85642700  0.16648900  0.01296400  1
  F  F42  1  0.92939600  0.68408600  0.81151100  1
  F  F43  1  0.99332100  0.38860200  0.60663400  1
  F  F44  1  0.88113700  0.13379500  0.38064800  1
  F  F45  1  0.34681400  0.23294100  0.69457900  1
  F  F46  1  0.11886300  0.86620500  0.61935200  1
  F  F47  1  0.30098600  0.66783100  0.71956500  1
  F  F48  1  0.16411700  0.21185700  0.53088300  1
  F  F49  1  0.14357300  0.83351100  0.98703600  1
  F  F50  1  0.31781600  0.00928000  0.95224500  1
  F  F51  1  0.29782000  0.96185500  0.44235000  1
  F  F52  1  0.31905300  0.22306400  0.26307900  1
  F  F53  1  0.00667900  0.61139800  0.39336600  1
  F  F54  1  0.83510600  0.47803700  0.97058200  1
  F  F55  1  0.85580400  0.01118600  0.85555100  1
  F  F56  1  0.41238100  0.43030500  0.10564500  1
  F  F57  1  0.82933900  0.58549600  0.23281900  1
  F  F58  1  0.83588300  0.78814300  0.46911700  1
  F  F59  1  0.40311600  0.91246800  0.18466700  1
