# generated using pymatgen
data_Ca3SiO5
_symmetry_space_group_name_H-M   'P 1'
_cell_length_a   9.44645477
_cell_length_b   9.44645477
_cell_length_c   9.44645478
_cell_angle_alpha   44.67091302
_cell_angle_beta   44.67091302
_cell_angle_gamma   44.67090870
_symmetry_Int_Tables_number   1
_chemical_formula_structural   Ca3SiO5
_chemical_formula_sum   'Ca9 Si3 O15'
_cell_volume   378.95207848
_cell_formula_units_Z   3
loop_
 _symmetry_equiv_pos_site_id
 _symmetry_equiv_pos_as_xyz
  1  'x, y, z'
loop_
 _atom_site_type_symbol
 _atom_site_label
 _atom_site_symmetry_multiplicity
 _atom_site_fract_x
 _atom_site_fract_y
 _atom_site_fract_z
 _atom_site_occupancy
  Ca  Ca0  1  0.50197500  0.00162600  0.50197500  1
  Ca  Ca1  1  0.50197500  0.50197500  0.00162600  1
  Ca  Ca2  1  0.29515700  0.29515700  0.74629700  1
  Ca  Ca3  1  0.25685900  0.70787600  0.70787600  1
  Ca  Ca4  1  0.70787600  0.25685900  0.70787600  1
  Ca  Ca5  1  0.70787600  0.70787600  0.25685900  1
  Ca  Ca6  1  0.74629700  0.29515700  0.29515700  1
  Ca  Ca7  1  0.29515700  0.74629700  0.29515700  1
  Ca  Ca8  1  0.00162600  0.50197500  0.50197500  1
  Si  Si9  1  0.22141500  0.22141500  0.22141500  1
  Si  Si10  1  0.00736900  0.00736900  0.00736900  1
  Si  Si11  1  0.78633300  0.78633300  0.78633300  1
  O  O12  1  0.07292300  0.07292300  0.07292300  1
  O  O13  1  0.63933700  0.63933700  0.01173600  1
  O  O14  1  0.32656900  0.94986100  0.32656900  1
  O  O15  1  0.28571300  0.28571300  0.28571300  1
  O  O16  1  0.94986100  0.32656900  0.32656900  1
  O  O17  1  0.63933700  0.01173600  0.63933700  1
  O  O18  1  0.86007600  0.86007600  0.23566200  1
  O  O19  1  0.85210500  0.85210500  0.85210500  1
  O  O20  1  0.32656900  0.32656900  0.94986100  1
  O  O21  1  0.23566200  0.86007600  0.86007600  1
  O  O22  1  0.50030300  0.50030300  0.50030300  1
  O  O23  1  0.86007600  0.23566200  0.86007600  1
  O  O24  1  0.38604500  0.38604500  0.38604500  1
  O  O25  1  0.61577400  0.61577400  0.61577400  1
  O  O26  1  0.01173600  0.63933700  0.63933700  1
