# generated using pymatgen
data_SiO2
_symmetry_space_group_name_H-M   'P 1'
_cell_length_a   10.34269467
_cell_length_b   10.34269467
_cell_length_c   10.34269421
_cell_angle_alpha   83.91046775
_cell_angle_beta   83.91046775
_cell_angle_gamma   83.91046550
_symmetry_Int_Tables_number   1
_chemical_formula_structural   SiO2
_chemical_formula_sum   'Si24 O48'
_cell_volume   1088.87847267
_cell_formula_units_Z   24
loop_
 _symmetry_equiv_pos_site_id
 _symmetry_equiv_pos_as_xyz
  1  'x, y, z'
loop_
 _atom_site_type_symbol
 _atom_site_label
 _atom_site_symmetry_multiplicity
 _atom_site_fract_x
 _atom_site_fract_y
 _atom_site_fract_z
 _atom_site_occupancy
  Si  Si0  1  0.99666400  0.23532600  0.18112300  1
  Si  Si1  1  0.09232400  0.70966300  0.28664800  1
  Si  Si2  1  0.67140700  0.17857000  0.35935000  1
  Si  Si3  1  0.63779700  0.58018600  0.11897200  1
  Si  Si4  1  0.58018600  0.11897200  0.63779700  1
  Si  Si5  1  0.76467400  0.81887700  0.00333600  1
  Si  Si6  1  0.00333600  0.76467400  0.81887700  1
  Si  Si7  1  0.36220300  0.41981400  0.88102800  1
  Si  Si8  1  0.81887700  0.00333600  0.76467400  1
  Si  Si9  1  0.35935000  0.67140700  0.17857000  1
  Si  Si10  1  0.17857000  0.35935000  0.67140700  1
  Si  Si11  1  0.28664800  0.09232400  0.70966300  1
  Si  Si12  1  0.82143000  0.64065000  0.32859300  1
  Si  Si13  1  0.23532600  0.18112300  0.99666400  1
  Si  Si14  1  0.11897200  0.63779700  0.58018600  1
  Si  Si15  1  0.41981400  0.88102800  0.36220300  1
  Si  Si16  1  0.90767600  0.29033700  0.71335200  1
  Si  Si17  1  0.70966300  0.28664800  0.09232400  1
  Si  Si18  1  0.18112300  0.99666400  0.23532600  1
  Si  Si19  1  0.32859300  0.82143000  0.64065000  1
  Si  Si20  1  0.88102800  0.36220300  0.41981400  1
  Si  Si21  1  0.64065000  0.32859300  0.82143000  1
  Si  Si22  1  0.29033700  0.71335200  0.90767600  1
  Si  Si23  1  0.71335200  0.90767600  0.29033700  1
  O  O24  1  0.94655000  0.89952200  0.73641200  1
  O  O25  1  0.26358800  0.05345000  0.10047800  1
  O  O26  1  0.76261000  0.77906100  0.38710800  1
  O  O27  1  0.44562000  0.06387700  0.70612700  1
  O  O28  1  0.22653700  0.12161600  0.85784300  1
  O  O29  1  0.75328600  0.29006600  0.40171400  1
  O  O30  1  0.56107300  0.15305800  0.48224700  1
  O  O31  1  0.98071600  0.34552200  0.28668800  1
  O  O32  1  0.23890800  0.96008600  0.66386400  1
  O  O33  1  0.33613600  0.76109200  0.03991400  1
  O  O34  1  0.12161600  0.85784300  0.22653700  1
  O  O35  1  0.96008600  0.66386400  0.23890800  1
  O  O36  1  0.71331200  0.01928400  0.65447800  1
  O  O37  1  0.14215700  0.77346300  0.87838400  1
  O  O38  1  0.22093900  0.61289200  0.23739000  1
  O  O39  1  0.93612300  0.29387300  0.55438000  1
  O  O40  1  0.34552200  0.28668800  0.98071600  1
  O  O41  1  0.70612700  0.44562000  0.06387700  1
  O  O42  1  0.76109200  0.03991400  0.33613600  1
  O  O43  1  0.23739000  0.22093900  0.61289200  1
  O  O44  1  0.61289200  0.23739000  0.22093900  1
  O  O45  1  0.38710800  0.76261000  0.77906100  1
  O  O46  1  0.24671400  0.70993400  0.59828600  1
  O  O47  1  0.51775300  0.43892700  0.84694200  1
  O  O48  1  0.29387300  0.55438000  0.93612300  1
  O  O49  1  0.77906100  0.38710800  0.76261000  1
  O  O50  1  0.77346300  0.87838400  0.14215700  1
  O  O51  1  0.55438000  0.93612300  0.29387300  1
  O  O52  1  0.40171400  0.75328600  0.29006600  1
  O  O53  1  0.10047800  0.26358800  0.05345000  1
  O  O54  1  0.05345000  0.10047800  0.26358800  1
  O  O55  1  0.28668800  0.98071600  0.34552200  1
  O  O56  1  0.48224700  0.56107300  0.15305800  1
  O  O57  1  0.73641200  0.94655000  0.89952200  1
  O  O58  1  0.85784300  0.22653700  0.12161600  1
  O  O59  1  0.29006600  0.40171400  0.75328600  1
  O  O60  1  0.03991400  0.33613600  0.76109200  1
  O  O61  1  0.06387700  0.70612700  0.44562000  1
  O  O62  1  0.87838400  0.14215700  0.77346300  1
  O  O63  1  0.89952200  0.73641200  0.94655000  1
  O  O64  1  0.65447800  0.71331200  0.01928400  1
  O  O65  1  0.01928400  0.65447800  0.71331200  1
  O  O66  1  0.66386400  0.23890800  0.96008600  1
  O  O67  1  0.59828600  0.24671400  0.70993400  1
  O  O68  1  0.70993400  0.59828600  0.24671400  1
  O  O69  1  0.84694200  0.51775300  0.43892700  1
  O  O70  1  0.15305800  0.48224700  0.56107300  1
  O  O71  1  0.43892700  0.84694200  0.51775300  1
