# generated using pymatgen
data_Cr2(Hg2O3)3
_symmetry_space_group_name_H-M   'P 1'
_cell_length_a   7.65129500
_cell_length_b   8.23085300
_cell_length_c   20.82414100
_cell_angle_alpha   90.00000000
_cell_angle_beta   90.00000000
_cell_angle_gamma   90.00000000
_symmetry_Int_Tables_number   1
_chemical_formula_structural   Cr2(Hg2O3)3
_chemical_formula_sum   'Cr8 Hg24 O36'
_cell_volume   1311.43535575
_cell_formula_units_Z   4
loop_
 _symmetry_equiv_pos_site_id
 _symmetry_equiv_pos_as_xyz
  1  'x, y, z'
loop_
 _atom_site_type_symbol
 _atom_site_label
 _atom_site_symmetry_multiplicity
 _atom_site_fract_x
 _atom_site_fract_y
 _atom_site_fract_z
 _atom_site_occupancy
  Cr  Cr0  1  0.97504300  0.58688100  0.44102800  1
  Cr  Cr1  1  0.29894100  0.18980700  0.29836600  1
  Cr  Cr2  1  0.79894100  0.31019300  0.70163400  1
  Cr  Cr3  1  0.52495700  0.41311900  0.94102800  1
  Cr  Cr4  1  0.47504300  0.91311900  0.55897200  1
  Cr  Cr5  1  0.02495700  0.08688100  0.05897200  1
  Cr  Cr6  1  0.20105900  0.81019300  0.79836600  1
  Cr  Cr7  1  0.70105900  0.68980700  0.20163400  1
  Hg  Hg8  1  0.96445400  0.93597200  0.63990200  1
  Hg  Hg9  1  0.09666100  0.78504900  0.30547100  1
  Hg  Hg10  1  0.59104200  0.85321900  0.37964300  1
  Hg  Hg11  1  0.47417400  0.97739800  0.95436500  1
  Hg  Hg12  1  0.09104200  0.64678100  0.62035700  1
  Hg  Hg13  1  0.70910800  0.81335700  0.80572600  1
  Hg  Hg14  1  0.97417400  0.52260200  0.04563500  1
  Hg  Hg15  1  0.52582600  0.47739800  0.54563500  1
  Hg  Hg16  1  0.79089200  0.18664300  0.30572600  1
  Hg  Hg17  1  0.03554600  0.43597200  0.86009800  1
  Hg  Hg18  1  0.12172800  0.24576600  0.53605200  1
  Hg  Hg19  1  0.20910800  0.68664300  0.19427400  1
  Hg  Hg20  1  0.53554600  0.06402800  0.13990200  1
  Hg  Hg21  1  0.40895800  0.35321900  0.12035700  1
  Hg  Hg22  1  0.62172800  0.25423400  0.46394800  1
  Hg  Hg23  1  0.59666100  0.71495100  0.69452900  1
  Hg  Hg24  1  0.29089200  0.31335700  0.69427400  1
  Hg  Hg25  1  0.46445400  0.56402800  0.36009800  1
  Hg  Hg26  1  0.87827200  0.74576600  0.96394800  1
  Hg  Hg27  1  0.90333900  0.28504900  0.19452900  1
  Hg  Hg28  1  0.90895800  0.14678100  0.87964300  1
  Hg  Hg29  1  0.40333900  0.21495100  0.80547100  1
  Hg  Hg30  1  0.37827200  0.75423400  0.03605200  1
  Hg  Hg31  1  0.02582600  0.02260200  0.45436500  1
  O  O32  1  0.40655300  0.30555900  0.35404200  1
  O  O33  1  0.61501900  0.39997100  0.01251700  1
  O  O34  1  0.48006100  0.71706400  0.59543700  1
  O  O35  1  0.88498100  0.60002900  0.51251700  1
  O  O36  1  0.90655300  0.19444100  0.64595800  1
  O  O37  1  0.43977000  0.05947900  0.26733500  1
  O  O38  1  0.13415600  0.08564800  0.33331600  1
  O  O39  1  0.82480300  0.01704700  0.05161800  1
  O  O40  1  0.98006100  0.78293600  0.40456300  1
  O  O41  1  0.22960900  0.42255300  0.60248800  1
  O  O42  1  0.77039100  0.92255300  0.89751200  1
  O  O43  1  0.36584400  0.91435200  0.83331600  1
  O  O44  1  0.67519700  0.98295300  0.55161800  1
  O  O45  1  0.27952500  0.69388300  0.74056300  1
  O  O46  1  0.38498100  0.89997100  0.48748300  1
  O  O47  1  0.27039100  0.57744700  0.10248800  1
  O  O48  1  0.35739500  0.03706300  0.60383400  1
  O  O49  1  0.85739500  0.46293700  0.39616600  1
  O  O50  1  0.22047500  0.30611700  0.24056300  1
  O  O51  1  0.93977000  0.44052100  0.73266500  1
  O  O52  1  0.77952500  0.80611700  0.25943700  1
  O  O53  1  0.32480300  0.48295300  0.94838200  1
  O  O54  1  0.11501900  0.10002900  0.98748300  1
  O  O55  1  0.59344700  0.80555900  0.14595800  1
  O  O56  1  0.01993900  0.28293600  0.09543700  1
  O  O57  1  0.56023000  0.55947900  0.23266500  1
  O  O58  1  0.64260500  0.53706300  0.89616600  1
  O  O59  1  0.17519700  0.51704700  0.44838200  1
  O  O60  1  0.72047500  0.19388300  0.75943700  1
  O  O61  1  0.06023000  0.94052100  0.76733500  1
  O  O62  1  0.51993900  0.21706400  0.90456300  1
  O  O63  1  0.86584400  0.58564800  0.16668400  1
  O  O64  1  0.14260500  0.96293700  0.10383400  1
  O  O65  1  0.09344700  0.69444100  0.85404200  1
  O  O66  1  0.63415600  0.41435200  0.66668400  1
  O  O67  1  0.72960900  0.07744700  0.39751200  1
