# generated using pymatgen
data_H10C3S3N
_symmetry_space_group_name_H-M   'P 1'
_cell_length_a   5.90222700
_cell_length_b   10.57824900
_cell_length_c   13.57423912
_cell_angle_alpha   82.33055751
_cell_angle_beta   90.00000000
_cell_angle_gamma   90.00000000
_symmetry_Int_Tables_number   1
_chemical_formula_structural   H10C3S3N
_chemical_formula_sum   'H40 C12 S12 N4'
_cell_volume   839.92930670
_cell_formula_units_Z   4
loop_
 _symmetry_equiv_pos_site_id
 _symmetry_equiv_pos_as_xyz
  1  'x, y, z'
loop_
 _atom_site_type_symbol
 _atom_site_label
 _atom_site_symmetry_multiplicity
 _atom_site_fract_x
 _atom_site_fract_y
 _atom_site_fract_z
 _atom_site_occupancy
  H  H0  1  0.12700600  0.76009300  0.53086900  1
  H  H1  1  0.47085500  0.49217100  0.37140900  1
  H  H2  1  0.61794200  0.14589000  0.95368000  1
  H  H3  1  0.47085500  0.50782900  0.12859100  1
  H  H4  1  0.35483600  0.29427900  0.03980500  1
  H  H5  1  0.87299400  0.23990700  0.46913100  1
  H  H6  1  0.35483600  0.70572100  0.46019500  1
  H  H7  1  0.62924700  0.89799000  0.11246700  1
  H  H8  1  0.27754200  0.38468800  0.32206500  1
  H  H9  1  0.61794200  0.85411000  0.54632000  1
  H  H10  1  0.52914500  0.50782900  0.62859100  1
  H  H11  1  0.37075300  0.89799000  0.61246700  1
  H  H12  1  0.12700600  0.23990700  0.96913100  1
  H  H13  1  0.38595200  0.16632500  0.32002200  1
  H  H14  1  0.30390300  0.38155800  0.45417000  1
  H  H15  1  0.38205800  0.85411000  0.04632000  1
  H  H16  1  0.72245800  0.61531200  0.67793500  1
  H  H17  1  0.61404800  0.16632500  0.82002200  1
  H  H18  1  0.37075300  0.10201000  0.88753300  1
  H  H19  1  0.64516400  0.29427900  0.53980500  1
  H  H20  1  0.69609700  0.38155800  0.95417000  1
  H  H21  1  0.81144400  0.59267500  0.04082900  1
  H  H22  1  0.38595200  0.83367500  0.17997800  1
  H  H23  1  0.62924700  0.10201000  0.38753300  1
  H  H24  1  0.67828400  0.67839800  0.18253100  1
  H  H25  1  0.18855600  0.59267500  0.54082900  1
  H  H26  1  0.30390300  0.61844200  0.04583000  1
  H  H27  1  0.32171600  0.32160200  0.81746900  1
  H  H28  1  0.64516400  0.70572100  0.96019500  1
  H  H29  1  0.67828400  0.32160200  0.31746900  1
  H  H30  1  0.72245800  0.38468800  0.82206500  1
  H  H31  1  0.61404800  0.83367500  0.67997800  1
  H  H32  1  0.38205800  0.14589000  0.45368000  1
  H  H33  1  0.81144400  0.40732500  0.45917100  1
  H  H34  1  0.32171600  0.67839800  0.68253100  1
  H  H35  1  0.87299400  0.76009300  0.03086900  1
  H  H36  1  0.69609700  0.61844200  0.54583000  1
  H  H37  1  0.52914500  0.49217100  0.87140900  1
  H  H38  1  0.27754200  0.61531200  0.17793500  1
  H  H39  1  0.18855600  0.40732500  0.95917100  1
  C  C40  1  0.60544400  0.60324000  0.61708900  1
  C  C41  1  0.51223800  0.83086600  0.61280500  1
  C  C42  1  0.26160200  0.68886400  0.53060500  1
  C  C43  1  0.51223800  0.16913400  0.88719500  1
  C  C44  1  0.73839800  0.31113600  0.46939500  1
  C  C45  1  0.48776200  0.83086600  0.11280500  1
  C  C46  1  0.26160200  0.31113600  0.96939500  1
  C  C47  1  0.60544400  0.39676000  0.88291100  1
  C  C48  1  0.48776200  0.16913400  0.38719500  1
  C  C49  1  0.39455600  0.39676000  0.38291100  1
  C  C50  1  0.73839800  0.68886400  0.03060500  1
  C  C51  1  0.39455600  0.60324000  0.11708900  1
  S  S52  1  0.12758800  0.34887400  0.69006600  1
  S  S53  1  0.05134300  0.95528600  0.32522400  1
  S  S54  1  0.12758800  0.65112600  0.80993400  1
  S  S55  1  0.94865700  0.95528600  0.82522400  1
  S  S56  1  0.79354900  0.17512300  0.14792400  1
  S  S57  1  0.20645100  0.82487700  0.85207600  1
  S  S58  1  0.87241200  0.34887400  0.19006600  1
  S  S59  1  0.87241200  0.65112600  0.30993400  1
  S  S60  1  0.05134300  0.04471400  0.17477600  1
  S  S61  1  0.20645100  0.17512300  0.64792400  1
  S  S62  1  0.79354900  0.82487700  0.35207600  1
  S  S63  1  0.94865700  0.04471400  0.67477600  1
  N  N64  1  0.58004000  0.30061000  0.38536400  1
  N  N65  1  0.41996000  0.69939000  0.61463600  1
  N  N66  1  0.41996000  0.30061000  0.88536400  1
  N  N67  1  0.58004000  0.69939000  0.11463600  1
