# generated using pymatgen
data_S3N3ClO2
_symmetry_space_group_name_H-M   'P 1'
_cell_length_a   9.73990684
_cell_length_b   9.73990684
_cell_length_c   12.51596465
_cell_angle_alpha   67.41357007
_cell_angle_beta   67.41357007
_cell_angle_gamma   42.16539367
_symmetry_Int_Tables_number   1
_chemical_formula_structural   S3N3ClO2
_chemical_formula_sum   'S12 N12 Cl4 O8'
_cell_volume   726.37145529
_cell_formula_units_Z   4
loop_
 _symmetry_equiv_pos_site_id
 _symmetry_equiv_pos_as_xyz
  1  'x, y, z'
loop_
 _atom_site_type_symbol
 _atom_site_label
 _atom_site_symmetry_multiplicity
 _atom_site_fract_x
 _atom_site_fract_y
 _atom_site_fract_z
 _atom_site_occupancy
  S  S0  1  0.91128400  0.28420800  0.79766900  1
  S  S1  1  0.49943600  0.83754000  0.44430700  1
  S  S2  1  0.71579200  0.08871600  0.70233100  1
  S  S3  1  0.16246000  0.50056400  0.05569300  1
  S  S4  1  0.08988000  0.22612100  0.41881300  1
  S  S5  1  0.77387900  0.91012000  0.08118700  1
  S  S6  1  0.83754000  0.49943600  0.94430700  1
  S  S7  1  0.50056400  0.16246000  0.55569300  1
  S  S8  1  0.91012000  0.77387900  0.58118700  1
  S  S9  1  0.08871600  0.71579200  0.20233100  1
  S  S10  1  0.28420800  0.91128400  0.29766900  1
  S  S11  1  0.22612100  0.08988000  0.91881300  1
  N  N12  1  0.75664900  0.46795500  0.86766300  1
  N  N13  1  0.24335100  0.53204500  0.13233700  1
  N  N14  1  0.33137100  0.08046300  0.42795700  1
  N  N15  1  0.10129200  0.13933100  0.32049000  1
  N  N16  1  0.89870800  0.86066900  0.67951000  1
  N  N17  1  0.66862900  0.91953700  0.57204300  1
  N  N18  1  0.46795500  0.75664900  0.36766300  1
  N  N19  1  0.13933100  0.10129200  0.82049000  1
  N  N20  1  0.53204500  0.24335100  0.63233700  1
  N  N21  1  0.08046300  0.33137100  0.92795700  1
  N  N22  1  0.86066900  0.89870800  0.17951000  1
  N  N23  1  0.91953700  0.66862900  0.07204300  1
  Cl  Cl24  1  0.43646200  0.70494500  0.61373200  1
  Cl  Cl25  1  0.70494500  0.43646200  0.11373200  1
  Cl  Cl26  1  0.29505500  0.56353800  0.88626800  1
  Cl  Cl27  1  0.56353800  0.29505500  0.38626800  1
  O  O28  1  0.99523300  0.56874300  0.63269600  1
  O  O29  1  0.80403900  0.01587400  0.97160200  1
  O  O30  1  0.19596100  0.98412600  0.02839800  1
  O  O31  1  0.43125700  0.00476700  0.86730400  1
  O  O32  1  0.98412600  0.19596100  0.52839800  1
  O  O33  1  0.01587400  0.80403900  0.47160200  1
  O  O34  1  0.56874300  0.99523300  0.13269600  1
  O  O35  1  0.00476700  0.43125700  0.36730400  1
