# generated using pymatgen
data_Ba(FeO2)2
_symmetry_space_group_name_H-M   'P 1'
_cell_length_a   9.58301000
_cell_length_b   11.06365700
_cell_length_c   17.64984800
_cell_angle_alpha   90.00000000
_cell_angle_beta   90.00000000
_cell_angle_gamma   90.00000000
_symmetry_Int_Tables_number   1
_chemical_formula_structural   Ba(FeO2)2
_chemical_formula_sum   'Ba16 Fe32 O64'
_cell_volume   1871.29222902
_cell_formula_units_Z   16
loop_
 _symmetry_equiv_pos_site_id
 _symmetry_equiv_pos_as_xyz
  1  'x, y, z'
loop_
 _atom_site_type_symbol
 _atom_site_label
 _atom_site_symmetry_multiplicity
 _atom_site_fract_x
 _atom_site_fract_y
 _atom_site_fract_z
 _atom_site_occupancy
  Ba  Ba0  1  0.72162600  0.14387900  0.25000000  1
  Ba  Ba1  1  0.22162600  0.35612100  0.75000000  1
  Ba  Ba2  1  0.28022700  0.38197400  0.98761200  1
  Ba  Ba3  1  0.21977300  0.88197400  0.98761200  1
  Ba  Ba4  1  0.76100200  0.61594800  0.75000000  1
  Ba  Ba5  1  0.78022700  0.11802600  0.01238800  1
  Ba  Ba6  1  0.77837400  0.64387900  0.25000000  1
  Ba  Ba7  1  0.21977300  0.88197400  0.51238800  1
  Ba  Ba8  1  0.28022700  0.38197400  0.51238800  1
  Ba  Ba9  1  0.71977300  0.61802600  0.48761200  1
  Ba  Ba10  1  0.73899800  0.11594800  0.75000000  1
  Ba  Ba11  1  0.27837400  0.85612100  0.75000000  1
  Ba  Ba12  1  0.26100200  0.88405200  0.25000000  1
  Ba  Ba13  1  0.71977300  0.61802600  0.01238800  1
  Ba  Ba14  1  0.23899800  0.38405200  0.25000000  1
  Ba  Ba15  1  0.78022700  0.11802600  0.48761200  1
  Fe  Fe16  1  0.08948900  0.63324500  0.40625600  1
  Fe  Fe17  1  0.90936700  0.39098700  0.38644800  1
  Fe  Fe18  1  0.08948900  0.63324500  0.09374400  1
  Fe  Fe19  1  0.40936700  0.10901300  0.88644800  1
  Fe  Fe20  1  0.08998600  0.13736700  0.14754200  1
  Fe  Fe21  1  0.90936700  0.39098700  0.11355200  1
  Fe  Fe22  1  0.59063300  0.89098700  0.38644800  1
  Fe  Fe23  1  0.41051100  0.13324500  0.09374400  1
  Fe  Fe24  1  0.41001400  0.63736700  0.35245800  1
  Fe  Fe25  1  0.59063300  0.89098700  0.11355200  1
  Fe  Fe26  1  0.40936700  0.10901300  0.61355200  1
  Fe  Fe27  1  0.56894300  0.38167900  0.35173400  1
  Fe  Fe28  1  0.58998600  0.36263300  0.64754200  1
  Fe  Fe29  1  0.91001400  0.86263300  0.85245800  1
  Fe  Fe30  1  0.41001400  0.63736700  0.14754200  1
  Fe  Fe31  1  0.43105700  0.61832100  0.64826600  1
  Fe  Fe32  1  0.41051100  0.13324500  0.40625600  1
  Fe  Fe33  1  0.06894300  0.11832100  0.85173400  1
  Fe  Fe34  1  0.56894300  0.38167900  0.14826600  1
  Fe  Fe35  1  0.58948900  0.86675500  0.90625600  1
  Fe  Fe36  1  0.09063300  0.60901300  0.88644800  1
  Fe  Fe37  1  0.91051100  0.36675500  0.59374400  1
  Fe  Fe38  1  0.08998600  0.13736700  0.35245800  1
  Fe  Fe39  1  0.93105700  0.88167900  0.14826600  1
  Fe  Fe40  1  0.91051100  0.36675500  0.90625600  1
  Fe  Fe41  1  0.09063300  0.60901300  0.61355200  1
  Fe  Fe42  1  0.58948900  0.86675500  0.59374400  1
  Fe  Fe43  1  0.06894300  0.11832100  0.64826600  1
  Fe  Fe44  1  0.93105700  0.88167900  0.35173400  1
  Fe  Fe45  1  0.43105700  0.61832100  0.85173400  1
  Fe  Fe46  1  0.58998600  0.36263300  0.85245800  1
  Fe  Fe47  1  0.91001400  0.86263300  0.64754200  1
  O  O48  1  0.12577600  0.59732800  0.50899500  1
  O  O49  1  0.93531400  0.51513700  0.64675500  1
  O  O50  1  0.37422400  0.09732800  0.50899500  1
  O  O51  1  0.06468600  0.48486300  0.14675500  1
  O  O52  1  0.56468600  0.01513700  0.85324500  1
  O  O53  1  0.75041900  0.77014400  0.88215000  1
  O  O54  1  0.56035600  0.51396500  0.90227600  1
  O  O55  1  0.02109100  0.16166500  0.75000000  1
  O  O56  1  0.37422400  0.09732800  0.99100500  1
  O  O57  1  0.57853300  0.22678500  0.39942800  1
  O  O58  1  0.24958100  0.22985600  0.38215000  1
  O  O59  1  0.12733400  0.10235600  0.25000000  1
  O  O60  1  0.43531400  0.98486300  0.14675500  1
  O  O61  1  0.41851900  0.27544500  0.64060600  1
  O  O62  1  0.74958100  0.27014400  0.61785000  1
  O  O63  1  0.74958100  0.27014400  0.88215000  1
  O  O64  1  0.41851900  0.27544500  0.85939400  1
  O  O65  1  0.91851900  0.22455500  0.35939400  1
  O  O66  1  0.52109100  0.33833500  0.25000000  1
  O  O67  1  0.58148100  0.72455500  0.35939400  1
  O  O68  1  0.74238400  0.46526300  0.34916200  1
  O  O69  1  0.24958100  0.22985600  0.11785000  1
  O  O70  1  0.75761600  0.96526300  0.34916200  1
  O  O71  1  0.43531400  0.98486300  0.35324500  1
  O  O72  1  0.62577600  0.90267200  0.49100500  1
  O  O73  1  0.56035600  0.51396500  0.59772400  1
  O  O74  1  0.75041900  0.77014400  0.61785000  1
  O  O75  1  0.56468600  0.01513700  0.64675500  1
  O  O76  1  0.06468600  0.48486300  0.35324500  1
  O  O77  1  0.93531400  0.51513700  0.85324500  1
  O  O78  1  0.87422400  0.40267200  0.00899500  1
  O  O79  1  0.06035600  0.98603500  0.40227600  1
  O  O80  1  0.93964400  0.01396500  0.59772400  1
  O  O81  1  0.25041900  0.72985600  0.11785000  1
  O  O82  1  0.42146700  0.77321500  0.60057200  1
  O  O83  1  0.91851900  0.22455500  0.14060600  1
  O  O84  1  0.25761600  0.53473700  0.84916200  1
  O  O85  1  0.93964400  0.01396500  0.90227600  1
  O  O86  1  0.07853300  0.27321500  0.60057200  1
  O  O87  1  0.24238400  0.03473700  0.84916200  1
  O  O88  1  0.47890900  0.66166500  0.75000000  1
  O  O89  1  0.92146700  0.72678500  0.10057200  1
  O  O90  1  0.08148100  0.77544500  0.85939400  1
  O  O91  1  0.57853300  0.22678500  0.10057200  1
  O  O92  1  0.08148100  0.77544500  0.64060600  1
  O  O93  1  0.58148100  0.72455500  0.14060600  1
  O  O94  1  0.37266600  0.60235600  0.25000000  1
  O  O95  1  0.62577600  0.90267200  0.00899500  1
  O  O96  1  0.92146700  0.72678500  0.39942800  1
  O  O97  1  0.24238400  0.03473700  0.65083800  1
  O  O98  1  0.43964400  0.48603500  0.40227600  1
  O  O99  1  0.07853300  0.27321500  0.89942800  1
  O  O100  1  0.25041900  0.72985600  0.38215000  1
  O  O101  1  0.25761600  0.53473700  0.65083800  1
  O  O102  1  0.97890900  0.83833500  0.25000000  1
  O  O103  1  0.87422400  0.40267200  0.49100500  1
  O  O104  1  0.42146700  0.77321500  0.89942800  1
  O  O105  1  0.12577600  0.59732800  0.99100500  1
  O  O106  1  0.06035600  0.98603500  0.09772400  1
  O  O107  1  0.75761600  0.96526300  0.15083800  1
  O  O108  1  0.43964400  0.48603500  0.09772400  1
  O  O109  1  0.87266600  0.89764400  0.75000000  1
  O  O110  1  0.62733400  0.39764400  0.75000000  1
  O  O111  1  0.74238400  0.46526300  0.15083800  1
