# generated using pymatgen
data_KYb2F7
_symmetry_space_group_name_H-M   'P 1'
_cell_length_a   4.34966500
_cell_length_b   6.03297800
_cell_length_c   6.93421587
_cell_angle_alpha   66.87846836
_cell_angle_beta   90.00000000
_cell_angle_gamma   90.00000000
_symmetry_Int_Tables_number   1
_chemical_formula_structural   KYb2F7
_chemical_formula_sum   'K1 Yb2 F7'
_cell_volume   167.34734048
_cell_formula_units_Z   1
loop_
 _symmetry_equiv_pos_site_id
 _symmetry_equiv_pos_as_xyz
  1  'x, y, z'
loop_
 _atom_site_type_symbol
 _atom_site_label
 _atom_site_symmetry_multiplicity
 _atom_site_fract_x
 _atom_site_fract_y
 _atom_site_fract_z
 _atom_site_occupancy
  K  K0  1  0.49644800  0.00000000  0.50000000  1
  Yb  Yb1  1  0.99131400  0.70581500  0.20745500  1
  Yb  Yb2  1  0.99131400  0.29418500  0.79254500  1
  F  F3  1  0.99479800  0.10313100  0.15179100  1
  F  F4  1  0.99659200  0.67384100  0.54767200  1
  F  F5  1  0.49132700  0.26655400  0.76722200  1
  F  F6  1  0.99479800  0.89686900  0.84820900  1
  F  F7  1  0.99659200  0.32615900  0.45232800  1
  F  F8  1  0.94829000  0.50000000  0.00000000  1
  F  F9  1  0.49132700  0.73344600  0.23277800  1
