# generated using pymatgen
data_USb2F15
_symmetry_space_group_name_H-M   'P 1'
_cell_length_a   15.90340200
_cell_length_b   8.53282900
_cell_length_c   10.49124125
_cell_angle_alpha   87.43426650
_cell_angle_beta   90.00000000
_cell_angle_gamma   90.00000000
_symmetry_Int_Tables_number   1
_chemical_formula_structural   USb2F15
_chemical_formula_sum   'U4 Sb8 F60'
_cell_volume   1422.24483007
_cell_formula_units_Z   4
loop_
 _symmetry_equiv_pos_site_id
 _symmetry_equiv_pos_as_xyz
  1  'x, y, z'
loop_
 _atom_site_type_symbol
 _atom_site_label
 _atom_site_symmetry_multiplicity
 _atom_site_fract_x
 _atom_site_fract_y
 _atom_site_fract_z
 _atom_site_occupancy
  U  U0  1  0.62380400  0.75288900  0.33491600  1
  U  U1  1  0.12380400  0.24711100  0.16508400  1
  U  U2  1  0.87619600  0.75288900  0.83491600  1
  U  U3  1  0.37619600  0.24711100  0.66508400  1
  Sb  Sb4  1  0.28368600  0.64350000  0.05163200  1
  Sb  Sb5  1  0.94723500  0.86902200  0.22221800  1
  Sb  Sb6  1  0.71631400  0.35650000  0.94836800  1
  Sb  Sb7  1  0.44723500  0.13097800  0.27778200  1
  Sb  Sb8  1  0.78368600  0.35650000  0.44836800  1
  Sb  Sb9  1  0.55276500  0.86902200  0.72221800  1
  Sb  Sb10  1  0.21631400  0.64350000  0.55163200  1
  Sb  Sb11  1  0.05276500  0.13097800  0.77778200  1
  F  F12  1  0.83653000  0.18426000  0.53188400  1
  F  F13  1  0.05414800  0.11798700  0.96455700  1
  F  F14  1  0.61551700  0.46977900  0.93991900  1
  F  F15  1  0.16347000  0.81574000  0.46811600  1
  F  F16  1  0.68194300  0.83338500  0.17442900  1
  F  F17  1  0.45396400  0.01853600  0.70820300  1
  F  F18  1  0.23145000  0.46998300  0.15127500  1
  F  F19  1  0.61941500  0.05432300  0.71705200  1
  F  F20  1  0.28286700  0.15290600  0.56438700  1
  F  F21  1  0.88448300  0.46977900  0.43991900  1
  F  F22  1  0.85367400  0.73177100  0.22199900  1
  F  F23  1  0.18194300  0.16661500  0.32557100  1
  F  F24  1  0.52845300  0.29283100  0.28678600  1
  F  F25  1  0.45963000  0.34975900  0.77950600  1
  F  F26  1  0.73294000  0.22717200  0.33112600  1
  F  F27  1  0.35367400  0.26822900  0.27800100  1
  F  F28  1  0.76706000  0.22717200  0.83112600  1
  F  F29  1  0.41639000  0.40524600  0.52937200  1
  F  F30  1  0.08361000  0.40524600  0.02937200  1
  F  F31  1  0.55414800  0.88201300  0.53544300  1
  F  F32  1  0.95510600  0.86947600  0.40197600  1
  F  F33  1  0.04603600  0.01853600  0.20820300  1
  F  F34  1  0.21875100  0.59308300  0.91067300  1
  F  F35  1  0.97154700  0.29283100  0.78678600  1
  F  F36  1  0.81805700  0.83338500  0.67442900  1
  F  F37  1  0.78286700  0.84709400  0.93561300  1
  F  F38  1  0.47154700  0.70716900  0.71321400  1
  F  F39  1  0.58361000  0.59475400  0.47062800  1
  F  F40  1  0.73145000  0.53001700  0.34872500  1
  F  F41  1  0.71713300  0.84709400  0.43561300  1
  F  F42  1  0.64632600  0.73177100  0.72199900  1
  F  F43  1  0.11941500  0.94567700  0.78294800  1
  F  F44  1  0.33653000  0.81574000  0.96811600  1
  F  F45  1  0.23294000  0.77282800  0.16887400  1
  F  F46  1  0.14632600  0.26822900  0.77800100  1
  F  F47  1  0.26706000  0.77282800  0.66887400  1
  F  F48  1  0.71875100  0.40691700  0.58932700  1
  F  F49  1  0.54603600  0.98146400  0.29179700  1
  F  F50  1  0.94585200  0.88201300  0.03544300  1
  F  F51  1  0.44585200  0.11798700  0.46455700  1
  F  F52  1  0.28124900  0.59308300  0.41067300  1
  F  F53  1  0.21713300  0.15290600  0.06438700  1
  F  F54  1  0.45510600  0.13052400  0.09802400  1
  F  F55  1  0.76855000  0.53001700  0.84872500  1
  F  F56  1  0.04489400  0.13052400  0.59802400  1
  F  F57  1  0.11551700  0.53022100  0.56008100  1
  F  F58  1  0.02845300  0.70716900  0.21321400  1
  F  F59  1  0.04037000  0.34975900  0.27950600  1
  F  F60  1  0.91639000  0.59475400  0.97062800  1
  F  F61  1  0.95396400  0.98146400  0.79179700  1
  F  F62  1  0.31805700  0.16661500  0.82557100  1
  F  F63  1  0.26855000  0.46998300  0.65127500  1
  F  F64  1  0.88058500  0.05432300  0.21705200  1
  F  F65  1  0.54489400  0.86947600  0.90197600  1
  F  F66  1  0.66347000  0.18426000  0.03188400  1
  F  F67  1  0.78124900  0.40691700  0.08932700  1
  F  F68  1  0.38448300  0.53022100  0.06008100  1
  F  F69  1  0.54037000  0.65024100  0.22049400  1
  F  F70  1  0.95963000  0.65024100  0.72049400  1
  F  F71  1  0.38058500  0.94567700  0.28294800  1
