# generated using pymatgen
data_YbPS4
_symmetry_space_group_name_H-M   'P 1'
_cell_length_a   11.47416194
_cell_length_b   11.47416194
_cell_length_c   12.44922890
_cell_angle_alpha   66.13628046
_cell_angle_beta   66.13628046
_cell_angle_gamma   91.93082125
_symmetry_Int_Tables_number   1
_chemical_formula_structural   YbPS4
_chemical_formula_sum   'Yb8 P8 S32'
_cell_volume   1332.04478272
_cell_formula_units_Z   8
loop_
 _symmetry_equiv_pos_site_id
 _symmetry_equiv_pos_as_xyz
  1  'x, y, z'
loop_
 _atom_site_type_symbol
 _atom_site_label
 _atom_site_symmetry_multiplicity
 _atom_site_fract_x
 _atom_site_fract_y
 _atom_site_fract_z
 _atom_site_occupancy
  Yb  Yb0  1  0.13686600  0.36809000  0.74634400  1
  Yb  Yb1  1  0.86313400  0.63191000  0.25365600  1
  Yb  Yb2  1  0.36809000  0.13686600  0.24634400  1
  Yb  Yb3  1  0.63191000  0.86313400  0.75365600  1
  Yb  Yb4  1  0.90193300  0.09806700  0.25000000  1
  Yb  Yb5  1  0.60199500  0.39800500  0.75000000  1
  Yb  Yb6  1  0.09806700  0.90193300  0.75000000  1
  Yb  Yb7  1  0.39800500  0.60199500  0.25000000  1
  P  P8  1  0.20414300  0.77540200  0.06754800  1
  P  P9  1  0.29302700  0.27186000  0.49725100  1
  P  P10  1  0.22459800  0.79585700  0.43245200  1
  P  P11  1  0.72814000  0.70697300  0.00274900  1
  P  P12  1  0.79585700  0.22459800  0.93245200  1
  P  P13  1  0.70697300  0.72814000  0.50274900  1
  P  P14  1  0.77540200  0.20414300  0.56754800  1
  P  P15  1  0.27186000  0.29302700  0.99725100  1
  S  S16  1  0.38833100  0.86354000  0.97581200  1
  S  S17  1  0.40965700  0.13202300  0.48368100  1
  S  S18  1  0.15156500  0.92905900  0.48542500  1
  S  S19  1  0.86797700  0.59034300  0.01631900  1
  S  S20  1  0.07094100  0.84843500  0.01457500  1
  S  S21  1  0.13646000  0.61166900  0.52418800  1
  S  S22  1  0.37332000  0.42524600  0.50815600  1
  S  S23  1  0.57475400  0.62668000  0.99184400  1
  S  S24  1  0.61166900  0.13646000  0.02418800  1
  S  S25  1  0.59034300  0.86797700  0.51631900  1
  S  S26  1  0.84843500  0.07094100  0.51457500  1
  S  S27  1  0.13202300  0.40965700  0.98368100  1
  S  S28  1  0.92905900  0.15156500  0.98542500  1
  S  S29  1  0.86354000  0.38833100  0.47581200  1
  S  S30  1  0.62668000  0.57475400  0.49184400  1
  S  S31  1  0.42524600  0.37332000  0.00815600  1
  S  S32  1  0.11029400  0.18164000  0.65380300  1
  S  S33  1  0.65947200  0.69245500  0.18842200  1
  S  S34  1  0.13687400  0.61356900  0.23386400  1
  S  S35  1  0.30754500  0.34052800  0.31157800  1
  S  S36  1  0.38643100  0.86312600  0.26613600  1
  S  S37  1  0.81836000  0.88970600  0.84619700  1
  S  S38  1  0.36175900  0.98840300  0.66980200  1
  S  S39  1  0.01159700  0.63824100  0.83019800  1
  S  S40  1  0.88970600  0.81836000  0.34619700  1
  S  S41  1  0.34052800  0.30754500  0.81157800  1
  S  S42  1  0.86312600  0.38643100  0.76613600  1
  S  S43  1  0.69245500  0.65947200  0.68842200  1
  S  S44  1  0.61356900  0.13687400  0.73386400  1
  S  S45  1  0.18164000  0.11029400  0.15380300  1
  S  S46  1  0.63824100  0.01159700  0.33019800  1
  S  S47  1  0.98840300  0.36175900  0.16980200  1
