# generated using pymatgen
data_U
_symmetry_space_group_name_H-M   'P 1'
_cell_length_a   6.60767000
_cell_length_b   5.09781400
_cell_length_c   4.89063800
_cell_angle_alpha   90.00000000
_cell_angle_beta   90.00000000
_cell_angle_gamma   90.00000000
_symmetry_Int_Tables_number   1
_chemical_formula_structural   U
_chemical_formula_sum   U8
_cell_volume   164.73954000
_cell_formula_units_Z   8
loop_
 _symmetry_equiv_pos_site_id
 _symmetry_equiv_pos_as_xyz
  1  'x, y, z'
loop_
 _atom_site_type_symbol
 _atom_site_label
 _atom_site_symmetry_multiplicity
 _atom_site_fract_x
 _atom_site_fract_y
 _atom_site_fract_z
 _atom_site_occupancy
  U  U0  1  0.79282100  0.31421900  0.25000000  1
  U  U1  1  0.29282100  0.18578100  0.25000000  1
  U  U2  1  0.20717900  0.68578100  0.75000000  1
  U  U3  1  0.70717900  0.81421900  0.75000000  1
  U  U4  1  0.54551700  0.70020300  0.25000000  1
  U  U5  1  0.04551700  0.79979700  0.25000000  1
  U  U6  1  0.45448300  0.29979700  0.75000000  1
  U  U7  1  0.95448300  0.20020300  0.75000000  1
