# generated using pymatgen
data_Cr(PO3)3
_symmetry_space_group_name_H-M   'P 1'
_cell_length_a   6.51690540
_cell_length_b   13.29537631
_cell_length_c   8.40114427
_cell_angle_alpha   83.22808304
_cell_angle_beta   112.82234583
_cell_angle_gamma   89.99988924
_symmetry_Int_Tables_number   1
_chemical_formula_structural   Cr(PO3)3
_chemical_formula_sum   'Cr4 P12 O36'
_cell_volume   665.41448289
_cell_formula_units_Z   4
loop_
 _symmetry_equiv_pos_site_id
 _symmetry_equiv_pos_as_xyz
  1  'x, y, z'
loop_
 _atom_site_type_symbol
 _atom_site_label
 _atom_site_symmetry_multiplicity
 _atom_site_fract_x
 _atom_site_fract_y
 _atom_site_fract_z
 _atom_site_occupancy
  Cr  Cr0  1  0.75768500  0.75022400  0.99787600  1
  Cr  Cr1  1  0.49031900  0.50036400  0.49769700  1
  Cr  Cr2  1  0.25749700  0.25038600  0.99779800  1
  Cr  Cr3  1  0.99016300  0.00041800  0.49782500  1
  P  P4  1  0.74802700  0.27480800  0.67292100  1
  P  P5  1  0.24806000  0.77482700  0.67293700  1
  P  P6  1  0.17489100  0.02482600  0.17291700  1
  P  P7  1  0.67486600  0.52480400  0.17289700  1
  P  P8  1  0.31061600  0.47566800  0.82034400  1
  P  P9  1  0.81060700  0.97566800  0.82037800  1
  P  P10  1  0.75975500  0.22567300  0.32037800  1
  P  P11  1  0.25976900  0.72568900  0.32040300  1
  P  P12  1  0.42004100  0.12458000  0.73888700  1
  P  P13  1  0.92004300  0.62458500  0.73886700  1
  P  P14  1  0.06884700  0.37457000  0.23887800  1
  P  P15  1  0.56884600  0.87460100  0.23884800  1
  O  O16  1  0.78569400  0.11238100  0.33371400  1
  O  O17  1  0.28575500  0.61239300  0.33376000  1
  O  O18  1  0.29800900  0.36239300  0.83374200  1
  O  O19  1  0.79799300  0.86237900  0.83374800  1
  O  O20  1  0.40362600  0.15587500  0.89943700  1
  O  O21  1  0.90360500  0.65587500  0.89940100  1
  O  O22  1  0.24581300  0.40586900  0.39942000  1
  O  O23  1  0.74578000  0.90589800  0.39941800  1
  O  O24  1  0.86946200  0.02596000  0.67553600  1
  O  O25  1  0.36949400  0.52594400  0.67554800  1
  O  O26  1  0.55604400  0.27593100  0.17551000  1
  O  O27  1  0.05604100  0.77592800  0.17553000  1
  O  O28  1  0.12994800  0.35426000  0.09084200  1
  O  O29  1  0.62997300  0.85426900  0.09083100  1
  O  O30  1  0.21087000  0.10428400  0.59084500  1
  O  O31  1  0.71087600  0.60427200  0.59087400  1
  O  O32  1  0.63186400  0.47927200  0.32843800  1
  O  O33  1  0.13188000  0.97928200  0.32847200  1
  O  O34  1  0.94656600  0.22926500  0.82845400  1
  O  O35  1  0.44657100  0.72926600  0.82843600  1
  O  O36  1  0.68412200  0.38441400  0.66518400  1
  O  O37  1  0.18412600  0.88440600  0.66518000  1
  O  O38  1  0.23106600  0.13443600  0.16520100  1
  O  O39  1  0.73104900  0.63440500  0.16517400  1
  O  O40  1  0.97401700  0.27356600  0.30075900  1
  O  O41  1  0.47397900  0.77359000  0.30076800  1
  O  O42  1  0.57675900  0.02357500  0.80077600  1
  O  O43  1  0.07676900  0.52358400  0.80076900  1
  O  O44  1  0.53917800  0.20663300  0.65333500  1
  O  O45  1  0.03920000  0.70662000  0.65337400  1
  O  O46  1  0.86414700  0.45661800  0.15335700  1
  O  O47  1  0.36419500  0.95664900  0.15334900  1
  O  O48  1  0.96610600  0.01111700  0.00054200  1
  O  O49  1  0.46614200  0.51109400  0.00055500  1
  O  O50  1  0.78442200  0.26109500  0.50053700  1
  O  O51  1  0.28443100  0.76110800  0.50053400  1
