# generated using pymatgen
data_HoCu(MoO4)2
_symmetry_space_group_name_H-M   'P 1'
_cell_length_a   9.83901400
_cell_length_b   10.26571400
_cell_length_c   14.68120700
_cell_angle_alpha   90.00000000
_cell_angle_beta   90.00000000
_cell_angle_gamma   90.00000000
_symmetry_Int_Tables_number   1
_chemical_formula_structural   HoCu(MoO4)2
_chemical_formula_sum   'Ho8 Cu8 Mo16 O64'
_cell_volume   1482.86802772
_cell_formula_units_Z   8
loop_
 _symmetry_equiv_pos_site_id
 _symmetry_equiv_pos_as_xyz
  1  'x, y, z'
loop_
 _atom_site_type_symbol
 _atom_site_label
 _atom_site_symmetry_multiplicity
 _atom_site_fract_x
 _atom_site_fract_y
 _atom_site_fract_z
 _atom_site_occupancy
  Ho  Ho0  1  0.72236400  0.03447100  0.39609700  1
  Ho  Ho1  1  0.22236400  0.96552900  0.10390300  1
  Ho  Ho2  1  0.27763600  0.46552900  0.89609700  1
  Ho  Ho3  1  0.77763600  0.03447100  0.89609700  1
  Ho  Ho4  1  0.72236400  0.53447100  0.10390300  1
  Ho  Ho5  1  0.22236400  0.46552900  0.39609700  1
  Ho  Ho6  1  0.27763600  0.96552900  0.60390300  1
  Ho  Ho7  1  0.77763600  0.53447100  0.60390300  1
  Cu  Cu8  1  0.31051100  0.81717400  0.80387300  1
  Cu  Cu9  1  0.68948900  0.68282600  0.30387300  1
  Cu  Cu10  1  0.81051100  0.68282600  0.80387300  1
  Cu  Cu11  1  0.68948900  0.18282600  0.19612700  1
  Cu  Cu12  1  0.18948900  0.81717400  0.30387300  1
  Cu  Cu13  1  0.31051100  0.31717400  0.69612700  1
  Cu  Cu14  1  0.81051100  0.18282600  0.69612700  1
  Cu  Cu15  1  0.18948900  0.31717400  0.19612700  1
  Mo  Mo16  1  0.00048600  0.21915300  0.55645500  1
  Mo  Mo17  1  0.83140200  0.39666600  0.34744400  1
  Mo  Mo18  1  0.66859800  0.39666600  0.84744400  1
  Mo  Mo19  1  0.33140200  0.60333400  0.15255600  1
  Mo  Mo20  1  0.50048600  0.28084700  0.55645500  1
  Mo  Mo21  1  0.99951400  0.28084700  0.05645500  1
  Mo  Mo22  1  0.00048600  0.71915300  0.94354500  1
  Mo  Mo23  1  0.83140200  0.89666600  0.15255600  1
  Mo  Mo24  1  0.99951400  0.78084700  0.44354500  1
  Mo  Mo25  1  0.66859800  0.89666600  0.65255600  1
  Mo  Mo26  1  0.16859800  0.10333400  0.84744400  1
  Mo  Mo27  1  0.33140200  0.10333400  0.34744400  1
  Mo  Mo28  1  0.50048600  0.78084700  0.94354500  1
  Mo  Mo29  1  0.16859800  0.60333400  0.65255600  1
  Mo  Mo30  1  0.49951400  0.71915300  0.44354500  1
  Mo  Mo31  1  0.49951400  0.21915300  0.05645500  1
  O  O32  1  0.89050600  0.32110200  0.63153100  1
  O  O33  1  0.89050600  0.82110200  0.86846900  1
  O  O34  1  0.74261200  0.01030600  0.22885500  1
  O  O35  1  0.10393600  0.61170900  0.87582900  1
  O  O36  1  0.24261200  0.48969400  0.22885500  1
  O  O37  1  0.72435300  0.23252700  0.82021500  1
  O  O38  1  0.90326600  0.62930300  0.02440200  1
  O  O39  1  0.22435300  0.76747300  0.67978500  1
  O  O40  1  0.75738800  0.51030600  0.77114500  1
  O  O41  1  0.88994000  0.17020600  0.99819400  1
  O  O42  1  0.77564700  0.23252700  0.32021500  1
  O  O43  1  0.25738800  0.98969400  0.77114500  1
  O  O44  1  0.40326600  0.87069700  0.02440200  1
  O  O45  1  0.10393600  0.11170900  0.62417100  1
  O  O46  1  0.75738800  0.01030600  0.72885500  1
  O  O47  1  0.51044200  0.58744100  0.16663800  1
  O  O48  1  0.60393600  0.38829100  0.62417100  1
  O  O49  1  0.10949400  0.67889800  0.36846900  1
  O  O50  1  0.61006000  0.67020600  0.00180600  1
  O  O51  1  0.60393600  0.88829100  0.87582900  1
  O  O52  1  0.70961400  0.42669800  0.96344800  1
  O  O53  1  0.72435300  0.73252700  0.67978500  1
  O  O54  1  0.48955800  0.91255900  0.66663800  1
  O  O55  1  0.24261200  0.98969400  0.27114500  1
  O  O56  1  0.74261200  0.51030600  0.27114500  1
  O  O57  1  0.77564700  0.73252700  0.17978500  1
  O  O58  1  0.29038600  0.57330200  0.03655200  1
  O  O59  1  0.48955800  0.41255900  0.83336200  1
  O  O60  1  0.40326600  0.37069700  0.47559800  1
  O  O61  1  0.51044200  0.08744100  0.33336200  1
  O  O62  1  0.29038600  0.07330200  0.46344800  1
  O  O63  1  0.27564700  0.76747300  0.17978500  1
  O  O64  1  0.01044200  0.41255900  0.33336200  1
  O  O65  1  0.88994000  0.67020600  0.50180600  1
  O  O66  1  0.70961400  0.92669800  0.53655200  1
  O  O67  1  0.60949400  0.32110200  0.13153100  1
  O  O68  1  0.01044200  0.91255900  0.16663800  1
  O  O69  1  0.10949400  0.17889800  0.13153100  1
  O  O70  1  0.27564700  0.26747300  0.32021500  1
  O  O71  1  0.89606400  0.38829100  0.12417100  1
  O  O72  1  0.90326600  0.12930300  0.47559800  1
  O  O73  1  0.98955800  0.58744100  0.66663800  1
  O  O74  1  0.89606400  0.88829100  0.37582800  1
  O  O75  1  0.39606400  0.61170900  0.37582800  1
  O  O76  1  0.38994000  0.32979400  0.99819400  1
  O  O77  1  0.39606400  0.11170900  0.12417100  1
  O  O78  1  0.59673400  0.12930300  0.97559800  1
  O  O79  1  0.79038600  0.42669800  0.46344800  1
  O  O80  1  0.09673400  0.87069700  0.52440200  1
  O  O81  1  0.11006000  0.32979400  0.49819400  1
  O  O82  1  0.20961400  0.57330200  0.53655200  1
  O  O83  1  0.98955800  0.08744100  0.83336200  1
  O  O84  1  0.11006000  0.82979400  0.00180600  1
  O  O85  1  0.79038600  0.92669800  0.03655200  1
  O  O86  1  0.61006000  0.17020600  0.49819400  1
  O  O87  1  0.60949400  0.82110200  0.36846900  1
  O  O88  1  0.38994000  0.82979400  0.50180600  1
  O  O89  1  0.39050600  0.67889800  0.86846900  1
  O  O90  1  0.25738800  0.48969400  0.72885500  1
  O  O91  1  0.39050600  0.17889800  0.63153100  1
  O  O92  1  0.59673400  0.62930300  0.52440200  1
  O  O93  1  0.20961400  0.07330200  0.96344800  1
  O  O94  1  0.22435300  0.26747300  0.82021500  1
  O  O95  1  0.09673400  0.37069700  0.97559800  1
