# generated using pymatgen
data_AsC3N3F8
_symmetry_space_group_name_H-M   'P 1'
_cell_length_a   8.40776843
_cell_length_b   8.40776843
_cell_length_c   13.88780435
_cell_angle_alpha   70.28644498
_cell_angle_beta   70.28644498
_cell_angle_gamma   75.86275112
_symmetry_Int_Tables_number   1
_chemical_formula_structural   AsC3N3F8
_chemical_formula_sum   'As4 C12 N12 F32'
_cell_volume   860.55235618
_cell_formula_units_Z   4
loop_
 _symmetry_equiv_pos_site_id
 _symmetry_equiv_pos_as_xyz
  1  'x, y, z'
loop_
 _atom_site_type_symbol
 _atom_site_label
 _atom_site_symmetry_multiplicity
 _atom_site_fract_x
 _atom_site_fract_y
 _atom_site_fract_z
 _atom_site_occupancy
  As  As0  1  0.18996200  0.73531700  0.44330100  1
  As  As1  1  0.26468300  0.81003800  0.05669900  1
  As  As2  1  0.73531700  0.18996200  0.94330100  1
  As  As3  1  0.81003800  0.26468300  0.55669900  1
  C  C4  1  0.20576000  0.19835500  0.52834700  1
  C  C5  1  0.14988700  0.27744400  0.36908600  1
  C  C6  1  0.41499800  0.21018700  0.37966700  1
  C  C7  1  0.79424000  0.80164500  0.47165300  1
  C  C8  1  0.58500200  0.78981300  0.62033300  1
  C  C9  1  0.21018700  0.41499800  0.87966700  1
  C  C10  1  0.80164500  0.79424000  0.97165300  1
  C  C11  1  0.72255600  0.85011300  0.13091400  1
  C  C12  1  0.85011300  0.72255600  0.63091400  1
  C  C13  1  0.27744400  0.14988700  0.86908600  1
  C  C14  1  0.78981300  0.58500200  0.12033300  1
  C  C15  1  0.19835500  0.20576000  0.02834700  1
  N  N16  1  0.75321400  0.91640400  0.02402700  1
  N  N17  1  0.68744300  0.74063800  0.68297600  1
  N  N18  1  0.31255700  0.25936200  0.31702400  1
  N  N19  1  0.25936200  0.31255700  0.81702400  1
  N  N20  1  0.91640400  0.75321400  0.52402700  1
  N  N21  1  0.62849700  0.82199000  0.51534400  1
  N  N22  1  0.17801000  0.37150300  0.98465600  1
  N  N23  1  0.24678600  0.08359600  0.97597300  1
  N  N24  1  0.37150300  0.17801000  0.48465600  1
  N  N25  1  0.74063800  0.68744300  0.18297600  1
  N  N26  1  0.82199000  0.62849700  0.01534400  1
  N  N27  1  0.08359600  0.24678600  0.47597300  1
  F  F28  1  0.13675700  0.93281800  0.35539400  1
  F  F29  1  0.46008400  0.78893800  0.95868600  1
  F  F30  1  0.18912000  0.58060100  0.83152400  1
  F  F31  1  0.81088000  0.41939900  0.16847600  1
  F  F32  1  0.15259700  0.16701300  0.63224000  1
  F  F33  1  0.62563800  0.14983500  0.86808600  1
  F  F34  1  0.58060100  0.18912000  0.33152400  1
  F  F35  1  0.14983500  0.62563800  0.36808600  1
  F  F36  1  0.15454800  0.80057700  0.97181900  1
  F  F37  1  0.06718200  0.86324300  0.14460600  1
  F  F38  1  0.83298700  0.84740300  0.86776000  1
  F  F39  1  0.86324300  0.06718200  0.64460600  1
  F  F40  1  0.84740300  0.83298700  0.36776000  1
  F  F41  1  0.37436200  0.85016500  0.13191400  1
  F  F42  1  0.85016500  0.37436200  0.63191400  1
  F  F43  1  0.84545200  0.19942300  0.02818100  1
  F  F44  1  0.93281800  0.13675700  0.85539400  1
  F  F45  1  0.16701300  0.15259700  0.13224000  1
  F  F46  1  0.80057700  0.15454800  0.47181900  1
  F  F47  1  0.19942300  0.84545200  0.52818100  1
  F  F48  1  0.41939900  0.81088000  0.66847600  1
  F  F49  1  0.72192700  0.40758600  0.87887600  1
  F  F50  1  0.21106200  0.53991600  0.54131400  1
  F  F51  1  0.04011500  0.32873300  0.31260900  1
  F  F52  1  0.40758600  0.72192700  0.37887600  1
  F  F53  1  0.67126700  0.95988500  0.18739100  1
  F  F54  1  0.59241400  0.27807300  0.62112400  1
  F  F55  1  0.78893800  0.46008400  0.45868600  1
  F  F56  1  0.32873300  0.04011500  0.81260900  1
  F  F57  1  0.95988500  0.67126700  0.68739100  1
  F  F58  1  0.53991600  0.21106200  0.04131400  1
  F  F59  1  0.27807300  0.59241400  0.12112400  1
