# generated using pymatgen
data_S
_symmetry_space_group_name_H-M   'P 1'
_cell_length_a   9.55845800
_cell_length_b   14.21192100
_cell_length_c   19.74620100
_cell_angle_alpha   90.00000000
_cell_angle_beta   90.00000000
_cell_angle_gamma   90.00000000
_symmetry_Int_Tables_number   1
_chemical_formula_structural   S
_chemical_formula_sum   S80
_cell_volume   2682.40391552
_cell_formula_units_Z   80
loop_
 _symmetry_equiv_pos_site_id
 _symmetry_equiv_pos_as_xyz
  1  'x, y, z'
loop_
 _atom_site_type_symbol
 _atom_site_label
 _atom_site_symmetry_multiplicity
 _atom_site_fract_x
 _atom_site_fract_y
 _atom_site_fract_z
 _atom_site_occupancy
  S  S0  1  0.28874700  0.98487200  0.45113200  1
  S  S1  1  0.63326600  0.73061300  0.75764000  1
  S  S2  1  0.76844800  0.30264800  0.44857100  1
  S  S3  1  0.23155200  0.69735200  0.55142900  1
  S  S4  1  0.53605800  0.80123000  0.67922300  1
  S  S5  1  0.07475400  0.10164700  0.92701900  1
  S  S6  1  0.21125300  0.98487200  0.54886800  1
  S  S7  1  0.78874700  0.01512800  0.45113200  1
  S  S8  1  0.57475400  0.39835300  0.57298100  1
  S  S9  1  0.71125300  0.51512800  0.95113200  1
  S  S10  1  0.73155200  0.80264800  0.94857100  1
  S  S11  1  0.86673400  0.23061300  0.25764000  1
  S  S12  1  0.80517600  0.40545800  0.89971300  1
  S  S13  1  0.66591100  0.79412300  0.59578200  1
  S  S14  1  0.86673400  0.73061300  0.24236000  1
  S  S15  1  0.32928100  0.47463200  0.40623700  1
  S  S16  1  0.17071900  0.47463200  0.59376300  1
  S  S17  1  0.82928100  0.52536800  0.40623700  1
  S  S18  1  0.91956300  0.09005900  0.25116900  1
  S  S19  1  0.69482400  0.90545800  0.39971300  1
  S  S20  1  0.73155200  0.30264800  0.55142900  1
  S  S21  1  0.26844800  0.69735200  0.44857100  1
  S  S22  1  0.63326600  0.23061300  0.74236000  1
  S  S23  1  0.57475400  0.89835300  0.92701900  1
  S  S24  1  0.73289300  0.02406600  0.80577300  1
  S  S25  1  0.46394200  0.19877000  0.32077700  1
  S  S26  1  0.03605800  0.19877000  0.67922300  1
  S  S27  1  0.76844800  0.80264800  0.05142900  1
  S  S28  1  0.76710700  0.52406600  0.30577300  1
  S  S29  1  0.71125300  0.01512800  0.54886800  1
  S  S30  1  0.82928100  0.02536800  0.09376300  1
  S  S31  1  0.78874700  0.51512800  0.04886800  1
  S  S32  1  0.69482400  0.40545800  0.10028700  1
  S  S33  1  0.53605800  0.30123000  0.82077700  1
  S  S34  1  0.21125300  0.48487200  0.95113200  1
  S  S35  1  0.30517600  0.09454200  0.60028700  1
  S  S36  1  0.33408900  0.20587700  0.40421800  1
  S  S37  1  0.58043700  0.09005900  0.74883100  1
  S  S38  1  0.66591100  0.29412300  0.90421800  1
  S  S39  1  0.33408900  0.70587700  0.09578200  1
  S  S40  1  0.96394200  0.30123000  0.17922300  1
  S  S41  1  0.80517600  0.90545800  0.60028700  1
  S  S42  1  0.73289300  0.52406600  0.69422700  1
  S  S43  1  0.26844800  0.19735200  0.05142900  1
  S  S44  1  0.07475400  0.60164700  0.57298100  1
  S  S45  1  0.13326600  0.26938700  0.75764000  1
  S  S46  1  0.92524600  0.89835300  0.07298100  1
  S  S47  1  0.96394200  0.80123000  0.32077700  1
  S  S48  1  0.08043700  0.90994100  0.74883100  1
  S  S49  1  0.28874700  0.48487200  0.04886800  1
  S  S50  1  0.23155200  0.19735200  0.94857100  1
  S  S51  1  0.30517600  0.59454200  0.89971300  1
  S  S52  1  0.32928100  0.97463200  0.09376300  1
  S  S53  1  0.36673400  0.26938700  0.24236000  1
  S  S54  1  0.67071900  0.52536800  0.59376300  1
  S  S55  1  0.16591100  0.20587700  0.59578200  1
  S  S56  1  0.26710700  0.97593400  0.19422700  1
  S  S57  1  0.19482400  0.59454200  0.10028700  1
  S  S58  1  0.67071900  0.02536800  0.90623700  1
  S  S59  1  0.16591100  0.70587700  0.90421800  1
  S  S60  1  0.42524600  0.10164700  0.07298100  1
  S  S61  1  0.26710700  0.47593400  0.30577300  1
  S  S62  1  0.76710700  0.02406600  0.19422700  1
  S  S63  1  0.23289300  0.97593400  0.80577300  1
  S  S64  1  0.83408900  0.79412300  0.40421800  1
  S  S65  1  0.41956300  0.90994100  0.25116900  1
  S  S66  1  0.23289300  0.47593400  0.69422700  1
  S  S67  1  0.83408900  0.29412300  0.09578200  1
  S  S68  1  0.03605800  0.69877000  0.82077700  1
  S  S69  1  0.92524600  0.39835300  0.42701900  1
  S  S70  1  0.46394200  0.69877000  0.17922300  1
  S  S71  1  0.08043700  0.40994100  0.75116900  1
  S  S72  1  0.17071900  0.97463200  0.90623700  1
  S  S73  1  0.36673400  0.76938700  0.25764000  1
  S  S74  1  0.42524600  0.60164700  0.42701900  1
  S  S75  1  0.41956300  0.40994100  0.24883100  1
  S  S76  1  0.19482400  0.09454200  0.39971300  1
  S  S77  1  0.13326600  0.76938700  0.74236000  1
  S  S78  1  0.58043700  0.59005900  0.75116900  1
  S  S79  1  0.91956300  0.59005900  0.24883100  1
