# generated using pymatgen
data_Na2Ge4O9
_symmetry_space_group_name_H-M   'P 1'
_cell_length_a   11.47574998
_cell_length_b   11.47574998
_cell_length_c   9.83791200
_cell_angle_alpha   90.00000000
_cell_angle_beta   90.00000000
_cell_angle_gamma   119.99999986
_symmetry_Int_Tables_number   1
_chemical_formula_structural   Na2Ge4O9
_chemical_formula_sum   'Na12 Ge24 O54'
_cell_volume   1122.00739953
_cell_formula_units_Z   6
loop_
 _symmetry_equiv_pos_site_id
 _symmetry_equiv_pos_as_xyz
  1  'x, y, z'
loop_
 _atom_site_type_symbol
 _atom_site_label
 _atom_site_symmetry_multiplicity
 _atom_site_fract_x
 _atom_site_fract_y
 _atom_site_fract_z
 _atom_site_occupancy
  Na  Na0  1  0.67081400  0.66302900  0.07669400  1
  Na  Na1  1  0.00778600  0.67081400  0.92330600  1
  Na  Na2  1  0.00778600  0.33697100  0.42330600  1
  Na  Na3  1  0.99221400  0.66302900  0.57669400  1
  Na  Na4  1  0.99221400  0.32918600  0.07669400  1
  Na  Na5  1  0.33697100  0.32918600  0.57669400  1
  Na  Na6  1  0.66302900  0.67081400  0.42330600  1
  Na  Na7  1  0.33697100  0.00778600  0.07669400  1
  Na  Na8  1  0.66302900  0.99221400  0.92330600  1
  Na  Na9  1  0.32918600  0.33697100  0.92330600  1
  Na  Na10  1  0.67081400  0.00778600  0.57669400  1
  Na  Na11  1  0.32918600  0.99221400  0.42330600  1
  Ge  Ge12  1  0.85037600  0.34419800  0.79925500  1
  Ge  Ge13  1  0.00000000  0.17639400  0.75000000  1
  Ge  Ge14  1  0.50617800  0.65580200  0.70074500  1
  Ge  Ge15  1  0.17639400  0.17639400  0.25000000  1
  Ge  Ge16  1  0.34419800  0.85037600  0.70074500  1
  Ge  Ge17  1  0.14962400  0.65580200  0.20074500  1
  Ge  Ge18  1  0.66666700  0.33333300  0.55415300  1
  Ge  Ge19  1  0.17639400  0.00000000  0.75000000  1
  Ge  Ge20  1  0.65580200  0.50617800  0.79925500  1
  Ge  Ge21  1  0.34419800  0.49382200  0.20074500  1
  Ge  Ge22  1  0.82360600  0.00000000  0.25000000  1
  Ge  Ge23  1  0.00000000  0.00000000  0.50000000  1
  Ge  Ge24  1  0.85037600  0.50617800  0.29925500  1
  Ge  Ge25  1  0.33333300  0.66666700  0.44584700  1
  Ge  Ge26  1  0.00000000  0.82360600  0.25000000  1
  Ge  Ge27  1  0.82360600  0.82360600  0.75000000  1
  Ge  Ge28  1  0.65580200  0.14962400  0.29925500  1
  Ge  Ge29  1  0.50617800  0.85037600  0.20074500  1
  Ge  Ge30  1  0.49382200  0.14962400  0.79925500  1
  Ge  Ge31  1  0.33333300  0.66666700  0.94584700  1
  Ge  Ge32  1  0.49382200  0.34419800  0.29925500  1
  Ge  Ge33  1  0.00000000  0.00000000  0.00000000  1
  Ge  Ge34  1  0.66666700  0.33333300  0.05415300  1
  Ge  Ge35  1  0.14962400  0.49382200  0.70074500  1
  O  O36  1  0.17552600  0.58357000  0.05375900  1
  O  O37  1  0.09612600  0.94112900  0.38016800  1
  O  O38  1  0.94112900  0.84500300  0.61983200  1
  O  O39  1  0.00000000  0.50499700  0.25000000  1
  O  O40  1  0.24863900  0.73731700  0.83054800  1
  O  O41  1  0.26268300  0.51132200  0.83054800  1
  O  O42  1  0.59195600  0.41643000  0.44624100  1
  O  O43  1  0.75136100  0.26268300  0.16945200  1
  O  O44  1  0.84500300  0.94112900  0.88016800  1
  O  O45  1  0.50499700  0.50499700  0.75000000  1
  O  O46  1  0.17552600  0.59195600  0.55375900  1
  O  O47  1  0.90387400  0.84500300  0.11983200  1
  O  O48  1  0.77564900  0.67498400  0.85442000  1
  O  O49  1  0.49500300  0.49500300  0.25000000  1
  O  O50  1  0.41643000  0.82447400  0.55375900  1
  O  O51  1  0.58357000  0.17552600  0.44624100  1
  O  O52  1  0.49500300  0.00000000  0.75000000  1
  O  O53  1  0.05887100  0.15499700  0.38016800  1
  O  O54  1  0.59195600  0.17552600  0.94624100  1
  O  O55  1  0.58357000  0.40804400  0.94624100  1
  O  O56  1  0.82447400  0.40804400  0.44624100  1
  O  O57  1  0.22435100  0.89933500  0.64558000  1
  O  O58  1  0.77564900  0.10066500  0.35442000  1
  O  O59  1  0.00000000  0.49500300  0.75000000  1
  O  O60  1  0.48867800  0.73731700  0.33054800  1
  O  O61  1  0.15499700  0.09612600  0.61983200  1
  O  O62  1  0.67498400  0.77564900  0.64558000  1
  O  O63  1  0.40804400  0.82447400  0.05375900  1
  O  O64  1  0.10066500  0.32501600  0.64558000  1
  O  O65  1  0.75136100  0.48867800  0.66945200  1
  O  O66  1  0.50499700  0.00000000  0.25000000  1
  O  O67  1  0.84500300  0.90387400  0.38016800  1
  O  O68  1  0.94112900  0.09612600  0.11983200  1
  O  O69  1  0.32501600  0.22435100  0.35442000  1
  O  O70  1  0.82447400  0.41643000  0.94624100  1
  O  O71  1  0.51132200  0.24863900  0.16945200  1
  O  O72  1  0.90387400  0.05887100  0.61983200  1
  O  O73  1  0.24863900  0.51132200  0.33054800  1
  O  O74  1  0.15499700  0.05887100  0.11983200  1
  O  O75  1  0.51132200  0.26268300  0.66945200  1
  O  O76  1  0.09612600  0.15499700  0.88016800  1
  O  O77  1  0.05887100  0.90387400  0.88016800  1
  O  O78  1  0.40804400  0.58357000  0.55375900  1
  O  O79  1  0.89933500  0.67498400  0.35442000  1
  O  O80  1  0.48867800  0.75136100  0.83054800  1
  O  O81  1  0.41643000  0.59195600  0.05375900  1
  O  O82  1  0.10066500  0.77564900  0.14558000  1
  O  O83  1  0.67498400  0.89933500  0.14558000  1
  O  O84  1  0.26268300  0.75136100  0.33054800  1
  O  O85  1  0.89933500  0.22435100  0.85442000  1
  O  O86  1  0.73731700  0.48867800  0.16945200  1
  O  O87  1  0.22435100  0.32501600  0.14558000  1
  O  O88  1  0.32501600  0.10066500  0.85442000  1
  O  O89  1  0.73731700  0.24863900  0.66945200  1
