# generated using pymatgen
data_KNa2NiO2
_symmetry_space_group_name_H-M   'P 1'
_cell_length_a   6.15930266
_cell_length_b   12.45105959
_cell_length_c   6.15939302
_cell_angle_alpha   90.28963352
_cell_angle_beta   118.75396781
_cell_angle_gamma   89.72178560
_symmetry_Int_Tables_number   1
_chemical_formula_structural   KNa2NiO2
_chemical_formula_sum   'K4 Na8 Ni4 O8'
_cell_volume   414.11057674
_cell_formula_units_Z   4
loop_
 _symmetry_equiv_pos_site_id
 _symmetry_equiv_pos_as_xyz
  1  'x, y, z'
loop_
 _atom_site_type_symbol
 _atom_site_label
 _atom_site_symmetry_multiplicity
 _atom_site_fract_x
 _atom_site_fract_y
 _atom_site_fract_z
 _atom_site_occupancy
  K  K0  1  0.18750200  0.63086600  0.81250400  1
  K  K1  1  0.31345900  0.12794800  0.68649700  1
  K  K2  1  0.68649400  0.87202300  0.31332100  1
  K  K3  1  0.81261000  0.36908400  0.18745400  1
  Na  Na4  1  0.22773300  0.00004200  0.22771500  1
  Na  Na5  1  0.27035100  0.50000900  0.27030800  1
  Na  Na6  1  0.72968000  0.50000900  0.72965000  1
  Na  Na7  1  0.77219800  0.00004200  0.77216000  1
  Na  Na8  1  0.22359500  0.74910900  0.27844800  1
  Na  Na9  1  0.77630900  0.25092600  0.72146400  1
  Na  Na10  1  0.72153600  0.74912800  0.77631400  1
  Na  Na11  1  0.27852900  0.25093100  0.22366200  1
  Ni  Ni12  1  0.75213600  0.62371600  0.24790000  1
  Ni  Ni13  1  0.24807600  0.37613000  0.75191900  1
  Ni  Ni14  1  0.25167800  0.87619100  0.74846900  1
  Ni  Ni15  1  0.74838100  0.12381800  0.25200100  1
  O  O16  1  0.08243300  0.86266800  0.91755200  1
  O  O17  1  0.58251800  0.63603600  0.41748900  1
  O  O18  1  0.41757000  0.36393900  0.58249300  1
  O  O19  1  0.91735700  0.13736400  0.08259800  1
  O  O20  1  0.42052400  0.88639400  0.57937900  1
  O  O21  1  0.57924900  0.11363900  0.42075400  1
  O  O22  1  0.07914100  0.38467700  0.92095500  1
  O  O23  1  0.92094200  0.61531200  0.07899400  1
