# generated using pymatgen
data_Mn2P2C12S(O2F3)4
_symmetry_space_group_name_H-M   'P 1'
_cell_length_a   8.81232300
_cell_length_b   12.61787100
_cell_length_c   21.55044800
_cell_angle_alpha   90.00000000
_cell_angle_beta   90.00000000
_cell_angle_gamma   90.00000000
_symmetry_Int_Tables_number   1
_chemical_formula_structural   Mn2P2C12S(O2F3)4
_chemical_formula_sum   'Mn8 P8 C48 S4 O32 F48'
_cell_volume   2396.25368082
_cell_formula_units_Z   4
loop_
 _symmetry_equiv_pos_site_id
 _symmetry_equiv_pos_as_xyz
  1  'x, y, z'
loop_
 _atom_site_type_symbol
 _atom_site_label
 _atom_site_symmetry_multiplicity
 _atom_site_fract_x
 _atom_site_fract_y
 _atom_site_fract_z
 _atom_site_occupancy
  Mn  Mn0  1  0.72472400  0.02716200  0.40672900  1
  Mn  Mn1  1  0.24121600  0.84253600  0.65850000  1
  Mn  Mn2  1  0.27527600  0.52716200  0.59327100  1
  Mn  Mn3  1  0.77527600  0.02716200  0.90672900  1
  Mn  Mn4  1  0.74121600  0.34253600  0.84150000  1
  Mn  Mn5  1  0.75878400  0.34253600  0.34150000  1
  Mn  Mn6  1  0.22472400  0.52716200  0.09327100  1
  Mn  Mn7  1  0.25878400  0.84253600  0.15850000  1
  P  P8  1  0.74439000  0.16710700  0.97711800  1
  P  P9  1  0.76266900  0.15486900  0.32399900  1
  P  P10  1  0.73733100  0.15486900  0.82399900  1
  P  P11  1  0.75561000  0.16710700  0.47711800  1
  P  P12  1  0.23733100  0.65486900  0.67600100  1
  P  P13  1  0.24439000  0.66710700  0.52288200  1
  P  P14  1  0.26266900  0.65486900  0.17600100  1
  P  P15  1  0.25561000  0.66710700  0.02288200  1
  C  C16  1  0.55702500  0.11773800  0.77933900  1
  C  C17  1  0.95296500  0.33956400  0.83498300  1
  C  C18  1  0.45296500  0.83956400  0.66501700  1
  C  C19  1  0.80429900  0.93176600  0.97027400  1
  C  C20  1  0.69570100  0.93176600  0.47027400  1
  C  C21  1  0.30039300  0.41739500  0.64917700  1
  C  C22  1  0.75056800  0.48636600  0.35502900  1
  C  C23  1  0.44297500  0.61773800  0.22066100  1
  C  C24  1  0.94297500  0.11773800  0.27933900  1
  C  C25  1  0.37476900  0.62272100  0.74280000  1
  C  C26  1  0.62523100  0.12272100  0.25720000  1
  C  C27  1  0.21000800  0.87147700  0.74087800  1
  C  C28  1  0.96626900  0.34732200  0.36039100  1
  C  C29  1  0.86994600  0.15632300  0.05019900  1
  C  C30  1  0.19960700  0.41739500  0.14917700  1
  C  C31  1  0.51608500  0.05680000  0.40576400  1
  C  C32  1  0.54703500  0.33956400  0.33498300  1
  C  C33  1  0.12523100  0.62272100  0.24280000  1
  C  C34  1  0.36994600  0.65632300  0.44980100  1
  C  C35  1  0.69960700  0.91739500  0.35082300  1
  C  C36  1  0.55185700  0.16175300  0.01969500  1
  C  C37  1  0.13005400  0.65632300  0.94980100  1
  C  C38  1  0.24943200  0.98636600  0.64497100  1
  C  C39  1  0.05185700  0.66175300  0.48030500  1
  C  C40  1  0.19570100  0.43176600  0.02972600  1
  C  C41  1  0.03373100  0.84732200  0.63960900  1
  C  C42  1  0.43180000  0.49509000  0.09197100  1
  C  C43  1  0.56820000  0.99509000  0.90802900  1
  C  C44  1  0.05702500  0.61773800  0.72066100  1
  C  C45  1  0.71000800  0.37147700  0.75912200  1
  C  C46  1  0.80039300  0.91739500  0.85082300  1
  C  C47  1  0.44814300  0.66175300  0.98030500  1
  C  C48  1  0.01608500  0.55680000  0.09423600  1
  C  C49  1  0.25056800  0.98636600  0.14497100  1
  C  C50  1  0.63005400  0.15632300  0.55019900  1
  C  C51  1  0.98391500  0.05680000  0.90576400  1
  C  C52  1  0.30429900  0.43176600  0.52972600  1
  C  C53  1  0.74943200  0.48636600  0.85502900  1
  C  C54  1  0.46626900  0.84732200  0.13960900  1
  C  C55  1  0.04703500  0.83956400  0.16501700  1
  C  C56  1  0.94814300  0.16175300  0.51969500  1
  C  C57  1  0.87476900  0.12272100  0.75720000  1
  C  C58  1  0.53373100  0.34732200  0.86039100  1
  C  C59  1  0.78999200  0.37147700  0.25912200  1
  C  C60  1  0.48391500  0.55680000  0.59423600  1
  C  C61  1  0.28999200  0.87147700  0.24087800  1
  C  C62  1  0.06820000  0.49509000  0.59197100  1
  C  C63  1  0.93180000  0.99509000  0.40802900  1
  S  S64  1  0.72250700  0.32040600  0.45253400  1
  S  S65  1  0.77749300  0.32040600  0.95253400  1
  S  S66  1  0.22250700  0.82040600  0.04746600  1
  S  S67  1  0.27749300  0.82040600  0.54746600  1
  O  O68  1  0.41631900  0.34163400  0.33265500  1
  O  O69  1  0.58368100  0.84163400  0.66734500  1
  O  O70  1  0.31182400  0.89604800  0.29187500  1
  O  O71  1  0.61310600  0.57084200  0.59346800  1
  O  O72  1  0.55673500  0.46807000  0.09083400  1
  O  O73  1  0.90855500  0.85769900  0.62532900  1
  O  O74  1  0.91631900  0.84163400  0.16734500  1
  O  O75  1  0.18817600  0.89604800  0.79187500  1
  O  O76  1  0.81182400  0.39604800  0.20812500  1
  O  O77  1  0.09144500  0.35769900  0.37467100  1
  O  O78  1  0.44326500  0.96807000  0.90916600  1
  O  O79  1  0.18634600  0.34427400  0.18091900  1
  O  O80  1  0.75342900  0.57751100  0.86074400  1
  O  O81  1  0.24657100  0.07751100  0.13925600  1
  O  O82  1  0.82240800  0.86774100  0.00787800  1
  O  O83  1  0.08368100  0.34163400  0.83265500  1
  O  O84  1  0.11310600  0.07084200  0.90653200  1
  O  O85  1  0.17759200  0.36774100  0.99212200  1
  O  O86  1  0.81365400  0.84427400  0.81908100  1
  O  O87  1  0.88689400  0.57084200  0.09346800  1
  O  O88  1  0.05673500  0.96807000  0.40916600  1
  O  O89  1  0.31365400  0.34427400  0.68091900  1
  O  O90  1  0.94326500  0.46807000  0.59083400  1
  O  O91  1  0.32240800  0.36774100  0.49212200  1
  O  O92  1  0.38689400  0.07084200  0.40653200  1
  O  O93  1  0.67759200  0.86774100  0.50787800  1
  O  O94  1  0.68817600  0.39604800  0.70812500  1
  O  O95  1  0.74657100  0.57751100  0.36074400  1
  O  O96  1  0.40855500  0.35769900  0.87467100  1
  O  O97  1  0.68634600  0.84427400  0.31908100  1
  O  O98  1  0.59144500  0.85769900  0.12532900  1
  O  O99  1  0.25342900  0.07751100  0.63925600  1
  F  F100  1  0.48341800  0.13942800  0.53281600  1
  F  F101  1  0.98341800  0.63942800  0.96718400  1
  F  F102  1  0.02042200  0.12336400  0.77909500  1
  F  F103  1  0.47957800  0.12336400  0.27909500  1
  F  F104  1  0.45811300  0.72991100  0.93177400  1
  F  F105  1  0.04427500  0.51128600  0.73183600  1
  F  F106  1  0.36710800  0.74521700  0.41450400  1
  F  F107  1  0.43274900  0.14607500  0.81331900  1
  F  F108  1  0.44009100  0.18723100  0.97866600  1
  F  F109  1  0.05990900  0.18723100  0.47866600  1
  F  F110  1  0.36927900  0.69448100  0.78993300  1
  F  F111  1  0.04623000  0.66718500  0.77660000  1
  F  F112  1  0.17286900  0.57341900  0.91320400  1
  F  F113  1  0.04188700  0.72991100  0.43177400  1
  F  F114  1  0.63072100  0.19448100  0.21006700  1
  F  F115  1  0.85082500  0.02549400  0.73121400  1
  F  F116  1  0.32713100  0.57341900  0.41320400  1
  F  F117  1  0.14917500  0.52549400  0.26878600  1
  F  F118  1  0.95377000  0.16718500  0.22340000  1
  F  F119  1  0.52042200  0.62336400  0.72090500  1
  F  F120  1  0.94009100  0.68723100  0.52133400  1
  F  F121  1  0.63289200  0.24521700  0.58549600  1
  F  F122  1  0.02182300  0.56238600  0.45837600  1
  F  F123  1  0.55990900  0.68723100  0.02133400  1
  F  F124  1  0.95572500  0.01128600  0.26816400  1
  F  F125  1  0.52182300  0.06238600  0.04162400  1
  F  F126  1  0.86710800  0.24521700  0.08549600  1
  F  F127  1  0.51658200  0.63942800  0.46718400  1
  F  F128  1  0.47817700  0.56238600  0.95837600  1
  F  F129  1  0.64917500  0.02549400  0.23121400  1
  F  F130  1  0.97817700  0.06238600  0.54162400  1
  F  F131  1  0.86927900  0.19448100  0.71006700  1
  F  F132  1  0.45377000  0.66718500  0.27660000  1
  F  F133  1  0.82713100  0.07341900  0.08679600  1
  F  F134  1  0.67286900  0.07341900  0.58679600  1
  F  F135  1  0.54188700  0.22991100  0.06822600  1
  F  F136  1  0.97957800  0.62336400  0.22090500  1
  F  F137  1  0.13072100  0.69448100  0.28993300  1
  F  F138  1  0.35082500  0.52549400  0.76878600  1
  F  F139  1  0.93274900  0.64607500  0.68668100  1
  F  F140  1  0.54427500  0.01128600  0.76816400  1
  F  F141  1  0.54623000  0.16718500  0.72340000  1
  F  F142  1  0.06725100  0.14607500  0.31331900  1
  F  F143  1  0.01658200  0.13942800  0.03281600  1
  F  F144  1  0.13289200  0.74521700  0.91450400  1
  F  F145  1  0.95811300  0.22991100  0.56822600  1
  F  F146  1  0.56725100  0.64607500  0.18668100  1
  F  F147  1  0.45572500  0.51128600  0.23183600  1
