# generated using pymatgen
data_YCu(MoO4)2
_symmetry_space_group_name_H-M   'P 1'
_cell_length_a   9.88324800
_cell_length_b   10.30289600
_cell_length_c   14.72561200
_cell_angle_alpha   90.00000000
_cell_angle_beta   90.00000000
_cell_angle_gamma   90.00000000
_symmetry_Int_Tables_number   1
_chemical_formula_structural   YCu(MoO4)2
_chemical_formula_sum   'Y8 Cu8 Mo16 O64'
_cell_volume   1499.45129087
_cell_formula_units_Z   8
loop_
 _symmetry_equiv_pos_site_id
 _symmetry_equiv_pos_as_xyz
  1  'x, y, z'
loop_
 _atom_site_type_symbol
 _atom_site_label
 _atom_site_symmetry_multiplicity
 _atom_site_fract_x
 _atom_site_fract_y
 _atom_site_fract_z
 _atom_site_occupancy
  Y  Y0  1  0.27812600  0.46569200  0.89609600  1
  Y  Y1  1  0.22187400  0.96569200  0.10390400  1
  Y  Y2  1  0.77812600  0.53430800  0.60390400  1
  Y  Y3  1  0.77812600  0.03430800  0.89609600  1
  Y  Y4  1  0.27812600  0.96569200  0.60390400  1
  Y  Y5  1  0.72187400  0.53430800  0.10390400  1
  Y  Y6  1  0.22187400  0.46569200  0.39609600  1
  Y  Y7  1  0.72187400  0.03430800  0.39609600  1
  Cu  Cu8  1  0.18905000  0.31752600  0.19607200  1
  Cu  Cu9  1  0.81095000  0.18247400  0.69607200  1
  Cu  Cu10  1  0.18905000  0.81752600  0.30392800  1
  Cu  Cu11  1  0.31095000  0.81752600  0.80392800  1
  Cu  Cu12  1  0.68905000  0.18247400  0.19607200  1
  Cu  Cu13  1  0.68905000  0.68247400  0.30392800  1
  Cu  Cu14  1  0.31095000  0.31752600  0.69607200  1
  Cu  Cu15  1  0.81095000  0.68247400  0.80392800  1
  Mo  Mo16  1  0.99985300  0.28104300  0.05646100  1
  Mo  Mo17  1  0.50014700  0.78104300  0.94353900  1
  Mo  Mo18  1  0.83169100  0.39674600  0.34676400  1
  Mo  Mo19  1  0.00014700  0.71895700  0.94353900  1
  Mo  Mo20  1  0.50014700  0.28104300  0.55646100  1
  Mo  Mo21  1  0.66830900  0.89674600  0.65323600  1
  Mo  Mo22  1  0.00014700  0.21895700  0.55646100  1
  Mo  Mo23  1  0.66830900  0.39674600  0.84676400  1
  Mo  Mo24  1  0.33169100  0.60325400  0.15323600  1
  Mo  Mo25  1  0.49985300  0.21895700  0.05646100  1
  Mo  Mo26  1  0.99985300  0.78104300  0.44353900  1
  Mo  Mo27  1  0.16830900  0.60325400  0.65323600  1
  Mo  Mo28  1  0.33169100  0.10325400  0.34676400  1
  Mo  Mo29  1  0.16830900  0.10325400  0.84676400  1
  Mo  Mo30  1  0.49985300  0.71895700  0.44353900  1
  Mo  Mo31  1  0.83169100  0.89674600  0.15323600  1
  O  O32  1  0.39599300  0.61259100  0.37614300  1
  O  O33  1  0.20809200  0.07385100  0.96264100  1
  O  O34  1  0.70809200  0.92614900  0.53735900  1
  O  O35  1  0.10854900  0.32932200  0.49793700  1
  O  O36  1  0.89599300  0.38740900  0.12385700  1
  O  O37  1  0.24261100  0.98933100  0.27157700  1
  O  O38  1  0.60854900  0.67067800  0.00206300  1
  O  O39  1  0.90338300  0.12891200  0.47611800  1
  O  O40  1  0.10932500  0.67997300  0.36840500  1
  O  O41  1  0.60400700  0.88740900  0.87614300  1
  O  O42  1  0.60932500  0.82002700  0.36840500  1
  O  O43  1  0.27602800  0.76663300  0.18063800  1
  O  O44  1  0.00983700  0.91268300  0.16786000  1
  O  O45  1  0.40338300  0.87108800  0.02388200  1
  O  O46  1  0.10400700  0.61259100  0.87614300  1
  O  O47  1  0.29190800  0.57385100  0.03735900  1
  O  O48  1  0.70809200  0.42614900  0.96264100  1
  O  O49  1  0.39067500  0.17997300  0.63159500  1
  O  O50  1  0.74261100  0.01066900  0.22842300  1
  O  O51  1  0.39145100  0.32932200  0.99793700  1
  O  O52  1  0.39067500  0.67997300  0.86840500  1
  O  O53  1  0.89067500  0.82002700  0.86840500  1
  O  O54  1  0.60400700  0.38740900  0.62385700  1
  O  O55  1  0.25738900  0.48933100  0.72842300  1
  O  O56  1  0.99016300  0.08731700  0.83214000  1
  O  O57  1  0.27602800  0.26663300  0.31936200  1
  O  O58  1  0.72397200  0.73336700  0.68063800  1
  O  O59  1  0.59661700  0.12891200  0.97611800  1
  O  O60  1  0.10400700  0.11259100  0.62385700  1
  O  O61  1  0.09661700  0.87108800  0.52388200  1
  O  O62  1  0.22397200  0.26663300  0.81936200  1
  O  O63  1  0.40338300  0.37108800  0.47611800  1
  O  O64  1  0.60854900  0.17067800  0.49793700  1
  O  O65  1  0.75738900  0.01066900  0.72842300  1
  O  O66  1  0.09661700  0.37108800  0.97611800  1
  O  O67  1  0.10854900  0.82932200  0.00206300  1
  O  O68  1  0.50983700  0.08731700  0.33214000  1
  O  O69  1  0.29190800  0.07385100  0.46264100  1
  O  O70  1  0.89067500  0.32002700  0.63159500  1
  O  O71  1  0.50983700  0.58731700  0.16786000  1
  O  O72  1  0.90338300  0.62891200  0.02388200  1
  O  O73  1  0.49016300  0.91268300  0.66786000  1
  O  O74  1  0.75738900  0.51066900  0.77157700  1
  O  O75  1  0.72397200  0.23336700  0.81936200  1
  O  O76  1  0.00983700  0.41268300  0.33214000  1
  O  O77  1  0.89599300  0.88740900  0.37614300  1
  O  O78  1  0.89145100  0.67067800  0.50206300  1
  O  O79  1  0.99016300  0.58731700  0.66786000  1
  O  O80  1  0.25738900  0.98933100  0.77157700  1
  O  O81  1  0.10932500  0.17997300  0.13159500  1
  O  O82  1  0.79190800  0.92614900  0.03735900  1
  O  O83  1  0.49016300  0.41268300  0.83214000  1
  O  O84  1  0.89145100  0.17067800  0.99793700  1
  O  O85  1  0.39599300  0.11259100  0.12385700  1
  O  O86  1  0.60932500  0.32002700  0.13159500  1
  O  O87  1  0.24261100  0.48933100  0.22842300  1
  O  O88  1  0.77602800  0.73336700  0.18063800  1
  O  O89  1  0.59661700  0.62891200  0.52388200  1
  O  O90  1  0.74261100  0.51066900  0.27157700  1
  O  O91  1  0.39145100  0.82932200  0.50206300  1
  O  O92  1  0.79190800  0.42614900  0.46264100  1
  O  O93  1  0.77602800  0.23336700  0.31936200  1
  O  O94  1  0.20809200  0.57385100  0.53735900  1
  O  O95  1  0.22397200  0.76663300  0.68063800  1
