# generated using pymatgen
data_CsBC3NO2F9
_symmetry_space_group_name_H-M   'P 1'
_cell_length_a   6.53144000
_cell_length_b   7.91308216
_cell_length_c   9.90901527
_cell_angle_alpha   91.58531479
_cell_angle_beta   97.23224871
_cell_angle_gamma   91.72358296
_symmetry_Int_Tables_number   1
_chemical_formula_structural   CsBC3NO2F9
_chemical_formula_sum   'Cs2 B2 C6 N2 O4 F18'
_cell_volume   507.57583771
_cell_formula_units_Z   2
loop_
 _symmetry_equiv_pos_site_id
 _symmetry_equiv_pos_as_xyz
  1  'x, y, z'
loop_
 _atom_site_type_symbol
 _atom_site_label
 _atom_site_symmetry_multiplicity
 _atom_site_fract_x
 _atom_site_fract_y
 _atom_site_fract_z
 _atom_site_occupancy
  Cs  Cs0  1  0.99032600  0.26391500  0.80463100  1
  Cs  Cs1  1  0.00967400  0.73608500  0.19536900  1
  B  B2  1  0.61762800  0.23586800  0.25531200  1
  B  B3  1  0.38237200  0.76413200  0.74468800  1
  C  C4  1  0.25457700  0.69028900  0.60072200  1
  C  C5  1  0.74542300  0.30971100  0.39927800  1
  C  C6  1  0.56922500  0.63883500  0.80076500  1
  C  C7  1  0.43077500  0.36116500  0.19923500  1
  C  C8  1  0.47556500  0.95703900  0.72808200  1
  C  C9  1  0.52443500  0.04296100  0.27191800  1
  N  N10  1  0.22010900  0.76788600  0.85388200  1
  N  N11  1  0.77989100  0.23211400  0.14611800  1
  O  O12  1  0.14021700  0.90266000  0.88331900  1
  O  O13  1  0.17600800  0.63251200  0.90716900  1
  O  O14  1  0.82399200  0.36748800  0.09283100  1
  O  O15  1  0.85978300  0.09734000  0.11668100  1
  F  F16  1  0.08446400  0.78249300  0.55656900  1
  F  F17  1  0.37269900  0.68766800  0.49564600  1
  F  F18  1  0.63589400  0.96153800  0.65065700  1
  F  F19  1  0.55377600  0.03617900  0.85087500  1
  F  F20  1  0.62730100  0.31233200  0.50435400  1
  F  F21  1  0.48844100  0.52924300  0.19187200  1
  F  F22  1  0.51155900  0.47075700  0.80812800  1
  F  F23  1  0.36410600  0.03846200  0.34934300  1
  F  F24  1  0.34178200  0.31254900  0.06929000  1
  F  F25  1  0.72818100  0.63890600  0.72197200  1
  F  F26  1  0.27181900  0.36109400  0.27802800  1
  F  F27  1  0.65821800  0.68745100  0.93071000  1
  F  F28  1  0.82060100  0.47359400  0.39125900  1
  F  F29  1  0.66708400  0.93438700  0.33268300  1
  F  F30  1  0.44622400  0.96382100  0.14912500  1
  F  F31  1  0.91553600  0.21750700  0.44343100  1
  F  F32  1  0.33291600  0.06561300  0.66731700  1
  F  F33  1  0.17939900  0.52640600  0.60874100  1
