# generated using pymatgen
data_KCN3O2
_symmetry_space_group_name_H-M   'P 1'
_cell_length_a   7.78881500
_cell_length_b   6.97126500
_cell_length_c   8.72187574
_cell_angle_alpha   70.99651908
_cell_angle_beta   90.00000000
_cell_angle_gamma   90.00000000
_symmetry_Int_Tables_number   1
_chemical_formula_structural   KCN3O2
_chemical_formula_sum   'K4 C4 N12 O8'
_cell_volume   447.76882678
_cell_formula_units_Z   4
loop_
 _symmetry_equiv_pos_site_id
 _symmetry_equiv_pos_as_xyz
  1  'x, y, z'
loop_
 _atom_site_type_symbol
 _atom_site_label
 _atom_site_symmetry_multiplicity
 _atom_site_fract_x
 _atom_site_fract_y
 _atom_site_fract_z
 _atom_site_occupancy
  K  K0  1  0.09528800  0.14754200  0.65064900  1
  K  K1  1  0.40471200  0.14754200  0.15064900  1
  K  K2  1  0.90471200  0.85245800  0.34935100  1
  K  K3  1  0.59528800  0.85245800  0.84935100  1
  C  C4  1  0.56712600  0.56975700  0.29182800  1
  C  C5  1  0.06712600  0.43024300  0.20817200  1
  C  C6  1  0.93287400  0.56975700  0.79182800  1
  C  C7  1  0.43287400  0.43024300  0.70817200  1
  N  N8  1  0.05173400  0.25379500  0.27179800  1
  N  N9  1  0.70146800  0.29945000  0.45669000  1
  N  N10  1  0.79853200  0.29945000  0.95669000  1
  N  N11  1  0.94826600  0.74620500  0.72820200  1
  N  N12  1  0.44826600  0.25379500  0.77179800  1
  N  N13  1  0.93001500  0.37013400  0.85266000  1
  N  N14  1  0.06998500  0.62986600  0.14734000  1
  N  N15  1  0.55173400  0.74620500  0.22820200  1
  N  N16  1  0.29853200  0.70055000  0.54331000  1
  N  N17  1  0.56998500  0.37013400  0.35266000  1
  N  N18  1  0.20146800  0.70055000  0.04331000  1
  N  N19  1  0.43001500  0.62986600  0.64734000  1
  O  O20  1  0.69672400  0.41864600  0.99323100  1
  O  O21  1  0.80327600  0.41864600  0.49323100  1
  O  O22  1  0.30327600  0.58135400  0.00676900  1
  O  O23  1  0.28259700  0.88991500  0.48530000  1
  O  O24  1  0.21740300  0.88991500  0.98530000  1
  O  O25  1  0.19672400  0.58135400  0.50676900  1
  O  O26  1  0.78259700  0.11008500  0.01470000  1
  O  O27  1  0.71740300  0.11008500  0.51470000  1
