# generated using pymatgen
data_SrH12C4S4(NO4)2
_symmetry_space_group_name_H-M   'P 1'
_cell_length_a   9.03948800
_cell_length_b   7.86815900
_cell_length_c   21.33699686
_cell_angle_alpha   71.77302611
_cell_angle_beta   90.00000000
_cell_angle_gamma   90.00000000
_symmetry_Int_Tables_number   1
_chemical_formula_structural   SrH12C4S4(NO4)2
_chemical_formula_sum   'Sr4 H48 C16 S16 N8 O32'
_cell_volume   1441.43082755
_cell_formula_units_Z   4
loop_
 _symmetry_equiv_pos_site_id
 _symmetry_equiv_pos_as_xyz
  1  'x, y, z'
loop_
 _atom_site_type_symbol
 _atom_site_label
 _atom_site_symmetry_multiplicity
 _atom_site_fract_x
 _atom_site_fract_y
 _atom_site_fract_z
 _atom_site_occupancy
  Sr  Sr0  1  0.21494100  0.79489300  0.03260400  1
  Sr  Sr1  1  0.71494100  0.20510700  0.46739600  1
  Sr  Sr2  1  0.28505900  0.79489300  0.53260400  1
  Sr  Sr3  1  0.78505900  0.20510700  0.96739600  1
  H  H4  1  0.79112300  0.68285100  0.60699100  1
  H  H5  1  0.74865500  0.45502600  0.10951000  1
  H  H6  1  0.57231000  0.93953400  0.28220300  1
  H  H7  1  0.87058900  0.70898500  0.36246700  1
  H  H8  1  0.52464400  0.14269100  0.16888700  1
  H  H9  1  0.55655200  0.79072900  0.36550900  1
  H  H10  1  0.96055000  0.45820800  0.20306500  1
  H  H11  1  0.59476000  0.60640900  0.23132700  1
  H  H12  1  0.47535600  0.85730900  0.83111300  1
  H  H13  1  0.59540800  0.18610100  0.69224400  1
  H  H14  1  0.66124300  0.94459300  0.82182700  1
  H  H15  1  0.33875700  0.05540700  0.17817300  1
  H  H16  1  0.40524000  0.39359100  0.76867300  1
  H  H17  1  0.25134500  0.54497400  0.89049000  1
  H  H18  1  0.03945000  0.54179200  0.79693500  1
  H  H19  1  0.92769000  0.93953400  0.78220300  1
  H  H20  1  0.62941100  0.70898500  0.86246700  1
  H  H21  1  0.16124300  0.05540700  0.67817300  1
  H  H22  1  0.91839400  0.56302900  0.57095200  1
  H  H23  1  0.37058900  0.29101500  0.13753300  1
  H  H24  1  0.46055000  0.54179200  0.29693500  1
  H  H25  1  0.97535600  0.14269100  0.66888700  1
  H  H26  1  0.41839400  0.43697100  0.92904800  1
  H  H27  1  0.09540800  0.81389900  0.80775600  1
  H  H28  1  0.08160600  0.43697100  0.42904800  1
  H  H29  1  0.90459200  0.18610100  0.19224400  1
  H  H30  1  0.83875700  0.94459300  0.32182700  1
  H  H31  1  0.94344800  0.79072900  0.86550900  1
  H  H32  1  0.44827700  0.45095300  0.22995000  1
  H  H33  1  0.75134500  0.45502600  0.60951000  1
  H  H34  1  0.07231000  0.06046600  0.21779700  1
  H  H35  1  0.70887700  0.68285100  0.10699100  1
  H  H36  1  0.53945000  0.45820800  0.70306500  1
  H  H37  1  0.55172300  0.54904700  0.77005000  1
  H  H38  1  0.94827700  0.54904700  0.27005000  1
  H  H39  1  0.02464400  0.85730900  0.33111300  1
  H  H40  1  0.42769000  0.06046600  0.71779700  1
  H  H41  1  0.58160600  0.56302900  0.07095200  1
  H  H42  1  0.40459200  0.81389900  0.30775600  1
  H  H43  1  0.12941100  0.29101500  0.63753300  1
  H  H44  1  0.20887700  0.31714900  0.39300900  1
  H  H45  1  0.05655200  0.20927100  0.13449100  1
  H  H46  1  0.90524000  0.60640900  0.73132700  1
  H  H47  1  0.05172300  0.45095300  0.72995000  1
  H  H48  1  0.44344800  0.20927100  0.63449100  1
  H  H49  1  0.09476000  0.39359100  0.26867300  1
  H  H50  1  0.29112300  0.31714900  0.89300900  1
  H  H51  1  0.24865500  0.54497400  0.39049000  1
  C  C52  1  0.97636400  0.49794600  0.76107000  1
  C  C53  1  0.19782500  0.41739900  0.41860000  1
  C  C54  1  0.47636400  0.50205400  0.73893000  1
  C  C55  1  0.50312400  0.11869600  0.67639800  1
  C  C56  1  0.49687600  0.88130400  0.32360200  1
  C  C57  1  0.41398700  0.15529400  0.14677000  1
  C  C58  1  0.69782500  0.58260100  0.08140000  1
  C  C59  1  0.80217500  0.58260100  0.58140000  1
  C  C60  1  0.99687600  0.11869600  0.17639800  1
  C  C61  1  0.30217500  0.41739900  0.91860000  1
  C  C62  1  0.91398700  0.84470600  0.35323000  1
  C  C63  1  0.08601300  0.15529400  0.64677000  1
  C  C64  1  0.52363600  0.49794600  0.26107000  1
  C  C65  1  0.00312400  0.88130400  0.82360200  1
  C  C66  1  0.58601300  0.84470600  0.85323000  1
  C  C67  1  0.02363600  0.50205400  0.23893000  1
  S  S68  1  0.35757100  0.67918200  0.69567800  1
  S  S69  1  0.29162600  0.33734300  0.49536000  1
  S  S70  1  0.08168100  0.05679500  0.84882000  1
  S  S71  1  0.64242900  0.32081800  0.30432200  1
  S  S72  1  0.91831900  0.94320500  0.15118000  1
  S  S73  1  0.70837400  0.66265700  0.50464000  1
  S  S74  1  0.41831900  0.05679500  0.34882000  1
  S  S75  1  0.79162600  0.66265700  0.00464000  1
  S  S76  1  0.56734800  0.88767800  0.92968000  1
  S  S77  1  0.14242900  0.67918200  0.19567800  1
  S  S78  1  0.93265200  0.88767800  0.42968000  1
  S  S79  1  0.58168100  0.94320500  0.65118000  1
  S  S80  1  0.20837400  0.33734300  0.99536000  1
  S  S81  1  0.06734800  0.11232200  0.57032000  1
  S  S82  1  0.85757100  0.32081800  0.80432200  1
  S  S83  1  0.43265200  0.11232200  0.07032000  1
  N  N84  1  0.94842800  0.17687300  0.86204600  1
  N  N85  1  0.05157200  0.82312700  0.13795400  1
  N  N86  1  0.55157200  0.17687300  0.36204600  1
  N  N87  1  0.72615600  0.85678500  0.96612000  1
  N  N88  1  0.77384400  0.85678500  0.46612000  1
  N  N89  1  0.44842800  0.82312700  0.63795400  1
  N  N90  1  0.22615600  0.14321500  0.53388000  1
  N  N91  1  0.27384400  0.14321500  0.03388000  1
  O  O92  1  0.95916600  0.07896200  0.41589100  1
  O  O93  1  0.24664800  0.60528100  0.15793900  1
  O  O94  1  0.45916600  0.92103800  0.08410900  1
  O  O95  1  0.79342500  0.24660400  0.75573400  1
  O  O96  1  0.54083400  0.07896200  0.91589100  1
  O  O97  1  0.35132200  0.97202900  0.41365200  1
  O  O98  1  0.04799500  0.76604600  0.46666600  1
  O  O99  1  0.68171800  0.84303200  0.70304900  1
  O  O100  1  0.14867800  0.97202900  0.91365200  1
  O  O101  1  0.94601100  0.69066100  0.01833800  1
  O  O102  1  0.74664800  0.39471900  0.34206100  1
  O  O103  1  0.75335200  0.39471900  0.84206100  1
  O  O104  1  0.23484300  0.46620600  0.03112500  1
  O  O105  1  0.44601100  0.30933900  0.48166200  1
  O  O106  1  0.76515700  0.53379400  0.96887500  1
  O  O107  1  0.05398900  0.30933900  0.98166200  1
  O  O108  1  0.04083400  0.92103800  0.58410900  1
  O  O109  1  0.55398900  0.69066100  0.51833800  1
  O  O110  1  0.73484300  0.53379400  0.46887500  1
  O  O111  1  0.64867800  0.02797100  0.58634800  1
  O  O112  1  0.85132200  0.02797100  0.08634800  1
  O  O113  1  0.26515700  0.46620600  0.53112500  1
  O  O114  1  0.95200500  0.23395400  0.53333400  1
  O  O115  1  0.45200500  0.76604600  0.96666600  1
  O  O116  1  0.20657500  0.75339600  0.24426600  1
  O  O117  1  0.18171800  0.15696800  0.79695100  1
  O  O118  1  0.31828200  0.15696800  0.29695100  1
  O  O119  1  0.25335200  0.60528100  0.65793900  1
  O  O120  1  0.81828200  0.84303200  0.20304900  1
  O  O121  1  0.54799500  0.23395400  0.03333400  1
  O  O122  1  0.70657500  0.24660400  0.25573400  1
  O  O123  1  0.29342500  0.75339600  0.74426600  1
