# generated using pymatgen
data_CaCr2(PO4)2
_symmetry_space_group_name_H-M   'P 1'
_cell_length_a   9.18332053
_cell_length_b   9.18332053
_cell_length_c   17.04907190
_cell_angle_alpha   62.24569939
_cell_angle_beta   62.24569939
_cell_angle_gamma   32.19824213
_symmetry_Int_Tables_number   1
_chemical_formula_structural   CaCr2(PO4)2
_chemical_formula_sum   'Ca4 Cr8 P8 O32'
_cell_volume   670.12830923
_cell_formula_units_Z   4
loop_
 _symmetry_equiv_pos_site_id
 _symmetry_equiv_pos_as_xyz
  1  'x, y, z'
loop_
 _atom_site_type_symbol
 _atom_site_label
 _atom_site_symmetry_multiplicity
 _atom_site_fract_x
 _atom_site_fract_y
 _atom_site_fract_z
 _atom_site_occupancy
  Ca  Ca0  1  0.47005200  0.83129200  0.86212300  1
  Ca  Ca1  1  0.16870800  0.52994800  0.63787700  1
  Ca  Ca2  1  0.83129200  0.47005200  0.36212300  1
  Ca  Ca3  1  0.52994800  0.16870800  0.13787700  1
  Cr  Cr4  1  0.15890200  0.64519400  0.96317500  1
  Cr  Cr5  1  0.35480600  0.84109800  0.53682500  1
  Cr  Cr6  1  0.84109800  0.35480600  0.03682500  1
  Cr  Cr7  1  0.50000000  0.00000000  0.00000000  1
  Cr  Cr8  1  0.64519400  0.15890200  0.46317500  1
  Cr  Cr9  1  0.69216000  0.30784000  0.25000000  1
  Cr  Cr10  1  0.30784000  0.69216000  0.75000000  1
  Cr  Cr11  1  0.00000000  0.50000000  0.50000000  1
  P  P12  1  0.05249000  0.51422000  0.86703100  1
  P  P13  1  0.76857200  0.19869500  0.60763800  1
  P  P14  1  0.94751000  0.48578000  0.13296900  1
  P  P15  1  0.19869500  0.76857200  0.10763800  1
  P  P16  1  0.51422000  0.05249000  0.36703100  1
  P  P17  1  0.48578000  0.94751000  0.63296900  1
  P  P18  1  0.23142800  0.80130500  0.39236200  1
  P  P19  1  0.80130500  0.23142800  0.89236200  1
  O  O20  1  0.69809400  0.80485700  0.10541100  1
  O  O21  1  0.82519600  0.34208500  0.92597600  1
  O  O22  1  0.80485700  0.69809400  0.60541100  1
  O  O23  1  0.80616300  0.34838800  0.53164900  1
  O  O24  1  0.19264200  0.36115600  0.05155800  1
  O  O25  1  0.55805800  0.35119400  0.68866200  1
  O  O26  1  0.65161200  0.19383700  0.96835100  1
  O  O27  1  0.89289100  0.06575500  0.13179200  1
  O  O28  1  0.19383700  0.65161200  0.46835100  1
  O  O29  1  0.65791500  0.17480400  0.57402400  1
  O  O30  1  0.87263000  0.37462700  0.14348900  1
  O  O31  1  0.60735900  0.95229400  0.28459500  1
  O  O32  1  0.17480400  0.65791500  0.07402400  1
  O  O33  1  0.06575500  0.89289100  0.63179200  1
  O  O34  1  0.30190600  0.19514300  0.89458900  1
  O  O35  1  0.12737000  0.62537300  0.85651100  1
  O  O36  1  0.95229400  0.60735900  0.78459500  1
  O  O37  1  0.34838800  0.80616300  0.03164900  1
  O  O38  1  0.37462700  0.87263000  0.64348900  1
  O  O39  1  0.39264100  0.04770600  0.71540500  1
  O  O40  1  0.93424500  0.10710900  0.36820800  1
  O  O41  1  0.36115600  0.19264200  0.55155800  1
  O  O42  1  0.10710900  0.93424500  0.86820800  1
  O  O43  1  0.35119400  0.55805800  0.18866200  1
  O  O44  1  0.34208500  0.82519600  0.42597600  1
  O  O45  1  0.19514300  0.30190600  0.39458900  1
  O  O46  1  0.04770600  0.39264100  0.21540500  1
  O  O47  1  0.63884400  0.80735800  0.44844200  1
  O  O48  1  0.80735800  0.63884400  0.94844200  1
  O  O49  1  0.64880600  0.44194200  0.81133800  1
  O  O50  1  0.44194200  0.64880600  0.31133800  1
  O  O51  1  0.62537300  0.12737000  0.35651100  1
