# generated using pymatgen
data_BeF2
_symmetry_space_group_name_H-M   'P 1'
_cell_length_a   9.00768078
_cell_length_b   9.00768078
_cell_length_c   9.00768085
_cell_angle_alpha   93.96769595
_cell_angle_beta   93.96769595
_cell_angle_gamma   93.96770323
_symmetry_Int_Tables_number   1
_chemical_formula_structural   BeF2
_chemical_formula_sum   'Be12 F24'
_cell_volume   725.35622140
_cell_formula_units_Z   12
loop_
 _symmetry_equiv_pos_site_id
 _symmetry_equiv_pos_as_xyz
  1  'x, y, z'
loop_
 _atom_site_type_symbol
 _atom_site_label
 _atom_site_symmetry_multiplicity
 _atom_site_fract_x
 _atom_site_fract_y
 _atom_site_fract_z
 _atom_site_occupancy
  Be  Be0  1  0.66700500  0.12673900  0.89668200  1
  Be  Be1  1  0.87326100  0.33299500  0.10331800  1
  Be  Be2  1  0.12673900  0.89668200  0.66700500  1
  Be  Be3  1  0.10331800  0.33299500  0.87326100  1
  Be  Be4  1  0.12673900  0.66700500  0.89668200  1
  Be  Be5  1  0.33299500  0.10331800  0.87326100  1
  Be  Be6  1  0.89668200  0.66700500  0.12673900  1
  Be  Be7  1  0.10331800  0.87326100  0.33299500  1
  Be  Be8  1  0.66700500  0.89668200  0.12673900  1
  Be  Be9  1  0.33299500  0.87326100  0.10331800  1
  Be  Be10  1  0.89668200  0.12673900  0.66700500  1
  Be  Be11  1  0.87326100  0.10331800  0.33299500  1
  F  F12  1  0.01794100  0.01794100  0.31859700  1
  F  F13  1  0.75310600  0.75310600  0.11183000  1
  F  F14  1  0.50000000  0.85292800  0.14707200  1
  F  F15  1  0.00000000  0.73494900  0.26505100  1
  F  F16  1  0.85292800  0.14707200  0.50000000  1
  F  F17  1  0.00000000  0.26505100  0.73494900  1
  F  F18  1  0.24689400  0.24689400  0.88817000  1
  F  F19  1  0.98205900  0.68140300  0.98205900  1
  F  F20  1  0.88817000  0.24689400  0.24689400  1
  F  F21  1  0.14707200  0.85292800  0.50000000  1
  F  F22  1  0.98205900  0.98205900  0.68140300  1
  F  F23  1  0.14707200  0.50000000  0.85292800  1
  F  F24  1  0.73494900  0.00000000  0.26505100  1
  F  F25  1  0.73494900  0.26505100  0.00000000  1
  F  F26  1  0.24689400  0.88817000  0.24689400  1
  F  F27  1  0.01794100  0.31859700  0.01794100  1
  F  F28  1  0.26505100  0.73494900  0.00000000  1
  F  F29  1  0.11183000  0.75310600  0.75310600  1
  F  F30  1  0.26505100  0.00000000  0.73494900  1
  F  F31  1  0.85292800  0.50000000  0.14707200  1
  F  F32  1  0.31859700  0.01794100  0.01794100  1
  F  F33  1  0.75310600  0.11183000  0.75310600  1
  F  F34  1  0.68140300  0.98205900  0.98205900  1
  F  F35  1  0.50000000  0.14707200  0.85292800  1
