# generated using pymatgen
data_K2Zn2Si8O19
_symmetry_space_group_name_H-M   'P 1'
_cell_length_a   7.45424133
_cell_length_b   7.45424133
_cell_length_c   12.57837842
_cell_angle_alpha   73.87323661
_cell_angle_beta   73.87323661
_cell_angle_gamma   40.53634380
_symmetry_Int_Tables_number   1
_chemical_formula_structural   K2Zn2Si8O19
_chemical_formula_sum   'K2 Zn2 Si8 O19'
_cell_volume   433.88379275
_cell_formula_units_Z   1
loop_
 _symmetry_equiv_pos_site_id
 _symmetry_equiv_pos_as_xyz
  1  'x, y, z'
loop_
 _atom_site_type_symbol
 _atom_site_label
 _atom_site_symmetry_multiplicity
 _atom_site_fract_x
 _atom_site_fract_y
 _atom_site_fract_z
 _atom_site_occupancy
  K  K0  1  0.59077900  0.65530300  0.35130300  1
  K  K1  1  0.34469700  0.40922100  0.64869700  1
  Zn  Zn2  1  0.70326100  0.69581100  0.58869500  1
  Zn  Zn3  1  0.30418900  0.29673900  0.41130500  1
  Si  Si4  1  0.14200600  0.85330200  0.16734300  1
  Si  Si5  1  0.92294400  0.93106100  0.42462900  1
  Si  Si6  1  0.78072800  0.47110500  0.07327700  1
  Si  Si7  1  0.06893900  0.07705600  0.57537100  1
  Si  Si8  1  0.61260800  0.79536300  0.84051900  1
  Si  Si9  1  0.14669800  0.85799400  0.83265700  1
  Si  Si10  1  0.52889500  0.21927200  0.92672300  1
  Si  Si11  1  0.20463700  0.38739200  0.15948100  1
  O  O12  1  0.80326700  0.54642200  0.93957500  1
  O  O13  1  0.45357800  0.19673300  0.06042500  1
  O  O14  1  0.09543200  0.87783000  0.29910700  1
  O  O15  1  0.28874100  0.22206700  0.28107800  1
  O  O16  1  0.12217000  0.90456800  0.70089300  1
  O  O17  1  0.09417900  0.90582100  0.50000000  1
  O  O18  1  0.10924000  0.67605400  0.14544600  1
  O  O19  1  0.45698900  0.69867300  0.12594100  1
  O  O20  1  0.91930700  0.16130700  0.10061300  1
  O  O21  1  0.30132700  0.54301100  0.87405900  1
  O  O22  1  0.60274400  0.23130000  0.42842800  1
  O  O23  1  0.92956000  0.48822000  0.13656100  1
  O  O24  1  0.96490100  0.67256900  0.46648200  1
  O  O25  1  0.32394600  0.89076000  0.85455400  1
  O  O26  1  0.83869300  0.08069300  0.89938700  1
  O  O27  1  0.76870000  0.39725600  0.57157200  1
  O  O28  1  0.77793300  0.71125900  0.71892200  1
  O  O29  1  0.32743100  0.03509900  0.53351800  1
  O  O30  1  0.51178000  0.07044000  0.86343900  1
