# generated using pymatgen
data_Mn3V6(FeO6)4
_symmetry_space_group_name_H-M   'P 1'
_cell_length_a   6.78847700
_cell_length_b   8.30979009
_cell_length_c   10.01128120
_cell_angle_alpha   105.87908096
_cell_angle_beta   105.48435972
_cell_angle_gamma   102.76738850
_symmetry_Int_Tables_number   1
_chemical_formula_structural   Mn3V6(FeO6)4
_chemical_formula_sum   'Mn3 V6 Fe4 O24'
_cell_volume   496.44198266
_cell_formula_units_Z   1
loop_
 _symmetry_equiv_pos_site_id
 _symmetry_equiv_pos_as_xyz
  1  'x, y, z'
loop_
 _atom_site_type_symbol
 _atom_site_label
 _atom_site_symmetry_multiplicity
 _atom_site_fract_x
 _atom_site_fract_y
 _atom_site_fract_z
 _atom_site_occupancy
  Mn  Mn0  1  0.78344100  0.79577400  0.29702600  1
  Mn  Mn1  1  0.50000000  0.00000000  0.00000000  1
  Mn  Mn2  1  0.21655900  0.20422600  0.70297400  1
  V  V3  1  0.60928900  0.59827200  0.83411600  1
  V  V4  1  0.90037200  0.23492300  0.36823600  1
  V  V5  1  0.09962800  0.76507700  0.63176400  1
  V  V6  1  0.71867000  0.15795700  0.76619600  1
  V  V7  1  0.28133000  0.84204300  0.23380400  1
  V  V8  1  0.39071100  0.40172800  0.16588400  1
  Fe  Fe9  1  0.54295700  0.70642600  0.51828500  1
  Fe  Fe10  1  0.12303500  0.54640800  0.89550400  1
  Fe  Fe11  1  0.45704300  0.29357400  0.48171500  1
  Fe  Fe12  1  0.87696500  0.45359200  0.10449600  1
  O  O13  1  0.02948500  0.72377100  0.22955300  1
  O  O14  1  0.06353000  0.63576500  0.73797800  1
  O  O15  1  0.32123600  0.05912800  0.31818800  1
  O  O16  1  0.93647000  0.36423500  0.26202200  1
  O  O17  1  0.63883400  0.81065200  0.91654000  1
  O  O18  1  0.15058600  0.25031100  0.49714700  1
  O  O19  1  0.67876400  0.94087200  0.68181200  1
  O  O20  1  0.97051500  0.27622900  0.77044700  1
  O  O21  1  0.71032500  0.20332800  0.94901400  1
  O  O22  1  0.51392000  0.21763500  0.65885600  1
  O  O23  1  0.26190300  0.70462200  0.53474300  1
  O  O24  1  0.48608000  0.78236600  0.34114400  1
  O  O25  1  0.37364800  0.47739500  0.84943100  1
  O  O26  1  0.73809700  0.29537800  0.46525700  1
  O  O27  1  0.42386600  0.44582700  0.35607800  1
  O  O28  1  0.62635200  0.52260500  0.15056900  1
  O  O29  1  0.84941400  0.74968900  0.50285300  1
  O  O30  1  0.28967500  0.79667200  0.05098600  1
  O  O31  1  0.23458100  0.98036600  0.75608100  1
  O  O32  1  0.36116600  0.18934800  0.08346000  1
  O  O33  1  0.57613400  0.55417300  0.64392200  1
  O  O34  1  0.83468000  0.54004900  0.92606700  1
  O  O35  1  0.76541900  0.01963400  0.24391900  1
  O  O36  1  0.16532000  0.45995100  0.07393300  1
