# generated using pymatgen
data_BaCeC2O6F
_symmetry_space_group_name_H-M   'P 1'
_cell_length_a   7.33928589
_cell_length_b   7.33928589
_cell_length_c   18.65597100
_cell_angle_alpha   90.00000000
_cell_angle_beta   90.00000000
_cell_angle_gamma   119.99999905
_symmetry_Int_Tables_number   1
_chemical_formula_structural   BaCeC2O6F
_chemical_formula_sum   'Ba6 Ce6 C12 O36 F6'
_cell_volume   870.27419244
_cell_formula_units_Z   6
loop_
 _symmetry_equiv_pos_site_id
 _symmetry_equiv_pos_as_xyz
  1  'x, y, z'
loop_
 _atom_site_type_symbol
 _atom_site_label
 _atom_site_symmetry_multiplicity
 _atom_site_fract_x
 _atom_site_fract_y
 _atom_site_fract_z
 _atom_site_occupancy
  Ba  Ba0  1  0.66666700  0.33333300  0.55268700  1
  Ba  Ba1  1  0.66666700  0.33333300  0.05268700  1
  Ba  Ba2  1  0.00000000  0.00000000  0.00000000  1
  Ba  Ba3  1  0.33333300  0.66666700  0.44731300  1
  Ba  Ba4  1  0.33333300  0.66666700  0.94731300  1
  Ba  Ba5  1  0.00000000  0.00000000  0.50000000  1
  Ce  Ce6  1  0.00000000  0.65556100  0.75000000  1
  Ce  Ce7  1  0.34443900  0.34443900  0.75000000  1
  Ce  Ce8  1  0.00000000  0.34443900  0.25000000  1
  Ce  Ce9  1  0.65556100  0.00000000  0.75000000  1
  Ce  Ce10  1  0.34443900  0.00000000  0.25000000  1
  Ce  Ce11  1  0.65556100  0.65556100  0.25000000  1
  C  C12  1  0.14185800  0.35935900  0.61756200  1
  C  C13  1  0.78250000  0.14185800  0.38243800  1
  C  C14  1  0.21750000  0.35935900  0.11756200  1
  C  C15  1  0.21750000  0.85814200  0.61756200  1
  C  C16  1  0.85814200  0.21750000  0.88243800  1
  C  C17  1  0.14185800  0.78250000  0.11756200  1
  C  C18  1  0.64064100  0.85814200  0.11756200  1
  C  C19  1  0.35935900  0.14185800  0.88243800  1
  C  C20  1  0.85814200  0.64064100  0.38243800  1
  C  C21  1  0.78250000  0.64064100  0.88243800  1
  C  C22  1  0.35935900  0.21750000  0.38243800  1
  C  C23  1  0.64064100  0.78250000  0.61756200  1
  O  O24  1  0.07622000  0.39164800  0.55780100  1
  O  O25  1  0.90452000  0.58781200  0.32059700  1
  O  O26  1  0.90452000  0.31670800  0.82059700  1
  O  O27  1  0.31670800  0.41218800  0.17940300  1
  O  O28  1  0.92378000  0.60835200  0.44219900  1
  O  O29  1  0.09548000  0.68329200  0.17940300  1
  O  O30  1  0.07622000  0.68457200  0.05780100  1
  O  O31  1  0.68329200  0.09548000  0.32059700  1
  O  O32  1  0.31670800  0.90452000  0.67940300  1
  O  O33  1  0.60835200  0.92378000  0.05780100  1
  O  O34  1  0.58781200  0.90452000  0.17940300  1
  O  O35  1  0.09548000  0.41218800  0.67940300  1
  O  O36  1  0.41218800  0.31670800  0.32059700  1
  O  O37  1  0.31542800  0.39164800  0.05780100  1
  O  O38  1  0.39164800  0.31542800  0.44219900  1
  O  O39  1  0.98697900  0.25471900  0.38020800  1
  O  O40  1  0.26774000  0.25471900  0.88020800  1
  O  O41  1  0.74528100  0.73226000  0.38020800  1
  O  O42  1  0.68457200  0.07622000  0.44219900  1
  O  O43  1  0.68329200  0.58781200  0.82059700  1
  O  O44  1  0.25471900  0.98697900  0.11979200  1
  O  O45  1  0.01302100  0.74528100  0.61979200  1
  O  O46  1  0.92378000  0.31542800  0.94219900  1
  O  O47  1  0.25471900  0.26774000  0.61979200  1
  O  O48  1  0.68457200  0.60835200  0.94219900  1
  O  O49  1  0.39164800  0.07622000  0.94219900  1
  O  O50  1  0.74528100  0.01302100  0.88020800  1
  O  O51  1  0.73226000  0.74528100  0.11979200  1
  O  O52  1  0.60835200  0.68457200  0.55780100  1
  O  O53  1  0.01302100  0.26774000  0.11979200  1
  O  O54  1  0.58781200  0.68329200  0.67940300  1
  O  O55  1  0.73226000  0.98697900  0.61979200  1
  O  O56  1  0.98697900  0.73226000  0.88020800  1
  O  O57  1  0.26774000  0.01302100  0.38020800  1
  O  O58  1  0.31542800  0.92378000  0.55780100  1
  O  O59  1  0.41218800  0.09548000  0.82059700  1
  F  F60  1  0.33333300  0.66666700  0.79767600  1
  F  F61  1  0.66666700  0.33333300  0.70232400  1
  F  F62  1  0.33333300  0.66666700  0.29767600  1
  F  F63  1  0.66666700  0.33333300  0.20232400  1
  F  F64  1  0.00000000  0.00000000  0.25000000  1
  F  F65  1  0.00000000  0.00000000  0.75000000  1
