# generated using pymatgen
data_NaNbO3
_symmetry_space_group_name_H-M   'P 1'
_cell_length_a   4.04094934
_cell_length_b   4.04094934
_cell_length_c   15.95675700
_cell_angle_alpha   90.00000000
_cell_angle_beta   90.00000000
_cell_angle_gamma   90.47144013
_symmetry_Int_Tables_number   1
_chemical_formula_structural   NaNbO3
_chemical_formula_sum   'Na4 Nb4 O12'
_cell_volume   260.55339820
_cell_formula_units_Z   4
loop_
 _symmetry_equiv_pos_site_id
 _symmetry_equiv_pos_as_xyz
  1  'x, y, z'
loop_
 _atom_site_type_symbol
 _atom_site_label
 _atom_site_symmetry_multiplicity
 _atom_site_fract_x
 _atom_site_fract_y
 _atom_site_fract_z
 _atom_site_occupancy
  Na  Na0  1  0.45373200  0.54626800  0.75000000  1
  Na  Na1  1  0.54626800  0.45373200  0.25000000  1
  Na  Na2  1  0.50000000  0.50000000  0.50000000  1
  Na  Na3  1  0.50000000  0.50000000  0.00000000  1
  Nb  Nb4  1  0.02529300  0.97470700  0.12515700  1
  Nb  Nb5  1  0.02529300  0.97470700  0.37484300  1
  Nb  Nb6  1  0.97470700  0.02529300  0.87484300  1
  Nb  Nb7  1  0.97470700  0.02529300  0.62515700  1
  O  O8  1  0.98588500  0.01411500  0.25000000  1
  O  O9  1  0.01411400  0.98588500  0.75000000  1
  O  O10  1  0.98866500  0.50413400  0.37496800  1
  O  O11  1  0.00000000  0.00000000  0.50000000  1
  O  O12  1  0.49586600  0.01133500  0.37496800  1
  O  O13  1  0.01133500  0.49586600  0.87496800  1
  O  O14  1  0.01133500  0.49586600  0.62503200  1
  O  O15  1  0.49586600  0.01133500  0.12503200  1
  O  O16  1  0.50413400  0.98866500  0.62503200  1
  O  O17  1  0.50413400  0.98866500  0.87496800  1
  O  O18  1  0.00000000  0.00000000  0.00000000  1
  O  O19  1  0.98866500  0.50413400  0.12503200  1
