# generated using pymatgen
data_K4Zn(WO4)3
_symmetry_space_group_name_H-M   'P 1'
_cell_length_a   8.06523900
_cell_length_b   9.99924573
_cell_length_c   10.35824858
_cell_angle_alpha   95.58430957
_cell_angle_beta   106.53498893
_cell_angle_gamma   105.48435481
_symmetry_Int_Tables_number   1
_chemical_formula_structural   K4Zn(WO4)3
_chemical_formula_sum   'K8 Zn2 W6 O24'
_cell_volume   758.04438588
_cell_formula_units_Z   2
loop_
 _symmetry_equiv_pos_site_id
 _symmetry_equiv_pos_as_xyz
  1  'x, y, z'
loop_
 _atom_site_type_symbol
 _atom_site_label
 _atom_site_symmetry_multiplicity
 _atom_site_fract_x
 _atom_site_fract_y
 _atom_site_fract_z
 _atom_site_occupancy
  K  K0  1  0.78693400  0.77681900  0.24093600  1
  K  K1  1  0.74697200  0.47431900  0.52980800  1
  K  K2  1  0.00000000  0.00000000  0.00000000  1
  K  K3  1  0.35854500  0.11151700  0.43239900  1
  K  K4  1  0.64145500  0.88848300  0.56760100  1
  K  K5  1  0.50000000  0.00000000  0.00000000  1
  K  K6  1  0.25302800  0.52568100  0.47019200  1
  K  K7  1  0.21306600  0.22318100  0.75906400  1
  Zn  Zn8  1  0.83373900  0.43940300  0.14285700  1
  Zn  Zn9  1  0.16626100  0.56059700  0.85714300  1
  W  W10  1  0.77220000  0.27544600  0.82517100  1
  W  W11  1  0.22780000  0.72455400  0.17482900  1
  W  W12  1  0.87681000  0.18272700  0.36322300  1
  W  W13  1  0.38901600  0.39404800  0.15586200  1
  W  W14  1  0.61098400  0.60595200  0.84413800  1
  W  W15  1  0.12319000  0.81727300  0.63677700  1
  O  O16  1  0.76398200  0.27256000  0.00315100  1
  O  O17  1  0.61595500  0.49467300  0.15597400  1
  O  O18  1  0.77765100  0.51393000  0.90656200  1
  O  O19  1  0.02982600  0.61751400  0.21715500  1
  O  O20  1  0.70168000  0.12992400  0.44094500  1
  O  O21  1  0.88344200  0.35885500  0.32028000  1
  O  O22  1  0.90396800  0.79737500  0.51342100  1
  O  O23  1  0.68382700  0.77814600  0.95105000  1
  O  O24  1  0.29832000  0.87007600  0.55905500  1
  O  O25  1  0.97017400  0.38248600  0.78284500  1
  O  O26  1  0.40344000  0.37107000  0.32951400  1
  O  O27  1  0.16882600  0.94874500  0.78641100  1
  O  O28  1  0.23601800  0.72744000  0.99684900  1
  O  O29  1  0.44132300  0.73217200  0.29858300  1
  O  O30  1  0.38404500  0.50532700  0.84402600  1
  O  O31  1  0.31617300  0.22185400  0.04895000  1
  O  O32  1  0.11655800  0.64114500  0.67972000  1
  O  O33  1  0.83117400  0.05125500  0.21358900  1
  O  O34  1  0.09603200  0.20262500  0.48657900  1
  O  O35  1  0.22234900  0.48607000  0.09343800  1
  O  O36  1  0.20802700  0.89882900  0.20999300  1
  O  O37  1  0.55867700  0.26782800  0.70141700  1
  O  O38  1  0.59656000  0.62893000  0.67048600  1
  O  O39  1  0.79197300  0.10117100  0.79000700  1
