# generated using pymatgen
data_Zr(PO3)4
_symmetry_space_group_name_H-M   'P 1'
_cell_length_a   16.17687058
_cell_length_b   16.17687058
_cell_length_c   8.81719659
_cell_angle_alpha   89.98544969
_cell_angle_beta   89.98544969
_cell_angle_gamma   129.92682331
_symmetry_Int_Tables_number   1
_chemical_formula_structural   Zr(PO3)4
_chemical_formula_sum   'Zr8 P32 O96'
_cell_volume   1769.44983426
_cell_formula_units_Z   8
loop_
 _symmetry_equiv_pos_site_id
 _symmetry_equiv_pos_as_xyz
  1  'x, y, z'
loop_
 _atom_site_type_symbol
 _atom_site_label
 _atom_site_symmetry_multiplicity
 _atom_site_fract_x
 _atom_site_fract_y
 _atom_site_fract_z
 _atom_site_occupancy
  Zr  Zr0  1  0.91489100  0.55117200  0.75061600  1
  Zr  Zr1  1  0.44882800  0.08510900  0.74938400  1
  Zr  Zr2  1  0.93222500  0.06777500  0.75000000  1
  Zr  Zr3  1  0.43076800  0.56923200  0.75000000  1
  Zr  Zr4  1  0.06777500  0.93222500  0.25000000  1
  Zr  Zr5  1  0.55117200  0.91489100  0.25061600  1
  Zr  Zr6  1  0.56923200  0.43076800  0.25000000  1
  Zr  Zr7  1  0.08510900  0.44882800  0.24938400  1
  P  P8  1  0.86814000  0.34666500  0.50418600  1
  P  P9  1  0.18325700  0.98205300  0.63411900  1
  P  P10  1  0.15151800  0.12762500  0.52510400  1
  P  P11  1  0.36726700  0.85305700  0.52706700  1
  P  P12  1  0.32548200  0.02078300  0.12824400  1
  P  P13  1  0.34962400  0.36341100  0.48920400  1
  P  P14  1  0.85305700  0.36726700  0.02706700  1
  P  P15  1  0.67451800  0.97921700  0.87175600  1
  P  P16  1  0.17642800  0.48543200  0.86379200  1
  P  P17  1  0.97921700  0.67451800  0.37175600  1
  P  P18  1  0.02078300  0.32548200  0.62824400  1
  P  P19  1  0.65333500  0.13186000  0.99581400  1
  P  P20  1  0.98205300  0.18325700  0.13411900  1
  P  P21  1  0.01794700  0.81674300  0.86588100  1
  P  P22  1  0.13186000  0.65333500  0.49581400  1
  P  P23  1  0.87237500  0.84848200  0.97489600  1
  P  P24  1  0.81674300  0.01794700  0.36588100  1
  P  P25  1  0.65037600  0.63658900  0.51079600  1
  P  P26  1  0.14694300  0.63273300  0.97293300  1
  P  P27  1  0.33227500  0.51764600  0.36860100  1
  P  P28  1  0.51456800  0.82357200  0.63620800  1
  P  P29  1  0.63658900  0.65037600  0.01079600  1
  P  P30  1  0.34666500  0.86814000  0.00418600  1
  P  P31  1  0.12762500  0.15151800  0.02510400  1
  P  P32  1  0.63273300  0.14694300  0.47293300  1
  P  P33  1  0.36341100  0.34962400  0.98920400  1
  P  P34  1  0.51764600  0.33227500  0.86860100  1
  P  P35  1  0.66772500  0.48235400  0.63139900  1
  P  P36  1  0.84848200  0.87237500  0.47489600  1
  P  P37  1  0.82357200  0.51456800  0.13620800  1
  P  P38  1  0.48235400  0.66772500  0.13139900  1
  P  P39  1  0.48543200  0.17642800  0.36379200  1
  O  O40  1  0.08569000  0.91431000  0.75000000  1
  O  O41  1  0.84805900  0.90609900  0.63156600  1
  O  O42  1  0.58512100  0.65650500  0.59322300  1
  O  O43  1  0.29968400  0.40108600  0.37869500  1
  O  O44  1  0.58663800  0.92915300  0.73716700  1
  O  O45  1  0.08248500  0.37569800  0.48436400  1
  O  O46  1  0.24041500  0.76643800  0.55299800  1
  O  O47  1  0.39949800  0.85010600  0.36791700  1
  O  O48  1  0.79615600  0.90646500  0.35914700  1
  O  O49  1  0.50459800  0.24220100  0.79247300  1
  O  O50  1  0.41487900  0.34349500  0.40677700  1
  O  O51  1  0.14807500  0.93362300  0.47908700  1
  O  O52  1  0.28012400  0.00514700  0.70784900  1
  O  O53  1  0.95188300  0.90537300  0.41273800  1
  O  O54  1  0.95851300  0.40257700  0.08067000  1
  O  O55  1  0.90537300  0.95188300  0.91273800  1
  O  O56  1  0.93362300  0.14807500  0.97908700  1
  O  O57  1  0.06637700  0.85192500  0.02091300  1
  O  O58  1  0.29858300  0.90625800  0.11837300  1
  O  O59  1  0.90609900  0.84805900  0.13156600  1
  O  O60  1  0.90625800  0.29858300  0.61837300  1
  O  O61  1  0.25393500  0.23961500  0.04860300  1
  O  O62  1  0.39787100  0.94411500  0.87042500  1
  O  O63  1  0.40257700  0.95851300  0.58067000  1
  O  O64  1  0.94411500  0.39787100  0.37042500  1
  O  O65  1  0.59742300  0.04148700  0.41933000  1
  O  O66  1  0.59807800  0.56032700  0.37557900  1
  O  O67  1  0.09374200  0.70141700  0.38162700  1
  O  O68  1  0.70141700  0.09374200  0.88162700  1
  O  O69  1  0.62430200  0.91751500  0.01563600  1
  O  O70  1  0.24220100  0.50459800  0.29247300  1
  O  O71  1  0.09390100  0.15194100  0.86843400  1
  O  O72  1  0.04811700  0.09462700  0.58726200  1
  O  O73  1  0.07084700  0.41336200  0.76283300  1
  O  O74  1  0.15194100  0.09390100  0.36843400  1
  O  O75  1  0.60050200  0.14989400  0.63208300  1
  O  O76  1  0.40275900  0.80288700  0.64098100  1
  O  O77  1  0.60212900  0.05588500  0.12957500  1
  O  O78  1  0.56032700  0.59807800  0.87557900  1
  O  O79  1  0.84781700  0.41373800  0.58268000  1
  O  O80  1  0.19711300  0.59724100  0.85901900  1
  O  O81  1  0.55710400  0.84888900  0.47690800  1
  O  O82  1  0.76988400  0.99647700  0.80997500  1
  O  O83  1  0.34349500  0.41487900  0.90677700  1
  O  O84  1  0.85010600  0.39949800  0.86791700  1
  O  O85  1  0.71987600  0.99485300  0.29215100  1
  O  O86  1  0.49540200  0.75779900  0.20752700  1
  O  O87  1  0.09353500  0.20384400  0.14085300  1
  O  O88  1  0.76038500  0.74606500  0.45139700  1
  O  O89  1  0.23961500  0.25393500  0.54860300  1
  O  O90  1  0.20384400  0.09353500  0.64085300  1
  O  O91  1  0.37386800  0.57514500  0.51720400  1
  O  O92  1  0.50415200  0.26738800  0.27558900  1
  O  O93  1  0.57122600  0.42877400  0.75000000  1
  O  O94  1  0.99485300  0.71987600  0.79215100  1
  O  O95  1  0.00514700  0.28012400  0.20784900  1
  O  O96  1  0.23011600  0.00352300  0.19002500  1
  O  O97  1  0.92915300  0.58663800  0.23716700  1
  O  O98  1  0.00352300  0.23011600  0.69002500  1
  O  O99  1  0.37569800  0.08248500  0.98436400  1
  O  O100  1  0.04148700  0.59742300  0.91933000  1
  O  O101  1  0.80288700  0.40275900  0.14098100  1
  O  O102  1  0.23356200  0.75958500  0.94700200  1
  O  O103  1  0.44289600  0.15111100  0.52309200  1
  O  O104  1  0.57514500  0.37386800  0.01720400  1
  O  O105  1  0.15218300  0.58626200  0.41732000  1
  O  O106  1  0.59891400  0.70031600  0.12130500  1
  O  O107  1  0.75958500  0.23356200  0.44700200  1
  O  O108  1  0.99647700  0.76988400  0.30997500  1
  O  O109  1  0.42877400  0.57122600  0.25000000  1
  O  O110  1  0.05588500  0.60212900  0.62957500  1
  O  O111  1  0.85192500  0.06637700  0.52091300  1
  O  O112  1  0.76643800  0.24041500  0.05299800  1
  O  O113  1  0.73261200  0.49584800  0.22441100  1
  O  O114  1  0.65650500  0.58512100  0.09322300  1
  O  O115  1  0.62613200  0.42485500  0.48279600  1
  O  O116  1  0.42485500  0.62613200  0.98279600  1
  O  O117  1  0.49584800  0.73261200  0.72441100  1
  O  O118  1  0.41373800  0.84781700  0.08268000  1
  O  O119  1  0.15111100  0.44289600  0.02309200  1
  O  O120  1  0.74606500  0.76038500  0.95139700  1
  O  O121  1  0.58626200  0.15218300  0.91732000  1
  O  O122  1  0.41336200  0.07084700  0.26283300  1
  O  O123  1  0.70031600  0.59891400  0.62130500  1
  O  O124  1  0.26738800  0.50415200  0.77558900  1
  O  O125  1  0.14989400  0.60050200  0.13208300  1
  O  O126  1  0.40192200  0.43967300  0.62442100  1
  O  O127  1  0.59724100  0.19711300  0.35901900  1
  O  O128  1  0.09462700  0.04811700  0.08726200  1
  O  O129  1  0.90646500  0.79615600  0.85914700  1
  O  O130  1  0.75779900  0.49540200  0.70752700  1
  O  O131  1  0.40108600  0.29968400  0.87869500  1
  O  O132  1  0.91431000  0.08569000  0.25000000  1
  O  O133  1  0.43967300  0.40192200  0.12442100  1
  O  O134  1  0.84888900  0.55710400  0.97690800  1
  O  O135  1  0.91751500  0.62430200  0.51563600  1
