# generated using pymatgen
data_SiO2
_symmetry_space_group_name_H-M   'P 1'
_cell_length_a   17.37358615
_cell_length_b   17.37358615
_cell_length_c   13.02581000
_cell_angle_alpha   90.00000000
_cell_angle_beta   90.00000000
_cell_angle_gamma   120.00000056
_symmetry_Int_Tables_number   1
_chemical_formula_structural   SiO2
_chemical_formula_sum   'Si24 O48'
_cell_volume   3404.97801715
_cell_formula_units_Z   24
loop_
 _symmetry_equiv_pos_site_id
 _symmetry_equiv_pos_as_xyz
  1  'x, y, z'
loop_
 _atom_site_type_symbol
 _atom_site_label
 _atom_site_symmetry_multiplicity
 _atom_site_fract_x
 _atom_site_fract_y
 _atom_site_fract_z
 _atom_site_occupancy
  Si  Si0  1  0.87416500  0.43708200  0.16666700  1
  Si  Si1  1  0.83635000  0.27614200  0.28381700  1
  Si  Si2  1  0.12583500  0.56291800  0.16666700  1
  Si  Si3  1  0.83635000  0.56020800  0.04951700  1
  Si  Si4  1  0.62016500  0.00000000  0.50000000  1
  Si  Si5  1  0.27614200  0.43979200  0.95048300  1
  Si  Si6  1  0.56291800  0.12583500  0.50000000  1
  Si  Si7  1  0.43979200  0.16365000  0.61715000  1
  Si  Si8  1  0.27614200  0.83635000  0.38285000  1
  Si  Si9  1  0.37983500  0.37983500  0.83333300  1
  Si  Si10  1  0.16365000  0.43979200  0.04951700  1
  Si  Si11  1  0.37983500  0.00000000  0.50000000  1
  Si  Si12  1  0.62016500  0.62016500  0.83333300  1
  Si  Si13  1  0.00000000  0.62016500  0.16666700  1
  Si  Si14  1  0.43708200  0.56291800  0.83333300  1
  Si  Si15  1  0.56020800  0.83635000  0.61715000  1
  Si  Si16  1  0.43708200  0.87416500  0.50000000  1
  Si  Si17  1  0.72385800  0.56020800  0.95048300  1
  Si  Si18  1  0.00000000  0.37983500  0.16666700  1
  Si  Si19  1  0.43979200  0.27614200  0.71618300  1
  Si  Si20  1  0.16365000  0.72385800  0.28381700  1
  Si  Si21  1  0.56020800  0.72385800  0.71618300  1
  Si  Si22  1  0.72385800  0.16365000  0.38285000  1
  Si  Si23  1  0.56291800  0.43708200  0.83333300  1
  O  O24  1  0.25356800  0.43175400  0.07615000  1
  O  O25  1  0.93456400  0.52973500  0.23253900  1
  O  O26  1  0.29584700  0.36228500  0.90703800  1
  O  O27  1  0.53824100  0.18135600  0.58176100  1
  O  O28  1  0.36228500  0.29584700  0.75962900  1
  O  O29  1  0.46175900  0.81864400  0.58176100  1
  O  O30  1  0.70415300  0.63771500  0.90703800  1
  O  O31  1  0.56824600  0.74643200  0.59051600  1
  O  O32  1  0.40482800  0.93456400  0.56587200  1
  O  O33  1  0.56824600  0.82181400  0.74281700  1
  O  O34  1  0.40482800  0.47026500  0.76746100  1
  O  O35  1  0.59517200  0.06543600  0.56587200  1
  O  O36  1  0.74643200  0.56824600  0.07615000  1
  O  O37  1  0.64311400  0.46175900  0.91509400  1
  O  O38  1  0.59517200  0.52973500  0.76746100  1
  O  O39  1  0.47026500  0.06543600  0.43412800  1
  O  O40  1  0.52973500  0.59517200  0.89920500  1
  O  O41  1  0.06543600  0.47026500  0.23253900  1
  O  O42  1  0.82181400  0.56824600  0.92385000  1
  O  O43  1  0.35688600  0.53824100  0.91509400  1
  O  O44  1  0.36228500  0.06643800  0.57370500  1
  O  O45  1  0.06643800  0.70415300  0.24037100  1
  O  O46  1  0.64311400  0.18135600  0.41823900  1
  O  O47  1  0.74643200  0.17818600  0.25718300  1
  O  O48  1  0.82181400  0.25356800  0.40948400  1
  O  O49  1  0.63771500  0.70415300  0.75962900  1
  O  O50  1  0.25356800  0.82181400  0.25718300  1
  O  O51  1  0.81864400  0.35688600  0.24842800  1
  O  O52  1  0.70415300  0.06643800  0.42629500  1
  O  O53  1  0.43175400  0.17818600  0.74281700  1
  O  O54  1  0.06543600  0.59517200  0.10079500  1
  O  O55  1  0.43175400  0.25356800  0.59051600  1
  O  O56  1  0.18135600  0.64311400  0.24842800  1
  O  O57  1  0.63771500  0.93356200  0.57370500  1
  O  O58  1  0.52973500  0.93456400  0.43412800  1
  O  O59  1  0.35688600  0.81864400  0.41823900  1
  O  O60  1  0.93456400  0.40482800  0.10079500  1
  O  O61  1  0.06643800  0.36228500  0.09296200  1
  O  O62  1  0.93356200  0.29584700  0.24037100  1
  O  O63  1  0.29584700  0.93356200  0.42629500  1
  O  O64  1  0.53824100  0.35688600  0.75157200  1
  O  O65  1  0.17818600  0.74643200  0.40948400  1
  O  O66  1  0.47026500  0.40482800  0.89920500  1
  O  O67  1  0.18135600  0.53824100  0.08490600  1
  O  O68  1  0.46175900  0.64311400  0.75157200  1
  O  O69  1  0.17818600  0.43175400  0.92385000  1
  O  O70  1  0.81864400  0.46175900  0.08490600  1
  O  O71  1  0.93356200  0.63771500  0.09296200  1
