# generated using pymatgen
data_CdSbS2Br
_symmetry_space_group_name_H-M   'P 1'
_cell_length_a   6.89302609
_cell_length_b   6.89302609
_cell_length_c   9.84493534
_cell_angle_alpha   88.46156772
_cell_angle_beta   88.46156772
_cell_angle_gamma   33.50688545
_symmetry_Int_Tables_number   1
_chemical_formula_structural   CdSbS2Br
_chemical_formula_sum   'Cd2 Sb2 S4 Br2'
_cell_volume   258.12512774
_cell_formula_units_Z   2
loop_
 _symmetry_equiv_pos_site_id
 _symmetry_equiv_pos_as_xyz
  1  'x, y, z'
loop_
 _atom_site_type_symbol
 _atom_site_label
 _atom_site_symmetry_multiplicity
 _atom_site_fract_x
 _atom_site_fract_y
 _atom_site_fract_z
 _atom_site_occupancy
  Cd  Cd0  1  0.00000000  0.00000000  0.00000000  1
  Cd  Cd1  1  0.00000000  0.00000000  0.50000000  1
  Sb  Sb2  1  0.71385800  0.71385800  0.68474100  1
  Sb  Sb3  1  0.28614200  0.28614200  0.31525900  1
  S  S4  1  0.08594200  0.08594200  0.73883900  1
  S  S5  1  0.64642100  0.64642100  0.44951400  1
  S  S6  1  0.35357900  0.35357900  0.55048600  1
  S  S7  1  0.91405800  0.91405800  0.26116100  1
  Br  Br8  1  0.63447800  0.63447800  0.07555500  1
  Br  Br9  1  0.36552200  0.36552200  0.92444500  1
