# generated using pymatgen
data_SiO2
_symmetry_space_group_name_H-M   'P 1'
_cell_length_a   7.65326101
_cell_length_b   7.65326101
_cell_length_c   7.65326102
_cell_angle_alpha   110.71236877
_cell_angle_beta   110.71236877
_cell_angle_gamma   110.71236246
_symmetry_Int_Tables_number   1
_chemical_formula_structural   SiO2
_chemical_formula_sum   'Si6 O12'
_cell_volume   328.26624169
_cell_formula_units_Z   6
loop_
 _symmetry_equiv_pos_site_id
 _symmetry_equiv_pos_as_xyz
  1  'x, y, z'
loop_
 _atom_site_type_symbol
 _atom_site_label
 _atom_site_symmetry_multiplicity
 _atom_site_fract_x
 _atom_site_fract_y
 _atom_site_fract_z
 _atom_site_occupancy
  Si  Si0  1  0.27026100  0.05689900  0.78551500  1
  Si  Si1  1  0.05689900  0.78551500  0.27026100  1
  Si  Si2  1  0.72973900  0.94310100  0.21448500  1
  Si  Si3  1  0.94310100  0.21448500  0.72973900  1
  Si  Si4  1  0.78551500  0.27026100  0.05689900  1
  Si  Si5  1  0.21448500  0.72973900  0.94310100  1
  O  O6  1  0.77645500  0.02941100  0.46301400  1
  O  O7  1  0.84285300  0.80323300  0.16487300  1
  O  O8  1  0.53698600  0.22354500  0.97058900  1
  O  O9  1  0.22354500  0.97058900  0.53698600  1
  O  O10  1  0.83512700  0.15714700  0.19676700  1
  O  O11  1  0.19676700  0.83512700  0.15714700  1
  O  O12  1  0.80323300  0.16487300  0.84285300  1
  O  O13  1  0.15714700  0.19676700  0.83512700  1
  O  O14  1  0.16487300  0.84285300  0.80323300  1
  O  O15  1  0.97058900  0.53698600  0.22354600  1
  O  O16  1  0.02941100  0.46301400  0.77645400  1
  O  O17  1  0.46301400  0.77645400  0.02941100  1
