# generated using pymatgen
data_SiO2
_symmetry_space_group_name_H-M   'P 1'
_cell_length_a   18.13657767
_cell_length_b   18.13657767
_cell_length_c   18.13657767
_cell_angle_alpha   109.47122063
_cell_angle_beta   109.47122063
_cell_angle_gamma   109.47122063
_symmetry_Int_Tables_number   1
_chemical_formula_structural   SiO2
_chemical_formula_sum   'Si48 O96'
_cell_volume   4592.44675251
_cell_formula_units_Z   48
loop_
 _symmetry_equiv_pos_site_id
 _symmetry_equiv_pos_as_xyz
  1  'x, y, z'
loop_
 _atom_site_type_symbol
 _atom_site_label
 _atom_site_symmetry_multiplicity
 _atom_site_fract_x
 _atom_site_fract_y
 _atom_site_fract_z
 _atom_site_occupancy
  Si  Si0  1  0.16811400  0.15461600  0.85791300  1
  Si  Si1  1  0.15461600  0.85791300  0.16811400  1
  Si  Si2  1  0.70329700  0.85791300  0.18979900  1
  Si  Si3  1  0.51349900  0.70329700  0.34538400  1
  Si  Si4  1  0.68979900  0.83188600  0.48650100  1
  Si  Si5  1  0.34538400  0.51349900  0.70329700  1
  Si  Si6  1  0.84538400  0.20329700  0.01349900  1
  Si  Si7  1  0.20329700  0.01349900  0.84538400  1
  Si  Si8  1  0.98650100  0.33188600  0.18979900  1
  Si  Si9  1  0.83188600  0.84538400  0.14208700  1
  Si  Si10  1  0.85791300  0.16811400  0.15461600  1
  Si  Si11  1  0.84538400  0.14208700  0.83188600  1
  Si  Si12  1  0.65461600  0.48650100  0.29670300  1
  Si  Si13  1  0.29670300  0.14208700  0.81020100  1
  Si  Si14  1  0.65461600  0.66811400  0.35791300  1
  Si  Si15  1  0.98650100  0.15461600  0.79670300  1
  Si  Si16  1  0.64208700  0.79670300  0.31020100  1
  Si  Si17  1  0.33188600  0.64208700  0.34538400  1
  Si  Si18  1  0.81020100  0.01349900  0.66811400  1
  Si  Si19  1  0.51349900  0.31020100  0.16811400  1
  Si  Si20  1  0.31020100  0.16811400  0.51349900  1
  Si  Si21  1  0.29670300  0.65461600  0.48650100  1
  Si  Si22  1  0.01349900  0.84538400  0.20329700  1
  Si  Si23  1  0.33188600  0.18979900  0.98650100  1
  Si  Si24  1  0.35791300  0.20329700  0.68979900  1
  Si  Si25  1  0.15461600  0.79670300  0.98650100  1
  Si  Si26  1  0.20329700  0.68979900  0.35791300  1
  Si  Si27  1  0.68979900  0.35791300  0.20329700  1
  Si  Si28  1  0.70329700  0.34538400  0.51349900  1
  Si  Si29  1  0.34538400  0.33188600  0.64208700  1
  Si  Si30  1  0.48650100  0.68979900  0.83188600  1
  Si  Si31  1  0.18979900  0.98650100  0.33188600  1
  Si  Si32  1  0.16811400  0.51349900  0.31020100  1
  Si  Si33  1  0.81020100  0.29670300  0.14208700  1
  Si  Si34  1  0.83188600  0.48650100  0.68979900  1
  Si  Si35  1  0.85791300  0.18979900  0.70329700  1
  Si  Si36  1  0.14208700  0.83188600  0.84538400  1
  Si  Si37  1  0.66811400  0.35791300  0.65461600  1
  Si  Si38  1  0.79670300  0.31020100  0.64208700  1
  Si  Si39  1  0.35791300  0.65461600  0.66811400  1
  Si  Si40  1  0.64208700  0.34538400  0.33188600  1
  Si  Si41  1  0.31020100  0.64208700  0.79670300  1
  Si  Si42  1  0.48650100  0.29670300  0.65461600  1
  Si  Si43  1  0.79670300  0.98650100  0.15461600  1
  Si  Si44  1  0.01349900  0.66811400  0.81020100  1
  Si  Si45  1  0.66811400  0.81020100  0.01349900  1
  Si  Si46  1  0.14208700  0.81020100  0.29670300  1
  Si  Si47  1  0.18979900  0.70329700  0.85791300  1
  O  O48  1  0.78370600  0.45292100  0.58060400  1
  O  O49  1  0.83078500  0.12768300  0.04707900  1
  O  O50  1  0.75000000  0.96488600  0.21488600  1
  O  O51  1  0.21488600  0.96488600  0.25000000  1
  O  O52  1  0.37231700  0.66921500  0.45292100  1
  O  O53  1  0.03511400  0.78511400  0.25000000  1
  O  O54  1  0.25000000  0.03511400  0.78511400  1
  O  O55  1  0.16921500  0.79689800  0.21629400  1
  O  O56  1  0.59160500  0.75000000  0.90839500  1
  O  O57  1  0.08060400  0.95292100  0.28370600  1
  O  O58  1  0.33078500  0.54707900  0.62768300  1
  O  O59  1  0.53511400  0.75000000  0.28511400  1
  O  O60  1  0.18321000  0.84160500  0.09160500  1
  O  O61  1  0.20310200  0.78370600  0.83078500  1
  O  O62  1  0.96488600  0.25000000  0.21488600  1
  O  O63  1  0.58060400  0.29689800  0.12768300  1
  O  O64  1  0.95292100  0.28370600  0.08060400  1
  O  O65  1  0.66921500  0.71629400  0.29689800  1
  O  O66  1  0.78511400  0.25000000  0.03511400  1
  O  O67  1  0.04707900  0.71629400  0.91939600  1
  O  O68  1  0.25000000  0.09160500  0.40839500  1
  O  O69  1  0.28370600  0.08060400  0.95292100  1
  O  O70  1  0.87231700  0.41939600  0.70310200  1
  O  O71  1  0.54707900  0.41939600  0.21629400  1
  O  O72  1  0.15839500  0.75000000  0.34160500  1
  O  O73  1  0.21629400  0.16921500  0.79689800  1
  O  O74  1  0.65839500  0.31679000  0.40839500  1
  O  O75  1  0.96488600  0.21488600  0.75000000  1
  O  O76  1  0.71629400  0.91939600  0.04707900  1
  O  O77  1  0.84160500  0.25000000  0.65839500  1
  O  O78  1  0.04707900  0.83078500  0.12768300  1
  O  O79  1  0.41939600  0.21629400  0.54707900  1
  O  O80  1  0.28511400  0.53511400  0.75000000  1
  O  O81  1  0.91939600  0.37231700  0.20310200  1
  O  O82  1  0.46488600  0.71488600  0.75000000  1
  O  O83  1  0.33078500  0.28370600  0.70310200  1
  O  O84  1  0.78511400  0.03511400  0.75000000  1
  O  O85  1  0.21488600  0.75000000  0.96488600  1
  O  O86  1  0.34160500  0.68321000  0.59160500  1
  O  O87  1  0.75000000  0.78511400  0.03511400  1
  O  O88  1  0.59160500  0.34160500  0.68321000  1
  O  O89  1  0.25000000  0.53511400  0.28511400  1
  O  O90  1  0.40839500  0.65839500  0.31679000  1
  O  O91  1  0.45292100  0.37231700  0.66921500  1
  O  O92  1  0.54707900  0.62768300  0.33078500  1
  O  O93  1  0.25000000  0.21488600  0.96488600  1
  O  O94  1  0.46488600  0.25000000  0.71488600  1
  O  O95  1  0.83078500  0.20310200  0.78370600  1
  O  O96  1  0.81679000  0.15839500  0.90839500  1
  O  O97  1  0.21629400  0.54707900  0.41939600  1
  O  O98  1  0.90839500  0.81679000  0.15839500  1
  O  O99  1  0.45292100  0.58060400  0.78370600  1
  O  O100  1  0.15839500  0.90839500  0.81679000  1
  O  O101  1  0.25000000  0.65839500  0.84160500  1
  O  O102  1  0.71488600  0.75000000  0.46488600  1
  O  O103  1  0.78370600  0.83078500  0.20310200  1
  O  O104  1  0.28370600  0.70310200  0.33078500  1
  O  O105  1  0.58060400  0.78370600  0.45292100  1
  O  O106  1  0.41939600  0.70310200  0.87231700  1
  O  O107  1  0.20310200  0.91939600  0.37231700  1
  O  O108  1  0.25000000  0.71488600  0.46488600  1
  O  O109  1  0.12768300  0.04707900  0.83078500  1
  O  O110  1  0.29689800  0.66921500  0.71629400  1
  O  O111  1  0.12768300  0.58060400  0.29689800  1
  O  O112  1  0.37231700  0.20310200  0.91939600  1
  O  O113  1  0.75000000  0.90839500  0.59160500  1
  O  O114  1  0.91939600  0.04707900  0.71629400  1
  O  O115  1  0.79689800  0.21629400  0.16921500  1
  O  O116  1  0.66921500  0.45292100  0.37231700  1
  O  O117  1  0.79689800  0.08060400  0.62768300  1
  O  O118  1  0.75000000  0.34160500  0.15839500  1
  O  O119  1  0.75000000  0.28511400  0.53511400  1
  O  O120  1  0.90839500  0.59160500  0.75000000  1
  O  O121  1  0.09160500  0.18321000  0.84160500  1
  O  O122  1  0.95292100  0.16921500  0.87231700  1
  O  O123  1  0.87231700  0.95292100  0.16921500  1
  O  O124  1  0.62768300  0.33078500  0.54707900  1
  O  O125  1  0.03511400  0.75000000  0.78511400  1
  O  O126  1  0.16921500  0.87231700  0.95292100  1
  O  O127  1  0.28511400  0.25000000  0.53511400  1
  O  O128  1  0.29689800  0.12768300  0.58060400  1
  O  O129  1  0.62768300  0.79689800  0.08060400  1
  O  O130  1  0.34160500  0.15839500  0.75000000  1
  O  O131  1  0.31679000  0.40839500  0.65839500  1
  O  O132  1  0.70310200  0.87231700  0.41939600  1
  O  O133  1  0.84160500  0.09160500  0.18321000  1
  O  O134  1  0.68321000  0.59160500  0.34160500  1
  O  O135  1  0.70310200  0.33078500  0.28370600  1
  O  O136  1  0.08060400  0.62768300  0.79689800  1
  O  O137  1  0.40839500  0.25000000  0.09160500  1
  O  O138  1  0.75000000  0.46488600  0.71488600  1
  O  O139  1  0.65839500  0.84160500  0.25000000  1
  O  O140  1  0.71629400  0.29689800  0.66921500  1
  O  O141  1  0.53511400  0.28511400  0.25000000  1
  O  O142  1  0.09160500  0.40839500  0.25000000  1
  O  O143  1  0.71488600  0.46488600  0.25000000  1
