# generated using pymatgen
data_K3NpO2F5
_symmetry_space_group_name_H-M   'P 1'
_cell_length_a   11.32491988
_cell_length_b   11.32491988
_cell_length_c   11.32491988
_cell_angle_alpha   131.34671679
_cell_angle_beta   131.34671679
_cell_angle_gamma   71.26279455
_symmetry_Int_Tables_number   1
_chemical_formula_structural   K3NpO2F5
_chemical_formula_sum   'K12 Np4 O8 F20'
_cell_volume   801.31490335
_cell_formula_units_Z   4
loop_
 _symmetry_equiv_pos_site_id
 _symmetry_equiv_pos_as_xyz
  1  'x, y, z'
loop_
 _atom_site_type_symbol
 _atom_site_label
 _atom_site_symmetry_multiplicity
 _atom_site_fract_x
 _atom_site_fract_y
 _atom_site_fract_z
 _atom_site_occupancy
  K  K0  1  0.75000000  0.25000000  0.50000000  1
  K  K1  1  0.37500000  0.91675100  0.04175100  1
  K  K2  1  0.37500000  0.33324900  0.45824900  1
  K  K3  1  0.87500000  0.91675100  0.54175100  1
  K  K4  1  0.87500000  0.33324900  0.95824900  1
  K  K5  1  0.50000000  0.50000000  0.00000000  1
  K  K6  1  0.08324900  0.12500000  0.45824900  1
  K  K7  1  0.66675100  0.62500000  0.54175100  1
  K  K8  1  0.66675100  0.12500000  0.04175100  1
  K  K9  1  0.25000000  0.75000000  0.50000000  1
  K  K10  1  0.08324900  0.62500000  0.95824900  1
  K  K11  1  0.00000000  0.00000000  0.00000000  1
  Np  Np12  1  0.27205800  0.27205800  0.00000000  1
  Np  Np13  1  0.47794200  0.97794200  0.50000000  1
  Np  Np14  1  0.72794200  0.72794200  0.00000000  1
  Np  Np15  1  0.02205800  0.52205800  0.50000000  1
  O  O16  1  0.47666200  0.78078000  0.30411800  1
  O  O17  1  0.92254400  0.72666200  0.19588200  1
  O  O18  1  0.82745600  0.52333800  0.30411800  1
  O  O19  1  0.21922000  0.52333800  0.69588200  1
  O  O20  1  0.53078000  0.72666200  0.80411800  1
  O  O21  1  0.27333800  0.46922000  0.19588200  1
  O  O22  1  0.47666200  0.17254400  0.69588200  1
  O  O23  1  0.27333800  0.07745600  0.80411800  1
  F  F24  1  0.22382800  0.36979000  0.85403700  1
  F  F25  1  0.28993400  0.02070900  0.26922500  1
  F  F26  1  0.51575300  0.36979000  0.14596300  1
  F  F27  1  0.46006600  0.22929100  0.23077500  1
  F  F28  1  0.14640000  0.14640000  0.00000000  1
  F  F29  1  0.97929100  0.71006600  0.73077500  1
  F  F30  1  0.63021000  0.77617200  0.14596300  1
  F  F31  1  0.60360000  0.10360000  0.50000000  1
  F  F32  1  0.77070900  0.53993400  0.76922500  1
  F  F33  1  0.77070900  0.00148400  0.23077500  1
  F  F34  1  0.52617200  0.88021000  0.64596300  1
  F  F35  1  0.11979000  0.47382800  0.35403700  1
  F  F36  1  0.85360000  0.85360000  0.00000000  1
  F  F37  1  0.23424700  0.88021000  0.35403700  1
  F  F38  1  0.89640000  0.39640000  0.50000000  1
  F  F39  1  0.75148400  0.02070900  0.73077500  1
  F  F40  1  0.99851600  0.22929100  0.76922500  1
  F  F41  1  0.63021000  0.48424700  0.85403700  1
  F  F42  1  0.11979000  0.76575300  0.64596300  1
  F  F43  1  0.97929100  0.24851600  0.26922500  1
