# generated using pymatgen
data_Na2S2O3
_symmetry_space_group_name_H-M   'P 1'
_cell_length_a   8.07325900
_cell_length_b   10.80937400
_cell_length_c   16.08266800
_cell_angle_alpha   90.00000000
_cell_angle_beta   90.00000000
_cell_angle_gamma   90.00000000
_symmetry_Int_Tables_number   1
_chemical_formula_structural   Na2S2O3
_chemical_formula_sum   'Na24 S24 O36'
_cell_volume   1403.48419298
_cell_formula_units_Z   12
loop_
 _symmetry_equiv_pos_site_id
 _symmetry_equiv_pos_as_xyz
  1  'x, y, z'
loop_
 _atom_site_type_symbol
 _atom_site_label
 _atom_site_symmetry_multiplicity
 _atom_site_fract_x
 _atom_site_fract_y
 _atom_site_fract_z
 _atom_site_occupancy
  Na  Na0  1  0.70259600  0.98540700  0.87866700  1
  Na  Na1  1  0.78865000  0.45564300  0.86325500  1
  Na  Na2  1  0.94479300  0.75193800  0.01592300  1
  Na  Na3  1  0.78865000  0.95564300  0.63674500  1
  Na  Na4  1  0.95163500  0.74997000  0.45487900  1
  Na  Na5  1  0.58463000  0.25908400  0.23361100  1
  Na  Na6  1  0.95163500  0.24997000  0.04512100  1
  Na  Na7  1  0.94479300  0.25193800  0.48407700  1
  Na  Na8  1  0.28865000  0.04435700  0.36325500  1
  Na  Na9  1  0.08463000  0.74091600  0.76638900  1
  Na  Na10  1  0.08463000  0.24091600  0.73361100  1
  Na  Na11  1  0.88152400  0.48653800  0.24960600  1
  Na  Na12  1  0.20259600  0.51459300  0.37866700  1
  Na  Na13  1  0.28865000  0.54435700  0.13674500  1
  Na  Na14  1  0.20259600  0.01459300  0.12133300  1
  Na  Na15  1  0.45163500  0.75003000  0.95487900  1
  Na  Na16  1  0.38152400  0.01346200  0.74960600  1
  Na  Na17  1  0.38152400  0.51346200  0.75039400  1
  Na  Na18  1  0.45163500  0.25003000  0.54512100  1
  Na  Na19  1  0.44479300  0.74806200  0.51592300  1
  Na  Na20  1  0.70259600  0.48540700  0.62133300  1
  Na  Na21  1  0.44479300  0.24806200  0.98407700  1
  Na  Na22  1  0.58463000  0.75908400  0.26638900  1
  Na  Na23  1  0.88152400  0.98653800  0.25039400  1
  S  S24  1  0.66178000  0.22125500  0.73914500  1
  S  S25  1  0.16178000  0.27874500  0.23914500  1
  S  S26  1  0.23176800  0.98490700  0.93355900  1
  S  S27  1  0.63556600  0.12605400  0.41120500  1
  S  S28  1  0.06646200  0.99436500  0.83872400  1
  S  S29  1  0.45640000  0.27470400  0.80312700  1
  S  S30  1  0.06646200  0.49436500  0.66127600  1
  S  S31  1  0.95640000  0.22529600  0.30312700  1
  S  S32  1  0.73176800  0.51509300  0.43355900  1
  S  S33  1  0.16178000  0.77874500  0.26085500  1
  S  S34  1  0.66178000  0.72125500  0.76085500  1
  S  S35  1  0.64714600  0.44050700  0.07746700  1
  S  S36  1  0.73176800  0.01509300  0.06644100  1
  S  S37  1  0.23176800  0.48490700  0.56644100  1
  S  S38  1  0.45640000  0.77470400  0.69687300  1
  S  S39  1  0.64714600  0.94050700  0.42253300  1
  S  S40  1  0.13556600  0.87394600  0.58879500  1
  S  S41  1  0.56646200  0.00563500  0.16127600  1
  S  S42  1  0.14714600  0.05949300  0.57746700  1
  S  S43  1  0.13556600  0.37394600  0.91120500  1
  S  S44  1  0.95640000  0.72529600  0.19687300  1
  S  S45  1  0.56646200  0.50563500  0.33872400  1
  S  S46  1  0.63556600  0.62605400  0.08879500  1
  S  S47  1  0.14714600  0.55949300  0.92253300  1
  O  O48  1  0.81004300  0.77465200  0.71942800  1
  O  O49  1  0.22510800  0.60075700  0.51649300  1
  O  O50  1  0.15161300  0.23567300  0.15176400  1
  O  O51  1  0.98726700  0.11461100  0.60704100  1
  O  O52  1  0.66809900  0.08218000  0.74255300  1
  O  O53  1  0.67473300  0.40586400  0.98930000  1
  O  O54  1  0.67473300  0.90586400  0.51070000  1
  O  O55  1  0.66809900  0.58218000  0.75744700  1
  O  O56  1  0.28442200  0.60938400  0.86976400  1
  O  O57  1  0.17473300  0.09413600  0.48930000  1
  O  O58  1  0.31004300  0.72534800  0.21942800  1
  O  O59  1  0.48726700  0.38538900  0.10704100  1
  O  O60  1  0.28442200  0.10938400  0.63023600  1
  O  O61  1  0.89909800  0.53311700  0.39626000  1
  O  O62  1  0.89909800  0.03311700  0.10374000  1
  O  O63  1  0.78442200  0.39061600  0.13023600  1
  O  O64  1  0.17473300  0.59413600  0.01070000  1
  O  O65  1  0.16809900  0.41782000  0.24255300  1
  O  O66  1  0.69256500  0.12271900  0.01168000  1
  O  O67  1  0.69256500  0.62271900  0.48832000  1
  O  O68  1  0.72510800  0.39924300  0.48350700  1
  O  O69  1  0.15161300  0.73567300  0.34823600  1
  O  O70  1  0.31004300  0.22534800  0.28057200  1
  O  O71  1  0.72510800  0.89924300  0.01649300  1
  O  O72  1  0.19256500  0.37728100  0.51168000  1
  O  O73  1  0.39909800  0.46688300  0.60374000  1
  O  O74  1  0.16809900  0.91782000  0.25744700  1
  O  O75  1  0.65161300  0.76432700  0.84823600  1
  O  O76  1  0.19256500  0.87728100  0.98832000  1
  O  O77  1  0.22510800  0.10075700  0.98350700  1
  O  O78  1  0.39909800  0.96688300  0.89626000  1
  O  O79  1  0.65161300  0.26432700  0.65176400  1
  O  O80  1  0.48726700  0.88538900  0.39295900  1
  O  O81  1  0.78442200  0.89061600  0.36976400  1
  O  O82  1  0.98726700  0.61461100  0.89295900  1
  O  O83  1  0.81004300  0.27465200  0.78057200  1
