# generated using pymatgen
data_K6Mo10O33
_symmetry_space_group_name_H-M   'P 1'
_cell_length_a   7.85670500
_cell_length_b   12.40418187
_cell_length_c   17.54814246
_cell_angle_alpha   86.52049700
_cell_angle_beta   77.39672352
_cell_angle_gamma   74.37229013
_symmetry_Int_Tables_number   1
_chemical_formula_structural   K6Mo10O33
_chemical_formula_sum   'K12 Mo20 O66'
_cell_volume   1607.26300105
_cell_formula_units_Z   2
loop_
 _symmetry_equiv_pos_site_id
 _symmetry_equiv_pos_as_xyz
  1  'x, y, z'
loop_
 _atom_site_type_symbol
 _atom_site_label
 _atom_site_symmetry_multiplicity
 _atom_site_fract_x
 _atom_site_fract_y
 _atom_site_fract_z
 _atom_site_occupancy
  K  K0  1  0.49301900  0.73758700  0.26788700  1
  K  K1  1  0.49785200  0.27138100  0.72915000  1
  K  K2  1  0.22715100  0.77230200  0.76167400  1
  K  K3  1  0.77290400  0.23622900  0.24028600  1
  K  K4  1  0.65589400  0.76000100  0.98876000  1
  K  K5  1  0.97419300  0.27343400  0.75214700  1
  K  K6  1  0.72871900  0.77166500  0.75509300  1
  K  K7  1  0.88506000  0.73917000  0.47539400  1
  K  K8  1  0.12786900  0.25492700  0.52003900  1
  K  K9  1  0.35226200  0.24349400  0.01693600  1
  K  K10  1  0.02117900  0.73253800  0.24642100  1
  K  K11  1  0.26070200  0.23725200  0.24791100  1
  Mo  Mo12  1  0.67206900  0.48122700  0.57778600  1
  Mo  Mo13  1  0.43878300  0.01000900  0.60738900  1
  Mo  Mo14  1  0.82379300  0.33285600  0.99359200  1
  Mo  Mo15  1  0.77541200  0.47326700  0.39019500  1
  Mo  Mo16  1  0.34627000  0.51570500  0.41238700  1
  Mo  Mo17  1  0.56169300  0.98950100  0.39262800  1
  Mo  Mo18  1  0.67960600  0.16990700  0.49085900  1
  Mo  Mo19  1  0.05963200  0.99405500  0.39402400  1
  Mo  Mo20  1  0.44852100  0.49580800  0.10707800  1
  Mo  Mo21  1  0.17791500  0.67296900  0.00538500  1
  Mo  Mo22  1  0.24758200  0.98310800  0.92092100  1
  Mo  Mo23  1  0.94083100  0.00652300  0.60596200  1
  Mo  Mo24  1  0.94391200  0.50022000  0.10663900  1
  Mo  Mo25  1  0.76480500  0.02420300  0.08783000  1
  Mo  Mo26  1  0.19497700  0.52633000  0.61732100  1
  Mo  Mo27  1  0.32034700  0.83019600  0.50904000  1
  Mo  Mo28  1  0.17536300  0.97577300  0.10895400  1
  Mo  Mo29  1  0.05677100  0.50580300  0.89268500  1
  Mo  Mo30  1  0.55223100  0.50919700  0.89208900  1
  Mo  Mo31  1  0.80718600  0.03252200  0.88312700  1
  O  O32  1  0.54108200  0.49419400  0.48177300  1
  O  O33  1  0.29986800  0.97439400  0.41437600  1
  O  O34  1  0.03087000  0.62049200  0.68164600  1
  O  O35  1  0.03473400  0.39111800  0.98823900  1
  O  O36  1  0.98114000  0.63419300  0.84769000  1
  O  O37  1  0.02611900  0.99862500  0.01700300  1
  O  O38  1  0.54831800  0.62115400  0.82676600  1
  O  O39  1  0.57362200  0.49570000  0.33713900  1
  O  O40  1  0.08730200  0.86722400  0.34834700  1
  O  O41  1  0.27646600  0.52479900  0.91644200  1
  O  O42  1  0.46910700  0.11138800  0.49960000  1
  O  O43  1  0.83708600  0.23647400  0.07076900  1
  O  O44  1  0.91595900  0.13409800  0.64997900  1
  O  O45  1  0.31257300  0.74878500  0.59355200  1
  O  O46  1  0.17779200  0.57175200  0.51549500  1
  O  O47  1  0.11460200  0.75973400  0.08714500  1
  O  O48  1  0.93952000  0.11040900  0.48865000  1
  O  O49  1  0.44969600  0.38360800  0.17195800  1
  O  O50  1  0.58907100  0.39286200  0.83365500  1
  O  O51  1  0.92131200  0.00241800  0.16235400  1
  O  O52  1  0.22085800  0.98908100  0.58265400  1
  O  O53  1  0.61081100  0.26934500  0.56624400  1
  O  O54  1  0.70843200  0.89757500  0.09388400  1
  O  O55  1  0.21329700  0.10426900  0.12394600  1
  O  O56  1  0.93826600  0.90958900  0.68221800  1
  O  O57  1  0.53260700  0.88677600  0.50051400  1
  O  O58  1  0.70699200  0.12235800  0.81591700  1
  O  O59  1  0.71256900  0.61018100  0.58703600  1
  O  O60  1  0.16131500  0.76901800  0.92821500  1
  O  O61  1  0.42019500  0.50810000  0.64153400  1
  O  O62  1  0.72519600  0.47998300  0.08277100  1
  O  O63  1  0.27627800  0.88078200  0.17399300  1
  O  O64  1  0.76878700  0.39500300  0.64789200  1
  O  O65  1  0.06486700  0.09251200  0.31916900  1
  O  O66  1  0.86190400  0.42404000  0.48700900  1
  O  O67  1  0.33556200  0.12544900  0.66896700  1
  O  O68  1  0.68124100  0.25227600  0.40691300  1
  O  O69  1  0.15366500  0.40902700  0.81686800  1
  O  O70  1  0.38604500  0.73216500  0.43294700  1
  O  O71  1  0.21410700  0.60797900  0.35559800  1
  O  O72  1  0.82763700  0.60179900  0.37224800  1
  O  O73  1  0.66400800  0.87398900  0.33103400  1
  O  O74  1  0.78014600  0.01111900  0.41672100  1
  O  O75  1  0.30262200  0.11054800  0.90825300  1
  O  O76  1  0.57998300  0.11918500  0.14355600  1
  O  O77  1  0.50892700  0.10312200  0.33046600  1
  O  O78  1  0.48865000  0.89615000  0.66974100  1
  O  O79  1  0.70021800  0.02562100  0.58680200  1
  O  O80  1  0.96785800  0.61315800  0.01073300  1
  O  O81  1  0.77595300  0.90038400  0.87278800  1
  O  O82  1  0.20873400  0.51770600  0.08629200  1
  O  O83  1  0.05683900  0.01240100  0.85747100  1
  O  O84  1  0.35173200  0.92570500  0.01151700  1
  O  O85  1  0.93807000  0.37443400  0.32763700  1
  O  O86  1  0.43835300  0.61472700  0.99686600  1
  O  O87  1  0.41178400  0.61177800  0.16577000  1
  O  O88  1  0.56265100  0.39201200  0.00197800  1
  O  O89  1  0.40879800  0.89174200  0.85291000  1
  O  O90  1  0.15261800  0.39431100  0.63132400  1
  O  O91  1  0.79260000  0.48845600  0.91251100  1
  O  O92  1  0.02048200  0.37329200  0.15339700  1
  O  O93  1  0.69261700  0.07911900  0.98500000  1
  O  O94  1  0.29579000  0.38857200  0.40907300  1
  O  O95  1  0.88298600  0.24827500  0.91093100  1
  O  O96  1  0.05891900  0.89093800  0.51137700  1
  O  O97  1  0.84691500  0.59964400  0.18046100  1
