# generated using pymatgen
data_V2CdO10
_symmetry_space_group_name_H-M   'P 1'
_cell_length_a   8.49409459
_cell_length_b   8.49409459
_cell_length_c   7.00083199
_cell_angle_alpha   70.72820539
_cell_angle_beta   70.72820539
_cell_angle_gamma   75.94416856
_symmetry_Int_Tables_number   1
_chemical_formula_structural   V2CdO10
_chemical_formula_sum   'V4 Cd2 O20'
_cell_volume   444.97142625
_cell_formula_units_Z   2
loop_
 _symmetry_equiv_pos_site_id
 _symmetry_equiv_pos_as_xyz
  1  'x, y, z'
loop_
 _atom_site_type_symbol
 _atom_site_label
 _atom_site_symmetry_multiplicity
 _atom_site_fract_x
 _atom_site_fract_y
 _atom_site_fract_z
 _atom_site_occupancy
  V  V0  1  0.61060200  0.67665700  0.45849100  1
  V  V1  1  0.67665700  0.61060200  0.95849100  1
  V  V2  1  0.88946000  0.82491500  0.05095900  1
  V  V3  1  0.82491500  0.88946000  0.55095900  1
  Cd  Cd4  1  0.25175600  0.75279000  0.25091600  1
  Cd  Cd5  1  0.75279000  0.25175600  0.75091600  1
  O  O6  1  0.41666100  0.76973300  0.43769400  1
  O  O7  1  0.76973300  0.41666100  0.93769400  1
  O  O8  1  0.46899200  0.60517300  0.08893000  1
  O  O9  1  0.60517300  0.46899200  0.58893000  1
  O  O10  1  0.76920600  0.85141600  0.32501000  1
  O  O11  1  0.85141600  0.76920600  0.82501000  1
  O  O12  1  0.73219400  0.64812700  0.18536600  1
  O  O13  1  0.64812700  0.73219400  0.68536600  1
  O  O14  1  0.03284800  0.89233100  0.42179600  1
  O  O15  1  0.89233100  0.03284800  0.92179600  1
  O  O16  1  0.08474500  0.73415600  0.06818800  1
  O  O17  1  0.73415600  0.08474500  0.56818800  1
  O  O18  1  0.34291100  0.06371000  0.02021800  1
  O  O19  1  0.06371000  0.34291100  0.52021800  1
  O  O20  1  0.14277200  0.27213900  0.03009500  1
  O  O21  1  0.27213900  0.14277300  0.53009500  1
  O  O22  1  0.16075000  0.44520800  0.47625800  1
  O  O23  1  0.44520800  0.16075000  0.97625800  1
  O  O24  1  0.36753200  0.24481300  0.48328200  1
  O  O25  1  0.24481300  0.36753200  0.98328200  1
