# generated using pymatgen
data_PH9C3S2NClO4
_symmetry_space_group_name_H-M   'P 1'
_cell_length_a   22.59344000
_cell_length_b   5.75249500
_cell_length_c   9.74786070
_cell_angle_alpha   57.23021828
_cell_angle_beta   90.00000000
_cell_angle_gamma   90.00000000
_symmetry_Int_Tables_number   1
_chemical_formula_structural   PH9C3S2NClO4
_chemical_formula_sum   'P4 H36 C12 S8 N4 Cl4 O16'
_cell_volume   1065.28934460
_cell_formula_units_Z   4
loop_
 _symmetry_equiv_pos_site_id
 _symmetry_equiv_pos_as_xyz
  1  'x, y, z'
loop_
 _atom_site_type_symbol
 _atom_site_label
 _atom_site_symmetry_multiplicity
 _atom_site_fract_x
 _atom_site_fract_y
 _atom_site_fract_z
 _atom_site_occupancy
  P  P0  1  0.42478700  0.72645400  0.79585800  1
  P  P1  1  0.07521300  0.72645400  0.29585800  1
  P  P2  1  0.57521300  0.27354600  0.20414200  1
  P  P3  1  0.92478700  0.27354600  0.70414200  1
  H  H4  1  0.91129200  0.38276700  0.43419500  1
  H  H5  1  0.56824000  0.03647900  0.75007000  1
  H  H6  1  0.28916400  0.63157100  0.22585400  1
  H  H7  1  0.93176000  0.03647900  0.25007000  1
  H  H8  1  0.84859700  0.51321600  0.48552900  1
  H  H9  1  0.25892100  0.80769200  0.78697400  1
  H  H10  1  0.64362900  0.14682800  0.06800100  1
  H  H11  1  0.15140300  0.48678400  0.51447100  1
  H  H12  1  0.75269600  0.05064000  0.42842200  1
  H  H13  1  0.46647300  0.74200100  0.44522400  1
  H  H14  1  0.25269600  0.94936000  0.07157800  1
  H  H15  1  0.78916400  0.36842900  0.27414600  1
  H  H16  1  0.24730400  0.94936000  0.57157800  1
  H  H17  1  0.60416400  0.35526400  0.59776300  1
  H  H18  1  0.41129200  0.61723300  0.06580500  1
  H  H19  1  0.24107900  0.80769200  0.28697400  1
  H  H20  1  0.03352700  0.74200100  0.94522400  1
  H  H21  1  0.35637100  0.85317200  0.93199900  1
  H  H22  1  0.96647300  0.25799900  0.05477600  1
  H  H23  1  0.10416400  0.64473600  0.90223700  1
  H  H24  1  0.75892100  0.19230800  0.71302600  1
  H  H25  1  0.71083600  0.36842900  0.77414600  1
  H  H26  1  0.21083600  0.63157100  0.72585400  1
  H  H27  1  0.65140300  0.51321600  0.98552900  1
  H  H28  1  0.58870800  0.38276700  0.93419500  1
  H  H29  1  0.39583600  0.64473600  0.40223700  1
  H  H30  1  0.74107900  0.19230800  0.21302600  1
  H  H31  1  0.43176000  0.96352100  0.24993000  1
  H  H32  1  0.14362900  0.85317200  0.43199900  1
  H  H33  1  0.74730400  0.05064000  0.92842200  1
  H  H34  1  0.53352700  0.25799900  0.55477600  1
  H  H35  1  0.85637100  0.14682800  0.56800100  1
  H  H36  1  0.08870800  0.61723300  0.56580500  1
  H  H37  1  0.89583600  0.35526400  0.09776300  1
  H  H38  1  0.34859700  0.48678400  0.01447100  1
  H  H39  1  0.06824000  0.96352100  0.74993000  1
  C  C40  1  0.87961300  0.34064900  0.53068700  1
  C  C41  1  0.07588300  0.81577500  0.88084900  1
  C  C42  1  0.12038700  0.65935100  0.46931300  1
  C  C43  1  0.24943900  0.76108700  0.19369000  1
  C  C44  1  0.25056100  0.76108700  0.69369000  1
  C  C45  1  0.42411700  0.81577500  0.38084900  1
  C  C46  1  0.62038700  0.34064900  0.03068700  1
  C  C47  1  0.74943900  0.23891300  0.30631000  1
  C  C48  1  0.92411700  0.18422500  0.11915100  1
  C  C49  1  0.57588300  0.18422500  0.61915100  1
  C  C50  1  0.37961300  0.65935100  0.96931300  1
  C  C51  1  0.75056100  0.23891300  0.80631000  1
  S  S52  1  0.11246800  0.00352500  0.95189600  1
  S  S53  1  0.80894200  0.44620300  0.80419900  1
  S  S54  1  0.19105800  0.55379700  0.19580100  1
  S  S55  1  0.88753200  0.99647500  0.04810400  1
  S  S56  1  0.30894200  0.55379700  0.69580100  1
  S  S57  1  0.69105800  0.44620300  0.30419900  1
  S  S58  1  0.61246800  0.99647500  0.54810400  1
  S  S59  1  0.38753200  0.00352500  0.45189600  1
  N  N60  1  0.12840800  0.75931800  0.15492900  1
  N  N61  1  0.37159200  0.75931800  0.65492900  1
  N  N62  1  0.62840800  0.24068200  0.34507100  1
  N  N63  1  0.87159200  0.24068200  0.84507100  1
  Cl  Cl64  1  0.45939400  0.32704900  0.89002700  1
  Cl  Cl65  1  0.54060600  0.67295100  0.10997300  1
  Cl  Cl66  1  0.95939400  0.67295100  0.60997300  1
  Cl  Cl67  1  0.04060600  0.32704900  0.39002700  1
  O  O68  1  0.30188700  0.51171300  0.56365400  1
  O  O69  1  0.68313400  0.68385300  0.14072900  1
  O  O70  1  0.92906200  0.80699200  0.04675100  1
  O  O71  1  0.66836700  0.89342000  0.63106400  1
  O  O72  1  0.42906200  0.19300800  0.45324900  1
  O  O73  1  0.57093800  0.80699200  0.54675100  1
  O  O74  1  0.18313400  0.31614700  0.35927100  1
  O  O75  1  0.07093800  0.19300800  0.95324900  1
  O  O76  1  0.31686600  0.31614700  0.85927100  1
  O  O77  1  0.80188700  0.48828700  0.93634600  1
  O  O78  1  0.33163300  0.10658000  0.36893600  1
  O  O79  1  0.69811300  0.48828700  0.43634600  1
  O  O80  1  0.19811300  0.51171300  0.06365400  1
  O  O81  1  0.83163300  0.89342000  0.13106400  1
  O  O82  1  0.81686600  0.68385300  0.64072900  1
  O  O83  1  0.16836700  0.10658000  0.86893600  1
