# generated using pymatgen
data_Cr2B(PO4)3
_symmetry_space_group_name_H-M   'P 1'
_cell_length_a   8.08600634
_cell_length_b   8.08600634
_cell_length_c   7.52777800
_cell_angle_alpha   90.00000000
_cell_angle_beta   90.00000000
_cell_angle_gamma   120.00000276
_symmetry_Int_Tables_number   1
_chemical_formula_structural   Cr2B(PO4)3
_chemical_formula_sum   'Cr4 B2 P6 O24'
_cell_volume   426.25116329
_cell_formula_units_Z   2
loop_
 _symmetry_equiv_pos_site_id
 _symmetry_equiv_pos_as_xyz
  1  'x, y, z'
loop_
 _atom_site_type_symbol
 _atom_site_label
 _atom_site_symmetry_multiplicity
 _atom_site_fract_x
 _atom_site_fract_y
 _atom_site_fract_z
 _atom_site_occupancy
  Cr  Cr0  1  0.66666700  0.33333300  0.56168800  1
  Cr  Cr1  1  0.33333300  0.66666700  0.43831200  1
  Cr  Cr2  1  0.33333300  0.66666700  0.06168800  1
  Cr  Cr3  1  0.66666700  0.33333300  0.93831200  1
  B  B4  1  0.00000000  0.00000000  0.75000000  1
  B  B5  1  0.00000000  0.00000000  0.25000000  1
  P  P6  1  0.68527400  0.04957000  0.25000000  1
  P  P7  1  0.04957000  0.36429600  0.75000000  1
  P  P8  1  0.31472600  0.95043000  0.75000000  1
  P  P9  1  0.63570400  0.68527400  0.75000000  1
  P  P10  1  0.95043000  0.63570400  0.25000000  1
  P  P11  1  0.36429600  0.31472600  0.25000000  1
  O  O12  1  0.86330300  0.81109600  0.75000000  1
  O  O13  1  0.94779300  0.13669700  0.75000000  1
  O  O14  1  0.27245800  0.83640600  0.92497400  1
  O  O15  1  0.16359400  0.43605200  0.92497400  1
  O  O16  1  0.81109600  0.94779300  0.25000000  1
  O  O17  1  0.43605200  0.27245800  0.42497400  1
  O  O18  1  0.16359400  0.43605200  0.57502600  1
  O  O19  1  0.39636600  0.52243600  0.25000000  1
  O  O20  1  0.43605200  0.27245800  0.07502600  1
  O  O21  1  0.56394800  0.72754200  0.57502600  1
  O  O22  1  0.47756400  0.87393000  0.25000000  1
  O  O23  1  0.87393000  0.39636600  0.75000000  1
  O  O24  1  0.52243600  0.12607000  0.75000000  1
  O  O25  1  0.27245800  0.83640600  0.57502600  1
  O  O26  1  0.83640600  0.56394800  0.42497400  1
  O  O27  1  0.83640600  0.56394800  0.07502600  1
  O  O28  1  0.05220700  0.86330300  0.25000000  1
  O  O29  1  0.18890400  0.05220700  0.75000000  1
  O  O30  1  0.56394800  0.72754200  0.92497400  1
  O  O31  1  0.72754200  0.16359400  0.42497400  1
  O  O32  1  0.60363400  0.47756400  0.75000000  1
  O  O33  1  0.12607000  0.60363400  0.25000000  1
  O  O34  1  0.13669700  0.18890400  0.25000000  1
  O  O35  1  0.72754200  0.16359400  0.07502600  1
