# generated using pymatgen
data_K5Yb(MoO4)4
_symmetry_space_group_name_H-M   'P 1'
_cell_length_a   9.82234995
_cell_length_b   9.82234995
_cell_length_c   10.79294277
_cell_angle_alpha   70.65357351
_cell_angle_beta   70.65357351
_cell_angle_gamma   77.64529167
_symmetry_Int_Tables_number   1
_chemical_formula_structural   K5Yb(MoO4)4
_chemical_formula_sum   'K10 Yb2 Mo8 O32'
_cell_volume   920.63675566
_cell_formula_units_Z   2
loop_
 _symmetry_equiv_pos_site_id
 _symmetry_equiv_pos_as_xyz
  1  'x, y, z'
loop_
 _atom_site_type_symbol
 _atom_site_label
 _atom_site_symmetry_multiplicity
 _atom_site_fract_x
 _atom_site_fract_y
 _atom_site_fract_z
 _atom_site_occupancy
  K  K0  1  0.07754300  0.33006300  0.93587700  1
  K  K1  1  0.92245700  0.66993800  0.06412300  1
  K  K2  1  0.33006200  0.07754300  0.43587700  1
  K  K3  1  0.17420000  0.38766400  0.56347300  1
  K  K4  1  0.66993800  0.92245700  0.56412300  1
  K  K5  1  0.82580000  0.61233600  0.43652700  1
  K  K6  1  0.61233600  0.82580000  0.93652700  1
  K  K7  1  0.38741300  0.61258700  0.75000000  1
  K  K8  1  0.61258700  0.38741300  0.25000000  1
  K  K9  1  0.38766400  0.17420000  0.06347300  1
  Yb  Yb10  1  0.11466300  0.88533700  0.25000000  1
  Yb  Yb11  1  0.88533700  0.11466300  0.75000000  1
  Mo  Mo12  1  0.04383300  0.77260700  0.63796600  1
  Mo  Mo13  1  0.52927500  0.26509400  0.65518900  1
  Mo  Mo14  1  0.73490600  0.47072500  0.84481100  1
  Mo  Mo15  1  0.26509400  0.52927500  0.15518900  1
  Mo  Mo16  1  0.22739300  0.95616700  0.86203400  1
  Mo  Mo17  1  0.77260700  0.04383300  0.13796600  1
  Mo  Mo18  1  0.47072500  0.73490600  0.34481100  1
  Mo  Mo19  1  0.95616700  0.22739300  0.36203400  1
  O  O20  1  0.58512200  0.07020100  0.23245300  1
  O  O21  1  0.21071000  0.84433400  0.59247800  1
  O  O22  1  0.38143700  0.57432200  0.42818800  1
  O  O23  1  0.64980800  0.12295500  0.73623700  1
  O  O24  1  0.41487800  0.92979900  0.76754700  1
  O  O25  1  0.92979900  0.41487800  0.26754700  1
  O  O26  1  0.21380700  0.99773800  0.01749800  1
  O  O27  1  0.12295500  0.64980800  0.23623700  1
  O  O28  1  0.87704500  0.35019200  0.76376300  1
  O  O29  1  0.42567800  0.61856300  0.07181200  1
  O  O30  1  0.21518200  0.47637500  0.03219600  1
  O  O31  1  0.99773800  0.21380700  0.51749800  1
  O  O32  1  0.00226200  0.78619300  0.48250200  1
  O  O33  1  0.84433400  0.21071000  0.09247800  1
  O  O34  1  0.87795600  0.90000900  0.23558400  1
  O  O35  1  0.47637500  0.21518200  0.53219600  1
  O  O36  1  0.78929000  0.15566600  0.40752200  1
  O  O37  1  0.78619300  0.00226200  0.98250200  1
  O  O38  1  0.07020100  0.58512200  0.73245300  1
  O  O39  1  0.90000900  0.87795600  0.73558400  1
  O  O40  1  0.63500600  0.69442500  0.21917600  1
  O  O41  1  0.61856300  0.42567800  0.57181200  1
  O  O42  1  0.52362500  0.78481800  0.46780400  1
  O  O43  1  0.30557500  0.36499400  0.28082400  1
  O  O44  1  0.78481800  0.52362500  0.96780400  1
  O  O45  1  0.15566600  0.78929000  0.90752200  1
  O  O46  1  0.69442500  0.63500600  0.71917600  1
  O  O47  1  0.09999100  0.12204400  0.26441600  1
  O  O48  1  0.36499400  0.30557500  0.78082400  1
  O  O49  1  0.12204400  0.09999100  0.76441600  1
  O  O50  1  0.57432200  0.38143700  0.92818800  1
  O  O51  1  0.35019200  0.87704500  0.26376300  1
