# generated using pymatgen
data_SnS
_symmetry_space_group_name_H-M   'P 1'
_cell_length_a   6.20842502
_cell_length_b   6.20842502
_cell_length_c   4.10789600
_cell_angle_alpha   90.00000000
_cell_angle_beta   90.00000000
_cell_angle_gamma   141.32242637
_symmetry_Int_Tables_number   1
_chemical_formula_structural   SnS
_chemical_formula_sum   'Sn2 S2'
_cell_volume   98.95065070
_cell_formula_units_Z   2
loop_
 _symmetry_equiv_pos_site_id
 _symmetry_equiv_pos_as_xyz
  1  'x, y, z'
loop_
 _atom_site_type_symbol
 _atom_site_label
 _atom_site_symmetry_multiplicity
 _atom_site_fract_x
 _atom_site_fract_y
 _atom_site_fract_z
 _atom_site_occupancy
  Sn  Sn0  1  0.87361100  0.12638900  0.75000000  1
  Sn  Sn1  1  0.12638900  0.87361100  0.25000000  1
  S  S2  1  0.65139700  0.34860300  0.75000000  1
  S  S3  1  0.34860300  0.65139700  0.25000000  1
