# generated using pymatgen
data_KCS(OF)3
_symmetry_space_group_name_H-M   'P 1'
_cell_length_a   6.07477400
_cell_length_b   10.98370900
_cell_length_c   14.74226573
_cell_angle_alpha   68.83858176
_cell_angle_beta   90.00000000
_cell_angle_gamma   90.00000000
_symmetry_Int_Tables_number   1
_chemical_formula_structural   KCS(OF)3
_chemical_formula_sum   'K6 C6 S6 O18 F18'
_cell_volume   917.32550541
_cell_formula_units_Z   6
loop_
 _symmetry_equiv_pos_site_id
 _symmetry_equiv_pos_as_xyz
  1  'x, y, z'
loop_
 _atom_site_type_symbol
 _atom_site_label
 _atom_site_symmetry_multiplicity
 _atom_site_fract_x
 _atom_site_fract_y
 _atom_site_fract_z
 _atom_site_occupancy
  K  K0  1  0.77745900  0.43507800  0.66355700  1
  K  K1  1  0.27354400  0.80862000  0.01427800  1
  K  K2  1  0.77354400  0.19138000  0.98572200  1
  K  K3  1  0.27745900  0.56492200  0.33644300  1
  K  K4  1  0.28064800  0.53173000  0.84164800  1
  K  K5  1  0.78064800  0.46827000  0.15835200  1
  C  C6  1  0.78840900  0.82030100  0.28193100  1
  C  C7  1  0.81759000  0.82539900  0.80525800  1
  C  C8  1  0.23977900  0.83169600  0.53408500  1
  C  C9  1  0.31759000  0.17460100  0.19474200  1
  C  C10  1  0.28840900  0.17969900  0.71806900  1
  C  C11  1  0.73977900  0.16830400  0.46591500  1
  S  S12  1  0.77637300  0.79027800  0.16508800  1
  S  S13  1  0.27955900  0.33980000  0.09923200  1
  S  S14  1  0.27637300  0.20972200  0.83491200  1
  S  S15  1  0.77955900  0.66020000  0.90076800  1
  S  S16  1  0.76429600  0.35020500  0.41597900  1
  S  S17  1  0.26429600  0.64979500  0.58402100  1
  O  O18  1  0.58890200  0.39183100  0.34257100  1
  O  O19  1  0.57304700  0.67136500  0.94858300  1
  O  O20  1  0.72967500  0.38727500  0.50035900  1
  O  O21  1  0.07304700  0.32863500  0.05141700  1
  O  O22  1  0.56896000  0.71899100  0.17177300  1
  O  O23  1  0.98420700  0.37508400  0.37293100  1
  O  O24  1  0.28183900  0.08048000  0.91136800  1
  O  O25  1  0.97308700  0.71034200  0.16977000  1
  O  O26  1  0.97680000  0.64670700  0.96121900  1
  O  O27  1  0.08890200  0.60816900  0.65742900  1
  O  O28  1  0.22967500  0.61272500  0.49964100  1
  O  O29  1  0.06896000  0.28100900  0.82822700  1
  O  O30  1  0.77085100  0.57052200  0.84813500  1
  O  O31  1  0.78183900  0.91952000  0.08863200  1
  O  O32  1  0.47308700  0.28965800  0.83023000  1
  O  O33  1  0.47680000  0.35329300  0.03878100  1
  O  O34  1  0.27085100  0.42947800  0.15186500  1
  O  O35  1  0.48420700  0.62491600  0.62706900  1
  F  F36  1  0.78590600  0.11838800  0.39642400  1
  F  F37  1  0.12576800  0.09852600  0.71396400  1
  F  F38  1  0.03272500  0.86727100  0.50125000  1
  F  F39  1  0.28590600  0.88161200  0.60357600  1
  F  F40  1  0.38186200  0.88389900  0.45914400  1
  F  F41  1  0.88186200  0.11610100  0.54085600  1
  F  F42  1  0.79015600  0.91871400  0.84535800  1
  F  F43  1  0.02550100  0.83582000  0.76962700  1
  F  F44  1  0.76493700  0.70527800  0.35795100  1
  F  F45  1  0.29015600  0.08128600  0.15464200  1
  F  F46  1  0.62576800  0.90147400  0.28603600  1
  F  F47  1  0.48482000  0.12683300  0.70956100  1
  F  F48  1  0.98482000  0.87316700  0.29043900  1
  F  F49  1  0.53272500  0.13272900  0.49875000  1
  F  F50  1  0.26493700  0.29472200  0.64204900  1
  F  F51  1  0.17349500  0.15203200  0.26819600  1
  F  F52  1  0.52550100  0.16418000  0.23037300  1
  F  F53  1  0.67349500  0.84796800  0.73180400  1
