# generated using pymatgen
data_NaFe3Si3O10
_symmetry_space_group_name_H-M   'P 1'
_cell_length_a   9.05203200
_cell_length_b   9.82090597
_cell_length_c   10.46176311
_cell_angle_alpha   114.87440997
_cell_angle_beta   83.53834748
_cell_angle_gamma   114.08618909
_symmetry_Int_Tables_number   1
_chemical_formula_structural   NaFe3Si3O10
_chemical_formula_sum   'Na4 Fe12 Si12 O40'
_cell_volume   768.33415174
_cell_formula_units_Z   4
loop_
 _symmetry_equiv_pos_site_id
 _symmetry_equiv_pos_as_xyz
  1  'x, y, z'
loop_
 _atom_site_type_symbol
 _atom_site_label
 _atom_site_symmetry_multiplicity
 _atom_site_fract_x
 _atom_site_fract_y
 _atom_site_fract_z
 _atom_site_occupancy
  Na  Na0  1  0.38824200  0.63410200  0.42233700  1
  Na  Na1  1  0.36944900  0.61303400  0.95175700  1
  Na  Na2  1  0.61175800  0.36589800  0.57766300  1
  Na  Na3  1  0.63055100  0.38696600  0.04824300  1
  Fe  Fe4  1  0.84819900  0.18073200  0.94851200  1
  Fe  Fe5  1  0.18100200  0.85226900  0.53250800  1
  Fe  Fe6  1  0.15180100  0.81926800  0.05148800  1
  Fe  Fe7  1  0.73597400  0.26276200  0.25657000  1
  Fe  Fe8  1  0.81899800  0.14773100  0.46749200  1
  Fe  Fe9  1  0.05835700  0.93448500  0.84110400  1
  Fe  Fe10  1  0.06647500  0.94154500  0.34634000  1
  Fe  Fe11  1  0.93352500  0.05845500  0.65366000  1
  Fe  Fe12  1  0.50000000  0.00000000  0.00000000  1
  Fe  Fe13  1  0.26402600  0.73723800  0.74343000  1
  Fe  Fe14  1  0.00000000  0.50000000  0.50000000  1
  Fe  Fe15  1  0.94164300  0.06551500  0.15889600  1
  Si  Si16  1  0.55120500  0.05351200  0.70330900  1
  Si  Si17  1  0.77695100  0.66299500  0.93823600  1
  Si  Si18  1  0.44879500  0.94648800  0.29669100  1
  Si  Si19  1  0.65777400  0.76718900  0.75104200  1
  Si  Si20  1  0.32880600  0.23400500  0.75807200  1
  Si  Si21  1  0.95363400  0.44373000  0.79492300  1
  Si  Si22  1  0.34222600  0.23281100  0.24895800  1
  Si  Si23  1  0.76009100  0.66260800  0.45226100  1
  Si  Si24  1  0.23990900  0.33739200  0.54773900  1
  Si  Si25  1  0.22304900  0.33700500  0.06176400  1
  Si  Si26  1  0.04636600  0.55627000  0.20507700  1
  Si  Si27  1  0.67119400  0.76599500  0.24192800  1
  O  O28  1  0.72324300  0.06837500  0.08174800  1
  O  O29  1  0.62702400  0.67900500  0.57639300  1
  O  O30  1  0.37297600  0.32099500  0.42360700  1
  O  O31  1  0.17605100  0.06759400  0.20807800  1
  O  O32  1  0.06306900  0.16731600  0.01405900  1
  O  O33  1  0.33344900  0.36125600  0.69012700  1
  O  O34  1  0.87032100  0.39881200  0.14729600  1
  O  O35  1  0.07439100  0.17026500  0.50750900  1
  O  O36  1  0.60406400  0.12483200  0.36416900  1
  O  O37  1  0.83541400  0.93151000  0.28572200  1
  O  O38  1  0.11228800  0.60412200  0.36570500  1
  O  O39  1  0.07057300  0.72470200  0.65796500  1
  O  O40  1  0.95796200  0.28768100  0.81239800  1
  O  O41  1  0.82394900  0.93240600  0.79192200  1
  O  O42  1  0.39622800  0.88268700  0.12828000  1
  O  O43  1  0.92942700  0.27529800  0.34203500  1
  O  O44  1  0.27675700  0.93162500  0.91825200  1
  O  O45  1  0.32064300  0.36701900  0.20124700  1
  O  O46  1  0.50872300  0.80309000  0.29473700  1
  O  O47  1  0.81489500  0.50137000  0.89989300  1
  O  O48  1  0.88771200  0.39587800  0.63429500  1
  O  O49  1  0.93693100  0.83268400  0.98594100  1
  O  O50  1  0.29773800  0.95106700  0.39674500  1
  O  O51  1  0.04203800  0.71231900  0.18760200  1
  O  O52  1  0.64986900  0.66105400  0.06687700  1
  O  O53  1  0.60377200  0.11731300  0.87172000  1
  O  O54  1  0.35013100  0.33894600  0.93312300  1
  O  O55  1  0.49220300  0.78334000  0.82530000  1
  O  O56  1  0.78162500  0.49553000  0.42901700  1
  O  O57  1  0.92560900  0.82973500  0.49249100  1
  O  O58  1  0.66655100  0.63874400  0.30987300  1
  O  O59  1  0.39593600  0.87516800  0.63583100  1
  O  O60  1  0.50779700  0.21666000  0.17470000  1
  O  O61  1  0.16458600  0.06849000  0.71427800  1
  O  O62  1  0.70226200  0.04893300  0.60325500  1
  O  O63  1  0.18510500  0.49863000  0.10010700  1
  O  O64  1  0.49127700  0.19691000  0.70526300  1
  O  O65  1  0.21837500  0.50447000  0.57098300  1
  O  O66  1  0.12967900  0.60118800  0.85270400  1
  O  O67  1  0.67935700  0.63298100  0.79875300  1
