# generated using pymatgen
data_Fe2BO4
_symmetry_space_group_name_H-M   'P 1'
_cell_length_a   6.21250800
_cell_length_b   9.55724000
_cell_length_c   9.29303600
_cell_angle_alpha   90.00000000
_cell_angle_beta   90.00000000
_cell_angle_gamma   90.00000000
_symmetry_Int_Tables_number   1
_chemical_formula_structural   Fe2BO4
_chemical_formula_sum   'Fe16 B8 O32'
_cell_volume   551.76871508
_cell_formula_units_Z   8
loop_
 _symmetry_equiv_pos_site_id
 _symmetry_equiv_pos_as_xyz
  1  'x, y, z'
loop_
 _atom_site_type_symbol
 _atom_site_label
 _atom_site_symmetry_multiplicity
 _atom_site_fract_x
 _atom_site_fract_y
 _atom_site_fract_z
 _atom_site_occupancy
  Fe  Fe0  1  0.75534900  0.05620200  0.71834000  1
  Fe  Fe1  1  0.75296300  0.68819300  0.71929000  1
  Fe  Fe2  1  0.00000000  0.80991500  0.49228200  1
  Fe  Fe3  1  0.75534900  0.94379800  0.21834000  1
  Fe  Fe4  1  0.24465100  0.05620200  0.71834000  1
  Fe  Fe5  1  0.24703700  0.68819300  0.71929000  1
  Fe  Fe6  1  0.00000000  0.19008500  0.99228200  1
  Fe  Fe7  1  0.75296300  0.31180700  0.21929000  1
  Fe  Fe8  1  0.24703700  0.31180700  0.21929000  1
  Fe  Fe9  1  0.00000000  0.56224400  0.00307500  1
  Fe  Fe10  1  0.50000000  0.44353800  0.50357800  1
  Fe  Fe11  1  0.50000000  0.55646200  0.00357800  1
  Fe  Fe12  1  0.50000000  0.17948900  0.00008300  1
  Fe  Fe13  1  0.24465100  0.94379800  0.21834000  1
  Fe  Fe14  1  0.00000000  0.43775600  0.50307500  1
  Fe  Fe15  1  0.50000000  0.82051100  0.50008300  1
  B  B16  1  0.00000000  0.12456700  0.44882600  1
  B  B17  1  0.50000000  0.87325300  0.94552200  1
  B  B18  1  0.24426100  0.37359900  0.77753600  1
  B  B19  1  0.50000000  0.12674700  0.44552200  1
  B  B20  1  0.75573900  0.62640100  0.27753600  1
  B  B21  1  0.24426100  0.62640100  0.27753600  1
  B  B22  1  0.00000000  0.87543300  0.94882600  1
  B  B23  1  0.75573900  0.37359900  0.77753600  1
  O  O24  1  0.00000000  0.25039300  0.37229900  1
  O  O25  1  0.74994000  0.37721900  0.63009500  1
  O  O26  1  0.22770500  0.12433900  0.11257000  1
  O  O27  1  0.74994000  0.62278100  0.13009500  1
  O  O28  1  0.22770500  0.87566100  0.61257000  1
  O  O29  1  0.24707900  0.50056200  0.35312300  1
  O  O30  1  0.00000000  0.36741300  0.08564700  1
  O  O31  1  0.50000000  0.63008000  0.59755500  1
  O  O32  1  0.76304300  0.24410900  0.84829500  1
  O  O33  1  0.50000000  0.11670400  0.59280200  1
  O  O34  1  0.50000000  0.99611100  0.86325300  1
  O  O35  1  0.77229500  0.12433900  0.11257000  1
  O  O36  1  0.00000000  0.12868700  0.59510100  1
  O  O37  1  0.00000000  0.63258700  0.58564700  1
  O  O38  1  0.00000000  0.00525700  0.87756700  1
  O  O39  1  0.75292100  0.49943800  0.85312300  1
  O  O40  1  0.23695700  0.75589100  0.34829500  1
  O  O41  1  0.25006000  0.37721900  0.63009500  1
  O  O42  1  0.24707900  0.49943800  0.85312300  1
  O  O43  1  0.77229500  0.87566100  0.61257000  1
  O  O44  1  0.50000000  0.25637900  0.37707300  1
  O  O45  1  0.50000000  0.00388900  0.36325300  1
  O  O46  1  0.75292100  0.50056200  0.35312300  1
  O  O47  1  0.76304300  0.75589100  0.34829500  1
  O  O48  1  0.50000000  0.36992000  0.09755500  1
  O  O49  1  0.23695700  0.24410900  0.84829500  1
  O  O50  1  0.25006000  0.62278100  0.13009500  1
  O  O51  1  0.00000000  0.99474300  0.37756700  1
  O  O52  1  0.00000000  0.87131300  0.09510100  1
  O  O53  1  0.50000000  0.74362100  0.87707300  1
  O  O54  1  0.00000000  0.74960700  0.87229900  1
  O  O55  1  0.50000000  0.88329600  0.09280200  1
