# generated using pymatgen
data_NaNp3F13
_symmetry_space_group_name_H-M   'P 1'
_cell_length_a   8.16508832
_cell_length_b   8.16508832
_cell_length_c   16.43659000
_cell_angle_alpha   90.00000000
_cell_angle_beta   90.00000000
_cell_angle_gamma   120.00000258
_symmetry_Int_Tables_number   1
_chemical_formula_structural   NaNp3F13
_chemical_formula_sum   'Na4 Np12 F52'
_cell_volume   948.99541874
_cell_formula_units_Z   4
loop_
 _symmetry_equiv_pos_site_id
 _symmetry_equiv_pos_as_xyz
  1  'x, y, z'
loop_
 _atom_site_type_symbol
 _atom_site_label
 _atom_site_symmetry_multiplicity
 _atom_site_fract_x
 _atom_site_fract_y
 _atom_site_fract_z
 _atom_site_occupancy
  Na  Na0  1  0.66666700  0.33333300  0.12435600  1
  Na  Na1  1  0.33333300  0.66666700  0.62435600  1
  Na  Na2  1  0.33333300  0.66666700  0.87564400  1
  Na  Na3  1  0.66666700  0.33333300  0.37564400  1
  Np  Np4  1  0.83381700  0.66763300  0.88689500  1
  Np  Np5  1  0.16618300  0.83381700  0.11310500  1
  Np  Np6  1  0.66763300  0.83381700  0.11310500  1
  Np  Np7  1  0.33236700  0.16618300  0.88689500  1
  Np  Np8  1  0.83381700  0.16618300  0.88689500  1
  Np  Np9  1  0.16618300  0.33236700  0.11310500  1
  Np  Np10  1  0.83381700  0.16618300  0.61310500  1
  Np  Np11  1  0.16618300  0.33236700  0.38689500  1
  Np  Np12  1  0.33236700  0.16618300  0.61310500  1
  Np  Np13  1  0.16618300  0.83381700  0.38689500  1
  Np  Np14  1  0.66763300  0.83381700  0.38689500  1
  Np  Np15  1  0.83381700  0.66763300  0.61310500  1
  F  F16  1  0.32577100  0.32577100  0.00000000  1
  F  F17  1  0.00000000  0.67422900  0.00000000  1
  F  F18  1  0.00000000  0.67422900  0.50000000  1
  F  F19  1  0.91906200  0.45953100  0.65880700  1
  F  F20  1  0.33333300  0.66666700  0.75000000  1
  F  F21  1  0.91906200  0.45953100  0.84119300  1
  F  F22  1  0.32577100  0.00000000  0.00000000  1
  F  F23  1  0.85786200  0.14213800  0.75000000  1
  F  F24  1  0.08093800  0.54046900  0.34119300  1
  F  F25  1  0.33333300  0.66666700  0.04889400  1
  F  F26  1  0.67422900  0.67422900  0.50000000  1
  F  F27  1  0.71572400  0.85786200  0.25000000  1
  F  F28  1  0.28427600  0.14213800  0.75000000  1
  F  F29  1  0.15698600  0.84301400  0.85981600  1
  F  F30  1  0.66666700  0.33333300  0.95110600  1
  F  F31  1  0.14213800  0.28427600  0.25000000  1
  F  F32  1  0.00000000  0.32577100  0.00000000  1
  F  F33  1  0.68602800  0.84301400  0.85981600  1
  F  F34  1  0.14213800  0.85786200  0.25000000  1
  F  F35  1  0.15698600  0.84301400  0.64018400  1
  F  F36  1  0.00000000  0.00000000  0.07746200  1
  F  F37  1  0.84301400  0.15698600  0.35981600  1
  F  F38  1  0.84301400  0.15698600  0.14018400  1
  F  F39  1  0.33333300  0.66666700  0.45110600  1
  F  F40  1  0.54046900  0.45953100  0.65880700  1
  F  F41  1  0.45953100  0.91906200  0.34119300  1
  F  F42  1  0.45953100  0.54046900  0.34119300  1
  F  F43  1  0.84301400  0.68602800  0.14018400  1
  F  F44  1  0.54046900  0.45953100  0.84119300  1
  F  F45  1  0.00000000  0.00000000  0.42253800  1
  F  F46  1  0.31397200  0.15698600  0.14018400  1
  F  F47  1  0.00000000  0.00000000  0.92253800  1
  F  F48  1  0.45953100  0.54046900  0.15880700  1
  F  F49  1  0.32577100  0.32577100  0.50000000  1
  F  F50  1  0.00000000  0.00000000  0.57746200  1
  F  F51  1  0.08093800  0.54046900  0.15880700  1
  F  F52  1  0.15698600  0.31397200  0.85981600  1
  F  F53  1  0.67422900  0.00000000  0.00000000  1
  F  F54  1  0.66666700  0.33333300  0.54889400  1
  F  F55  1  0.15698600  0.31397200  0.64018400  1
  F  F56  1  0.54046900  0.08093800  0.65880700  1
  F  F57  1  0.67422900  0.00000000  0.50000000  1
  F  F58  1  0.68602800  0.84301400  0.64018400  1
  F  F59  1  0.54046900  0.08093800  0.84119300  1
  F  F60  1  0.32577100  0.00000000  0.50000000  1
  F  F61  1  0.67422900  0.67422900  0.00000000  1
  F  F62  1  0.00000000  0.32577100  0.50000000  1
  F  F63  1  0.84301400  0.68602800  0.35981600  1
  F  F64  1  0.66666700  0.33333300  0.25000000  1
  F  F65  1  0.31397200  0.15698600  0.35981600  1
  F  F66  1  0.85786200  0.71572400  0.75000000  1
  F  F67  1  0.45953100  0.91906200  0.15880700  1
