# generated using pymatgen
data_Ca2Nb2O7
_symmetry_space_group_name_H-M   'P 1'
_cell_length_a   5.55154000
_cell_length_b   7.77549700
_cell_length_c   27.00026500
_cell_angle_alpha   90.00000000
_cell_angle_beta   90.00000000
_cell_angle_gamma   90.00000000
_symmetry_Int_Tables_number   1
_chemical_formula_structural   Ca2Nb2O7
_chemical_formula_sum   'Ca16 Nb16 O56'
_cell_volume   1165.49296960
_cell_formula_units_Z   8
loop_
 _symmetry_equiv_pos_site_id
 _symmetry_equiv_pos_as_xyz
  1  'x, y, z'
loop_
 _atom_site_type_symbol
 _atom_site_label
 _atom_site_symmetry_multiplicity
 _atom_site_fract_x
 _atom_site_fract_y
 _atom_site_fract_z
 _atom_site_occupancy
  Ca  Ca0  1  0.24592500  0.12467100  0.79269400  1
  Ca  Ca1  1  0.26266600  0.62390400  0.81204700  1
  Ca  Ca2  1  0.26266600  0.87609600  0.31204700  1
  Ca  Ca3  1  0.24592500  0.37532900  0.29269400  1
  Ca  Ca4  1  0.23979100  0.38335500  0.04971700  1
  Ca  Ca5  1  0.76266600  0.37609600  0.18795300  1
  Ca  Ca6  1  0.76266600  0.12390400  0.68795300  1
  Ca  Ca7  1  0.66781100  0.37617300  0.46726400  1
  Ca  Ca8  1  0.66781100  0.12382700  0.96726400  1
  Ca  Ca9  1  0.74592500  0.87532900  0.20730600  1
  Ca  Ca10  1  0.74592500  0.62467100  0.70730600  1
  Ca  Ca11  1  0.23979100  0.11664500  0.54971700  1
  Ca  Ca12  1  0.73979100  0.61664500  0.95028300  1
  Ca  Ca13  1  0.73979100  0.88335500  0.45028300  1
  Ca  Ca14  1  0.16781100  0.62382700  0.53273600  1
  Ca  Ca15  1  0.16781100  0.87617300  0.03273600  1
  Nb  Nb16  1  0.22993900  0.87857200  0.91138300  1
  Nb  Nb17  1  0.24936400  0.62121100  0.19093000  1
  Nb  Nb18  1  0.72588400  0.86947200  0.58710500  1
  Nb  Nb19  1  0.24936400  0.87878900  0.69093000  1
  Nb  Nb20  1  0.74936400  0.37878900  0.80907000  1
  Nb  Nb21  1  0.74936400  0.12121100  0.30907000  1
  Nb  Nb22  1  0.22993900  0.62142800  0.41138300  1
  Nb  Nb23  1  0.24781500  0.12859100  0.19232800  1
  Nb  Nb24  1  0.74781500  0.62859100  0.30767200  1
  Nb  Nb25  1  0.72993900  0.12142800  0.08861700  1
  Nb  Nb26  1  0.74781500  0.87140900  0.80767200  1
  Nb  Nb27  1  0.24781500  0.37140900  0.69232800  1
  Nb  Nb28  1  0.72993900  0.37857200  0.58861700  1
  Nb  Nb29  1  0.22588400  0.13052800  0.41289500  1
  Nb  Nb30  1  0.72588400  0.63052800  0.08710500  1
  Nb  Nb31  1  0.22588400  0.36947200  0.91289500  1
  O  O32  1  0.83453400  0.62507300  0.59655800  1
  O  O33  1  0.85506300  0.87508300  0.29308800  1
  O  O34  1  0.57338300  0.65329600  0.16063500  1
  O  O35  1  0.98073900  0.57827400  0.23923000  1
  O  O36  1  0.35506300  0.37508300  0.20691200  1
  O  O37  1  0.07097400  0.90391200  0.84023900  1
  O  O38  1  0.98031800  0.17194500  0.23970100  1
  O  O39  1  0.35506300  0.12491700  0.70691200  1
  O  O40  1  0.85506300  0.62491700  0.79308800  1
  O  O41  1  0.05712100  0.31434400  0.63780200  1
  O  O42  1  0.06031100  0.93642700  0.63608000  1
  O  O43  1  0.45306600  0.65401400  0.46326500  1
  O  O44  1  0.43171800  0.10211800  0.46920500  1
  O  O45  1  0.06031100  0.56357300  0.13608000  1
  O  O46  1  0.95306600  0.34598600  0.53673500  1
  O  O47  1  0.33453400  0.12507300  0.90344200  1
  O  O48  1  0.48031800  0.67194500  0.26029900  1
  O  O49  1  0.48031800  0.82805500  0.76029900  1
  O  O50  1  0.57097400  0.40391200  0.65976100  1
  O  O51  1  0.07338300  0.34670400  0.83936500  1
  O  O52  1  0.83453400  0.87492700  0.09655800  1
  O  O53  1  0.98073900  0.92172600  0.73923000  1
  O  O54  1  0.95306600  0.15401400  0.03673500  1
  O  O55  1  0.57097400  0.09608800  0.15976100  1
  O  O56  1  0.68148400  0.12530800  0.80538200  1
  O  O57  1  0.56031100  0.06357300  0.36392000  1
  O  O58  1  0.46124400  0.40390600  0.54720500  1
  O  O59  1  0.18148400  0.87469200  0.19461800  1
  O  O60  1  0.45306600  0.84598600  0.96326500  1
  O  O61  1  0.48073900  0.42172600  0.76077000  1
  O  O62  1  0.43461200  0.83850600  0.55664900  1
  O  O63  1  0.07097400  0.59608800  0.34023900  1
  O  O64  1  0.48073900  0.07827400  0.26077000  1
  O  O65  1  0.46124400  0.09609400  0.04720500  1
  O  O66  1  0.66113600  0.12400800  0.59874200  1
  O  O67  1  0.96124400  0.90390600  0.95279500  1
  O  O68  1  0.93461200  0.16149400  0.44335100  1
  O  O69  1  0.43461200  0.66149400  0.05664900  1
  O  O70  1  0.93461200  0.33850600  0.94335100  1
  O  O71  1  0.68148400  0.37469200  0.30538200  1
  O  O72  1  0.18148400  0.62530800  0.69461800  1
  O  O73  1  0.07338300  0.15329600  0.33936500  1
  O  O74  1  0.55712100  0.68565600  0.36219800  1
  O  O75  1  0.57338300  0.84670400  0.66063500  1
  O  O76  1  0.66113600  0.37599200  0.09874200  1
  O  O77  1  0.98031800  0.32805500  0.73970100  1
  O  O78  1  0.93171800  0.60211800  0.03079500  1
  O  O79  1  0.55712100  0.81434400  0.86219800  1
  O  O80  1  0.56031100  0.43642700  0.86392000  1
  O  O81  1  0.96124400  0.59609400  0.45279500  1
  O  O82  1  0.16113600  0.62400800  0.90125800  1
  O  O83  1  0.16113600  0.87599200  0.40125800  1
  O  O84  1  0.33453400  0.37492700  0.40344200  1
  O  O85  1  0.05712100  0.18565600  0.13780200  1
  O  O86  1  0.93171800  0.89788200  0.53079500  1
  O  O87  1  0.43171800  0.39788200  0.96920500  1
