# generated using pymatgen
data_SiO2
_symmetry_space_group_name_H-M   'P 1'
_cell_length_a   13.60433142
_cell_length_b   13.60433142
_cell_length_c   13.60433142
_cell_angle_alpha   60.00000000
_cell_angle_beta   60.00000000
_cell_angle_gamma   60.00000000
_symmetry_Int_Tables_number   1
_chemical_formula_structural   SiO2
_chemical_formula_sum   'Si24 O48'
_cell_volume   1780.39600976
_cell_formula_units_Z   24
loop_
 _symmetry_equiv_pos_site_id
 _symmetry_equiv_pos_as_xyz
  1  'x, y, z'
loop_
 _atom_site_type_symbol
 _atom_site_label
 _atom_site_symmetry_multiplicity
 _atom_site_fract_x
 _atom_site_fract_y
 _atom_site_fract_z
 _atom_site_occupancy
  Si  Si0  1  0.08096500  0.53761100  0.08096500  1
  Si  Si1  1  0.91903500  0.69954100  0.46238900  1
  Si  Si2  1  0.30045900  0.08096500  0.53761100  1
  Si  Si3  1  0.08096500  0.30045900  0.53761100  1
  Si  Si4  1  0.53761100  0.08096500  0.08096500  1
  Si  Si5  1  0.91903500  0.69954100  0.91903500  1
  Si  Si6  1  0.69954100  0.91903500  0.91903500  1
  Si  Si7  1  0.91903500  0.91903500  0.46238900  1
  Si  Si8  1  0.30045900  0.08096500  0.08096500  1
  Si  Si9  1  0.91903500  0.46238900  0.91903500  1
  Si  Si10  1  0.30045900  0.53761100  0.08096500  1
  Si  Si11  1  0.91903500  0.91903500  0.69954100  1
  Si  Si12  1  0.08096500  0.30045900  0.08096500  1
  Si  Si13  1  0.08096500  0.08096500  0.30045900  1
  Si  Si14  1  0.46238900  0.91903500  0.91903500  1
  Si  Si15  1  0.69954100  0.46238900  0.91903500  1
  Si  Si16  1  0.69954100  0.91903500  0.46238900  1
  Si  Si17  1  0.91903500  0.46238900  0.69954100  1
  Si  Si18  1  0.53761100  0.30045900  0.08096500  1
  Si  Si19  1  0.46238900  0.69954100  0.91903500  1
  Si  Si20  1  0.46238900  0.91903500  0.69954100  1
  Si  Si21  1  0.53761100  0.08096500  0.30045900  1
  Si  Si22  1  0.08096500  0.08096500  0.53761100  1
  Si  Si23  1  0.08096500  0.53761100  0.30045900  1
  O  O24  1  0.91306900  0.91306900  0.58693100  1
  O  O25  1  0.21714000  0.21714000  0.02224700  1
  O  O26  1  0.34847800  0.65152200  0.00000000  1
  O  O27  1  0.00000000  0.65152200  0.00000000  1
  O  O28  1  0.54347400  0.21714000  0.02224700  1
  O  O29  1  0.00000000  0.34847800  0.00000000  1
  O  O30  1  0.97775300  0.78286000  0.78286000  1
  O  O31  1  0.02224700  0.21714000  0.21714000  1
  O  O32  1  0.78286000  0.78286000  0.97775300  1
  O  O33  1  0.34847800  0.00000000  0.65152200  1
  O  O34  1  0.00000000  0.00000000  0.65152200  1
  O  O35  1  0.78286000  0.97775300  0.45652600  1
  O  O36  1  0.58693100  0.58693100  0.91306900  1
  O  O37  1  0.45652600  0.97775300  0.78286000  1
  O  O38  1  0.91306900  0.58693100  0.58693100  1
  O  O39  1  0.41306900  0.08693100  0.41306900  1
  O  O40  1  0.91306900  0.58693100  0.91306900  1
  O  O41  1  0.65152200  0.00000000  0.34847800  1
  O  O42  1  0.65152200  0.00000000  0.00000000  1
  O  O43  1  0.08693100  0.08693100  0.41306900  1
  O  O44  1  0.65152200  0.34847800  0.00000000  1
  O  O45  1  0.21714000  0.02224700  0.21714000  1
  O  O46  1  0.45652600  0.78286000  0.78286000  1
  O  O47  1  0.34847800  0.00000000  0.00000000  1
  O  O48  1  0.02224700  0.54347400  0.21714000  1
  O  O49  1  0.58693100  0.91306900  0.58693100  1
  O  O50  1  0.58693100  0.91306900  0.91306900  1
  O  O51  1  0.02224700  0.21714000  0.54347400  1
  O  O52  1  0.78286000  0.97775300  0.78286000  1
  O  O53  1  0.00000000  0.00000000  0.34847800  1
  O  O54  1  0.41306900  0.41306900  0.08693100  1
  O  O55  1  0.45652600  0.78286000  0.97775300  1
  O  O56  1  0.00000000  0.65152200  0.34847800  1
  O  O57  1  0.21714000  0.02224700  0.54347400  1
  O  O58  1  0.78286000  0.78286000  0.45652600  1
  O  O59  1  0.78286000  0.45652600  0.78286000  1
  O  O60  1  0.08693100  0.41306900  0.41306900  1
  O  O61  1  0.97775300  0.78286000  0.45652600  1
  O  O62  1  0.08693100  0.41306900  0.08693100  1
  O  O63  1  0.00000000  0.34847800  0.65152200  1
  O  O64  1  0.21714000  0.21714000  0.54347400  1
  O  O65  1  0.54347400  0.21714000  0.21714000  1
  O  O66  1  0.21714000  0.54347400  0.02224700  1
  O  O67  1  0.78286000  0.45652600  0.97775300  1
  O  O68  1  0.97775300  0.45652600  0.78286000  1
  O  O69  1  0.41306900  0.08693100  0.08693100  1
  O  O70  1  0.54347400  0.02224700  0.21714000  1
  O  O71  1  0.21714000  0.54347400  0.21714000  1
