# generated using pymatgen
data_PS2N(Cl3O2)2
_symmetry_space_group_name_H-M   'P 1'
_cell_length_a   10.71301600
_cell_length_b   10.91503700
_cell_length_c   11.11004700
_cell_angle_alpha   90.00000000
_cell_angle_beta   90.00000000
_cell_angle_gamma   90.00000000
_symmetry_Int_Tables_number   1
_chemical_formula_structural   PS2N(Cl3O2)2
_chemical_formula_sum   'P4 S8 N4 Cl24 O16'
_cell_volume   1299.13074835
_cell_formula_units_Z   4
loop_
 _symmetry_equiv_pos_site_id
 _symmetry_equiv_pos_as_xyz
  1  'x, y, z'
loop_
 _atom_site_type_symbol
 _atom_site_label
 _atom_site_symmetry_multiplicity
 _atom_site_fract_x
 _atom_site_fract_y
 _atom_site_fract_z
 _atom_site_occupancy
  P  P0  1  0.64010600  0.94570800  0.75000000  1
  P  P1  1  0.14010600  0.55429200  0.25000000  1
  P  P2  1  0.85989400  0.44570800  0.75000000  1
  P  P3  1  0.35989400  0.05429200  0.25000000  1
  S  S4  1  0.70209100  0.60178300  0.37708600  1
  S  S5  1  0.70209100  0.60178300  0.12291400  1
  S  S6  1  0.29790900  0.39821700  0.62291400  1
  S  S7  1  0.20209100  0.89821700  0.87708600  1
  S  S8  1  0.20209100  0.89821700  0.62291400  1
  S  S9  1  0.79790900  0.10178300  0.12291400  1
  S  S10  1  0.29790900  0.39821700  0.87708600  1
  S  S11  1  0.79790900  0.10178300  0.37708600  1
  N  N12  1  0.27120000  0.90595500  0.75000000  1
  N  N13  1  0.72880000  0.09404500  0.25000000  1
  N  N14  1  0.22880000  0.40595500  0.75000000  1
  N  N15  1  0.77120000  0.59404500  0.25000000  1
  Cl  Cl16  1  0.82024900  0.97840300  0.75000000  1
  Cl  Cl17  1  0.40159500  0.15045700  0.39295000  1
  Cl  Cl18  1  0.32024900  0.52159700  0.25000000  1
  Cl  Cl19  1  0.54841900  0.10047700  0.75000000  1
  Cl  Cl20  1  0.04841900  0.39952300  0.25000000  1
  Cl  Cl21  1  0.86903100  0.92450200  0.40578600  1
  Cl  Cl22  1  0.90159500  0.34954300  0.60705000  1
  Cl  Cl23  1  0.13096900  0.07549800  0.59421400  1
  Cl  Cl24  1  0.59840500  0.84954300  0.60705000  1
  Cl  Cl25  1  0.36903100  0.57549800  0.59421400  1
  Cl  Cl26  1  0.45158100  0.89952300  0.25000000  1
  Cl  Cl27  1  0.09840500  0.65045700  0.39295000  1
  Cl  Cl28  1  0.95158100  0.60047700  0.75000000  1
  Cl  Cl29  1  0.63096900  0.42450200  0.09421400  1
  Cl  Cl30  1  0.63096900  0.42450200  0.40578600  1
  Cl  Cl31  1  0.67975100  0.47840300  0.75000000  1
  Cl  Cl32  1  0.36903100  0.57549800  0.90578600  1
  Cl  Cl33  1  0.86903100  0.92450200  0.09421400  1
  Cl  Cl34  1  0.09840500  0.65045700  0.10705000  1
  Cl  Cl35  1  0.59840500  0.84954300  0.89295000  1
  Cl  Cl36  1  0.13096900  0.07549800  0.90578600  1
  Cl  Cl37  1  0.90159500  0.34954300  0.89295000  1
  Cl  Cl38  1  0.40159500  0.15045700  0.10705000  1
  Cl  Cl39  1  0.17975100  0.02159700  0.25000000  1
  O  O40  1  0.09382400  0.81931300  0.88323600  1
  O  O41  1  0.70244500  0.11427800  0.03209000  1
  O  O42  1  0.40617600  0.31931300  0.61676400  1
  O  O43  1  0.59382400  0.68068700  0.38323600  1
  O  O44  1  0.29755500  0.88572200  0.96791000  1
  O  O45  1  0.20244500  0.38572200  0.96791000  1
  O  O46  1  0.20244500  0.38572200  0.53209000  1
  O  O47  1  0.70244500  0.11427800  0.46791000  1
  O  O48  1  0.90617600  0.18068700  0.38323600  1
  O  O49  1  0.90617600  0.18068700  0.11676400  1
  O  O50  1  0.79755500  0.61427800  0.03209000  1
  O  O51  1  0.79755500  0.61427800  0.46791000  1
  O  O52  1  0.29755500  0.88572200  0.53209000  1
  O  O53  1  0.40617600  0.31931300  0.88323600  1
  O  O54  1  0.59382400  0.68068700  0.11676400  1
  O  O55  1  0.09382400  0.81931300  0.61676400  1
