# generated using pymatgen
data_GdCu(MoO4)2
_symmetry_space_group_name_H-M   'P 1'
_cell_length_a   9.93289300
_cell_length_b   10.38201800
_cell_length_c   14.81329500
_cell_angle_alpha   90.00000000
_cell_angle_beta   90.00000000
_cell_angle_gamma   90.00000000
_symmetry_Int_Tables_number   1
_chemical_formula_structural   GdCu(MoO4)2
_chemical_formula_sum   'Gd8 Cu8 Mo16 O64'
_cell_volume   1527.59844057
_cell_formula_units_Z   8
loop_
 _symmetry_equiv_pos_site_id
 _symmetry_equiv_pos_as_xyz
  1  'x, y, z'
loop_
 _atom_site_type_symbol
 _atom_site_label
 _atom_site_symmetry_multiplicity
 _atom_site_fract_x
 _atom_site_fract_y
 _atom_site_fract_z
 _atom_site_occupancy
  Gd  Gd0  1  0.77736900  0.53465900  0.60364600  1
  Gd  Gd1  1  0.22263100  0.96534100  0.10364600  1
  Gd  Gd2  1  0.27736900  0.96534100  0.60364600  1
  Gd  Gd3  1  0.77736900  0.03465900  0.89635400  1
  Gd  Gd4  1  0.22263100  0.46534100  0.39635400  1
  Gd  Gd5  1  0.72263100  0.53465900  0.10364600  1
  Gd  Gd6  1  0.72263100  0.03465900  0.39635400  1
  Gd  Gd7  1  0.27736900  0.46534100  0.89635400  1
  Cu  Cu8  1  0.30877500  0.81809300  0.80469600  1
  Cu  Cu9  1  0.19122500  0.31809300  0.19530400  1
  Cu  Cu10  1  0.30877500  0.31809300  0.69530400  1
  Cu  Cu11  1  0.80877500  0.18190700  0.69530400  1
  Cu  Cu12  1  0.69122500  0.68190700  0.30469600  1
  Cu  Cu13  1  0.69122500  0.18190700  0.19530400  1
  Cu  Cu14  1  0.19122500  0.81809300  0.30469600  1
  Cu  Cu15  1  0.80877500  0.68190700  0.80469600  1
  Mo  Mo16  1  0.83017500  0.89671100  0.15289600  1
  Mo  Mo17  1  0.00021600  0.78015500  0.44277000  1
  Mo  Mo18  1  0.49978400  0.78015500  0.94277000  1
  Mo  Mo19  1  0.66982500  0.89671100  0.65289600  1
  Mo  Mo20  1  0.99978400  0.71984500  0.94277000  1
  Mo  Mo21  1  0.00021600  0.28015500  0.05723000  1
  Mo  Mo22  1  0.16982500  0.60328900  0.65289600  1
  Mo  Mo23  1  0.83017500  0.39671100  0.34710400  1
  Mo  Mo24  1  0.33017500  0.10328900  0.34710400  1
  Mo  Mo25  1  0.49978400  0.28015500  0.55723000  1
  Mo  Mo26  1  0.66982500  0.39671100  0.84710400  1
  Mo  Mo27  1  0.33017500  0.60328900  0.15289600  1
  Mo  Mo28  1  0.50021600  0.21984500  0.05723000  1
  Mo  Mo29  1  0.50021600  0.71984500  0.44277000  1
  Mo  Mo30  1  0.16982500  0.10328900  0.84710400  1
  Mo  Mo31  1  0.99978400  0.21984500  0.55723000  1
  O  O32  1  0.75686300  0.01127600  0.72737800  1
  O  O33  1  0.24313700  0.48872400  0.22737800  1
  O  O34  1  0.24313700  0.98872400  0.27262200  1
  O  O35  1  0.75686300  0.51127600  0.77262200  1
  O  O36  1  0.60850800  0.16896800  0.50123100  1
  O  O37  1  0.89149200  0.66896800  0.49876900  1
  O  O38  1  0.09437100  0.36835300  0.97549900  1
  O  O39  1  0.09437100  0.86835300  0.52450100  1
  O  O40  1  0.90562900  0.63164700  0.02450100  1
  O  O41  1  0.89833400  0.38681200  0.12430500  1
  O  O42  1  0.60166600  0.88681200  0.87569500  1
  O  O43  1  0.89833400  0.88681200  0.37569500  1
  O  O44  1  0.10850800  0.33103200  0.50123100  1
  O  O45  1  0.99227500  0.58757800  0.66599500  1
  O  O46  1  0.00772500  0.41242200  0.33400500  1
  O  O47  1  0.60850800  0.66896800  0.99876900  1
  O  O48  1  0.00772500  0.91242200  0.16599500  1
  O  O49  1  0.50772500  0.58757800  0.16599500  1
  O  O50  1  0.61116000  0.81838200  0.36840200  1
  O  O51  1  0.39833400  0.61318800  0.37569500  1
  O  O52  1  0.49227500  0.41242200  0.83400500  1
  O  O53  1  0.40562900  0.86835300  0.02450100  1
  O  O54  1  0.22505400  0.76487100  0.68169200  1
  O  O55  1  0.11116000  0.68161800  0.36840200  1
  O  O56  1  0.38884000  0.18161800  0.63159800  1
  O  O57  1  0.39149200  0.33103200  0.00123100  1
  O  O58  1  0.27494600  0.26487100  0.31830800  1
  O  O59  1  0.90562900  0.13164700  0.47549900  1
  O  O60  1  0.61116000  0.31838200  0.13159800  1
  O  O61  1  0.21163500  0.57562300  0.53785900  1
  O  O62  1  0.88884000  0.81838200  0.86840200  1
  O  O63  1  0.77494600  0.23512900  0.31830800  1
  O  O64  1  0.74313700  0.01127600  0.22737800  1
  O  O65  1  0.25686300  0.98872400  0.77262200  1
  O  O66  1  0.99227500  0.08757800  0.83400500  1
  O  O67  1  0.72505400  0.73512900  0.68169200  1
  O  O68  1  0.22505400  0.26487100  0.81830800  1
  O  O69  1  0.10166600  0.11318800  0.62430500  1
  O  O70  1  0.21163500  0.07562300  0.96214100  1
  O  O71  1  0.11116000  0.18161800  0.13159800  1
  O  O72  1  0.39149200  0.83103200  0.49876900  1
  O  O73  1  0.39833400  0.11318800  0.12430500  1
  O  O74  1  0.71163500  0.42437700  0.96214100  1
  O  O75  1  0.78836500  0.92437700  0.03785900  1
  O  O76  1  0.59437100  0.13164700  0.97549900  1
  O  O77  1  0.72505400  0.23512900  0.81830800  1
  O  O78  1  0.59437100  0.63164700  0.52450100  1
  O  O79  1  0.60166600  0.38681200  0.62430500  1
  O  O80  1  0.10166600  0.61318800  0.87569500  1
  O  O81  1  0.77494600  0.73512900  0.18169200  1
  O  O82  1  0.78836500  0.42437700  0.46214100  1
  O  O83  1  0.28836500  0.07562300  0.46214100  1
  O  O84  1  0.38884000  0.68161800  0.86840200  1
  O  O85  1  0.89149200  0.16896800  0.00123100  1
  O  O86  1  0.88884000  0.31838200  0.63159800  1
  O  O87  1  0.28836500  0.57562300  0.03785900  1
  O  O88  1  0.49227500  0.91242200  0.66599500  1
  O  O89  1  0.50772500  0.08757800  0.33400500  1
  O  O90  1  0.74313700  0.51127600  0.27262200  1
  O  O91  1  0.40562900  0.36835300  0.47549900  1
  O  O92  1  0.27494600  0.76487100  0.18169200  1
  O  O93  1  0.10850800  0.83103200  0.99876900  1
  O  O94  1  0.25686300  0.48872400  0.72737800  1
  O  O95  1  0.71163500  0.92437700  0.53785900  1
