# generated using pymatgen
data_S2XeNO4F3
_symmetry_space_group_name_H-M   'P 1'
_cell_length_a   7.11321400
_cell_length_b   9.95028100
_cell_length_c   12.31248109
_cell_angle_alpha   67.36555823
_cell_angle_beta   90.00000000
_cell_angle_gamma   90.00000000
_symmetry_Int_Tables_number   1
_chemical_formula_structural   S2XeNO4F3
_chemical_formula_sum   'S8 Xe4 N4 O16 F12'
_cell_volume   804.33809139
_cell_formula_units_Z   4
loop_
 _symmetry_equiv_pos_site_id
 _symmetry_equiv_pos_as_xyz
  1  'x, y, z'
loop_
 _atom_site_type_symbol
 _atom_site_label
 _atom_site_symmetry_multiplicity
 _atom_site_fract_x
 _atom_site_fract_y
 _atom_site_fract_z
 _atom_site_occupancy
  S  S0  1  0.01396100  0.62531200  0.31040200  1
  S  S1  1  0.98603900  0.37468800  0.68959800  1
  S  S2  1  0.04941500  0.75566100  0.05744300  1
  S  S3  1  0.45058500  0.75566100  0.55744300  1
  S  S4  1  0.54941500  0.24433900  0.44255700  1
  S  S5  1  0.48603900  0.62531200  0.81040200  1
  S  S6  1  0.95058500  0.24433900  0.94255700  1
  S  S7  1  0.51396100  0.37468800  0.18959800  1
  Xe  Xe8  1  0.82677400  0.86960400  0.67007000  1
  Xe  Xe9  1  0.17322600  0.13039600  0.32993000  1
  Xe  Xe10  1  0.67322600  0.86960400  0.17007000  1
  Xe  Xe11  1  0.32677400  0.13039600  0.82993000  1
  N  N12  1  0.06124600  0.26258000  0.82004400  1
  N  N13  1  0.43875400  0.26258000  0.32004400  1
  N  N14  1  0.56124600  0.73742000  0.67995600  1
  N  N15  1  0.93875400  0.73742000  0.17995600  1
  O  O16  1  0.37156200  0.38128600  0.10655700  1
  O  O17  1  0.95492800  0.86667900  0.96293800  1
  O  O18  1  0.60122500  0.49915300  0.19813100  1
  O  O19  1  0.54507200  0.86667900  0.46293800  1
  O  O20  1  0.62843800  0.61871400  0.89344300  1
  O  O21  1  0.04507200  0.13332100  0.03706200  1
  O  O22  1  0.87156200  0.61871400  0.39344300  1
  O  O23  1  0.75186200  0.24640400  0.92677700  1
  O  O24  1  0.12843800  0.38128600  0.60655700  1
  O  O25  1  0.25186200  0.75359600  0.57322300  1
  O  O26  1  0.45492800  0.13332100  0.53706200  1
  O  O27  1  0.89877500  0.49915300  0.69813100  1
  O  O28  1  0.74813800  0.24640400  0.42677700  1
  O  O29  1  0.24813800  0.75359600  0.07322300  1
  O  O30  1  0.39877500  0.50084700  0.80186900  1
  O  O31  1  0.10122500  0.50084700  0.30186900  1
  F  F32  1  0.68164100  0.28102600  0.16793100  1
  F  F33  1  0.93535600  0.00608500  0.34042600  1
  F  F34  1  0.43535600  0.99391500  0.15957400  1
  F  F35  1  0.99795400  0.60657300  0.04593000  1
  F  F36  1  0.50204600  0.60657300  0.54593000  1
  F  F37  1  0.49795400  0.39342700  0.45407000  1
  F  F38  1  0.00204600  0.39342700  0.95407000  1
  F  F39  1  0.31835900  0.71897400  0.83206900  1
  F  F40  1  0.56464400  0.00608500  0.84042600  1
  F  F41  1  0.81835900  0.28102600  0.66793100  1
  F  F42  1  0.18164100  0.71897400  0.33206900  1
  F  F43  1  0.06464400  0.99391500  0.65957400  1
