# generated using pymatgen
data_CsMo2P3O13
_symmetry_space_group_name_H-M   'P 1'
_cell_length_a   8.63192500
_cell_length_b   7.84030000
_cell_length_c   9.16652122
_cell_angle_alpha   79.21646000
_cell_angle_beta   90.00000000
_cell_angle_gamma   90.00000000
_symmetry_Int_Tables_number   1
_chemical_formula_structural   CsMo2P3O13
_chemical_formula_sum   'Cs2 Mo4 P6 O26'
_cell_volume   609.40663170
_cell_formula_units_Z   2
loop_
 _symmetry_equiv_pos_site_id
 _symmetry_equiv_pos_as_xyz
  1  'x, y, z'
loop_
 _atom_site_type_symbol
 _atom_site_label
 _atom_site_symmetry_multiplicity
 _atom_site_fract_x
 _atom_site_fract_y
 _atom_site_fract_z
 _atom_site_occupancy
  Cs  Cs0  1  0.77148100  0.50000000  0.75000000  1
  Cs  Cs1  1  0.22851900  0.50000000  0.25000000  1
  Mo  Mo2  1  0.76522300  0.79064200  0.06765200  1
  Mo  Mo3  1  0.76522300  0.20935800  0.43234800  1
  Mo  Mo4  1  0.23477700  0.79064200  0.56765200  1
  Mo  Mo5  1  0.23477700  0.20935800  0.93234800  1
  P  P6  1  0.43984000  0.85203500  0.86220000  1
  P  P7  1  0.56016000  0.85203500  0.36220000  1
  P  P8  1  0.04462800  0.00000000  0.25000000  1
  P  P9  1  0.95537200  0.00000000  0.75000000  1
  P  P10  1  0.43984000  0.14796500  0.63780000  1
  P  P11  1  0.56016000  0.14796500  0.13780000  1
  O  O12  1  0.53486000  0.00000000  0.75000000  1
  O  O13  1  0.16567200  0.41663500  0.91898500  1
  O  O14  1  0.32818400  0.05443600  0.55066600  1
  O  O15  1  0.67181600  0.94556400  0.44933400  1
  O  O16  1  0.35878900  0.73954300  0.76503900  1
  O  O17  1  0.64121100  0.73954300  0.26503900  1
  O  O18  1  0.56117500  0.25842100  0.54142700  1
  O  O19  1  0.94739400  0.11722200  0.33114100  1
  O  O20  1  0.16567200  0.58336500  0.58101500  1
  O  O21  1  0.83432800  0.58336500  0.08101500  1
  O  O22  1  0.85113500  0.12153400  0.63966200  1
  O  O23  1  0.94739400  0.88277800  0.16885900  1
  O  O24  1  0.85113500  0.87846600  0.86033800  1
  O  O25  1  0.14886500  0.87846600  0.36033800  1
  O  O26  1  0.05260600  0.88277800  0.66885900  1
  O  O27  1  0.67181600  0.05443600  0.05066600  1
  O  O28  1  0.56117500  0.74157900  0.95857300  1
  O  O29  1  0.14886500  0.12153400  0.13966200  1
  O  O30  1  0.83432800  0.41663500  0.41898500  1
  O  O31  1  0.46514000  0.00000000  0.25000000  1
  O  O32  1  0.32818400  0.94556400  0.94933400  1
  O  O33  1  0.43882500  0.74157900  0.45857300  1
  O  O34  1  0.35878900  0.26045700  0.73496100  1
  O  O35  1  0.43882500  0.25842100  0.04142700  1
  O  O36  1  0.64121100  0.26045700  0.23496100  1
  O  O37  1  0.05260600  0.11722200  0.83114100  1
