# generated using pymatgen
data_Na2AlZnF7
_symmetry_space_group_name_H-M   'P 1'
_cell_length_a   7.30556307
_cell_length_b   7.30556307
_cell_length_c   7.30556307
_cell_angle_alpha   120.92069457
_cell_angle_beta   118.42418421
_cell_angle_gamma   90.58175681
_symmetry_Int_Tables_number   1
_chemical_formula_structural   Na2AlZnF7
_chemical_formula_sum   'Na4 Al2 Zn2 F14'
_cell_volume   276.89313518
_cell_formula_units_Z   2
loop_
 _symmetry_equiv_pos_site_id
 _symmetry_equiv_pos_as_xyz
  1  'x, y, z'
loop_
 _atom_site_type_symbol
 _atom_site_label
 _atom_site_symmetry_multiplicity
 _atom_site_fract_x
 _atom_site_fract_y
 _atom_site_fract_z
 _atom_site_occupancy
  Na  Na0  1  0.00000000  0.00000000  0.00000000  1
  Na  Na1  1  0.00000000  0.50000000  0.00000000  1
  Na  Na2  1  0.00000000  0.00000000  0.50000000  1
  Na  Na3  1  0.50000000  0.50000000  0.00000000  1
  Al  Al4  1  0.50000000  0.00000000  0.50000000  1
  Al  Al5  1  0.00000000  0.50000000  0.50000000  1
  Zn  Zn6  1  0.50000000  0.50000000  0.50000000  1
  Zn  Zn7  1  0.50000000  0.00000000  0.00000000  1
  F  F8  1  0.82456300  0.20367200  0.25121900  1
  F  F9  1  0.19587900  0.91715200  0.27872700  1
  F  F10  1  0.45245400  0.70367200  0.37911000  1
  F  F11  1  0.13842500  0.41715200  0.72127300  1
  F  F12  1  0.54754600  0.29632700  0.62089000  1
  F  F13  1  0.86157500  0.58284800  0.27872700  1
  F  F14  1  0.82456300  0.57334400  0.62089000  1
  F  F15  1  0.37615200  0.25000000  0.12615200  1
  F  F16  1  0.62384800  0.75000000  0.87384800  1
  F  F17  1  0.17543700  0.79632700  0.74878100  1
  F  F18  1  0.54754600  0.92665600  0.25121900  1
  F  F19  1  0.17543700  0.42665600  0.37911000  1
  F  F20  1  0.45245400  0.07334400  0.74878100  1
  F  F21  1  0.80412100  0.08284800  0.72127300  1
