# generated using pymatgen
data_TbCl2F
_symmetry_space_group_name_H-M   'P 1'
_cell_length_a   5.34969851
_cell_length_b   5.34969851
_cell_length_c   6.86129984
_cell_angle_alpha   73.66071338
_cell_angle_beta   73.66071338
_cell_angle_gamma   66.39326349
_symmetry_Int_Tables_number   1
_chemical_formula_structural   TbCl2F
_chemical_formula_sum   'Tb2 Cl4 F2'
_cell_volume   169.45941418
_cell_formula_units_Z   2
loop_
 _symmetry_equiv_pos_site_id
 _symmetry_equiv_pos_as_xyz
  1  'x, y, z'
loop_
 _atom_site_type_symbol
 _atom_site_label
 _atom_site_symmetry_multiplicity
 _atom_site_fract_x
 _atom_site_fract_y
 _atom_site_fract_z
 _atom_site_occupancy
  Tb  Tb0  1  0.76703400  0.23296600  0.75000000  1
  Tb  Tb1  1  0.23296600  0.76703400  0.25000000  1
  Cl  Cl2  1  0.28344000  0.33896300  0.60601100  1
  Cl  Cl3  1  0.71656000  0.66103700  0.39398900  1
  Cl  Cl4  1  0.33896300  0.28344000  0.10601000  1
  Cl  Cl5  1  0.66103700  0.71656000  0.89398900  1
  F  F6  1  0.00000000  0.00000000  0.00000000  1
  F  F7  1  0.00000000  0.00000000  0.50000000  1
