# generated using pymatgen
data_SrTa2Bi2O9
_symmetry_space_group_name_H-M   'P 1'
_cell_length_a   13.05977023
_cell_length_b   13.05977023
_cell_length_c   5.59382400
_cell_angle_alpha   90.00000000
_cell_angle_beta   90.00000000
_cell_angle_gamma   155.16939102
_symmetry_Int_Tables_number   1
_chemical_formula_structural   SrTa2Bi2O9
_chemical_formula_sum   'Sr2 Ta4 Bi4 O18'
_cell_volume   400.64893564
_cell_formula_units_Z   2
loop_
 _symmetry_equiv_pos_site_id
 _symmetry_equiv_pos_as_xyz
  1  'x, y, z'
loop_
 _atom_site_type_symbol
 _atom_site_label
 _atom_site_symmetry_multiplicity
 _atom_site_fract_x
 _atom_site_fract_y
 _atom_site_fract_z
 _atom_site_occupancy
  Sr  Sr0  1  0.01913500  0.01913500  0.00000000  1
  Sr  Sr1  1  0.51913500  0.51913500  0.50000000  1
  Ta  Ta2  1  0.93206500  0.09872700  0.50294100  1
  Ta  Ta3  1  0.09872700  0.93206500  0.49705900  1
  Ta  Ta4  1  0.43206500  0.59872700  0.99705900  1
  Ta  Ta5  1  0.59872700  0.43206500  0.00294100  1
  Bi  Bi6  1  0.71885000  0.11967700  0.97835100  1
  Bi  Bi7  1  0.11967700  0.71885000  0.02164900  1
  Bi  Bi8  1  0.61967700  0.21885000  0.47835100  1
  Bi  Bi9  1  0.21885000  0.61967700  0.52164900  1
  O  O10  1  0.19709600  0.88215700  0.46416500  1
  O  O11  1  0.96300300  0.46087300  0.26063500  1
  O  O12  1  0.46087300  0.96300300  0.73936500  1
  O  O13  1  0.69709600  0.38215700  0.03583500  1
  O  O14  1  0.52561200  0.52561200  0.00000000  1
  O  O15  1  0.02561200  0.02561200  0.50000000  1
  O  O16  1  0.67564900  0.83132200  0.26831300  1
  O  O17  1  0.83132200  0.67564900  0.73168700  1
  O  O18  1  0.21802300  0.36451200  0.73151900  1
  O  O19  1  0.96087300  0.46300300  0.76063500  1
  O  O20  1  0.71802300  0.86451200  0.76848100  1
  O  O21  1  0.33132200  0.17564900  0.76831300  1
  O  O22  1  0.86451200  0.71802300  0.23151900  1
  O  O23  1  0.17564900  0.33132200  0.23168700  1
  O  O24  1  0.38215700  0.69709600  0.96416500  1
  O  O25  1  0.36451200  0.21802300  0.26848100  1
  O  O26  1  0.88215700  0.19709600  0.53583500  1
  O  O27  1  0.46300300  0.96087300  0.23936500  1
