# generated using pymatgen
data_Al(PO3)3
_symmetry_space_group_name_H-M   'P 1'
_cell_length_a   11.09026232
_cell_length_b   11.09026232
_cell_length_c   9.32589600
_cell_angle_alpha   90.00000000
_cell_angle_beta   90.00000000
_cell_angle_gamma   120.00000193
_symmetry_Int_Tables_number   1
_chemical_formula_structural   Al(PO3)3
_chemical_formula_sum   'Al6 P18 O54'
_cell_volume   993.35579331
_cell_formula_units_Z   6
loop_
 _symmetry_equiv_pos_site_id
 _symmetry_equiv_pos_as_xyz
  1  'x, y, z'
loop_
 _atom_site_type_symbol
 _atom_site_label
 _atom_site_symmetry_multiplicity
 _atom_site_fract_x
 _atom_site_fract_y
 _atom_site_fract_z
 _atom_site_occupancy
  Al  Al0  1  0.33333300  0.66666700  0.00198000  1
  Al  Al1  1  0.66666700  0.33333300  0.49802000  1
  Al  Al2  1  0.66666700  0.33333300  0.99802000  1
  Al  Al3  1  0.33333300  0.66666700  0.50198000  1
  Al  Al4  1  0.00000000  0.00000000  0.50000000  1
  Al  Al5  1  0.00000000  0.00000000  0.00000000  1
  P  P6  1  0.00000000  0.20401500  0.25000000  1
  P  P7  1  0.79598500  0.00000000  0.75000000  1
  P  P8  1  0.15899700  0.71247100  0.25666600  1
  P  P9  1  0.20401500  0.20401500  0.75000000  1
  P  P10  1  0.71247100  0.55347400  0.74333400  1
  P  P11  1  0.84100300  0.55347400  0.24333400  1
  P  P12  1  0.15899700  0.44652600  0.75666600  1
  P  P13  1  0.44652600  0.28752900  0.24333400  1
  P  P14  1  0.79598500  0.79598500  0.25000000  1
  P  P15  1  0.20401500  0.00000000  0.25000000  1
  P  P16  1  0.44652600  0.15899700  0.74333400  1
  P  P17  1  0.00000000  0.79598500  0.75000000  1
  P  P18  1  0.55347400  0.84100300  0.25666600  1
  P  P19  1  0.71247100  0.15899700  0.24333400  1
  P  P20  1  0.28752900  0.84100300  0.75666600  1
  P  P21  1  0.28752900  0.44652600  0.25666600  1
  P  P22  1  0.55347400  0.71247100  0.75666600  1
  P  P23  1  0.84100300  0.28752900  0.74333400  1
  O  O24  1  0.18255100  0.53557200  0.88605000  1
  O  O25  1  0.53557200  0.35302100  0.11395000  1
  O  O26  1  0.48351700  0.68298700  0.61370900  1
  O  O27  1  0.88258700  0.84467700  0.38360300  1
  O  O28  1  0.31701300  0.80053000  0.61370900  1
  O  O29  1  0.67499300  0.00000000  0.25000000  1
  O  O30  1  0.76414600  0.12255900  0.71537300  1
  O  O31  1  0.84467700  0.88258700  0.11639700  1
  O  O32  1  0.18255100  0.64697900  0.38605000  1
  O  O33  1  0.46442800  0.64697900  0.88605000  1
  O  O34  1  0.48351700  0.80053000  0.11370900  1
  O  O35  1  0.19947000  0.51648300  0.61370900  1
  O  O36  1  0.03791000  0.15532300  0.11639700  1
  O  O37  1  0.35841400  0.12255900  0.21537300  1
  O  O38  1  0.51648300  0.19947000  0.88629100  1
  O  O39  1  0.53557200  0.18255100  0.61395000  1
  O  O40  1  0.32500700  0.00000000  0.75000000  1
  O  O41  1  0.31701300  0.51648300  0.11370900  1
  O  O42  1  0.67499300  0.67499300  0.75000000  1
  O  O43  1  0.87744100  0.64158600  0.71537300  1
  O  O44  1  0.15532300  0.03791000  0.38360300  1
  O  O45  1  0.80053000  0.31701300  0.88629100  1
  O  O46  1  0.12255900  0.35841400  0.28462700  1
  O  O47  1  0.00000000  0.67499300  0.25000000  1
  O  O48  1  0.64697900  0.18255100  0.11395000  1
  O  O49  1  0.35841400  0.23585400  0.71537300  1
  O  O50  1  0.81744900  0.35302100  0.61395000  1
  O  O51  1  0.87744100  0.23585400  0.21537300  1
  O  O52  1  0.81744900  0.46442800  0.11395000  1
  O  O53  1  0.64697900  0.46442800  0.61395000  1
  O  O54  1  0.96209000  0.11741300  0.38360300  1
  O  O55  1  0.35302100  0.81744900  0.88605000  1
  O  O56  1  0.35302100  0.53557200  0.38605000  1
  O  O57  1  0.23585400  0.87744100  0.28462700  1
  O  O58  1  0.03791000  0.88258700  0.61639700  1
  O  O59  1  0.51648300  0.31701300  0.38629100  1
  O  O60  1  0.46442800  0.81744900  0.38605000  1
  O  O61  1  0.80053000  0.48351700  0.38629100  1
  O  O62  1  0.64158600  0.87744100  0.78462700  1
  O  O63  1  0.76414600  0.64158600  0.21537300  1
  O  O64  1  0.32500700  0.32500700  0.25000000  1
  O  O65  1  0.68298700  0.19947000  0.38629100  1
  O  O66  1  0.11741300  0.96209000  0.11639700  1
  O  O67  1  0.00000000  0.32500700  0.75000000  1
  O  O68  1  0.64158600  0.76414600  0.28462700  1
  O  O69  1  0.15532300  0.11741300  0.88360300  1
  O  O70  1  0.23585400  0.35841400  0.78462700  1
  O  O71  1  0.84467700  0.96209000  0.61639700  1
  O  O72  1  0.12255900  0.76414600  0.78462700  1
  O  O73  1  0.19947000  0.68298700  0.11370900  1
  O  O74  1  0.11741300  0.15532300  0.61639700  1
  O  O75  1  0.88258700  0.03791000  0.88360300  1
  O  O76  1  0.96209000  0.84467700  0.88360300  1
  O  O77  1  0.68298700  0.48351700  0.88629100  1
