# generated using pymatgen
data_SrCo2(AsO4)2
_symmetry_space_group_name_H-M   'P 1'
_cell_length_a   5.87176300
_cell_length_b   7.12055790
_cell_length_c   9.26727264
_cell_angle_alpha   106.43575264
_cell_angle_beta   108.42643829
_cell_angle_gamma   97.70301738
_symmetry_Int_Tables_number   1
_chemical_formula_structural   SrCo2(AsO4)2
_chemical_formula_sum   'Sr2 Co4 As4 O16'
_cell_volume   341.78275730
_cell_formula_units_Z   2
loop_
 _symmetry_equiv_pos_site_id
 _symmetry_equiv_pos_as_xyz
  1  'x, y, z'
loop_
 _atom_site_type_symbol
 _atom_site_label
 _atom_site_symmetry_multiplicity
 _atom_site_fract_x
 _atom_site_fract_y
 _atom_site_fract_z
 _atom_site_occupancy
  Sr  Sr0  1  0.81996700  0.75735100  0.51034700  1
  Sr  Sr1  1  0.18003300  0.24264900  0.48965300  1
  Co  Co2  1  0.92414900  0.20972600  0.08788100  1
  Co  Co3  1  0.07585100  0.79027400  0.91211900  1
  Co  Co4  1  0.65914900  0.77409500  0.09065400  1
  Co  Co5  1  0.34085100  0.22590500  0.90934600  1
  As  As6  1  0.47734100  0.83207600  0.72820500  1
  As  As7  1  0.52265900  0.16792400  0.27179500  1
  As  As8  1  0.18328200  0.68930400  0.25708900  1
  As  As9  1  0.81671800  0.31069600  0.74291100  1
  O  O10  1  0.97292100  0.69196600  0.07823000  1
  O  O11  1  0.02707900  0.30803400  0.92177000  1
  O  O12  1  0.65187900  0.38208100  0.09361500  1
  O  O13  1  0.34812100  0.61791900  0.90638500  1
  O  O14  1  0.25800000  0.08073400  0.08838400  1
  O  O15  1  0.74200000  0.91926600  0.91161600  1
  O  O16  1  0.76897300  0.07359700  0.22146500  1
  O  O17  1  0.23102700  0.92640300  0.77853500  1
  O  O18  1  0.15852600  0.46398700  0.29452800  1
  O  O19  1  0.84147400  0.53601300  0.70547200  1
  O  O20  1  0.47889500  0.78094500  0.26676400  1
  O  O21  1  0.52110500  0.21905500  0.73323600  1
  O  O22  1  0.36493100  0.58441600  0.74431400  1
  O  O23  1  0.63506900  0.41558400  0.25568600  1
  O  O24  1  0.12506000  0.86172900  0.40518300  1
  O  O25  1  0.87494000  0.13827100  0.59481700  1
