# generated using pymatgen
data_KMo2(PO4)3
_symmetry_space_group_name_H-M   'P 1'
_cell_length_a   9.37617600
_cell_length_b   12.50360800
_cell_length_c   18.00755600
_cell_angle_alpha   90.00000000
_cell_angle_beta   90.00000000
_cell_angle_gamma   90.00000000
_symmetry_Int_Tables_number   1
_chemical_formula_structural   KMo2(PO4)3
_chemical_formula_sum   'K8 Mo16 P24 O96'
_cell_volume   2111.13436181
_cell_formula_units_Z   8
loop_
 _symmetry_equiv_pos_site_id
 _symmetry_equiv_pos_as_xyz
  1  'x, y, z'
loop_
 _atom_site_type_symbol
 _atom_site_label
 _atom_site_symmetry_multiplicity
 _atom_site_fract_x
 _atom_site_fract_y
 _atom_site_fract_z
 _atom_site_occupancy
  K  K0  1  0.33302200  0.75000000  0.90066800  1
  K  K1  1  0.83302200  0.75000000  0.59933200  1
  K  K2  1  0.66697800  0.25000000  0.09933200  1
  K  K3  1  0.15936000  0.25000000  0.92079500  1
  K  K4  1  0.34064000  0.75000000  0.42079500  1
  K  K5  1  0.16697800  0.25000000  0.40066800  1
  K  K6  1  0.84064000  0.75000000  0.07920500  1
  K  K7  1  0.65936000  0.25000000  0.57920500  1
  Mo  Mo8  1  0.52704200  0.39967900  0.87533400  1
  Mo  Mo9  1  0.47053100  0.60056400  0.62152700  1
  Mo  Mo10  1  0.47295800  0.89967900  0.12466600  1
  Mo  Mo11  1  0.02704200  0.10032100  0.62466600  1
  Mo  Mo12  1  0.52946900  0.10056400  0.37847300  1
  Mo  Mo13  1  0.47295800  0.60032100  0.12466600  1
  Mo  Mo14  1  0.97053100  0.60056400  0.87847300  1
  Mo  Mo15  1  0.97295800  0.89967900  0.37533400  1
  Mo  Mo16  1  0.02704200  0.39967900  0.62466600  1
  Mo  Mo17  1  0.47053100  0.89943600  0.62152700  1
  Mo  Mo18  1  0.52704200  0.10032100  0.87533400  1
  Mo  Mo19  1  0.97295800  0.60032100  0.37533400  1
  Mo  Mo20  1  0.02946900  0.10056400  0.12152700  1
  Mo  Mo21  1  0.52946900  0.39943600  0.37847300  1
  Mo  Mo22  1  0.97053100  0.89943600  0.87847300  1
  Mo  Mo23  1  0.02946900  0.39943600  0.12152700  1
  P  P24  1  0.24732000  0.49868000  0.48463900  1
  P  P25  1  0.12996900  0.86864800  0.19825800  1
  P  P26  1  0.37003100  0.36864800  0.69825800  1
  P  P27  1  0.13966400  0.63002400  0.70594800  1
  P  P28  1  0.37003100  0.13135200  0.69825800  1
  P  P29  1  0.87003100  0.36864800  0.80174200  1
  P  P30  1  0.13966400  0.86997600  0.70594800  1
  P  P31  1  0.24732000  0.00132000  0.48463900  1
  P  P32  1  0.25268000  0.99868000  0.98463900  1
  P  P33  1  0.74732000  0.49868000  0.01536100  1
  P  P34  1  0.63966400  0.63002400  0.79405200  1
  P  P35  1  0.75268000  0.99868000  0.51536100  1
  P  P36  1  0.74732000  0.00132000  0.01536100  1
  P  P37  1  0.36033600  0.36997600  0.20594800  1
  P  P38  1  0.36033600  0.13002400  0.20594800  1
  P  P39  1  0.62996900  0.86864800  0.30174200  1
  P  P40  1  0.75268000  0.50132000  0.51536100  1
  P  P41  1  0.12996900  0.63135200  0.19825800  1
  P  P42  1  0.87003100  0.13135200  0.80174200  1
  P  P43  1  0.25268000  0.50132000  0.98463900  1
  P  P44  1  0.63966400  0.86997600  0.79405200  1
  P  P45  1  0.86033600  0.36997600  0.29405200  1
  P  P46  1  0.62996900  0.63135200  0.30174200  1
  P  P47  1  0.86033600  0.13002400  0.29405200  1
  O  O48  1  0.83432300  0.43135100  0.57213900  1
  O  O49  1  0.54578500  0.56244100  0.84572400  1
  O  O50  1  0.45421500  0.06244100  0.15427600  1
  O  O51  1  0.71015700  0.12252900  0.81258600  1
  O  O52  1  0.85651600  0.57253900  0.47116900  1
  O  O53  1  0.59505500  0.61953800  0.22030700  1
  O  O54  1  0.01509100  0.25000000  0.60607700  1
  O  O55  1  0.65234300  0.92046200  0.55657100  1
  O  O56  1  0.28984300  0.62252900  0.18741400  1
  O  O57  1  0.29957000  0.88075500  0.69386200  1
  O  O58  1  0.61049300  0.88118100  0.71143500  1
  O  O59  1  0.33432300  0.43135100  0.92786100  1
  O  O60  1  0.46028100  0.43752000  0.64529000  1
  O  O61  1  0.02308000  0.25000000  0.10473400  1
  O  O62  1  0.95421500  0.06244100  0.34572400  1
  O  O63  1  0.11049300  0.61881900  0.78856500  1
  O  O64  1  0.33296100  0.92112000  0.53232800  1
  O  O65  1  0.48490900  0.75000000  0.10607700  1
  O  O66  1  0.98490900  0.75000000  0.39392300  1
  O  O67  1  0.14348400  0.07253900  0.52883100  1
  O  O68  1  0.11049300  0.88118100  0.78856500  1
  O  O69  1  0.58039900  0.75000000  0.32867500  1
  O  O70  1  0.64348400  0.07253900  0.97116900  1
  O  O71  1  0.83296100  0.57888000  0.96767200  1
  O  O72  1  0.84765700  0.07953800  0.05657100  1
  O  O73  1  0.40831100  0.25000000  0.18024400  1
  O  O74  1  0.83296100  0.92112000  0.96767200  1
  O  O75  1  0.45421500  0.43755900  0.15427600  1
  O  O76  1  0.28984300  0.87747100  0.18741400  1
  O  O77  1  0.09505500  0.88046200  0.27969300  1
  O  O78  1  0.47692000  0.75000000  0.60473400  1
  O  O79  1  0.16567700  0.93135100  0.42786100  1
  O  O80  1  0.03971900  0.93752000  0.14529000  1
  O  O81  1  0.59168900  0.75000000  0.81975600  1
  O  O82  1  0.70043000  0.11924500  0.30613800  1
  O  O83  1  0.53971900  0.56248000  0.35471000  1
  O  O84  1  0.78984300  0.87747100  0.31258600  1
  O  O85  1  0.35651600  0.92746100  0.02883100  1
  O  O86  1  0.04578500  0.56244100  0.65427600  1
  O  O87  1  0.33296100  0.57888000  0.53232800  1
  O  O88  1  0.79957000  0.88075500  0.80613800  1
  O  O89  1  0.38950700  0.38118100  0.28856500  1
  O  O90  1  0.15234300  0.57953800  0.94342900  1
  O  O91  1  0.52308000  0.25000000  0.39526600  1
  O  O92  1  0.03971900  0.56248000  0.14529000  1
  O  O93  1  0.16703900  0.07888000  0.03232800  1
  O  O94  1  0.78984300  0.62252900  0.31258600  1
  O  O95  1  0.16703900  0.42112000  0.03232800  1
  O  O96  1  0.34765700  0.42046200  0.44342900  1
  O  O97  1  0.66567700  0.56864900  0.07213900  1
  O  O98  1  0.96028100  0.06248000  0.85471000  1
  O  O99  1  0.91960100  0.25000000  0.82867500  1
  O  O100  1  0.85651600  0.92746100  0.47116900  1
  O  O101  1  0.16567700  0.56864900  0.42786100  1
  O  O102  1  0.53971900  0.93752000  0.35471000  1
  O  O103  1  0.96028100  0.43752000  0.85471000  1
  O  O104  1  0.35651600  0.57253900  0.02883100  1
  O  O105  1  0.70043000  0.38075500  0.30613800  1
  O  O106  1  0.04578500  0.93755900  0.65427600  1
  O  O107  1  0.88950700  0.11881900  0.21143500  1
  O  O108  1  0.33432300  0.06864900  0.92786100  1
  O  O109  1  0.08039900  0.75000000  0.17132500  1
  O  O110  1  0.34765700  0.07953800  0.44342900  1
  O  O111  1  0.88950700  0.38118100  0.21143500  1
  O  O112  1  0.83432300  0.06864900  0.57213900  1
  O  O113  1  0.46028100  0.06248000  0.64529000  1
  O  O114  1  0.54578500  0.93755900  0.84572400  1
  O  O115  1  0.21015700  0.37747100  0.68741400  1
  O  O116  1  0.84765700  0.42046200  0.05657100  1
  O  O117  1  0.51509100  0.25000000  0.89392300  1
  O  O118  1  0.29957000  0.61924500  0.69386200  1
  O  O119  1  0.15234300  0.92046200  0.94342900  1
  O  O120  1  0.66703900  0.07888000  0.46767200  1
  O  O121  1  0.90494500  0.38046200  0.72030700  1
  O  O122  1  0.59505500  0.88046200  0.22030700  1
  O  O123  1  0.61049300  0.61881900  0.71143500  1
  O  O124  1  0.71015700  0.37747100  0.81258600  1
  O  O125  1  0.90494500  0.11953800  0.72030700  1
  O  O126  1  0.65234300  0.57953800  0.55657100  1
  O  O127  1  0.97692000  0.75000000  0.89526600  1
  O  O128  1  0.14348400  0.42746100  0.52883100  1
  O  O129  1  0.21015700  0.12252900  0.68741400  1
  O  O130  1  0.66703900  0.42112000  0.46767200  1
  O  O131  1  0.79957000  0.61924500  0.80613800  1
  O  O132  1  0.40494500  0.38046200  0.77969300  1
  O  O133  1  0.95421500  0.43755900  0.34572400  1
  O  O134  1  0.09505500  0.61953800  0.27969300  1
  O  O135  1  0.64348400  0.42746100  0.97116900  1
  O  O136  1  0.66567700  0.93135100  0.07213900  1
  O  O137  1  0.38950700  0.11881900  0.28856500  1
  O  O138  1  0.90831100  0.25000000  0.31975600  1
  O  O139  1  0.09168900  0.75000000  0.68024400  1
  O  O140  1  0.40494500  0.11953800  0.77969300  1
  O  O141  1  0.20043000  0.38075500  0.19386200  1
  O  O142  1  0.20043000  0.11924500  0.19386200  1
  O  O143  1  0.41960100  0.25000000  0.67132500  1
