# generated using pymatgen
data_TbCu(WO4)2
_symmetry_space_group_name_H-M   'P 1'
_cell_length_a   6.91188800
_cell_length_b   10.13083269
_cell_length_c   15.35427027
_cell_angle_alpha   107.22709960
_cell_angle_beta   88.39246815
_cell_angle_gamma   108.02303597
_symmetry_Int_Tables_number   1
_chemical_formula_structural   TbCu(WO4)2
_chemical_formula_sum   'Tb6 Cu6 W12 O48'
_cell_volume   974.13746813
_cell_formula_units_Z   6
loop_
 _symmetry_equiv_pos_site_id
 _symmetry_equiv_pos_as_xyz
  1  'x, y, z'
loop_
 _atom_site_type_symbol
 _atom_site_label
 _atom_site_symmetry_multiplicity
 _atom_site_fract_x
 _atom_site_fract_y
 _atom_site_fract_z
 _atom_site_occupancy
  Tb  Tb0  1  0.36411100  0.05219200  0.34387200  1
  Tb  Tb1  1  0.03306300  0.39305400  0.66188600  1
  Tb  Tb2  1  0.96693700  0.60694600  0.33811400  1
  Tb  Tb3  1  0.31619100  0.29512300  0.99698600  1
  Tb  Tb4  1  0.63588900  0.94780800  0.65612800  1
  Tb  Tb5  1  0.68380900  0.70487700  0.00301400  1
  Cu  Cu6  1  0.65861500  0.33477200  0.83213800  1
  Cu  Cu7  1  0.84625300  0.16665400  0.16093500  1
  Cu  Cu8  1  0.34138500  0.66522800  0.16786200  1
  Cu  Cu9  1  0.15374700  0.83334600  0.83906500  1
  Cu  Cu10  1  0.50000000  0.50000000  0.50000000  1
  Cu  Cu11  1  0.00000000  0.00000000  0.00000000  1
  W  W12  1  0.16665700  0.56090100  0.93126300  1
  W  W13  1  0.14728700  0.09906500  0.73158500  1
  W  W14  1  0.98104200  0.24481000  0.38734900  1
  W  W15  1  0.01895800  0.75519000  0.61265100  1
  W  W16  1  0.64216000  0.59114600  0.72324800  1
  W  W17  1  0.49865500  0.76561300  0.39320800  1
  W  W18  1  0.66418600  0.08334400  0.93945800  1
  W  W19  1  0.85271300  0.90093500  0.26841500  1
  W  W20  1  0.35784000  0.40885400  0.27675200  1
  W  W21  1  0.83334300  0.43909900  0.06873700  1
  W  W22  1  0.50134500  0.23438700  0.60679200  1
  W  W23  1  0.33581400  0.91665600  0.06054200  1
  O  O24  1  0.57445700  0.97703700  0.82465400  1
  O  O25  1  0.66150700  0.27271500  0.93537100  1
  O  O26  1  0.09001600  0.41919900  0.00713200  1
  O  O27  1  0.05493600  0.88409600  0.06078100  1
  O  O28  1  0.23356400  0.25083900  0.66516200  1
  O  O29  1  0.61729000  0.87483400  0.50456100  1
  O  O30  1  0.37100700  0.56209200  0.72135300  1
  O  O31  1  0.94352900  0.60074500  0.67355200  1
  O  O32  1  0.41095600  0.51807400  0.92639400  1
  O  O33  1  0.71093900  0.21790400  0.38618200  1
  O  O34  1  0.38271000  0.12516600  0.49543900  1
  O  O35  1  0.05647100  0.39925500  0.32644800  1
  O  O36  1  0.44068800  0.57796600  0.41367600  1
  O  O37  1  0.09949600  0.86680500  0.25402800  1
  O  O38  1  0.00101000  0.93947100  0.60897200  1
  O  O39  1  0.58904400  0.48192600  0.07360600  1
  O  O40  1  0.55931200  0.42203400  0.58632400  1
  O  O41  1  0.72747700  0.68933800  0.84294500  1
  O  O42  1  0.61027200  0.92522600  0.00147600  1
  O  O43  1  0.94506400  0.11590400  0.93921900  1
  O  O44  1  0.27735500  0.20699200  0.84365600  1
  O  O45  1  0.90316900  0.08614200  0.24526700  1
  O  O46  1  0.99899000  0.06052900  0.39102800  1
  O  O47  1  0.92893600  0.64815800  0.49455700  1
  O  O48  1  0.72264500  0.79300800  0.15634400  1
  O  O49  1  0.95784700  0.54989900  0.17826700  1
  O  O50  1  0.76720600  0.25130700  0.08322400  1
  O  O51  1  0.38972800  0.07477400  0.99852400  1
  O  O52  1  0.28691200  0.25707600  0.33624400  1
  O  O53  1  0.34290700  0.59805900  0.26813500  1
  O  O54  1  0.33849300  0.72728500  0.06462900  1
  O  O55  1  0.42554300  0.02296300  0.17534600  1
  O  O56  1  0.90998400  0.58080100  0.99286800  1
  O  O57  1  0.25071600  0.80142400  0.40158200  1
  O  O58  1  0.23279400  0.74869300  0.91677600  1
  O  O59  1  0.74928400  0.19857600  0.59841800  1
  O  O60  1  0.57797000  0.91207000  0.32401100  1
  O  O61  1  0.76643600  0.74916100  0.33483800  1
  O  O62  1  0.42203000  0.08793000  0.67598900  1
  O  O63  1  0.04215300  0.45010100  0.82173300  1
  O  O64  1  0.09683100  0.91385800  0.75473300  1
  O  O65  1  0.27252300  0.31066200  0.15705500  1
  O  O66  1  0.28906100  0.78209600  0.61381800  1
  O  O67  1  0.07106400  0.35184200  0.50544300  1
  O  O68  1  0.65709300  0.40194100  0.73186500  1
  O  O69  1  0.71308800  0.74292400  0.66375600  1
  O  O70  1  0.62899300  0.43790800  0.27864700  1
  O  O71  1  0.90050400  0.13319500  0.74597200  1
