# generated using pymatgen
data_KNa3Al4(SiO4)4
_symmetry_space_group_name_H-M   'P 1'
_cell_length_a   10.13840091
_cell_length_b   10.13840091
_cell_length_c   8.52577900
_cell_angle_alpha   90.00000000
_cell_angle_beta   90.00000000
_cell_angle_gamma   120.00000591
_symmetry_Int_Tables_number   1
_chemical_formula_structural   KNa3Al4(SiO4)4
_chemical_formula_sum   'K2 Na6 Al8 Si8 O32'
_cell_volume   758.93328107
_cell_formula_units_Z   2
loop_
 _symmetry_equiv_pos_site_id
 _symmetry_equiv_pos_as_xyz
  1  'x, y, z'
loop_
 _atom_site_type_symbol
 _atom_site_label
 _atom_site_symmetry_multiplicity
 _atom_site_fract_x
 _atom_site_fract_y
 _atom_site_fract_z
 _atom_site_occupancy
  K  K0  1  0.00000000  0.00000000  0.00401700  1
  K  K1  1  0.00000000  0.00000000  0.50401700  1
  Na  Na2  1  0.45029500  0.44123600  0.50072500  1
  Na  Na3  1  0.99094100  0.54970500  0.50072500  1
  Na  Na4  1  0.44123600  0.99094100  0.00072500  1
  Na  Na5  1  0.00905900  0.45029500  0.00072500  1
  Na  Na6  1  0.54970500  0.55876400  0.00072500  1
  Na  Na7  1  0.55876400  0.00905900  0.50072500  1
  Al  Al8  1  0.66721400  0.76066600  0.31290200  1
  Al  Al9  1  0.76066600  0.09345200  0.81290200  1
  Al  Al10  1  0.66666700  0.33333300  0.30329100  1
  Al  Al11  1  0.33333300  0.66666700  0.80329100  1
  Al  Al12  1  0.09345200  0.33278600  0.31290200  1
  Al  Al13  1  0.90654800  0.66721400  0.81290200  1
  Al  Al14  1  0.33278600  0.23933400  0.81290200  1
  Al  Al15  1  0.23933400  0.90654800  0.31290200  1
  Si  Si16  1  0.90599000  0.66666500  0.18547700  1
  Si  Si17  1  0.23932500  0.90599000  0.68547700  1
  Si  Si18  1  0.76067500  0.09401000  0.18547700  1
  Si  Si19  1  0.66666500  0.76067500  0.68547700  1
  Si  Si20  1  0.33333300  0.66666700  0.19713600  1
  Si  Si21  1  0.66666700  0.33333300  0.69713600  1
  Si  Si22  1  0.33333500  0.23932500  0.18547700  1
  Si  Si23  1  0.09401000  0.33333500  0.68547700  1
  O  O24  1  0.22529400  0.28402200  0.68364400  1
  O  O25  1  0.77470600  0.71597800  0.18364400  1
  O  O26  1  0.97356700  0.68534700  0.00695900  1
  O  O27  1  0.95798300  0.22208900  0.80676400  1
  O  O28  1  0.05872800  0.77470600  0.68364400  1
  O  O29  1  0.77791100  0.73589300  0.80676400  1
  O  O30  1  0.26410700  0.04201700  0.80676400  1
  O  O31  1  0.49041700  0.65129300  0.74153900  1
  O  O32  1  0.71597800  0.94127200  0.68364400  1
  O  O33  1  0.65129300  0.16087600  0.24153900  1
  O  O34  1  0.17181900  0.52395300  0.25820600  1
  O  O35  1  0.31465300  0.28822000  0.00695900  1
  O  O36  1  0.83912400  0.49041700  0.24153900  1
  O  O37  1  0.52395300  0.35213400  0.75820600  1
  O  O38  1  0.64786600  0.17181900  0.75820600  1
  O  O39  1  0.71178000  0.02643300  0.00695900  1
  O  O40  1  0.50958300  0.34870700  0.24153900  1
  O  O41  1  0.34870700  0.83912400  0.74153900  1
  O  O42  1  0.82818100  0.47604700  0.75820600  1
  O  O43  1  0.28822000  0.97356700  0.50695900  1
  O  O44  1  0.02643300  0.31465300  0.50695900  1
  O  O45  1  0.16087600  0.50958300  0.74153900  1
  O  O46  1  0.04201700  0.77791100  0.30676400  1
  O  O47  1  0.73589300  0.95798300  0.30676400  1
  O  O48  1  0.47604700  0.64786600  0.25820600  1
  O  O49  1  0.28402200  0.05872800  0.18364400  1
  O  O50  1  0.66666700  0.33333300  0.50690900  1
  O  O51  1  0.35213400  0.82818100  0.25820600  1
  O  O52  1  0.94127200  0.22529400  0.18364400  1
  O  O53  1  0.68534700  0.71178000  0.50695900  1
  O  O54  1  0.33333300  0.66666700  0.00690900  1
  O  O55  1  0.22208900  0.26410700  0.30676400  1
