# generated using pymatgen
data_Ta2CS2
_symmetry_space_group_name_H-M   'P 1'
_cell_length_a   3.28988613
_cell_length_b   3.28988613
_cell_length_c   8.93614600
_cell_angle_alpha   90.00000000
_cell_angle_beta   90.00000000
_cell_angle_gamma   120.00000259
_symmetry_Int_Tables_number   1
_chemical_formula_structural   Ta2CS2
_chemical_formula_sum   'Ta2 C1 S2'
_cell_volume   83.76114558
_cell_formula_units_Z   1
loop_
 _symmetry_equiv_pos_site_id
 _symmetry_equiv_pos_as_xyz
  1  'x, y, z'
loop_
 _atom_site_type_symbol
 _atom_site_label
 _atom_site_symmetry_multiplicity
 _atom_site_fract_x
 _atom_site_fract_y
 _atom_site_fract_z
 _atom_site_occupancy
  Ta  Ta0  1  0.66666700  0.33333300  0.86741200  1
  Ta  Ta1  1  0.33333300  0.66666700  0.13258800  1
  C  C2  1  0.00000000  0.00000000  0.00000000  1
  S  S3  1  0.33333300  0.66666700  0.68572100  1
  S  S4  1  0.66666700  0.33333300  0.31427900  1
