# generated using pymatgen
data_Tl2Sn(GeO3)3
_symmetry_space_group_name_H-M   'P 1'
_cell_length_a   12.35704845
_cell_length_b   12.35704845
_cell_length_c   10.77717900
_cell_angle_alpha   90.00000000
_cell_angle_beta   90.00000000
_cell_angle_gamma   120.00000239
_symmetry_Int_Tables_number   1
_chemical_formula_structural   Tl2Sn(GeO3)3
_chemical_formula_sum   'Tl12 Sn6 Ge18 O54'
_cell_volume   1425.16522313
_cell_formula_units_Z   6
loop_
 _symmetry_equiv_pos_site_id
 _symmetry_equiv_pos_as_xyz
  1  'x, y, z'
loop_
 _atom_site_type_symbol
 _atom_site_label
 _atom_site_symmetry_multiplicity
 _atom_site_fract_x
 _atom_site_fract_y
 _atom_site_fract_z
 _atom_site_occupancy
  Tl  Tl0  1  0.99925800  0.63830600  0.02357800  1
  Tl  Tl1  1  0.63904800  0.00074200  0.02357800  1
  Tl  Tl2  1  0.36169400  0.36095200  0.02357800  1
  Tl  Tl3  1  0.63904800  0.63830600  0.52357800  1
  Tl  Tl4  1  0.99925800  0.36095200  0.52357800  1
  Tl  Tl5  1  0.36169400  0.00074200  0.52357800  1
  Tl  Tl6  1  0.00074200  0.36169400  0.97642200  1
  Tl  Tl7  1  0.36095200  0.99925800  0.97642200  1
  Tl  Tl8  1  0.63830600  0.63904800  0.97642200  1
  Tl  Tl9  1  0.36095200  0.36169400  0.47642200  1
  Tl  Tl10  1  0.00074200  0.63904800  0.47642200  1
  Tl  Tl11  1  0.63830600  0.99925800  0.47642200  1
  Sn  Sn12  1  0.00000000  0.00000000  0.50000000  1
  Sn  Sn13  1  0.00000000  0.00000000  0.00000000  1
  Sn  Sn14  1  0.33333300  0.66666700  0.00580900  1
  Sn  Sn15  1  0.33333300  0.66666700  0.50580900  1
  Sn  Sn16  1  0.66666700  0.33333300  0.99419100  1
  Sn  Sn17  1  0.66666700  0.33333300  0.49419100  1
  Ge  Ge18  1  0.00000000  0.82277400  0.25000000  1
  Ge  Ge19  1  0.82277400  0.00000000  0.25000000  1
  Ge  Ge20  1  0.17722600  0.17722600  0.25000000  1
  Ge  Ge21  1  0.82277400  0.82277400  0.75000000  1
  Ge  Ge22  1  0.00000000  0.17722600  0.75000000  1
  Ge  Ge23  1  0.17722600  0.00000000  0.75000000  1
  Ge  Ge24  1  0.71718900  0.16539100  0.73933800  1
  Ge  Ge25  1  0.44820300  0.28281100  0.73933800  1
  Ge  Ge26  1  0.83460900  0.55179700  0.73933800  1
  Ge  Ge27  1  0.44820300  0.16539100  0.23933800  1
  Ge  Ge28  1  0.71718900  0.55179700  0.23933800  1
  Ge  Ge29  1  0.83460900  0.28281100  0.23933800  1
  Ge  Ge30  1  0.28281100  0.83460900  0.26066200  1
  Ge  Ge31  1  0.55179700  0.71718900  0.26066200  1
  Ge  Ge32  1  0.16539100  0.44820300  0.26066200  1
  Ge  Ge33  1  0.55179700  0.83460900  0.76066200  1
  Ge  Ge34  1  0.28281100  0.44820300  0.76066200  1
  Ge  Ge35  1  0.16539100  0.71718900  0.76066200  1
  O  O36  1  0.00000000  0.37839900  0.25000000  1
  O  O37  1  0.37839900  0.00000000  0.25000000  1
  O  O38  1  0.62160100  0.62160100  0.25000000  1
  O  O39  1  0.37839900  0.37839900  0.75000000  1
  O  O40  1  0.00000000  0.62160100  0.75000000  1
  O  O41  1  0.62160100  0.00000000  0.75000000  1
  O  O42  1  0.87282800  0.20215400  0.69736500  1
  O  O43  1  0.32932600  0.12717200  0.69736500  1
  O  O44  1  0.79784600  0.67067400  0.69736500  1
  O  O45  1  0.32932600  0.20215400  0.19736500  1
  O  O46  1  0.87282800  0.67067400  0.19736500  1
  O  O47  1  0.79784600  0.12717200  0.19736500  1
  O  O48  1  0.12717200  0.79784600  0.30263500  1
  O  O49  1  0.67067400  0.87282800  0.30263500  1
  O  O50  1  0.20215400  0.32932600  0.30263500  1
  O  O51  1  0.67067400  0.79784600  0.80263500  1
  O  O52  1  0.12717200  0.32932600  0.80263500  1
  O  O53  1  0.20215400  0.87282800  0.80263500  1
  O  O54  1  0.84447600  0.91246600  0.61668500  1
  O  O55  1  0.06799000  0.15552400  0.61668500  1
  O  O56  1  0.08753400  0.93201000  0.61668500  1
  O  O57  1  0.06799000  0.91246600  0.11668500  1
  O  O58  1  0.84447600  0.93201000  0.11668500  1
  O  O59  1  0.08753400  0.15552400  0.11668500  1
  O  O60  1  0.15552400  0.08753400  0.38331500  1
  O  O61  1  0.93201000  0.84447600  0.38331500  1
  O  O62  1  0.91246600  0.06799000  0.38331500  1
  O  O63  1  0.93201000  0.08753400  0.88331500  1
  O  O64  1  0.15552400  0.06799000  0.88331500  1
  O  O65  1  0.91246600  0.84447600  0.88331500  1
  O  O66  1  0.72136900  0.22702200  0.88750000  1
  O  O67  1  0.50565300  0.27863100  0.88750000  1
  O  O68  1  0.77297800  0.49434700  0.88750000  1
  O  O69  1  0.50565300  0.22702200  0.38750000  1
  O  O70  1  0.72136900  0.49434700  0.38750000  1
  O  O71  1  0.77297800  0.27863100  0.38750000  1
  O  O72  1  0.27863100  0.77297800  0.11250000  1
  O  O73  1  0.49434700  0.72136900  0.11250000  1
  O  O74  1  0.22702200  0.50565300  0.11250000  1
  O  O75  1  0.49434700  0.77297800  0.61250000  1
  O  O76  1  0.27863100  0.50565300  0.61250000  1
  O  O77  1  0.22702200  0.72136900  0.61250000  1
  O  O78  1  0.64044000  0.18943800  0.61339600  1
  O  O79  1  0.54899700  0.35956000  0.61339600  1
  O  O80  1  0.81056200  0.45100300  0.61339600  1
  O  O81  1  0.54899700  0.18943800  0.11339600  1
  O  O82  1  0.64044000  0.45100300  0.11339600  1
  O  O83  1  0.81056200  0.35956000  0.11339600  1
  O  O84  1  0.35956000  0.81056200  0.38660400  1
  O  O85  1  0.45100300  0.64044000  0.38660400  1
  O  O86  1  0.18943800  0.54899700  0.38660400  1
  O  O87  1  0.45100300  0.81056200  0.88660400  1
  O  O88  1  0.35956000  0.54899700  0.88660400  1
  O  O89  1  0.18943800  0.64044000  0.88660400  1
