# generated using pymatgen
data_MgV2(CuO4)2
_symmetry_space_group_name_H-M   'P 1'
_cell_length_a   8.35940900
_cell_length_b   6.51646900
_cell_length_c   11.84075188
_cell_angle_alpha   89.60185512
_cell_angle_beta   90.00000000
_cell_angle_gamma   90.00000000
_symmetry_Int_Tables_number   1
_chemical_formula_structural   MgV2(CuO4)2
_chemical_formula_sum   'Mg4 V8 Cu8 O32'
_cell_volume   644.99552735
_cell_formula_units_Z   4
loop_
 _symmetry_equiv_pos_site_id
 _symmetry_equiv_pos_as_xyz
  1  'x, y, z'
loop_
 _atom_site_type_symbol
 _atom_site_label
 _atom_site_symmetry_multiplicity
 _atom_site_fract_x
 _atom_site_fract_y
 _atom_site_fract_z
 _atom_site_occupancy
  Mg  Mg0  1  0.83768800  0.88751100  0.05001300  1
  Mg  Mg1  1  0.16231200  0.11248900  0.94998700  1
  Mg  Mg2  1  0.33768800  0.11248900  0.44998700  1
  Mg  Mg3  1  0.66231200  0.88751100  0.55001300  1
  V  V4  1  0.53962900  0.89689000  0.84553000  1
  V  V5  1  0.96037100  0.89689000  0.34553000  1
  V  V6  1  0.91341800  0.39099200  0.13344500  1
  V  V7  1  0.03962900  0.10311000  0.65447000  1
  V  V8  1  0.08658200  0.60900800  0.86655500  1
  V  V9  1  0.41341800  0.60900800  0.36655500  1
  V  V10  1  0.58658200  0.39099200  0.63344500  1
  V  V11  1  0.46037100  0.10311000  0.15447000  1
  Cu  Cu12  1  0.81513400  0.23553900  0.87275300  1
  Cu  Cu13  1  0.94297500  0.62293700  0.62726200  1
  Cu  Cu14  1  0.05702500  0.37706300  0.37273800  1
  Cu  Cu15  1  0.18486600  0.76446100  0.12724700  1
  Cu  Cu16  1  0.68486600  0.23553900  0.37275300  1
  Cu  Cu17  1  0.55702500  0.62293700  0.12726200  1
  Cu  Cu18  1  0.31513400  0.76446100  0.62724700  1
  Cu  Cu19  1  0.44297500  0.37706300  0.87273800  1
  O  O20  1  0.76689300  0.96332400  0.39573600  1
  O  O21  1  0.98796300  0.33839800  0.59725200  1
  O  O22  1  0.42450600  0.81051100  0.47010700  1
  O  O23  1  0.92450600  0.18948900  0.02989300  1
  O  O24  1  0.73310700  0.96332400  0.89573600  1
  O  O25  1  0.23310700  0.03667600  0.60426400  1
  O  O26  1  0.89443400  0.91579300  0.61513400  1
  O  O27  1  0.09967000  0.49353300  0.13926600  1
  O  O28  1  0.40033000  0.49353300  0.63926600  1
  O  O29  1  0.13072200  0.68659900  0.72467500  1
  O  O30  1  0.63072200  0.31340100  0.77532500  1
  O  O31  1  0.90033000  0.50646700  0.86073400  1
  O  O32  1  0.10556600  0.08420700  0.38486600  1
  O  O33  1  0.46105700  0.12247800  0.29907100  1
  O  O34  1  0.71827700  0.58011600  0.58587500  1
  O  O35  1  0.78172300  0.58011600  0.08587500  1
  O  O36  1  0.96105700  0.87752200  0.20092900  1
  O  O37  1  0.59967000  0.50646700  0.36073400  1
  O  O38  1  0.53894300  0.87752200  0.70092900  1
  O  O39  1  0.57549400  0.18948900  0.52989300  1
  O  O40  1  0.51203700  0.33839800  0.09725200  1
  O  O41  1  0.86927800  0.31340100  0.27532500  1
  O  O42  1  0.26689300  0.03667600  0.10426400  1
  O  O43  1  0.60556600  0.91579300  0.11513400  1
  O  O44  1  0.07549400  0.81051100  0.97010700  1
  O  O45  1  0.21827700  0.41988400  0.91412500  1
  O  O46  1  0.01203700  0.66160200  0.40274800  1
  O  O47  1  0.48796300  0.66160200  0.90274800  1
  O  O48  1  0.39443400  0.08420700  0.88486600  1
  O  O49  1  0.28172300  0.41988400  0.41412500  1
  O  O50  1  0.36927800  0.68659900  0.22467500  1
  O  O51  1  0.03894300  0.12247800  0.79907100  1
