# generated using pymatgen
data_USiPbO7
_symmetry_space_group_name_H-M   'P 1'
_cell_length_a   6.93411500
_cell_length_b   6.77819300
_cell_length_c   13.34903190
_cell_angle_alpha   77.34896473
_cell_angle_beta   90.00000000
_cell_angle_gamma   90.00000000
_symmetry_Int_Tables_number   1
_chemical_formula_structural   USiPbO7
_chemical_formula_sum   'U4 Si4 Pb4 O28'
_cell_volume   612.18244101
_cell_formula_units_Z   4
loop_
 _symmetry_equiv_pos_site_id
 _symmetry_equiv_pos_as_xyz
  1  'x, y, z'
loop_
 _atom_site_type_symbol
 _atom_site_label
 _atom_site_symmetry_multiplicity
 _atom_site_fract_x
 _atom_site_fract_y
 _atom_site_fract_z
 _atom_site_occupancy
  U  U0  1  0.72375000  0.52135100  0.67873100  1
  U  U1  1  0.22375000  0.47864900  0.82126900  1
  U  U2  1  0.27625000  0.47864900  0.32126900  1
  U  U3  1  0.77625000  0.52135100  0.17873100  1
  Si  Si4  1  0.21092900  0.58935400  0.57368400  1
  Si  Si5  1  0.71092900  0.41064600  0.92631600  1
  Si  Si6  1  0.78907100  0.41064600  0.42631600  1
  Si  Si7  1  0.28907100  0.58935400  0.07368400  1
  Pb  Pb8  1  0.53016100  0.94771500  0.87070900  1
  Pb  Pb9  1  0.03016100  0.05228500  0.62929100  1
  Pb  Pb10  1  0.46983900  0.05228500  0.12929100  1
  Pb  Pb11  1  0.96983900  0.94771500  0.37070900  1
  O  O12  1  0.77769800  0.79607900  0.66997200  1
  O  O13  1  0.27769800  0.20392100  0.83002800  1
  O  O14  1  0.22230200  0.20392100  0.33002800  1
  O  O15  1  0.72230200  0.79607900  0.16997200  1
  O  O16  1  0.19414200  0.75752300  0.79832200  1
  O  O17  1  0.69414200  0.24247700  0.70167800  1
  O  O18  1  0.80585800  0.24247700  0.20167800  1
  O  O19  1  0.30585800  0.75752300  0.29832200  1
  O  O20  1  0.12736100  0.81680800  0.52702500  1
  O  O21  1  0.62736100  0.18319200  0.97297500  1
  O  O22  1  0.87263900  0.18319200  0.47297500  1
  O  O23  1  0.37263900  0.81680800  0.02702500  1
  O  O24  1  0.75722400  0.54060800  0.51420100  1
  O  O25  1  0.25722400  0.45939200  0.98579900  1
  O  O26  1  0.24277600  0.45939200  0.48579900  1
  O  O27  1  0.74277600  0.54060800  0.01420100  1
  O  O28  1  0.05811400  0.46976800  0.66397900  1
  O  O29  1  0.55811400  0.53023200  0.83602100  1
  O  O30  1  0.94188600  0.53023200  0.33602100  1
  O  O31  1  0.44188600  0.46976800  0.16397900  1
  O  O32  1  0.40441800  0.58126800  0.64705500  1
  O  O33  1  0.90441800  0.41873200  0.85294500  1
  O  O34  1  0.59558200  0.41873200  0.35294500  1
  O  O35  1  0.09558200  0.58126800  0.14705500  1
  O  O36  1  0.47310000  0.04080500  0.53426800  1
  O  O37  1  0.97310000  0.95919500  0.96573200  1
  O  O38  1  0.52690000  0.95919500  0.46573200  1
  O  O39  1  0.02690000  0.04080500  0.03426800  1
