# generated using pymatgen
data_Fe3TeC9SO9
_symmetry_space_group_name_H-M   'P 1'
_cell_length_a   8.10739300
_cell_length_b   9.90993219
_cell_length_c   14.84711036
_cell_angle_alpha   84.44743997
_cell_angle_beta   83.61285161
_cell_angle_gamma   65.87369438
_symmetry_Int_Tables_number   1
_chemical_formula_structural   Fe3TeC9SO9
_chemical_formula_sum   'Fe6 Te2 C18 S2 O18'
_cell_volume   1080.18196915
_cell_formula_units_Z   2
loop_
 _symmetry_equiv_pos_site_id
 _symmetry_equiv_pos_as_xyz
  1  'x, y, z'
loop_
 _atom_site_type_symbol
 _atom_site_label
 _atom_site_symmetry_multiplicity
 _atom_site_fract_x
 _atom_site_fract_y
 _atom_site_fract_z
 _atom_site_occupancy
  Fe  Fe0  1  0.35287400  0.24593200  0.14909300  1
  Fe  Fe1  1  0.64712600  0.75406800  0.85090700  1
  Fe  Fe2  1  0.41530700  0.29843700  0.34535800  1
  Fe  Fe3  1  0.58469300  0.70156300  0.65464200  1
  Fe  Fe4  1  0.27251900  0.57647000  0.23309700  1
  Fe  Fe5  1  0.72748100  0.42353000  0.76690300  1
  Te  Te6  1  0.02086800  0.46827300  0.25046000  1
  Te  Te7  1  0.97913200  0.53172700  0.74954000  1
  C  C8  1  0.29948600  0.30688400  0.02531200  1
  C  C9  1  0.70051400  0.69311600  0.97468800  1
  C  C10  1  0.65049600  0.86843400  0.61604300  1
  C  C11  1  0.34950400  0.13156600  0.38395700  1
  C  C12  1  0.06449300  0.73395800  0.31963400  1
  C  C13  1  0.93550700  0.26604200  0.68036600  1
  C  C14  1  0.30387000  0.42963000  0.44730400  1
  C  C15  1  0.69613000  0.57037000  0.55269600  1
  C  C16  1  0.68327000  0.20719500  0.39437600  1
  C  C17  1  0.31673000  0.79280500  0.60562400  1
  C  C18  1  0.78810800  0.88475000  0.82029100  1
  C  C19  1  0.21189200  0.11525000  0.17970900  1
  C  C20  1  0.44801500  0.68424800  0.27403500  1
  C  C21  1  0.55198500  0.31575200  0.72596500  1
  C  C22  1  0.60880100  0.05593300  0.12764000  1
  C  C23  1  0.39119900  0.94406700  0.87236000  1
  C  C24  1  0.19898800  0.69391200  0.11063000  1
  C  C25  1  0.80101200  0.30608800  0.88937000  1
  S  S26  1  0.53702100  0.35133100  0.20572300  1
  S  S27  1  0.46297900  0.64866900  0.79427700  1
  O  O28  1  0.86390500  0.96232400  0.81448000  1
  O  O29  1  0.13609500  0.03767600  0.18552000  1
  O  O30  1  0.75786900  0.97294300  0.12330800  1
  O  O31  1  0.24213100  0.02705700  0.87669200  1
  O  O32  1  0.71985900  0.65085800  0.05005900  1
  O  O33  1  0.28014100  0.34914200  0.94994100  1
  O  O34  1  0.52381600  0.75155400  0.29264900  1
  O  O35  1  0.47618400  0.24844600  0.70735100  1
  O  O36  1  0.24524500  0.49675000  0.51148000  1
  O  O37  1  0.75475500  0.50325000  0.48852000  1
  O  O38  1  0.68409200  0.96782400  0.58718900  1
  O  O39  1  0.31590800  0.03217600  0.41281100  1
  O  O40  1  0.16657400  0.82422900  0.59639800  1
  O  O41  1  0.83342600  0.17577100  0.40360200  1
  O  O42  1  0.95002000  0.80881600  0.36871900  1
  O  O43  1  0.04998000  0.19118400  0.63128100  1
  O  O44  1  0.16146100  0.73494300  0.03751300  1
  O  O45  1  0.83853900  0.26505700  0.96248700  1
