# generated using pymatgen
data_Sm2EuBeO5
_symmetry_space_group_name_H-M   'P 1'
_cell_length_a   6.56484200
_cell_length_b   7.21523000
_cell_length_c   9.54022547
_cell_angle_alpha   89.60608271
_cell_angle_beta   90.00000000
_cell_angle_gamma   90.00000000
_symmetry_Int_Tables_number   1
_chemical_formula_structural   Sm2EuBeO5
_chemical_formula_sum   'Sm8 Eu4 Be4 O20'
_cell_volume   451.87970076
_cell_formula_units_Z   4
loop_
 _symmetry_equiv_pos_site_id
 _symmetry_equiv_pos_as_xyz
  1  'x, y, z'
loop_
 _atom_site_type_symbol
 _atom_site_label
 _atom_site_symmetry_multiplicity
 _atom_site_fract_x
 _atom_site_fract_y
 _atom_site_fract_z
 _atom_site_occupancy
  Sm  Sm0  1  0.40514200  0.24957400  0.02228600  1
  Sm  Sm1  1  0.08110400  0.52246400  0.82387000  1
  Sm  Sm2  1  0.90514200  0.75042600  0.47771400  1
  Sm  Sm3  1  0.09485800  0.24957400  0.52228600  1
  Sm  Sm4  1  0.58110400  0.47753600  0.67613000  1
  Sm  Sm5  1  0.59485800  0.75042600  0.97771400  1
  Sm  Sm6  1  0.41889600  0.52246400  0.32387000  1
  Sm  Sm7  1  0.91889600  0.47753600  0.17613000  1
  Eu  Eu8  1  0.58023100  0.02076900  0.67267400  1
  Eu  Eu9  1  0.41976900  0.97923100  0.32732600  1
  Eu  Eu10  1  0.91976900  0.02076900  0.17267400  1
  Eu  Eu11  1  0.08023100  0.97923100  0.82732600  1
  Be  Be12  1  0.19296500  0.74614300  0.09979900  1
  Be  Be13  1  0.69296500  0.25385700  0.40020100  1
  Be  Be14  1  0.80703500  0.25385700  0.90020100  1
  Be  Be15  1  0.30703500  0.74614300  0.59979900  1
  O  O16  1  0.47931700  0.26801100  0.49057100  1
  O  O17  1  0.52068300  0.73198900  0.50942900  1
  O  O18  1  0.33372600  0.27280600  0.77927500  1
  O  O19  1  0.30699300  0.94019000  0.06657300  1
  O  O20  1  0.02068300  0.26801100  0.99057100  1
  O  O21  1  0.66627400  0.72719400  0.22072500  1
  O  O22  1  0.68328300  0.44309500  0.93101500  1
  O  O23  1  0.69300700  0.05981000  0.93342700  1
  O  O24  1  0.13364000  0.73259900  0.27411400  1
  O  O25  1  0.16627400  0.27280600  0.27927500  1
  O  O26  1  0.31671700  0.55690500  0.06898500  1
  O  O27  1  0.18328300  0.55690500  0.56898500  1
  O  O28  1  0.97931700  0.73198900  0.00942900  1
  O  O29  1  0.63364000  0.26740100  0.22588600  1
  O  O30  1  0.81671700  0.44309500  0.43101500  1
  O  O31  1  0.80699300  0.05981000  0.43342700  1
  O  O32  1  0.19300700  0.94019000  0.56657300  1
  O  O33  1  0.36636000  0.73259900  0.77411400  1
  O  O34  1  0.86636000  0.26740100  0.72588600  1
  O  O35  1  0.83372600  0.72719400  0.72072500  1
