# generated using pymatgen
data_InAg(WO4)2
_symmetry_space_group_name_H-M   'P 1'
_cell_length_a   5.94101800
_cell_length_b   5.16928200
_cell_length_c   10.41253131
_cell_angle_alpha   89.00587065
_cell_angle_beta   90.00000000
_cell_angle_gamma   90.00000000
_symmetry_Int_Tables_number   1
_chemical_formula_structural   InAg(WO4)2
_chemical_formula_sum   'In2 Ag2 W4 O16'
_cell_volume   319.72900624
_cell_formula_units_Z   2
loop_
 _symmetry_equiv_pos_site_id
 _symmetry_equiv_pos_as_xyz
  1  'x, y, z'
loop_
 _atom_site_type_symbol
 _atom_site_label
 _atom_site_symmetry_multiplicity
 _atom_site_fract_x
 _atom_site_fract_y
 _atom_site_fract_z
 _atom_site_occupancy
  In  In0  1  0.32025800  0.25000000  0.50000000  1
  In  In1  1  0.67974200  0.75000000  0.50000000  1
  Ag  Ag2  1  0.32163800  0.25000000  0.00000000  1
  Ag  Ag3  1  0.67836200  0.75000000  0.00000000  1
  W  W4  1  0.17007200  0.74312100  0.26113200  1
  W  W5  1  0.17007200  0.75687900  0.73886800  1
  W  W6  1  0.82992800  0.25687900  0.73886800  1
  W  W7  1  0.82992800  0.24312100  0.26113200  1
  O  O8  1  0.89489000  0.94918000  0.63046000  1
  O  O9  1  0.36407400  0.87222300  0.14747500  1
  O  O10  1  0.10511000  0.05082000  0.36954000  1
  O  O11  1  0.09687700  0.07040300  0.82706200  1
  O  O12  1  0.62545800  0.39884500  0.61394600  1
  O  O13  1  0.90312300  0.92959700  0.17293800  1
  O  O14  1  0.09687700  0.42959700  0.17293800  1
  O  O15  1  0.90312300  0.57040300  0.82706200  1
  O  O16  1  0.89489000  0.55082000  0.36954000  1
  O  O17  1  0.10511000  0.44918000  0.63046000  1
  O  O18  1  0.63592600  0.37222300  0.14747500  1
  O  O19  1  0.37454200  0.89884500  0.61394600  1
  O  O20  1  0.37454200  0.60115500  0.38605400  1
  O  O21  1  0.62545800  0.10115500  0.38605400  1
  O  O22  1  0.63592600  0.12777700  0.85252500  1
  O  O23  1  0.36407400  0.62777700  0.85252500  1
