# generated using pymatgen
data_Si2O3
_symmetry_space_group_name_H-M   'P 1'
_cell_length_a   11.01437425
_cell_length_b   11.01437425
_cell_length_c   14.38517666
_cell_angle_alpha   53.63761352
_cell_angle_beta   53.63761352
_cell_angle_gamma   48.62494159
_symmetry_Int_Tables_number   1
_chemical_formula_structural   Si2O3
_chemical_formula_sum   'Si20 O30'
_cell_volume   994.52327709
_cell_formula_units_Z   10
loop_
 _symmetry_equiv_pos_site_id
 _symmetry_equiv_pos_as_xyz
  1  'x, y, z'
loop_
 _atom_site_type_symbol
 _atom_site_label
 _atom_site_symmetry_multiplicity
 _atom_site_fract_x
 _atom_site_fract_y
 _atom_site_fract_z
 _atom_site_occupancy
  Si  Si0  1  0.28000100  0.73155000  0.63394900  1
  Si  Si1  1  0.26845000  0.71999900  0.86605100  1
  Si  Si2  1  0.71999900  0.26845000  0.36605100  1
  Si  Si3  1  0.73155000  0.28000100  0.13394900  1
  Si  Si4  1  0.90206400  0.76634000  0.78113600  1
  Si  Si5  1  0.23366000  0.09793600  0.71886400  1
  Si  Si6  1  0.09793600  0.23366000  0.21886400  1
  Si  Si7  1  0.76634000  0.90206400  0.28113600  1
  Si  Si8  1  0.63052900  0.16536100  0.72825700  1
  Si  Si9  1  0.83463900  0.36947100  0.77174300  1
  Si  Si10  1  0.36947100  0.83463900  0.27174300  1
  Si  Si11  1  0.16536100  0.63052900  0.22825700  1
  Si  Si12  1  0.62625400  0.15366900  0.95608700  1
  Si  Si13  1  0.84633100  0.37374600  0.54391300  1
  Si  Si14  1  0.37374600  0.84633100  0.04391300  1
  Si  Si15  1  0.15366900  0.62625400  0.45608700  1
  Si  Si16  1  0.89397200  0.75006600  0.01339900  1
  Si  Si17  1  0.24993400  0.10602800  0.48660100  1
  Si  Si18  1  0.10602800  0.24993400  0.98660100  1
  Si  Si19  1  0.75006600  0.89397200  0.51339900  1
  O  O20  1  0.08838000  0.75829000  0.68089600  1
  O  O21  1  0.24171000  0.91162000  0.81910400  1
  O  O22  1  0.91162000  0.24171000  0.31910400  1
  O  O23  1  0.75829000  0.08838000  0.18089600  1
  O  O24  1  0.75029900  0.96149000  0.73715800  1
  O  O25  1  0.03851000  0.24970100  0.76284200  1
  O  O26  1  0.24970100  0.03851000  0.26284200  1
  O  O27  1  0.96149000  0.75029900  0.23715800  1
  O  O28  1  0.74566600  0.26333900  0.61519300  1
  O  O29  1  0.73666100  0.25433400  0.88480700  1
  O  O30  1  0.25433400  0.73666100  0.38480700  1
  O  O31  1  0.26333900  0.74566600  0.11519300  1
  O  O32  1  0.75238400  0.94777600  0.01500700  1
  O  O33  1  0.05222400  0.24761600  0.48499300  1
  O  O34  1  0.24761600  0.05222400  0.98499300  1
  O  O35  1  0.94777600  0.75238400  0.51500700  1
  O  O36  1  0.28005800  0.91467300  0.53012300  1
  O  O37  1  0.08532700  0.71994200  0.96987700  1
  O  O38  1  0.71994200  0.08532700  0.46987700  1
  O  O39  1  0.91467300  0.28005800  0.03012300  1
  O  O40  1  0.31837000  0.68163000  0.75000000  1
  O  O41  1  0.68163000  0.31837000  0.25000000  1
  O  O42  1  0.88730500  0.71701000  0.91900600  1
  O  O43  1  0.28299000  0.11269500  0.58099400  1
  O  O44  1  0.11269500  0.28299000  0.08099400  1
  O  O45  1  0.71701000  0.88730500  0.41900600  1
  O  O46  1  0.57235200  0.17943900  0.85801100  1
  O  O47  1  0.82056100  0.42764800  0.64198900  1
  O  O48  1  0.42764800  0.82056100  0.14198900  1
  O  O49  1  0.17943900  0.57235200  0.35801100  1
