# generated using pymatgen
data_V3(HO2)4
_symmetry_space_group_name_H-M   'P 1'
_cell_length_a   10.85368256
_cell_length_b   10.85368256
_cell_length_c   5.52351493
_cell_angle_alpha   80.42484528
_cell_angle_beta   99.57515472
_cell_angle_gamma   154.16041998
_symmetry_Int_Tables_number   1
_chemical_formula_structural   V3(HO2)4
_chemical_formula_sum   'V3 H4 O8'
_cell_volume   279.44176209
_cell_formula_units_Z   1
loop_
 _symmetry_equiv_pos_site_id
 _symmetry_equiv_pos_as_xyz
  1  'x, y, z'
loop_
 _atom_site_type_symbol
 _atom_site_label
 _atom_site_symmetry_multiplicity
 _atom_site_fract_x
 _atom_site_fract_y
 _atom_site_fract_z
 _atom_site_occupancy
  V  V0  1  0.00543800  0.99456200  0.51446400  1
  V  V1  1  0.83851300  0.16148700  0.62082300  1
  V  V2  1  0.16715500  0.83284500  0.37490100  1
  H  H3  1  0.92225500  0.07774500  0.11720300  1
  H  H4  1  0.00440100  0.99559900  0.98340300  1
  H  H5  1  0.80531300  0.19468700  0.06936900  1
  H  H6  1  0.20040800  0.79959200  0.91414600  1
  O  O7  1  0.96916800  0.03083200  0.17085100  1
  O  O8  1  0.03094700  0.96905300  0.83236600  1
  O  O9  1  0.91857800  0.08142200  0.55688800  1
  O  O10  1  0.08405700  0.91594300  0.41870000  1
  O  O11  1  0.83412000  0.16588000  0.94498700  1
  O  O12  1  0.18672000  0.81328000  0.07916000  1
  O  O13  1  0.78137600  0.21862400  0.37516600  1
  O  O14  1  0.22095800  0.77904200  0.63363800  1
