# generated using pymatgen
data_Cr3InO8
_symmetry_space_group_name_H-M   'P 1'
_cell_length_a   5.14548456
_cell_length_b   5.14548456
_cell_length_c   6.53413299
_cell_angle_alpha   89.48294690
_cell_angle_beta   89.48294690
_cell_angle_gamma   66.62818138
_symmetry_Int_Tables_number   1
_chemical_formula_structural   Cr3InO8
_chemical_formula_sum   'Cr3 In1 O8'
_cell_volume   158.79402717
_cell_formula_units_Z   1
loop_
 _symmetry_equiv_pos_site_id
 _symmetry_equiv_pos_as_xyz
  1  'x, y, z'
loop_
 _atom_site_type_symbol
 _atom_site_label
 _atom_site_symmetry_multiplicity
 _atom_site_fract_x
 _atom_site_fract_y
 _atom_site_fract_z
 _atom_site_occupancy
  Cr  Cr0  1  0.35684700  0.35684700  0.73485000  1
  Cr  Cr1  1  0.64315300  0.64315300  0.26515000  1
  Cr  Cr2  1  0.00000000  0.00000000  0.50000000  1
  In  In3  1  0.00000000  0.00000000  0.00000000  1
  O  O4  1  0.21135600  0.73392900  0.73185200  1
  O  O5  1  0.24776400  0.24776400  0.95108400  1
  O  O6  1  0.26607100  0.78864400  0.26814800  1
  O  O7  1  0.22670300  0.22670300  0.54530100  1
  O  O8  1  0.78864400  0.26607100  0.26814800  1
  O  O9  1  0.73392900  0.21135600  0.73185200  1
  O  O10  1  0.77329700  0.77329700  0.45469900  1
  O  O11  1  0.75223600  0.75223600  0.04891600  1
