# generated using pymatgen
data_AsS4N5F6
_symmetry_space_group_name_H-M   'P 1'
_cell_length_a   6.75544400
_cell_length_b   12.22720700
_cell_length_c   12.94470732
_cell_angle_alpha   84.41028713
_cell_angle_beta   90.00000000
_cell_angle_gamma   90.00000000
_symmetry_Int_Tables_number   1
_chemical_formula_structural   AsS4N5F6
_chemical_formula_sum   'As4 S16 N20 F24'
_cell_volume   1064.15125375
_cell_formula_units_Z   4
loop_
 _symmetry_equiv_pos_site_id
 _symmetry_equiv_pos_as_xyz
  1  'x, y, z'
loop_
 _atom_site_type_symbol
 _atom_site_label
 _atom_site_symmetry_multiplicity
 _atom_site_fract_x
 _atom_site_fract_y
 _atom_site_fract_z
 _atom_site_occupancy
  As  As0  1  0.15529100  0.00000000  0.25000000  1
  As  As1  1  0.92785700  0.50000000  0.25000000  1
  As  As2  1  0.07214300  0.50000000  0.75000000  1
  As  As3  1  0.84470900  0.00000000  0.75000000  1
  S  S4  1  0.19345700  0.80491500  0.54807600  1
  S  S5  1  0.64245100  0.36156200  0.56516600  1
  S  S6  1  0.58685200  0.27154400  0.91672300  1
  S  S7  1  0.35754900  0.63843800  0.43483400  1
  S  S8  1  0.80654300  0.19508500  0.45192400  1
  S  S9  1  0.80654300  0.80491500  0.04807600  1
  S  S10  1  0.32857600  0.78420300  0.86935400  1
  S  S11  1  0.19345700  0.19508500  0.95192400  1
  S  S12  1  0.32857600  0.21579700  0.63064600  1
  S  S13  1  0.41314800  0.72845600  0.08327700  1
  S  S14  1  0.58685200  0.72845600  0.58327700  1
  S  S15  1  0.35754900  0.36156200  0.06516600  1
  S  S16  1  0.41314800  0.27154400  0.41672300  1
  S  S17  1  0.67142400  0.78420300  0.36935400  1
  S  S18  1  0.67142400  0.21579700  0.13064600  1
  S  S19  1  0.64245100  0.63843800  0.93483400  1
  N  N20  1  0.39719700  0.18432100  0.89628800  1
  N  N21  1  0.82350400  0.72931300  0.95790500  1
  N  N22  1  0.70837900  0.19612500  0.01438900  1
  N  N23  1  0.82350400  0.27068700  0.54209500  1
  N  N24  1  0.17649600  0.72931300  0.45790500  1
  N  N25  1  0.70837900  0.80387500  0.48561100  1
  N  N26  1  0.48926400  0.71401700  0.34137400  1
  N  N27  1  0.51073600  0.28598300  0.65862600  1
  N  N28  1  0.50306200  0.62034600  0.03739300  1
  N  N29  1  0.17649600  0.27068700  0.04209500  1
  N  N30  1  0.29162100  0.19612500  0.51438900  1
  N  N31  1  0.60280300  0.18432100  0.39628800  1
  N  N32  1  0.49693800  0.62034600  0.53739300  1
  N  N33  1  0.49693800  0.37965400  0.96260700  1
  N  N34  1  0.48926400  0.28598300  0.15862600  1
  N  N35  1  0.39719700  0.81567900  0.60371200  1
  N  N36  1  0.29162100  0.80387500  0.98561100  1
  N  N37  1  0.50306200  0.37965400  0.46260700  1
  N  N38  1  0.51073600  0.71401700  0.84137400  1
  N  N39  1  0.60280300  0.81567900  0.10371200  1
  F  F40  1  0.96874700  0.97030000  0.34591200  1
  F  F41  1  0.65905000  0.96906300  0.84596100  1
  F  F42  1  0.65905000  0.03093700  0.65403900  1
  F  F43  1  0.92910200  0.64561400  0.21863000  1
  F  F44  1  0.92800100  0.51935300  0.38417000  1
  F  F45  1  0.07089800  0.64561400  0.71863000  1
  F  F46  1  0.15459900  0.86085900  0.22217100  1
  F  F47  1  0.96874700  0.02970000  0.15408800  1
  F  F48  1  0.34095000  0.96906300  0.34596100  1
  F  F49  1  0.03125300  0.97030000  0.84591200  1
  F  F50  1  0.80938100  0.50000000  0.75000000  1
  F  F51  1  0.15459900  0.13914100  0.27782900  1
  F  F52  1  0.07199900  0.51935300  0.88417000  1
  F  F53  1  0.19061900  0.50000000  0.25000000  1
  F  F54  1  0.84540100  0.13914100  0.77782900  1
  F  F55  1  0.07199900  0.48064700  0.61583000  1
  F  F56  1  0.66638800  0.50000000  0.25000000  1
  F  F57  1  0.33361200  0.50000000  0.75000000  1
  F  F58  1  0.84540100  0.86085900  0.72217100  1
  F  F59  1  0.92910200  0.35438600  0.28137000  1
  F  F60  1  0.03125300  0.02970000  0.65408800  1
  F  F61  1  0.07089800  0.35438600  0.78137000  1
  F  F62  1  0.34095000  0.03093700  0.15403900  1
  F  F63  1  0.92800100  0.48064700  0.11583000  1
