# generated using pymatgen
data_BaMgSiO4
_symmetry_space_group_name_H-M   'P 1'
_cell_length_a   9.24189848
_cell_length_b   9.24189848
_cell_length_c   8.88308200
_cell_angle_alpha   90.00000000
_cell_angle_beta   90.00000000
_cell_angle_gamma   120.00000343
_symmetry_Int_Tables_number   1
_chemical_formula_structural   BaMgSiO4
_chemical_formula_sum   'Ba6 Mg6 Si6 O24'
_cell_volume   657.07761918
_cell_formula_units_Z   6
loop_
 _symmetry_equiv_pos_site_id
 _symmetry_equiv_pos_as_xyz
  1  'x, y, z'
loop_
 _atom_site_type_symbol
 _atom_site_label
 _atom_site_symmetry_multiplicity
 _atom_site_fract_x
 _atom_site_fract_y
 _atom_site_fract_z
 _atom_site_occupancy
  Ba  Ba0  1  0.66666700  0.33333300  0.73916700  1
  Ba  Ba1  1  0.00000000  0.00000000  0.24824000  1
  Ba  Ba2  1  0.33333300  0.66666700  0.23916700  1
  Ba  Ba3  1  0.33333300  0.66666700  0.73125600  1
  Ba  Ba4  1  0.00000000  0.00000000  0.74824000  1
  Ba  Ba5  1  0.66666700  0.33333300  0.23125600  1
  Mg  Mg6  1  0.67756700  0.66625300  0.53906000  1
  Mg  Mg7  1  0.01131400  0.67756700  0.03906000  1
  Mg  Mg8  1  0.98868600  0.32243300  0.53906000  1
  Mg  Mg9  1  0.33374700  0.01131400  0.53906000  1
  Mg  Mg10  1  0.66625300  0.98868600  0.03906000  1
  Mg  Mg11  1  0.32243300  0.33374700  0.03906000  1
  Si  Si12  1  0.32763200  0.33884700  0.43447600  1
  Si  Si13  1  0.01121500  0.67236800  0.43447600  1
  Si  Si14  1  0.66115300  0.98878500  0.43447600  1
  Si  Si15  1  0.98878500  0.32763200  0.93447600  1
  Si  Si16  1  0.67236800  0.66115300  0.93447600  1
  Si  Si17  1  0.33884700  0.01121500  0.93447600  1
  O  O18  1  0.65003000  0.94322900  0.25370600  1
  O  O19  1  0.53274500  0.09541400  0.99650100  1
  O  O20  1  0.09541400  0.56266900  0.49650100  1
  O  O21  1  0.76445700  0.90693800  0.51511900  1
  O  O22  1  0.19351100  0.43037500  0.95558400  1
  O  O23  1  0.46725500  0.90458600  0.49650100  1
  O  O24  1  0.29319900  0.34997000  0.25370600  1
  O  O25  1  0.56962500  0.76313700  0.95558400  1
  O  O26  1  0.56266900  0.46725500  0.99650100  1
  O  O27  1  0.94322900  0.29319900  0.75370600  1
  O  O28  1  0.70680100  0.65003000  0.75370600  1
  O  O29  1  0.80648900  0.56962500  0.45558400  1
  O  O30  1  0.90458600  0.43733100  0.99650100  1
  O  O31  1  0.23686300  0.80648900  0.95558400  1
  O  O32  1  0.43733100  0.53274500  0.49650100  1
  O  O33  1  0.14248000  0.23554300  0.51511900  1
  O  O34  1  0.23554300  0.09306200  0.01511900  1
  O  O35  1  0.85752000  0.76445700  0.01511900  1
  O  O36  1  0.90693800  0.14248000  0.01511900  1
  O  O37  1  0.05677100  0.70680100  0.25370600  1
  O  O38  1  0.43037500  0.23686300  0.45558400  1
  O  O39  1  0.76313700  0.19351100  0.45558400  1
  O  O40  1  0.09306200  0.85752000  0.51511900  1
  O  O41  1  0.34997000  0.05677100  0.75370600  1
