# generated using pymatgen
data_RbMn4(PO4)3
_symmetry_space_group_name_H-M   'P 1'
_cell_length_a   6.53298700
_cell_length_b   10.04498200
_cell_length_c   16.97967600
_cell_angle_alpha   90.00000000
_cell_angle_beta   90.00000000
_cell_angle_gamma   90.00000000
_symmetry_Int_Tables_number   1
_chemical_formula_structural   RbMn4(PO4)3
_chemical_formula_sum   'Rb4 Mn16 P12 O48'
_cell_volume   1114.26978913
_cell_formula_units_Z   4
loop_
 _symmetry_equiv_pos_site_id
 _symmetry_equiv_pos_as_xyz
  1  'x, y, z'
loop_
 _atom_site_type_symbol
 _atom_site_label
 _atom_site_symmetry_multiplicity
 _atom_site_fract_x
 _atom_site_fract_y
 _atom_site_fract_z
 _atom_site_occupancy
  Rb  Rb0  1  0.00000000  0.70675500  0.53283800  1
  Rb  Rb1  1  0.50000000  0.79324500  0.03283800  1
  Rb  Rb2  1  0.00000000  0.29324500  0.46716200  1
  Rb  Rb3  1  0.50000000  0.20675500  0.96716200  1
  Mn  Mn4  1  0.00000000  0.02041900  0.86049600  1
  Mn  Mn5  1  0.74861000  0.24827600  0.20367700  1
  Mn  Mn6  1  0.00000000  0.53990400  0.09564300  1
  Mn  Mn7  1  0.50000000  0.52041900  0.63950400  1
  Mn  Mn8  1  0.50000000  0.03990400  0.40435700  1
  Mn  Mn9  1  0.50000000  0.96009600  0.59564300  1
  Mn  Mn10  1  0.00000000  0.97958100  0.13950400  1
  Mn  Mn11  1  0.74861000  0.75172400  0.79632300  1
  Mn  Mn12  1  0.00000000  0.46009600  0.90435700  1
  Mn  Mn13  1  0.24861000  0.74827600  0.29632300  1
  Mn  Mn14  1  0.50000000  0.47958100  0.36049600  1
  Mn  Mn15  1  0.25139000  0.24827600  0.20367700  1
  Mn  Mn16  1  0.75139000  0.25172400  0.70367700  1
  Mn  Mn17  1  0.25139000  0.75172400  0.79632300  1
  Mn  Mn18  1  0.24861000  0.25172400  0.70367700  1
  Mn  Mn19  1  0.75139000  0.74827600  0.29632300  1
  P  P20  1  0.50000000  0.53984500  0.16843400  1
  P  P21  1  0.50000000  0.46015500  0.83156600  1
  P  P22  1  0.50000000  0.71394000  0.46306000  1
  P  P23  1  0.00000000  0.96015500  0.66843400  1
  P  P24  1  0.00000000  0.54103300  0.71704700  1
  P  P25  1  0.00000000  0.45896700  0.28295300  1
  P  P26  1  0.00000000  0.21394000  0.03694000  1
  P  P27  1  0.50000000  0.95896700  0.21704700  1
  P  P28  1  0.00000000  0.03984500  0.33156600  1
  P  P29  1  0.00000000  0.78606000  0.96306000  1
  P  P30  1  0.50000000  0.04103300  0.78295300  1
  P  P31  1  0.50000000  0.28606000  0.53694000  1
  O  O32  1  0.68919700  0.32970600  0.58760400  1
  O  O33  1  0.00000000  0.11436300  0.68503200  1
  O  O34  1  0.31080300  0.32970600  0.58760400  1
  O  O35  1  0.80316700  0.40839200  0.32309300  1
  O  O36  1  0.30627400  0.58140000  0.12401500  1
  O  O37  1  0.50000000  0.61436300  0.81496800  1
  O  O38  1  0.50000000  0.61242600  0.25271100  1
  O  O39  1  0.50000000  0.11367600  0.22671000  1
  O  O40  1  0.18919700  0.17029400  0.08760400  1
  O  O41  1  0.30316700  0.09160800  0.82309300  1
  O  O42  1  0.00000000  0.88563700  0.31496800  1
  O  O43  1  0.00000000  0.88757400  0.75271100  1
  O  O44  1  0.80316700  0.59160800  0.67690700  1
  O  O45  1  0.69372600  0.58140000  0.12401500  1
  O  O46  1  0.69683300  0.90839200  0.17690700  1
  O  O47  1  0.50000000  0.10557200  0.69734600  1
  O  O48  1  0.50000000  0.35406400  0.45640100  1
  O  O49  1  0.50000000  0.64593600  0.54359900  1
  O  O50  1  0.68919700  0.67029400  0.41239600  1
  O  O51  1  0.00000000  0.61367600  0.27329000  1
  O  O52  1  0.00000000  0.38632400  0.72671000  1
  O  O53  1  0.69683300  0.09160800  0.82309300  1
  O  O54  1  0.00000000  0.60557200  0.80265400  1
  O  O55  1  0.50000000  0.88632400  0.77329000  1
  O  O56  1  0.81080300  0.17029400  0.08760400  1
  O  O57  1  0.00000000  0.14593600  0.95640100  1
  O  O58  1  0.50000000  0.89442800  0.30265400  1
  O  O59  1  0.00000000  0.63298200  0.97808900  1
  O  O60  1  0.19683300  0.59160800  0.67690700  1
  O  O61  1  0.30316700  0.90839200  0.17690700  1
  O  O62  1  0.19372600  0.08140000  0.37598500  1
  O  O63  1  0.80627400  0.91860000  0.62401500  1
  O  O64  1  0.80627400  0.08140000  0.37598500  1
  O  O65  1  0.50000000  0.86701800  0.47808900  1
  O  O66  1  0.00000000  0.39442800  0.19734600  1
  O  O67  1  0.69372600  0.41860000  0.87598500  1
  O  O68  1  0.50000000  0.13298200  0.52191100  1
  O  O69  1  0.81080300  0.82970600  0.91239600  1
  O  O70  1  0.50000000  0.38563700  0.18503200  1
  O  O71  1  0.18919700  0.82970600  0.91239600  1
  O  O72  1  0.00000000  0.11242600  0.24728900  1
  O  O73  1  0.30627400  0.41860000  0.87598500  1
  O  O74  1  0.00000000  0.85406400  0.04359900  1
  O  O75  1  0.00000000  0.36701800  0.02191100  1
  O  O76  1  0.50000000  0.38757400  0.74728900  1
  O  O77  1  0.31080300  0.67029400  0.41239600  1
  O  O78  1  0.19372600  0.91860000  0.62401500  1
  O  O79  1  0.19683300  0.40839200  0.32309300  1
