# generated using pymatgen
data_U3O8
_symmetry_space_group_name_H-M   'P 1'
_cell_length_a   6.77534985
_cell_length_b   6.77534985
_cell_length_c   8.34264000
_cell_angle_alpha   90.00000000
_cell_angle_beta   90.00000000
_cell_angle_gamma   116.96529509
_symmetry_Int_Tables_number   1
_chemical_formula_structural   U3O8
_chemical_formula_sum   'U6 O16'
_cell_volume   341.33574726
_cell_formula_units_Z   2
loop_
 _symmetry_equiv_pos_site_id
 _symmetry_equiv_pos_as_xyz
  1  'x, y, z'
loop_
 _atom_site_type_symbol
 _atom_site_label
 _atom_site_symmetry_multiplicity
 _atom_site_fract_x
 _atom_site_fract_y
 _atom_site_fract_z
 _atom_site_occupancy
  U  U0  1  0.65054500  0.34945500  0.25000000  1
  U  U1  1  0.98889100  0.01110900  0.75000000  1
  U  U2  1  0.66723300  0.33276700  0.75000000  1
  U  U3  1  0.34945500  0.65054500  0.75000000  1
  U  U4  1  0.01110900  0.98889100  0.25000000  1
  U  U5  1  0.33276700  0.66723300  0.25000000  1
  O  O6  1  0.99373500  0.36877200  0.75000000  1
  O  O7  1  0.65324300  0.34675700  0.01346100  1
  O  O8  1  0.66126100  0.70697400  0.25000000  1
  O  O9  1  0.00626500  0.63122800  0.25000000  1
  O  O10  1  0.65324300  0.34675700  0.48653900  1
  O  O11  1  0.16686800  0.83313200  0.75000000  1
  O  O12  1  0.34675700  0.65324300  0.98653900  1
  O  O13  1  0.29302600  0.33873900  0.25000000  1
  O  O14  1  0.36877200  0.99373500  0.25000000  1
  O  O15  1  0.70697400  0.66126100  0.75000000  1
  O  O16  1  0.00000000  0.00000000  0.00000000  1
  O  O17  1  0.34675700  0.65324300  0.51346100  1
  O  O18  1  0.63122800  0.00626500  0.75000000  1
  O  O19  1  0.33873900  0.29302600  0.75000000  1
  O  O20  1  0.00000000  0.00000000  0.50000000  1
  O  O21  1  0.83313200  0.16686800  0.25000000  1
