# generated using pymatgen
data_SiO2
_symmetry_space_group_name_H-M   'P 1'
_cell_length_a   7.10363900
_cell_length_b   7.10363900
_cell_length_c   9.05719300
_cell_angle_alpha   90.00000000
_cell_angle_beta   90.00000000
_cell_angle_gamma   94.46454888
_symmetry_Int_Tables_number   1
_chemical_formula_structural   SiO2
_chemical_formula_sum   'Si8 O16'
_cell_volume   455.65443295
_cell_formula_units_Z   8
loop_
 _symmetry_equiv_pos_site_id
 _symmetry_equiv_pos_as_xyz
  1  'x, y, z'
loop_
 _atom_site_type_symbol
 _atom_site_label
 _atom_site_symmetry_multiplicity
 _atom_site_fract_x
 _atom_site_fract_y
 _atom_site_fract_z
 _atom_site_occupancy
  Si  Si0  1  0.70108600  0.96990200  0.42508600  1
  Si  Si1  1  0.96990200  0.70108600  0.92508600  1
  Si  Si2  1  0.29891400  0.03009800  0.92508600  1
  Si  Si3  1  0.70108600  0.96990200  0.07491400  1
  Si  Si4  1  0.29891400  0.03009800  0.57491400  1
  Si  Si5  1  0.03009800  0.29891400  0.42508600  1
  Si  Si6  1  0.96990200  0.70108600  0.57491400  1
  Si  Si7  1  0.03009800  0.29891400  0.07491400  1
  O  O8  1  0.21224400  0.21224400  0.00000000  1
  O  O9  1  0.15881100  0.84118900  0.54734500  1
  O  O10  1  0.84118900  0.15881100  0.04734500  1
  O  O11  1  0.78775600  0.78775600  0.50000000  1
  O  O12  1  0.32787400  0.07001800  0.75000000  1
  O  O13  1  0.92998200  0.67212600  0.75000000  1
  O  O14  1  0.00000000  0.50000000  0.50000000  1
  O  O15  1  0.21224400  0.21224400  0.50000000  1
  O  O16  1  0.15881100  0.84118900  0.95265500  1
  O  O17  1  0.78775600  0.78775600  0.00000000  1
  O  O18  1  0.84118900  0.15881100  0.45265500  1
  O  O19  1  0.07001800  0.32787400  0.25000000  1
  O  O20  1  0.67212600  0.92998200  0.25000000  1
  O  O21  1  0.50000000  0.00000000  0.00000000  1
  O  O22  1  0.50000000  0.00000000  0.50000000  1
  O  O23  1  0.00000000  0.50000000  0.00000000  1
