# generated using pymatgen
data_K2Ba(NO2)4
_symmetry_space_group_name_H-M   'P 1'
_cell_length_a   9.15385267
_cell_length_b   9.15385267
_cell_length_c   13.42388961
_cell_angle_alpha   68.67784116
_cell_angle_beta   68.67784116
_cell_angle_gamma   86.14740355
_symmetry_Int_Tables_number   1
_chemical_formula_structural   K2Ba(NO2)4
_chemical_formula_sum   'K8 Ba4 N16 O32'
_cell_volume   973.36686214
_cell_formula_units_Z   4
loop_
 _symmetry_equiv_pos_site_id
 _symmetry_equiv_pos_as_xyz
  1  'x, y, z'
loop_
 _atom_site_type_symbol
 _atom_site_label
 _atom_site_symmetry_multiplicity
 _atom_site_fract_x
 _atom_site_fract_y
 _atom_site_fract_z
 _atom_site_occupancy
  K  K0  1  0.42284500  0.92512100  0.16487600  1
  K  K1  1  0.07487900  0.57715500  0.83512400  1
  K  K2  1  0.08863500  0.58910500  0.33512400  1
  K  K3  1  0.57715500  0.07487900  0.83512400  1
  K  K4  1  0.41089500  0.91136500  0.66487600  1
  K  K5  1  0.58910500  0.08863500  0.33512400  1
  K  K6  1  0.91136500  0.41089500  0.66487600  1
  K  K7  1  0.92512100  0.42284500  0.16487600  1
  Ba  Ba8  1  0.50000000  0.50000000  0.00000000  1
  Ba  Ba9  1  0.50000000  0.50000000  0.50000000  1
  Ba  Ba10  1  0.00000000  0.00000000  0.00000000  1
  Ba  Ba11  1  0.00000000  0.00000000  0.50000000  1
  N  N12  1  0.26893900  0.73106100  0.50000000  1
  N  N13  1  0.49138500  0.49138500  0.76630900  1
  N  N14  1  0.26878400  0.73121600  0.00000000  1
  N  N15  1  0.76545600  0.76545600  0.00394500  1
  N  N16  1  0.24381100  0.24381100  0.26735100  1
  N  N17  1  0.76955800  0.76955800  0.49644500  1
  N  N18  1  0.73106100  0.26893900  0.50000000  1
  N  N19  1  0.23454400  0.23454400  0.99605500  1
  N  N20  1  0.74180000  0.74180000  0.26521000  1
  N  N21  1  0.99039900  0.99039900  0.76621700  1
  N  N22  1  0.25820000  0.25820000  0.73479000  1
  N  N23  1  0.23044200  0.23044200  0.50355500  1
  N  N24  1  0.50861500  0.50861500  0.23369100  1
  N  N25  1  0.73121600  0.26878400  0.00000000  1
  N  N26  1  0.00960100  0.00960100  0.23378300  1
  N  N27  1  0.75618900  0.75618900  0.73264900  1
  O  O28  1  0.09387000  0.92240000  0.28572400  1
  O  O29  1  0.92240000  0.09387000  0.28572400  1
  O  O30  1  0.90613000  0.07760000  0.71427600  1
  O  O31  1  0.30716900  0.87752900  0.44569700  1
  O  O32  1  0.36706900  0.19554300  0.50422800  1
  O  O33  1  0.62825800  0.79958700  0.00456300  1
  O  O34  1  0.69283100  0.12247100  0.55430300  1
  O  O35  1  0.80445700  0.63293100  0.49577200  1
  O  O36  1  0.70722800  0.87877000  0.21394300  1
  O  O37  1  0.79958700  0.62825800  0.00456300  1
  O  O38  1  0.12247100  0.69283100  0.55430300  1
  O  O39  1  0.29277200  0.12123000  0.78605700  1
  O  O40  1  0.37174200  0.20041300  0.99543700  1
  O  O41  1  0.20977100  0.38127400  0.21673000  1
  O  O42  1  0.20041300  0.37174200  0.99543700  1
  O  O43  1  0.38127400  0.20977100  0.21673000  1
  O  O44  1  0.87752900  0.30716900  0.44569700  1
  O  O45  1  0.74722000  0.17663500  0.94569800  1
  O  O46  1  0.63293100  0.80445700  0.49577200  1
  O  O47  1  0.59686100  0.42526600  0.28363800  1
  O  O48  1  0.17663500  0.74722000  0.94569800  1
  O  O49  1  0.07760000  0.90613000  0.71427600  1
  O  O50  1  0.19554300  0.36706900  0.50422800  1
  O  O51  1  0.40313900  0.57473400  0.71636200  1
  O  O52  1  0.42526600  0.59686100  0.28363800  1
  O  O53  1  0.57473400  0.40313900  0.71636200  1
  O  O54  1  0.82336500  0.25278000  0.05430200  1
  O  O55  1  0.25278000  0.82336500  0.05430200  1
  O  O56  1  0.87877000  0.70722800  0.21394300  1
  O  O57  1  0.61872600  0.79022900  0.78327000  1
  O  O58  1  0.12123000  0.29277200  0.78605700  1
  O  O59  1  0.79022900  0.61872600  0.78327000  1
