# generated using pymatgen
data_Na2FeCuF7
_symmetry_space_group_name_H-M   'P 1'
_cell_length_a   7.32055758
_cell_length_b   7.32055758
_cell_length_c   13.10348828
_cell_angle_alpha   73.15648083
_cell_angle_beta   73.15648083
_cell_angle_gamma   61.29850197
_symmetry_Int_Tables_number   1
_chemical_formula_structural   Na2FeCuF7
_chemical_formula_sum   'Na8 Fe4 Cu4 F28'
_cell_volume   579.95575367
_cell_formula_units_Z   4
loop_
 _symmetry_equiv_pos_site_id
 _symmetry_equiv_pos_as_xyz
  1  'x, y, z'
loop_
 _atom_site_type_symbol
 _atom_site_label
 _atom_site_symmetry_multiplicity
 _atom_site_fract_x
 _atom_site_fract_y
 _atom_site_fract_z
 _atom_site_occupancy
  Na  Na0  1  0.50000000  0.50000000  0.00000000  1
  Na  Na1  1  0.50000000  0.50000000  0.50000000  1
  Na  Na2  1  0.27143100  0.72856900  0.75000000  1
  Na  Na3  1  0.72856900  0.27143100  0.25000000  1
  Na  Na4  1  0.20756900  0.28570100  0.25427500  1
  Na  Na5  1  0.28570100  0.20756900  0.75427500  1
  Na  Na6  1  0.79243100  0.71429900  0.74572500  1
  Na  Na7  1  0.71429900  0.79243100  0.24572500  1
  Fe  Fe8  1  0.00000000  0.50000000  0.00000000  1
  Fe  Fe9  1  0.25744900  0.74255100  0.25000000  1
  Fe  Fe10  1  0.50000000  0.00000000  0.50000000  1
  Fe  Fe11  1  0.74255100  0.25744900  0.75000000  1
  Cu  Cu12  1  0.50000000  0.00000000  0.00000000  1
  Cu  Cu13  1  0.00000000  0.50000000  0.50000000  1
  Cu  Cu14  1  0.00000000  0.00000000  0.50000000  1
  Cu  Cu15  1  0.00000000  0.00000000  0.00000000  1
  F  F16  1  0.57822900  0.10502500  0.84799200  1
  F  F17  1  0.89497500  0.42177100  0.65200800  1
  F  F18  1  0.42177100  0.89497500  0.15200800  1
  F  F19  1  0.10502500  0.57822900  0.34799200  1
  F  F20  1  0.50115800  0.40267000  0.67416900  1
  F  F21  1  0.59733000  0.49884200  0.82583100  1
  F  F22  1  0.49884200  0.59733000  0.32583100  1
  F  F23  1  0.40267000  0.50115800  0.17416900  1
  F  F24  1  0.29371300  0.95846500  0.95079700  1
  F  F25  1  0.04153500  0.70628700  0.54920300  1
  F  F26  1  0.70628700  0.04153500  0.04920300  1
  F  F27  1  0.95846500  0.29371300  0.45079700  1
  F  F28  1  0.27918700  0.89664100  0.53500800  1
  F  F29  1  0.10335900  0.72081300  0.96499200  1
  F  F30  1  0.72081300  0.10335900  0.46499200  1
  F  F31  1  0.89664100  0.27918700  0.03500800  1
  F  F32  1  0.08698700  0.49803500  0.84206300  1
  F  F33  1  0.50196500  0.91301300  0.65793700  1
  F  F34  1  0.91301300  0.50196500  0.15793700  1
  F  F35  1  0.49803500  0.08698700  0.34206300  1
  F  F36  1  0.98626100  0.11919600  0.82259300  1
  F  F37  1  0.88080400  0.01373900  0.67740700  1
  F  F38  1  0.01373900  0.88080400  0.17740700  1
  F  F39  1  0.11919600  0.98626100  0.32259300  1
  F  F40  1  0.28192600  0.31186500  0.03153100  1
  F  F41  1  0.68813500  0.71807400  0.46846900  1
  F  F42  1  0.71807400  0.68813500  0.96846900  1
  F  F43  1  0.31186500  0.28192600  0.53153100  1
