# generated using pymatgen
data_U2Co3O8
_symmetry_space_group_name_H-M   'P 1'
_cell_length_a   7.32231500
_cell_length_b   5.41620100
_cell_length_c   12.14182697
_cell_angle_alpha   82.58478606
_cell_angle_beta   90.00000000
_cell_angle_gamma   90.00000000
_symmetry_Int_Tables_number   1
_chemical_formula_structural   U2Co3O8
_chemical_formula_sum   'U4 Co6 O16'
_cell_volume   477.50718629
_cell_formula_units_Z   2
loop_
 _symmetry_equiv_pos_site_id
 _symmetry_equiv_pos_as_xyz
  1  'x, y, z'
loop_
 _atom_site_type_symbol
 _atom_site_label
 _atom_site_symmetry_multiplicity
 _atom_site_fract_x
 _atom_site_fract_y
 _atom_site_fract_z
 _atom_site_occupancy
  U  U0  1  0.50000000  0.92841300  0.75057500  1
  U  U1  1  0.00000000  0.05165600  0.23745600  1
  U  U2  1  0.50000000  0.09667600  0.27660900  1
  U  U3  1  0.00000000  0.97117400  0.78374800  1
  Co  Co4  1  0.70458100  0.05200700  0.01478600  1
  Co  Co5  1  0.29651200  0.00495600  0.51324200  1
  Co  Co6  1  0.50000000  0.58379200  0.45184500  1
  Co  Co7  1  0.70348800  0.00495600  0.51324200  1
  Co  Co8  1  0.29541900  0.05200700  0.01478600  1
  Co  Co9  1  0.00000000  0.34872100  0.95390100  1
  O  O10  1  0.79820600  0.05061800  0.36249300  1
  O  O11  1  0.29735600  0.16486500  0.15562400  1
  O  O12  1  0.29492000  0.95620100  0.87473500  1
  O  O13  1  0.77524200  0.92836600  0.66742200  1
  O  O14  1  0.00000000  0.29744800  0.72449100  1
  O  O15  1  0.20179400  0.05061800  0.36249300  1
  O  O16  1  0.50000000  0.27475300  0.71533500  1
  O  O17  1  0.70508000  0.95620100  0.87473500  1
  O  O18  1  0.50000000  0.72413900  0.29796700  1
  O  O19  1  0.70264400  0.16486500  0.15562400  1
  O  O20  1  0.22475800  0.92836600  0.66742200  1
  O  O21  1  0.00000000  0.64183900  0.86231300  1
  O  O22  1  0.50000000  0.77183900  0.56618400  1
  O  O23  1  0.50000000  0.23967700  0.44716700  1
  O  O24  1  0.00000000  0.70373800  0.24148700  1
  O  O25  1  0.00000000  0.06003900  0.04487600  1
