# generated using pymatgen
data_Sb2O3
_symmetry_space_group_name_H-M   'P 1'
_cell_length_a   3.35431800
_cell_length_b   4.02918900
_cell_length_c   13.27295800
_cell_angle_alpha   90.00000000
_cell_angle_beta   90.00000000
_cell_angle_gamma   90.00000000
_symmetry_Int_Tables_number   1
_chemical_formula_structural   Sb2O3
_chemical_formula_sum   'Sb4 O6'
_cell_volume   179.38643227
_cell_formula_units_Z   2
loop_
 _symmetry_equiv_pos_site_id
 _symmetry_equiv_pos_as_xyz
  1  'x, y, z'
loop_
 _atom_site_type_symbol
 _atom_site_label
 _atom_site_symmetry_multiplicity
 _atom_site_fract_x
 _atom_site_fract_y
 _atom_site_fract_z
 _atom_site_occupancy
  Sb  Sb0  1  0.50000000  0.35344300  0.36623900  1
  Sb  Sb1  1  0.00000000  0.64655700  0.13376100  1
  Sb  Sb2  1  0.00000000  0.64655700  0.86623900  1
  Sb  Sb3  1  0.50000000  0.35344300  0.63376100  1
  O  O4  1  0.00000000  0.62110200  0.67780300  1
  O  O5  1  0.50000000  0.37889800  0.82219700  1
  O  O6  1  0.00000000  0.40959200  0.00000000  1
  O  O7  1  0.50000000  0.59040800  0.50000000  1
  O  O8  1  0.50000000  0.37889800  0.17780300  1
  O  O9  1  0.00000000  0.62110200  0.32219700  1
