# generated using pymatgen
data_La4Mn(Cu3S5)2
_symmetry_space_group_name_H-M   'P 1'
_cell_length_a   6.61211600
_cell_length_b   7.30594958
_cell_length_c   8.81451371
_cell_angle_alpha   96.56303278
_cell_angle_beta   105.67611026
_cell_angle_gamma   89.87794165
_symmetry_Int_Tables_number   1
_chemical_formula_structural   La4Mn(Cu3S5)2
_chemical_formula_sum   'La4 Mn1 Cu6 S10'
_cell_volume   407.10072173
_cell_formula_units_Z   1
loop_
 _symmetry_equiv_pos_site_id
 _symmetry_equiv_pos_as_xyz
  1  'x, y, z'
loop_
 _atom_site_type_symbol
 _atom_site_label
 _atom_site_symmetry_multiplicity
 _atom_site_fract_x
 _atom_site_fract_y
 _atom_site_fract_z
 _atom_site_occupancy
  La  La0  1  0.72250900  0.92604800  0.82595700  1
  La  La1  1  0.06019800  0.41033400  0.75310500  1
  La  La2  1  0.93980200  0.58966600  0.24689500  1
  La  La3  1  0.27749100  0.07395200  0.17404300  1
  Mn  Mn4  1  0.50000000  0.50000000  0.50000000  1
  Cu  Cu5  1  0.56049900  0.33926700  0.94679000  1
  Cu  Cu6  1  0.78033700  0.20145600  0.34226600  1
  Cu  Cu7  1  0.21966300  0.79854400  0.65773400  1
  Cu  Cu8  1  0.43950100  0.66073300  0.05321000  1
  Cu  Cu9  1  0.66471300  0.90056700  0.42607400  1
  Cu  Cu10  1  0.33528700  0.09943300  0.57392600  1
  S  S11  1  0.13101200  0.29861100  0.42617900  1
  S  S12  1  0.52932700  0.41385800  0.21807800  1
  S  S13  1  0.86898800  0.70138900  0.57382100  1
  S  S14  1  0.91293300  0.26956100  0.00082400  1
  S  S15  1  0.31938700  0.09272900  0.83316800  1
  S  S16  1  0.68408000  0.19212200  0.58160000  1
  S  S17  1  0.31592000  0.80787800  0.41840000  1
  S  S18  1  0.08706700  0.73043900  0.99917600  1
  S  S19  1  0.47067300  0.58614200  0.78192200  1
  S  S20  1  0.68061300  0.90727100  0.16683200  1
