# generated using pymatgen
data_TiS4(NCl)4
_symmetry_space_group_name_H-M   'P 1'
_cell_length_a   8.73813400
_cell_length_b   11.39658800
_cell_length_c   15.10215225
_cell_angle_alpha   52.62775790
_cell_angle_beta   90.00000000
_cell_angle_gamma   90.00000000
_symmetry_Int_Tables_number   1
_chemical_formula_structural   TiS4(NCl)4
_chemical_formula_sum   'Ti4 S16 N16 Cl16'
_cell_volume   1195.19950449
_cell_formula_units_Z   4
loop_
 _symmetry_equiv_pos_site_id
 _symmetry_equiv_pos_as_xyz
  1  'x, y, z'
loop_
 _atom_site_type_symbol
 _atom_site_label
 _atom_site_symmetry_multiplicity
 _atom_site_fract_x
 _atom_site_fract_y
 _atom_site_fract_z
 _atom_site_occupancy
  Ti  Ti0  1  0.27182500  0.24274000  0.85109900  1
  Ti  Ti1  1  0.77182500  0.75726000  0.64890100  1
  Ti  Ti2  1  0.72817500  0.75726000  0.14890100  1
  Ti  Ti3  1  0.22817500  0.24274000  0.35109900  1
  S  S4  1  0.51160900  0.72501300  0.97387600  1
  S  S5  1  0.69921200  0.28724400  0.51845200  1
  S  S6  1  0.64439800  0.03373100  0.17369100  1
  S  S7  1  0.65812500  0.14493800  0.95201100  1
  S  S8  1  0.15812500  0.85506200  0.54798900  1
  S  S9  1  0.34187500  0.85506200  0.04798900  1
  S  S10  1  0.14439800  0.96626900  0.32630900  1
  S  S11  1  0.19921200  0.71275600  0.98154800  1
  S  S12  1  0.80078800  0.28724400  0.01845200  1
  S  S13  1  0.35560200  0.96626900  0.82630900  1
  S  S14  1  0.85560200  0.03373100  0.67369100  1
  S  S15  1  0.48839100  0.27498700  0.02612400  1
  S  S16  1  0.84187500  0.14493800  0.45201100  1
  S  S17  1  0.98839100  0.72501300  0.47387600  1
  S  S18  1  0.30078800  0.71275600  0.48154800  1
  S  S19  1  0.01160900  0.27498700  0.52612400  1
  N  N20  1  0.65471700  0.99578000  0.08345400  1
  N  N21  1  0.99994600  0.22984000  0.44032900  1
  N  N22  1  0.63977600  0.37035000  0.00052200  1
  N  N23  1  0.34528300  0.00422000  0.91654600  1
  N  N24  1  0.70675900  0.13533800  0.64463600  1
  N  N25  1  0.29324100  0.86466200  0.35536400  1
  N  N26  1  0.86022400  0.37035000  0.50052200  1
  N  N27  1  0.79324100  0.13533800  0.14463600  1
  N  N28  1  0.50005400  0.22984000  0.94032900  1
  N  N29  1  0.49994600  0.77016000  0.05967100  1
  N  N30  1  0.84528300  0.99578000  0.58345400  1
  N  N31  1  0.20675900  0.86466200  0.85536400  1
  N  N32  1  0.13977600  0.62965000  0.49947800  1
  N  N33  1  0.36022400  0.62965000  0.99947800  1
  N  N34  1  0.00005400  0.77016000  0.55967100  1
  N  N35  1  0.15471700  0.00422000  0.41654600  1
  Cl  Cl36  1  0.73996600  0.53119000  0.69656600  1
  Cl  Cl37  1  0.57298900  0.69020000  0.29424400  1
  Cl  Cl38  1  0.42701100  0.30980000  0.70575600  1
  Cl  Cl39  1  0.55493000  0.77153900  0.72072000  1
  Cl  Cl40  1  0.76003400  0.53119000  0.19656600  1
  Cl  Cl41  1  0.05493000  0.22846100  0.77928000  1
  Cl  Cl42  1  0.67456900  0.88042400  0.47017900  1
  Cl  Cl43  1  0.23996600  0.46881000  0.80343400  1
  Cl  Cl44  1  0.92701100  0.69020000  0.79424400  1
  Cl  Cl45  1  0.07298900  0.30980000  0.20575600  1
  Cl  Cl46  1  0.32543100  0.11957600  0.52982100  1
  Cl  Cl47  1  0.26003400  0.46881000  0.30343400  1
  Cl  Cl48  1  0.82543100  0.88042400  0.97017900  1
  Cl  Cl49  1  0.44507000  0.22846100  0.27928000  1
  Cl  Cl50  1  0.94507000  0.77153900  0.22072000  1
  Cl  Cl51  1  0.17456900  0.11957600  0.02982100  1
