# generated using pymatgen
data_TaSbO4
_symmetry_space_group_name_H-M   'P 1'
_cell_length_a   5.77519900
_cell_length_b   5.13346200
_cell_length_c   20.17740200
_cell_angle_alpha   90.00000000
_cell_angle_beta   90.00000000
_cell_angle_gamma   90.00000000
_symmetry_Int_Tables_number   1
_chemical_formula_structural   TaSbO4
_chemical_formula_sum   'Ta4 Sb4 O16'
_cell_volume   598.19468751
_cell_formula_units_Z   4
loop_
 _symmetry_equiv_pos_site_id
 _symmetry_equiv_pos_as_xyz
  1  'x, y, z'
loop_
 _atom_site_type_symbol
 _atom_site_label
 _atom_site_symmetry_multiplicity
 _atom_site_fract_x
 _atom_site_fract_y
 _atom_site_fract_z
 _atom_site_occupancy
  Ta  Ta0  1  0.00000000  0.25899900  0.25000000  1
  Ta  Ta1  1  0.50000000  0.24100100  0.25000000  1
  Ta  Ta2  1  0.00000000  0.74100100  0.75000000  1
  Ta  Ta3  1  0.50000000  0.75899900  0.75000000  1
  Sb  Sb4  1  0.14406800  0.00000000  0.50000000  1
  Sb  Sb5  1  0.85593200  0.00000000  0.00000000  1
  Sb  Sb6  1  0.35593200  0.50000000  0.00000000  1
  Sb  Sb7  1  0.64406800  0.50000000  0.50000000  1
  O  O8  1  0.24335400  0.93045300  0.79552800  1
  O  O9  1  0.74335400  0.56954700  0.79552800  1
  O  O10  1  0.10229300  0.25372300  0.97174900  1
  O  O11  1  0.89770700  0.25372300  0.52825100  1
  O  O12  1  0.25664600  0.43045300  0.29552800  1
  O  O13  1  0.39770700  0.75372300  0.47174900  1
  O  O14  1  0.24335400  0.06954700  0.20447200  1
  O  O15  1  0.60229300  0.24627700  0.97174900  1
  O  O16  1  0.74335400  0.43045300  0.20447200  1
  O  O17  1  0.75664600  0.06954700  0.29552800  1
  O  O18  1  0.60229300  0.75372300  0.02825100  1
  O  O19  1  0.39770700  0.24627700  0.52825100  1
  O  O20  1  0.25664600  0.56954700  0.70447200  1
  O  O21  1  0.10229300  0.74627700  0.02825100  1
  O  O22  1  0.75664600  0.93045300  0.70447200  1
  O  O23  1  0.89770700  0.74627700  0.47174900  1
