# generated using pymatgen
data_RbGa3(P3O10)2
_symmetry_space_group_name_H-M   'P 1'
_cell_length_a   8.35675571
_cell_length_b   8.35675571
_cell_length_c   12.21933900
_cell_angle_alpha   90.00000000
_cell_angle_beta   90.00000000
_cell_angle_gamma   105.18580239
_symmetry_Int_Tables_number   1
_chemical_formula_structural   RbGa3(P3O10)2
_chemical_formula_sum   'Rb2 Ga6 P12 O40'
_cell_volume   823.54453204
_cell_formula_units_Z   2
loop_
 _symmetry_equiv_pos_site_id
 _symmetry_equiv_pos_as_xyz
  1  'x, y, z'
loop_
 _atom_site_type_symbol
 _atom_site_label
 _atom_site_symmetry_multiplicity
 _atom_site_fract_x
 _atom_site_fract_y
 _atom_site_fract_z
 _atom_site_occupancy
  Rb  Rb0  1  0.47362300  0.47362300  0.00000000  1
  Rb  Rb1  1  0.52637700  0.52637700  0.50000000  1
  Ga  Ga2  1  0.70628100  0.29372000  0.75000000  1
  Ga  Ga3  1  0.86452500  0.86452500  0.00000000  1
  Ga  Ga4  1  0.29371900  0.70628000  0.25000000  1
  Ga  Ga5  1  0.24369500  0.75630500  0.75000000  1
  Ga  Ga6  1  0.75630500  0.24369500  0.25000000  1
  Ga  Ga7  1  0.13547500  0.13547500  0.50000000  1
  P  P8  1  0.14984700  0.74112700  0.48786700  1
  P  P9  1  0.69703000  0.82564300  0.22328800  1
  P  P10  1  0.09387500  0.36737900  0.81703000  1
  P  P11  1  0.90612500  0.63262100  0.31703000  1
  P  P12  1  0.17435700  0.30297000  0.27671200  1
  P  P13  1  0.63262100  0.90612500  0.68297000  1
  P  P14  1  0.85015300  0.25887300  0.98786700  1
  P  P15  1  0.30297000  0.17435700  0.72328800  1
  P  P16  1  0.25887300  0.85015300  0.01213300  1
  P  P17  1  0.82564300  0.69703000  0.77671200  1
  P  P18  1  0.36737900  0.09387500  0.18297000  1
  P  P19  1  0.74112700  0.14984700  0.51213300  1
  O  O20  1  0.94959400  0.33406600  0.73969100  1
  O  O21  1  0.74942800  0.73761600  0.88648600  1
  O  O22  1  0.01034500  0.73099200  0.79055900  1
  O  O23  1  0.21036500  0.17223800  0.18625400  1
  O  O24  1  0.76800100  0.47606900  0.30148000  1
  O  O25  1  0.17223800  0.21036500  0.81374600  1
  O  O26  1  0.03478700  0.36235700  0.94259200  1
  O  O27  1  0.63764300  0.96521300  0.55740800  1
  O  O28  1  0.67865200  0.16136700  0.39735200  1
  O  O29  1  0.72872600  0.53107700  0.73283300  1
  O  O30  1  0.72382000  0.30433200  0.91202200  1
  O  O31  1  0.92283800  0.14630000  0.52181000  1
  O  O32  1  0.36235700  0.03478700  0.05740800  1
  O  O33  1  0.52393100  0.23199900  0.19852000  1
  O  O34  1  0.14630000  0.92283800  0.47819000  1
  O  O35  1  0.53107700  0.72872600  0.26716700  1
  O  O36  1  0.85370000  0.07716200  0.97819000  1
  O  O37  1  0.26900800  0.98965500  0.70944100  1
  O  O38  1  0.32134800  0.83863300  0.89735200  1
  O  O39  1  0.07716200  0.85370000  0.02181000  1
  O  O40  1  0.25057200  0.26238400  0.38648600  1
  O  O41  1  0.69566800  0.27618000  0.58797800  1
  O  O42  1  0.83863300  0.32134800  0.10264800  1
  O  O43  1  0.82776200  0.78963500  0.31374600  1
  O  O44  1  0.05040600  0.66593400  0.23969100  1
  O  O45  1  0.73099200  0.01034500  0.20944100  1
  O  O46  1  0.23199900  0.52393100  0.80148000  1
  O  O47  1  0.26238400  0.25057200  0.61351400  1
  O  O48  1  0.30433200  0.72382000  0.08797800  1
  O  O49  1  0.33406600  0.94959400  0.26030900  1
  O  O50  1  0.47606900  0.76800100  0.69852000  1
  O  O51  1  0.78963500  0.82776200  0.68625400  1
  O  O52  1  0.27127400  0.46892300  0.23283300  1
  O  O53  1  0.16136700  0.67865200  0.60264800  1
  O  O54  1  0.27618000  0.69566800  0.41202200  1
  O  O55  1  0.66593400  0.05040600  0.76030900  1
  O  O56  1  0.98965500  0.26900800  0.29055900  1
  O  O57  1  0.96521300  0.63764300  0.44259200  1
  O  O58  1  0.46892300  0.27127400  0.76716700  1
  O  O59  1  0.73761600  0.74942800  0.11351400  1
