# generated using pymatgen
data_KMoAsO6
_symmetry_space_group_name_H-M   'P 1'
_cell_length_a   6.75935000
_cell_length_b   7.13962600
_cell_length_c   10.94220000
_cell_angle_alpha   90.00000000
_cell_angle_beta   90.00000000
_cell_angle_gamma   90.00000000
_symmetry_Int_Tables_number   1
_chemical_formula_structural   KMoAsO6
_chemical_formula_sum   'K4 Mo4 As4 O24'
_cell_volume   528.06215748
_cell_formula_units_Z   4
loop_
 _symmetry_equiv_pos_site_id
 _symmetry_equiv_pos_as_xyz
  1  'x, y, z'
loop_
 _atom_site_type_symbol
 _atom_site_label
 _atom_site_symmetry_multiplicity
 _atom_site_fract_x
 _atom_site_fract_y
 _atom_site_fract_z
 _atom_site_occupancy
  K  K0  1  0.50000000  0.00000000  0.50000000  1
  K  K1  1  0.00000000  0.50000000  0.00000000  1
  K  K2  1  0.50000000  0.50000000  0.00000000  1
  K  K3  1  0.00000000  0.00000000  0.50000000  1
  Mo  Mo4  1  0.75000000  0.54838800  0.33998200  1
  Mo  Mo5  1  0.25000000  0.45161200  0.66001800  1
  Mo  Mo6  1  0.25000000  0.04838800  0.16001800  1
  Mo  Mo7  1  0.75000000  0.95161200  0.83998200  1
  As  As8  1  0.75000000  0.54261900  0.65430300  1
  As  As9  1  0.25000000  0.45738100  0.34569700  1
  As  As10  1  0.75000000  0.95738100  0.15430300  1
  As  As11  1  0.25000000  0.04261900  0.84569700  1
  O  O12  1  0.75000000  0.32849400  0.40915300  1
  O  O13  1  0.45604300  0.60288300  0.35035100  1
  O  O14  1  0.75000000  0.81524300  0.02789500  1
  O  O15  1  0.25000000  0.31524300  0.47210500  1
  O  O16  1  0.75000000  0.48777400  0.18641500  1
  O  O17  1  0.75000000  0.65020800  0.79484600  1
  O  O18  1  0.95604300  0.39711700  0.64964900  1
  O  O19  1  0.75000000  0.01222600  0.68641500  1
  O  O20  1  0.04395700  0.89711700  0.85035100  1
  O  O21  1  0.75000000  0.84979200  0.29484600  1
  O  O22  1  0.54395700  0.10288300  0.14964900  1
  O  O23  1  0.95604300  0.10288300  0.14964900  1
  O  O24  1  0.25000000  0.98777400  0.31358500  1
  O  O25  1  0.25000000  0.34979200  0.20515400  1
  O  O26  1  0.75000000  0.68475700  0.52789500  1
  O  O27  1  0.25000000  0.51222600  0.81358500  1
  O  O28  1  0.25000000  0.18475700  0.97210500  1
  O  O29  1  0.04395700  0.60288300  0.35035100  1
  O  O30  1  0.75000000  0.17150600  0.90915300  1
  O  O31  1  0.45604300  0.89711700  0.85035100  1
  O  O32  1  0.25000000  0.15020800  0.70515400  1
  O  O33  1  0.25000000  0.67150600  0.59084700  1
  O  O34  1  0.54395700  0.39711700  0.64964900  1
  O  O35  1  0.25000000  0.82849400  0.09084700  1
