# generated using pymatgen
data_Te7(OF5)6
_symmetry_space_group_name_H-M   'P 1'
_cell_length_a   10.77061415
_cell_length_b   10.77061415
_cell_length_c   10.77061467
_cell_angle_alpha   50.12094264
_cell_angle_beta   50.12094264
_cell_angle_gamma   50.12094025
_symmetry_Int_Tables_number   1
_chemical_formula_structural   Te7(OF5)6
_chemical_formula_sum   'Te7 O6 F30'
_cell_volume   677.33133935
_cell_formula_units_Z   1
loop_
 _symmetry_equiv_pos_site_id
 _symmetry_equiv_pos_as_xyz
  1  'x, y, z'
loop_
 _atom_site_type_symbol
 _atom_site_label
 _atom_site_symmetry_multiplicity
 _atom_site_fract_x
 _atom_site_fract_y
 _atom_site_fract_z
 _atom_site_occupancy
  Te  Te0  1  0.76789400  0.39170000  0.08095400  1
  Te  Te1  1  0.60830000  0.91904600  0.23210600  1
  Te  Te2  1  0.39170000  0.08095400  0.76789400  1
  Te  Te3  1  0.91904600  0.23210600  0.60830000  1
  Te  Te4  1  0.00000000  0.00000000  0.00000000  1
  Te  Te5  1  0.23210600  0.60830000  0.91904600  1
  Te  Te6  1  0.08095400  0.76789400  0.39170000  1
  O  O7  1  0.07637100  0.75658300  0.05005000  1
  O  O8  1  0.24341700  0.94995000  0.92362900  1
  O  O9  1  0.05005000  0.07637100  0.75658300  1
  O  O10  1  0.94995000  0.92362900  0.24341700  1
  O  O11  1  0.75658300  0.05005000  0.07637100  1
  O  O12  1  0.92362900  0.24341700  0.94995000  1
  F  F13  1  0.05289100  0.36672700  0.45882300  1
  F  F14  1  0.90928400  0.52093900  0.91077500  1
  F  F15  1  0.45882300  0.05289100  0.36672700  1
  F  F16  1  0.80179100  0.37905400  0.45858400  1
  F  F17  1  0.94710900  0.63327300  0.54117700  1
  F  F18  1  0.91077500  0.90928400  0.52093900  1
  F  F19  1  0.63327300  0.54117700  0.94710900  1
  F  F20  1  0.37905400  0.45858400  0.80179100  1
  F  F21  1  0.26682200  0.25254900  0.62175900  1
  F  F22  1  0.52093900  0.91077500  0.90928400  1
  F  F23  1  0.09071600  0.47906100  0.08922500  1
  F  F24  1  0.54117700  0.94710900  0.63327300  1
  F  F25  1  0.19820900  0.62094600  0.54141600  1
  F  F26  1  0.62094600  0.54141600  0.19820900  1
  F  F27  1  0.54141600  0.19820900  0.62094600  1
  F  F28  1  0.25254900  0.62175900  0.26682200  1
  F  F29  1  0.73317800  0.74745100  0.37824100  1
  F  F30  1  0.37824100  0.73317800  0.74745100  1
  F  F31  1  0.21503700  0.90106500  0.24973500  1
  F  F32  1  0.90106500  0.24973500  0.21503700  1
  F  F33  1  0.75026500  0.78496300  0.09893500  1
  F  F34  1  0.47906100  0.08922500  0.09071600  1
  F  F35  1  0.09893500  0.75026500  0.78496300  1
  F  F36  1  0.45858400  0.80179100  0.37905400  1
  F  F37  1  0.78496300  0.09893500  0.75026500  1
  F  F38  1  0.08922500  0.09071600  0.47906100  1
  F  F39  1  0.36672700  0.45882300  0.05289100  1
  F  F40  1  0.74745100  0.37824100  0.73317800  1
  F  F41  1  0.24973500  0.21503700  0.90106500  1
  F  F42  1  0.62175900  0.26682200  0.25254900  1
