# generated using pymatgen
data_K3Zr4Ag2F23
_symmetry_space_group_name_H-M   'P 1'
_cell_length_a   11.45152900
_cell_length_b   8.03283600
_cell_length_c   10.38308536
_cell_angle_alpha   82.73597448
_cell_angle_beta   90.00000000
_cell_angle_gamma   90.00000000
_symmetry_Int_Tables_number   1
_chemical_formula_structural   K3Zr4Ag2F23
_chemical_formula_sum   'K6 Zr8 Ag4 F46'
_cell_volume   947.45611531
_cell_formula_units_Z   2
loop_
 _symmetry_equiv_pos_site_id
 _symmetry_equiv_pos_as_xyz
  1  'x, y, z'
loop_
 _atom_site_type_symbol
 _atom_site_label
 _atom_site_symmetry_multiplicity
 _atom_site_fract_x
 _atom_site_fract_y
 _atom_site_fract_z
 _atom_site_occupancy
  K  K0  1  0.52087400  0.28817400  0.13639600  1
  K  K1  1  0.02087400  0.71182600  0.36360400  1
  K  K2  1  0.47912600  0.71182600  0.86360400  1
  K  K3  1  0.00000000  0.00000000  0.00000000  1
  K  K4  1  0.97912600  0.28817400  0.63639600  1
  K  K5  1  0.50000000  0.00000000  0.50000000  1
  Zr  Zr6  1  0.68221800  0.52582900  0.45793700  1
  Zr  Zr7  1  0.81778200  0.52582900  0.95793700  1
  Zr  Zr8  1  0.80584200  0.83293100  0.66158800  1
  Zr  Zr9  1  0.18221800  0.47417100  0.04206300  1
  Zr  Zr10  1  0.19415800  0.16706900  0.33841200  1
  Zr  Zr11  1  0.30584200  0.16706900  0.83841200  1
  Zr  Zr12  1  0.69415800  0.83293100  0.16158800  1
  Zr  Zr13  1  0.31778200  0.47417100  0.54206300  1
  Ag  Ag14  1  0.33946600  0.81842500  0.18671700  1
  Ag  Ag15  1  0.16053400  0.81842500  0.68671700  1
  Ag  Ag16  1  0.66053400  0.18157500  0.81328300  1
  Ag  Ag17  1  0.83946600  0.18157500  0.31328300  1
  F  F18  1  0.78329300  0.00307000  0.49858500  1
  F  F19  1  0.81530900  0.35504000  0.12229700  1
  F  F20  1  0.00000000  0.50000000  0.00000000  1
  F  F21  1  0.63930000  0.01886700  0.26324400  1
  F  F22  1  0.29048900  0.32155100  0.18480900  1
  F  F23  1  0.47438800  0.13917400  0.90924300  1
  F  F24  1  0.91507700  0.68922000  0.80951300  1
  F  F25  1  0.66301200  0.60935000  0.06848700  1
  F  F26  1  0.31530900  0.64496000  0.37770300  1
  F  F27  1  0.14719200  0.26291900  0.93862900  1
  F  F28  1  0.71670700  0.00307000  0.99858500  1
  F  F29  1  0.41507700  0.31078000  0.69048700  1
  F  F30  1  0.28329300  0.99693000  0.00141500  1
  F  F31  1  0.86514900  0.34854700  0.84682400  1
  F  F32  1  0.36070000  0.98113300  0.73675600  1
  F  F33  1  0.65796600  0.38154100  0.92446700  1
  F  F34  1  0.79048900  0.67844900  0.31519100  1
  F  F35  1  0.68469100  0.35504000  0.62229700  1
  F  F36  1  0.35280800  0.26291900  0.43862900  1
  F  F37  1  0.52561200  0.86082600  0.09075700  1
  F  F38  1  0.08492300  0.31078000  0.19048700  1
  F  F39  1  0.35508200  0.02451800  0.29107000  1
  F  F40  1  0.83698800  0.60935000  0.56848700  1
  F  F41  1  0.58492300  0.68922000  0.30951300  1
  F  F42  1  0.02561200  0.13917400  0.40924300  1
  F  F43  1  0.15796600  0.61845900  0.57553300  1
  F  F44  1  0.64719200  0.73708100  0.56137100  1
  F  F45  1  0.13930000  0.98113300  0.23675600  1
  F  F46  1  0.36514900  0.65145300  0.65317600  1
  F  F47  1  0.97438800  0.86082600  0.59075700  1
  F  F48  1  0.16301200  0.39065000  0.43151300  1
  F  F49  1  0.63485100  0.34854700  0.34682400  1
  F  F50  1  0.86070000  0.01886700  0.76324400  1
  F  F51  1  0.84203400  0.38154100  0.42446700  1
  F  F52  1  0.13485100  0.65145300  0.15317600  1
  F  F53  1  0.34203400  0.61845900  0.07553300  1
  F  F54  1  0.85280800  0.73708100  0.06137100  1
  F  F55  1  0.64491800  0.97548200  0.70893000  1
  F  F56  1  0.70951100  0.67844900  0.81519100  1
  F  F57  1  0.14491800  0.02451800  0.79107000  1
  F  F58  1  0.18469100  0.64496000  0.87770300  1
  F  F59  1  0.85508200  0.97548200  0.20893000  1
  F  F60  1  0.20951100  0.32155100  0.68480900  1
  F  F61  1  0.33698800  0.39065000  0.93151300  1
  F  F62  1  0.21670700  0.99693000  0.50141500  1
  F  F63  1  0.50000000  0.50000000  0.50000000  1
