# generated using pymatgen
data_CrHg3(SO2)2
_symmetry_space_group_name_H-M   'P 1'
_cell_length_a   15.33175100
_cell_length_b   7.71704000
_cell_length_c   7.72470242
_cell_angle_alpha   60.53722996
_cell_angle_beta   90.00000000
_cell_angle_gamma   90.00000000
_symmetry_Int_Tables_number   1
_chemical_formula_structural   CrHg3(SO2)2
_chemical_formula_sum   'Cr4 Hg12 S8 O16'
_cell_volume   795.75720869
_cell_formula_units_Z   4
loop_
 _symmetry_equiv_pos_site_id
 _symmetry_equiv_pos_as_xyz
  1  'x, y, z'
loop_
 _atom_site_type_symbol
 _atom_site_label
 _atom_site_symmetry_multiplicity
 _atom_site_fract_x
 _atom_site_fract_y
 _atom_site_fract_z
 _atom_site_occupancy
  Cr  Cr0  1  0.40246400  0.37911000  0.39497500  1
  Cr  Cr1  1  0.90246400  0.62089000  0.10502500  1
  Cr  Cr2  1  0.59753600  0.62089000  0.60502500  1
  Cr  Cr3  1  0.09753600  0.37911000  0.89497500  1
  Hg  Hg4  1  0.36288800  0.88937400  0.42080800  1
  Hg  Hg5  1  0.86288800  0.11062600  0.07919200  1
  Hg  Hg6  1  0.54415100  0.17183900  0.12962400  1
  Hg  Hg7  1  0.83619200  0.59926700  0.60870700  1
  Hg  Hg8  1  0.04415100  0.82816100  0.37037600  1
  Hg  Hg9  1  0.66380800  0.59926700  0.10870700  1
  Hg  Hg10  1  0.63711200  0.11062600  0.57919200  1
  Hg  Hg11  1  0.95584900  0.17183900  0.62962400  1
  Hg  Hg12  1  0.33619200  0.40073300  0.89129300  1
  Hg  Hg13  1  0.13711200  0.88937400  0.92080800  1
  Hg  Hg14  1  0.16380800  0.40073300  0.39129300  1
  Hg  Hg15  1  0.45584900  0.82816100  0.87037600  1
  S  S16  1  0.60004700  0.93174600  0.92924500  1
  S  S17  1  0.10004700  0.06825400  0.57075500  1
  S  S18  1  0.81668400  0.24241500  0.73757000  1
  S  S19  1  0.68331600  0.24241500  0.23757000  1
  S  S20  1  0.31668400  0.75758500  0.76243000  1
  S  S21  1  0.18331600  0.75758500  0.26243000  1
  S  S22  1  0.39995300  0.06825400  0.07075500  1
  S  S23  1  0.89995300  0.93174600  0.42924500  1
  O  O24  1  0.53976600  0.82505600  0.45701200  1
  O  O25  1  0.81066000  0.68984400  0.17539000  1
  O  O26  1  0.12475400  0.50551200  0.01059700  1
  O  O27  1  0.37524600  0.50551200  0.51059700  1
  O  O28  1  0.87524600  0.49448800  0.98940300  1
  O  O29  1  0.62475400  0.49448800  0.48940300  1
  O  O30  1  0.96282100  0.48299800  0.30629700  1
  O  O31  1  0.53717900  0.48299800  0.80629700  1
  O  O32  1  0.46282100  0.51700200  0.19370300  1
  O  O33  1  0.03717900  0.51700200  0.69370300  1
  O  O34  1  0.68934000  0.68984400  0.67539000  1
  O  O35  1  0.18934000  0.31015600  0.82461000  1
  O  O36  1  0.31066000  0.31015600  0.32461000  1
  O  O37  1  0.96023400  0.82505600  0.95701200  1
  O  O38  1  0.46023400  0.17494400  0.54298800  1
  O  O39  1  0.03976600  0.17494400  0.04298800  1
