# generated using pymatgen
data_GdFe3(BO3)4
_symmetry_space_group_name_H-M   'P 1'
_cell_length_a   9.65535996
_cell_length_b   9.65535996
_cell_length_c   7.68201000
_cell_angle_alpha   90.00000000
_cell_angle_beta   90.00000000
_cell_angle_gamma   119.99999975
_symmetry_Int_Tables_number   1
_chemical_formula_structural   GdFe3(BO3)4
_chemical_formula_sum   'Gd3 Fe9 B12 O36'
_cell_volume   620.21524892
_cell_formula_units_Z   3
loop_
 _symmetry_equiv_pos_site_id
 _symmetry_equiv_pos_as_xyz
  1  'x, y, z'
loop_
 _atom_site_type_symbol
 _atom_site_label
 _atom_site_symmetry_multiplicity
 _atom_site_fract_x
 _atom_site_fract_y
 _atom_site_fract_z
 _atom_site_occupancy
  Gd  Gd0  1  0.00000000  0.33352300  0.66666700  1
  Gd  Gd1  1  0.66647700  0.66647700  0.00000000  1
  Gd  Gd2  1  0.33352300  0.00000000  0.33333300  1
  Fe  Fe3  1  0.45032500  0.78449200  0.66363700  1
  Fe  Fe4  1  0.66583300  0.21550800  0.00303000  1
  Fe  Fe5  1  0.78449200  0.45032500  0.33636300  1
  Fe  Fe6  1  0.11614100  0.11614100  0.00000000  1
  Fe  Fe7  1  0.88385900  0.00000000  0.33333300  1
  Fe  Fe8  1  0.33416700  0.54967500  0.33030400  1
  Fe  Fe9  1  0.54967500  0.33416700  0.66969600  1
  Fe  Fe10  1  0.21550800  0.66583300  0.99697000  1
  Fe  Fe11  1  0.00000000  0.88385900  0.66666700  1
  B  B12  1  0.66724700  0.66724700  0.50000000  1
  B  B13  1  0.00000000  0.33275300  0.16666700  1
  B  B14  1  0.21951500  0.21951500  0.50000000  1
  B  B15  1  0.44784700  0.33061800  0.17044200  1
  B  B16  1  0.66938200  0.11723000  0.50377500  1
  B  B17  1  0.00000000  0.78048500  0.16666700  1
  B  B18  1  0.55215300  0.88277000  0.16289200  1
  B  B19  1  0.78048500  0.00000000  0.83333300  1
  B  B20  1  0.88277000  0.55215300  0.83710800  1
  B  B21  1  0.11723000  0.66938200  0.49622500  1
  B  B22  1  0.33275300  0.00000000  0.83333300  1
  B  B23  1  0.33061800  0.44784700  0.82955800  1
  O  O24  1  0.47604400  0.14379300  0.83579300  1
  O  O25  1  0.58872100  0.32575400  0.17712500  1
  O  O26  1  0.69216100  0.87836200  0.18163200  1
  O  O27  1  0.14379300  0.47604400  0.16420700  1
  O  O28  1  0.52395600  0.66774900  0.49754100  1
  O  O29  1  0.85620700  0.33225100  0.16912600  1
  O  O30  1  0.21257900  0.35866000  0.48363800  1
  O  O31  1  0.92385700  0.00000000  0.83333300  1
  O  O32  1  0.67424600  0.26296700  0.51045900  1
  O  O33  1  0.47771000  0.45744800  0.81679900  1
  O  O34  1  0.00000000  0.18925600  0.16666700  1
  O  O35  1  0.33225100  0.85620700  0.83087400  1
  O  O36  1  0.66774900  0.52395600  0.50245900  1
  O  O37  1  0.18620000  0.30783900  0.84829900  1
  O  O38  1  0.18925600  0.00000000  0.83333300  1
  O  O39  1  0.87836200  0.69216100  0.81836800  1
  O  O40  1  0.81380000  0.12163800  0.48503500  1
  O  O41  1  0.52229000  0.97973800  0.51653400  1
  O  O42  1  0.97973800  0.52229000  0.48346600  1
  O  O43  1  0.07614300  0.07614300  0.50000000  1
  O  O44  1  0.02026200  0.54255200  0.84986700  1
  O  O45  1  0.32575400  0.58872100  0.82287500  1
  O  O46  1  0.73703300  0.41127900  0.84379200  1
  O  O47  1  0.85391900  0.64134000  0.18302900  1
  O  O48  1  0.14608100  0.78742100  0.15030400  1
  O  O49  1  0.12163800  0.81380000  0.51496500  1
  O  O50  1  0.54255200  0.02026200  0.15013300  1
  O  O51  1  0.81074400  0.81074400  0.50000000  1
  O  O52  1  0.00000000  0.92385700  0.16666700  1
  O  O53  1  0.45744800  0.47771000  0.18320100  1
  O  O54  1  0.26296700  0.67424600  0.48954100  1
  O  O55  1  0.64134000  0.85391900  0.81697100  1
  O  O56  1  0.78742100  0.14608100  0.84969600  1
  O  O57  1  0.41127900  0.73703300  0.15620800  1
  O  O58  1  0.35866000  0.21257900  0.51636200  1
  O  O59  1  0.30783900  0.18620000  0.15170100  1
