# generated using pymatgen
data_SiO2
_symmetry_space_group_name_H-M   'P 1'
_cell_length_a   12.73750484
_cell_length_b   12.73750484
_cell_length_c   8.64386900
_cell_angle_alpha   90.00000000
_cell_angle_beta   90.00000000
_cell_angle_gamma   109.46422219
_symmetry_Int_Tables_number   1
_chemical_formula_structural   SiO2
_chemical_formula_sum   'Si24 O48'
_cell_volume   1322.26770402
_cell_formula_units_Z   24
loop_
 _symmetry_equiv_pos_site_id
 _symmetry_equiv_pos_as_xyz
  1  'x, y, z'
loop_
 _atom_site_type_symbol
 _atom_site_label
 _atom_site_symmetry_multiplicity
 _atom_site_fract_x
 _atom_site_fract_y
 _atom_site_fract_z
 _atom_site_occupancy
  Si  Si0  1  0.62042800  0.76020100  0.06353600  1
  Si  Si1  1  0.23979900  0.37957200  0.43646400  1
  Si  Si2  1  0.61799500  0.99480000  0.93687700  1
  Si  Si3  1  0.00520000  0.38200500  0.93687700  1
  Si  Si4  1  0.76020100  0.62042800  0.93646400  1
  Si  Si5  1  0.38200500  0.00520000  0.06312300  1
  Si  Si6  1  0.37957200  0.23979900  0.56353600  1
  Si  Si7  1  0.99480000  0.61799500  0.06312300  1
  Si  Si8  1  0.62281800  0.37718200  0.43664900  1
  Si  Si9  1  0.77223600  0.22776400  0.43742700  1
  Si  Si10  1  0.37718200  0.62281800  0.56335100  1
  Si  Si11  1  0.22776400  0.77223600  0.56257300  1
  Si  Si12  1  0.61799500  0.99480000  0.56312300  1
  Si  Si13  1  0.99480000  0.61799500  0.43687700  1
  Si  Si14  1  0.37718200  0.62281800  0.93664900  1
  Si  Si15  1  0.23979900  0.37957200  0.06353600  1
  Si  Si16  1  0.22776400  0.77223600  0.93742700  1
  Si  Si17  1  0.00520000  0.38200500  0.56312300  1
  Si  Si18  1  0.38200500  0.00520000  0.43687700  1
  Si  Si19  1  0.76020100  0.62042800  0.56353600  1
  Si  Si20  1  0.62281800  0.37718200  0.06335100  1
  Si  Si21  1  0.77223600  0.22776400  0.06257300  1
  Si  Si22  1  0.37957200  0.23979900  0.93646400  1
  Si  Si23  1  0.62042800  0.76020100  0.43646400  1
  O  O24  1  0.88552700  0.63997000  0.99616200  1
  O  O25  1  0.50292200  0.67520600  0.00057000  1
  O  O26  1  0.69737300  0.30262700  0.00566700  1
  O  O27  1  0.49707800  0.32479400  0.50057000  1
  O  O28  1  0.89707600  0.28071400  0.50567800  1
  O  O29  1  0.00000000  0.50000000  0.50000000  1
  O  O30  1  0.88552700  0.63997000  0.50383800  1
  O  O31  1  0.71928600  0.10292400  0.50567800  1
  O  O32  1  0.69737300  0.30262700  0.49433300  1
  O  O33  1  0.89707600  0.28071400  0.99432200  1
  O  O34  1  0.61922900  0.75780500  0.25000000  1
  O  O35  1  0.71928600  0.10292400  0.99432200  1
  O  O36  1  0.72184300  0.72184300  0.00000000  1
  O  O37  1  0.36003000  0.11447300  0.50383800  1
  O  O38  1  0.27815700  0.27815700  0.00000000  1
  O  O39  1  0.49707800  0.32479400  0.99943000  1
  O  O40  1  0.98958800  0.61438100  0.25000000  1
  O  O41  1  0.38561900  0.01041200  0.25000000  1
  O  O42  1  0.27815700  0.27815700  0.50000000  1
  O  O43  1  0.30262700  0.69737300  0.99433300  1
  O  O44  1  0.77590000  0.22410000  0.25000000  1
  O  O45  1  0.10292400  0.71928600  0.49432200  1
  O  O46  1  0.63997000  0.88552700  0.00383800  1
  O  O47  1  0.50292200  0.67520600  0.49943000  1
  O  O48  1  0.38077100  0.24219500  0.75000000  1
  O  O49  1  0.37931100  0.62068900  0.75000000  1
  O  O50  1  0.10292400  0.71928600  0.00567800  1
  O  O51  1  0.75780500  0.61922900  0.75000000  1
  O  O52  1  0.30262700  0.69737300  0.50566700  1
  O  O53  1  0.01041200  0.38561900  0.75000000  1
  O  O54  1  0.61438100  0.98958800  0.75000000  1
  O  O55  1  0.11447300  0.36003000  0.49616200  1
  O  O56  1  0.32479400  0.49707800  0.00057000  1
  O  O57  1  0.22410000  0.77590000  0.75000000  1
  O  O58  1  0.50000000  0.00000000  0.50000000  1
  O  O59  1  0.62068900  0.37931100  0.25000000  1
  O  O60  1  0.72184300  0.72184300  0.50000000  1
  O  O61  1  0.67520600  0.50292200  0.50057000  1
  O  O62  1  0.00000000  0.50000000  0.00000000  1
  O  O63  1  0.24219500  0.38077100  0.25000000  1
  O  O64  1  0.28071400  0.89707600  0.00567800  1
  O  O65  1  0.67520600  0.50292200  0.99943000  1
  O  O66  1  0.11447300  0.36003000  0.00383800  1
  O  O67  1  0.63997000  0.88552700  0.49616200  1
  O  O68  1  0.32479400  0.49707800  0.49943000  1
  O  O69  1  0.36003000  0.11447300  0.99616200  1
  O  O70  1  0.28071400  0.89707600  0.49432200  1
  O  O71  1  0.50000000  0.00000000  0.00000000  1
