# generated using pymatgen
data_Sr(H8O5)2
_symmetry_space_group_name_H-M   'P 1'
_cell_length_a   6.42929260
_cell_length_b   6.42929260
_cell_length_c   11.52078335
_cell_angle_alpha   89.34077724
_cell_angle_beta   89.34077724
_cell_angle_gamma   91.72047695
_symmetry_Int_Tables_number   1
_chemical_formula_structural   Sr(H8O5)2
_chemical_formula_sum   'Sr2 H32 O20'
_cell_volume   475.94118578
_cell_formula_units_Z   2
loop_
 _symmetry_equiv_pos_site_id
 _symmetry_equiv_pos_as_xyz
  1  'x, y, z'
loop_
 _atom_site_type_symbol
 _atom_site_label
 _atom_site_symmetry_multiplicity
 _atom_site_fract_x
 _atom_site_fract_y
 _atom_site_fract_z
 _atom_site_occupancy
  Sr  Sr0  1  0.97563200  0.00839500  0.73966600  1
  Sr  Sr1  1  0.00839500  0.97563200  0.23966600  1
  H  H2  1  0.42847100  0.97201700  0.62587200  1
  H  H3  1  0.27368000  0.84162400  0.54699600  1
  H  H4  1  0.59673700  0.27068300  0.65563300  1
  H  H5  1  0.68851800  0.15608100  0.54117500  1
  H  H6  1  0.14530100  0.32830600  0.56065700  1
  H  H7  1  0.28232400  0.42071500  0.66244200  1
  H  H8  1  0.94954300  0.57145700  0.63095200  1
  H  H9  1  0.70431500  0.60625500  0.65083200  1
  H  H10  1  0.32830600  0.14530100  0.06065700  1
  H  H11  1  0.42071500  0.28232400  0.16244200  1
  H  H12  1  0.60625500  0.70431500  0.15083200  1
  H  H13  1  0.57145700  0.94954300  0.13095200  1
  H  H14  1  0.27068300  0.59673700  0.15563300  1
  H  H15  1  0.15608100  0.68851800  0.04117500  1
  H  H16  1  0.97201700  0.42847100  0.12587200  1
  H  H17  1  0.84162400  0.27368000  0.04699600  1
  H  H18  1  0.65139900  0.04857700  0.36911800  1
  H  H19  1  0.61763500  0.29938100  0.35113700  1
  H  H20  1  0.36782000  0.71042200  0.36040300  1
  H  H21  1  0.35247900  0.95818800  0.38996200  1
  H  H22  1  0.68332800  0.64303400  0.35930400  1
  H  H23  1  0.81676800  0.71752800  0.46990200  1
  H  H24  1  0.03550200  0.35332800  0.38068600  1
  H  H25  1  0.28363700  0.37009700  0.35852600  1
  H  H26  1  0.64303400  0.68332800  0.85930400  1
  H  H27  1  0.71752800  0.81676800  0.96990200  1
  H  H28  1  0.35332800  0.03550200  0.88068600  1
  H  H29  1  0.37009700  0.28363700  0.85852600  1
  H  H30  1  0.95818800  0.35247900  0.88996200  1
  H  H31  1  0.71042200  0.36782000  0.86040300  1
  H  H32  1  0.04857700  0.65139900  0.86911800  1
  H  H33  1  0.29938100  0.61763500  0.85113700  1
  O  O34  1  0.51145900  0.46897600  0.69104200  1
  O  O35  1  0.46897600  0.51145900  0.19104200  1
  O  O36  1  0.47734100  0.50171600  0.32014400  1
  O  O37  1  0.50171600  0.47734100  0.82014400  1
  O  O38  1  0.28817100  0.90191900  0.62483400  1
  O  O39  1  0.66084300  0.13045900  0.62508200  1
  O  O40  1  0.13055400  0.37255000  0.64186200  1
  O  O41  1  0.84259200  0.68049300  0.62455800  1
  O  O42  1  0.37255000  0.13055400  0.14186200  1
  O  O43  1  0.68049300  0.84259200  0.12455800  1
  O  O44  1  0.13045900  0.66084300  0.12508200  1
  O  O45  1  0.90191900  0.28817100  0.12483400  1
  O  O46  1  0.71169900  0.18720100  0.38308700  1
  O  O47  1  0.27302000  0.82769800  0.38635700  1
  O  O48  1  0.79777400  0.74242800  0.38514500  1
  O  O49  1  0.16105400  0.27387900  0.38775700  1
  O  O50  1  0.74242800  0.79777400  0.88514500  1
  O  O51  1  0.27387900  0.16105400  0.88775700  1
  O  O52  1  0.82769800  0.27302000  0.88635700  1
  O  O53  1  0.18720100  0.71169900  0.88308700  1
