# generated using pymatgen
data_Na3VS3O
_symmetry_space_group_name_H-M   'P 1'
_cell_length_a   5.98567300
_cell_length_b   9.74948600
_cell_length_c   12.01236100
_cell_angle_alpha   90.00000000
_cell_angle_beta   90.00000000
_cell_angle_gamma   90.00000000
_symmetry_Int_Tables_number   1
_chemical_formula_structural   Na3VS3O
_chemical_formula_sum   'Na12 V4 S12 O4'
_cell_volume   701.00817515
_cell_formula_units_Z   4
loop_
 _symmetry_equiv_pos_site_id
 _symmetry_equiv_pos_as_xyz
  1  'x, y, z'
loop_
 _atom_site_type_symbol
 _atom_site_label
 _atom_site_symmetry_multiplicity
 _atom_site_fract_x
 _atom_site_fract_y
 _atom_site_fract_z
 _atom_site_occupancy
  Na  Na0  1  0.25028800  0.45542700  0.12994000  1
  Na  Na1  1  0.23889100  0.75000000  0.36827000  1
  Na  Na2  1  0.24971200  0.95542700  0.62994000  1
  Na  Na3  1  0.75028800  0.04457300  0.37006000  1
  Na  Na4  1  0.26110900  0.25000000  0.86827000  1
  Na  Na5  1  0.25028800  0.04457300  0.12994000  1
  Na  Na6  1  0.24971200  0.54457300  0.62994000  1
  Na  Na7  1  0.73889100  0.75000000  0.13173000  1
  Na  Na8  1  0.75028800  0.45542700  0.37006000  1
  Na  Na9  1  0.74971200  0.95542700  0.87006000  1
  Na  Na10  1  0.76110900  0.25000000  0.63173000  1
  Na  Na11  1  0.74971200  0.54457300  0.87006000  1
  V  V12  1  0.34299000  0.25000000  0.45306100  1
  V  V13  1  0.15701000  0.75000000  0.95306100  1
  V  V14  1  0.65701000  0.75000000  0.54693900  1
  V  V15  1  0.84299000  0.25000000  0.04693900  1
  S  S16  1  0.25427600  0.75000000  0.13071700  1
  S  S17  1  0.22832800  0.06069400  0.37362200  1
  S  S18  1  0.24572400  0.25000000  0.63071800  1
  S  S19  1  0.22832800  0.43930600  0.37362200  1
  S  S20  1  0.74572400  0.25000000  0.86928200  1
  S  S21  1  0.72832800  0.43930600  0.12637800  1
  S  S22  1  0.77167200  0.56069400  0.62637800  1
  S  S23  1  0.72832800  0.06069400  0.12637800  1
  S  S24  1  0.77167200  0.93930600  0.62637800  1
  S  S25  1  0.27167200  0.93930600  0.87362200  1
  S  S26  1  0.27167200  0.56069400  0.87362200  1
  S  S27  1  0.75427600  0.75000000  0.36928300  1
  O  O28  1  0.62658100  0.25000000  0.44851000  1
  O  O29  1  0.37341900  0.75000000  0.55149000  1
  O  O30  1  0.87341900  0.75000000  0.94851000  1
  O  O31  1  0.12658100  0.25000000  0.05149000  1
