# generated using pymatgen
data_V3SiP5O19
_symmetry_space_group_name_H-M   'P 1'
_cell_length_a   14.58948420
_cell_length_b   14.58948420
_cell_length_c   7.72138400
_cell_angle_alpha   90.00000000
_cell_angle_beta   90.00000000
_cell_angle_gamma   120.00000089
_symmetry_Int_Tables_number   1
_chemical_formula_structural   V3SiP5O19
_chemical_formula_sum   'V12 Si4 P20 O76'
_cell_volume   1423.33016966
_cell_formula_units_Z   4
loop_
 _symmetry_equiv_pos_site_id
 _symmetry_equiv_pos_as_xyz
  1  'x, y, z'
loop_
 _atom_site_type_symbol
 _atom_site_label
 _atom_site_symmetry_multiplicity
 _atom_site_fract_x
 _atom_site_fract_y
 _atom_site_fract_z
 _atom_site_occupancy
  V  V0  1  0.31997300  0.97720600  0.55549400  1
  V  V1  1  0.68002700  0.02279400  0.05549400  1
  V  V2  1  0.67564200  0.01435200  0.44682400  1
  V  V3  1  0.66129000  0.67564200  0.94682400  1
  V  V4  1  0.32435800  0.98564800  0.94682400  1
  V  V5  1  0.01435200  0.33871000  0.94682400  1
  V  V6  1  0.34276800  0.31997300  0.05549400  1
  V  V7  1  0.33871000  0.32435800  0.44682400  1
  V  V8  1  0.98564800  0.66129000  0.44682400  1
  V  V9  1  0.02279400  0.34276800  0.55549400  1
  V  V10  1  0.65723200  0.68002700  0.55549400  1
  V  V11  1  0.97720600  0.65723200  0.05549400  1
  Si  Si12  1  0.33333300  0.66666700  0.30153900  1
  Si  Si13  1  0.33333300  0.66666700  0.71518900  1
  Si  Si14  1  0.66666700  0.33333300  0.80153900  1
  Si  Si15  1  0.66666700  0.33333300  0.21518900  1
  P  P16  1  0.85233800  0.76883200  0.24731400  1
  P  P17  1  0.76883200  0.91649400  0.74731400  1
  P  P18  1  0.43232500  0.22173000  0.74828900  1
  P  P19  1  0.21059600  0.43232500  0.24828900  1
  P  P20  1  0.57903800  0.48379700  0.25967500  1
  P  P21  1  0.51620300  0.09524100  0.25967500  1
  P  P22  1  0.08350600  0.85233800  0.74731400  1
  P  P23  1  0.90475900  0.42096200  0.25967500  1
  P  P24  1  0.56767500  0.77827000  0.24828900  1
  P  P25  1  0.22173000  0.78940400  0.24828900  1
  P  P26  1  0.09524100  0.57903800  0.75967500  1
  P  P27  1  0.42096200  0.51620300  0.75967500  1
  P  P28  1  0.48379700  0.90475900  0.75967500  1
  P  P29  1  0.14766200  0.23116800  0.74731400  1
  P  P30  1  0.77827000  0.21059600  0.74828900  1
  P  P31  1  0.23116800  0.08350600  0.24731400  1
  P  P32  1  0.00000000  0.00000000  0.31492600  1
  P  P33  1  0.00000000  0.00000000  0.81492600  1
  P  P34  1  0.78940400  0.56767500  0.74828900  1
  P  P35  1  0.91649400  0.14766200  0.24731400  1
  O  O36  1  0.78054600  0.35778500  0.29074100  1
  O  O37  1  0.20652100  0.90302500  0.74938400  1
  O  O38  1  0.44912100  0.75458100  0.22766900  1
  O  O39  1  0.92805900  0.38564300  0.08904200  1
  O  O40  1  0.09697500  0.30349600  0.74938400  1
  O  O41  1  0.75458100  0.30546100  0.72766900  1
  O  O42  1  0.30349600  0.20652100  0.24938400  1
  O  O43  1  0.60220600  0.55078600  0.42230500  1
  O  O44  1  0.42410200  0.26691300  0.92175100  1
  O  O45  1  0.00000000  0.00000000  0.00190500  1
  O  O46  1  0.04388100  0.11665600  0.74489800  1
  O  O47  1  0.03929500  0.79561200  0.57566000  1
  O  O48  1  0.58917200  0.73186200  0.08799900  1
  O  O49  1  0.90145600  0.26549000  0.74751000  1
  O  O50  1  0.54102700  0.60181100  0.75707800  1
  O  O51  1  0.85731000  0.58917200  0.58799900  1
  O  O52  1  0.41082800  0.26813800  0.58799900  1
  O  O53  1  0.55087900  0.24541900  0.72766900  1
  O  O54  1  0.24541900  0.69453900  0.22766900  1
  O  O55  1  0.78916900  0.75826200  0.40878400  1
  O  O56  1  0.55078600  0.94858000  0.92230500  1
  O  O57  1  0.90302500  0.69650400  0.24938400  1
  O  O58  1  0.39818900  0.93921600  0.75707800  1
  O  O59  1  0.15718900  0.42410200  0.42175100  1
  O  O60  1  0.07194100  0.61435700  0.58904200  1
  O  O61  1  0.61435700  0.54241600  0.08904200  1
  O  O62  1  0.03090700  0.78916900  0.90878400  1
  O  O63  1  0.11665600  0.07277400  0.24489800  1
  O  O64  1  0.21945400  0.64221500  0.79074100  1
  O  O65  1  0.24173800  0.03090700  0.40878400  1
  O  O66  1  0.69650400  0.79347900  0.74938400  1
  O  O67  1  0.54241600  0.92805900  0.58904200  1
  O  O68  1  0.93921600  0.54102700  0.25707800  1
  O  O69  1  0.33333300  0.66666700  0.50831000  1
  O  O70  1  0.38564300  0.45758400  0.58904200  1
  O  O71  1  0.84281100  0.57589800  0.92175100  1
  O  O72  1  0.96909300  0.21083100  0.40878400  1
  O  O73  1  0.95611900  0.88334400  0.24489800  1
  O  O74  1  0.30546100  0.55087900  0.22766900  1
  O  O75  1  0.09854400  0.73451000  0.24751000  1
  O  O76  1  0.45758400  0.07194100  0.08904200  1
  O  O77  1  0.73186200  0.14269000  0.58799900  1
  O  O78  1  0.75631600  0.96070500  0.57566000  1
  O  O79  1  0.75826200  0.96909300  0.90878400  1
  O  O80  1  0.44921400  0.05142000  0.42230500  1
  O  O81  1  0.00000000  0.00000000  0.50190500  1
  O  O82  1  0.24368400  0.03929500  0.07566000  1
  O  O83  1  0.14269000  0.41082800  0.08799900  1
  O  O84  1  0.88334400  0.92722600  0.74489800  1
  O  O85  1  0.05142000  0.60220600  0.92230500  1
  O  O86  1  0.73308700  0.15718900  0.92175100  1
  O  O87  1  0.20438800  0.24368400  0.57566000  1
  O  O88  1  0.73451000  0.63596600  0.74751000  1
  O  O89  1  0.60181100  0.06078400  0.25707800  1
  O  O90  1  0.26813800  0.85731000  0.08799900  1
  O  O91  1  0.26691300  0.84281100  0.42175100  1
  O  O92  1  0.64221500  0.42276100  0.29074100  1
  O  O93  1  0.66666700  0.33333300  0.00831000  1
  O  O94  1  0.26549000  0.36403400  0.24751000  1
  O  O95  1  0.45897300  0.39818900  0.25707800  1
  O  O96  1  0.57589800  0.73308700  0.42175100  1
  O  O97  1  0.79347900  0.09697500  0.24938400  1
  O  O98  1  0.79561200  0.75631600  0.07566000  1
  O  O99  1  0.06078400  0.45897300  0.75707800  1
  O  O100  1  0.96070500  0.20438800  0.07566000  1
  O  O101  1  0.63596600  0.90145600  0.24751000  1
  O  O102  1  0.39779400  0.44921400  0.92230500  1
  O  O103  1  0.57723900  0.21945400  0.29074100  1
  O  O104  1  0.69453900  0.44912100  0.72766900  1
  O  O105  1  0.36403400  0.09854400  0.74751000  1
  O  O106  1  0.42276100  0.78054600  0.79074100  1
  O  O107  1  0.35778500  0.57723900  0.79074100  1
  O  O108  1  0.21083100  0.24173800  0.90878400  1
  O  O109  1  0.92722600  0.04388100  0.24489800  1
  O  O110  1  0.07277400  0.95611900  0.74489800  1
  O  O111  1  0.94858000  0.39779400  0.42230500  1
