# generated using pymatgen
data_Sr(H8O5)2
_symmetry_space_group_name_H-M   'P 1'
_cell_length_a   6.38836703
_cell_length_b   6.38836703
_cell_length_c   6.59517331
_cell_angle_alpha   87.96180540
_cell_angle_beta   87.96180540
_cell_angle_gamma   90.53453333
_symmetry_Int_Tables_number   1
_chemical_formula_structural   Sr(H8O5)2
_chemical_formula_sum   'Sr1 H16 O10'
_cell_volume   268.80157010
_cell_formula_units_Z   1
loop_
 _symmetry_equiv_pos_site_id
 _symmetry_equiv_pos_as_xyz
  1  'x, y, z'
loop_
 _atom_site_type_symbol
 _atom_site_label
 _atom_site_symmetry_multiplicity
 _atom_site_fract_x
 _atom_site_fract_y
 _atom_site_fract_z
 _atom_site_occupancy
  Sr  Sr0  1  0.98537300  0.01462700  0.00000000  1
  H  H1  1  0.34196400  0.32832600  0.69194500  1
  H  H2  1  0.12520300  0.24359400  0.62346800  1
  H  H3  1  0.67912100  0.67200200  0.69404700  1
  H  H4  1  0.92522900  0.72923400  0.69552700  1
  H  H5  1  0.27356600  0.92068000  0.69089000  1
  H  H6  1  0.32220000  0.67603500  0.69880600  1
  H  H7  1  0.66730000  0.32847000  0.69329600  1
  H  H8  1  0.71316400  0.08435600  0.68094300  1
  H  H9  1  0.67167400  0.65803600  0.30805500  1
  H  H10  1  0.75640600  0.87479700  0.37653200  1
  H  H11  1  0.32799800  0.32087900  0.30595300  1
  H  H12  1  0.27076600  0.07477100  0.30447300  1
  H  H13  1  0.67153000  0.33270000  0.30670400  1
  H  H14  1  0.91564400  0.28683600  0.31905700  1
  H  H15  1  0.32396500  0.67780000  0.30119400  1
  H  H16  1  0.07932000  0.72643400  0.30911000  1
  O  O17  1  0.49971300  0.50593200  0.61377300  1
  O  O18  1  0.49406800  0.50028700  0.38622700  1
  O  O19  1  0.22962900  0.21390700  0.72436000  1
  O  O20  1  0.78524300  0.77877400  0.73749700  1
  O  O21  1  0.21719400  0.78442500  0.74331200  1
  O  O22  1  0.76542200  0.21281100  0.73860400  1
  O  O23  1  0.78609300  0.77037100  0.27564000  1
  O  O24  1  0.22122600  0.21475700  0.26250300  1
  O  O25  1  0.78718900  0.23457800  0.26139600  1
  O  O26  1  0.21557500  0.78280600  0.25668800  1
