# generated using pymatgen
data_Ca(PO3)2
_symmetry_space_group_name_H-M   'P 1'
_cell_length_a   12.30034921
_cell_length_b   12.30034921
_cell_length_c   6.84599867
_cell_angle_alpha   87.34284030
_cell_angle_beta   87.34284030
_cell_angle_gamma   111.31238888
_symmetry_Int_Tables_number   1
_chemical_formula_structural   Ca(PO3)2
_chemical_formula_sum   'Ca8 P16 O48'
_cell_volume   961.69148433
_cell_formula_units_Z   8
loop_
 _symmetry_equiv_pos_site_id
 _symmetry_equiv_pos_as_xyz
  1  'x, y, z'
loop_
 _atom_site_type_symbol
 _atom_site_label
 _atom_site_symmetry_multiplicity
 _atom_site_fract_x
 _atom_site_fract_y
 _atom_site_fract_z
 _atom_site_occupancy
  Ca  Ca0  1  0.13991800  0.52048700  0.68476500  1
  Ca  Ca1  1  0.64092300  0.52937000  0.19570400  1
  Ca  Ca2  1  0.15161400  0.02065300  0.18914200  1
  Ca  Ca3  1  0.64768200  0.02922900  0.70053300  1
  Ca  Ca4  1  0.02922900  0.64768200  0.20053300  1
  Ca  Ca5  1  0.02065300  0.15161400  0.68914200  1
  Ca  Ca6  1  0.52937000  0.64092300  0.69570400  1
  Ca  Ca7  1  0.52048700  0.13991800  0.18476500  1
  P  P8  1  0.45729500  0.34874400  0.50489100  1
  P  P9  1  0.95579500  0.35771100  0.02244300  1
  P  P10  1  0.00001400  0.86297200  0.56701700  1
  P  P11  1  0.82127800  0.68158100  0.82290500  1
  P  P12  1  0.83956700  0.49940500  0.53814400  1
  P  P13  1  0.32731500  0.71084900  0.35939700  1
  P  P14  1  0.86297200  0.00001400  0.06701700  1
  P  P15  1  0.21530200  0.32601000  0.36470800  1
  P  P16  1  0.17939600  0.82729400  0.83545400  1
  P  P17  1  0.68158100  0.82127800  0.32290500  1
  P  P18  1  0.32601000  0.21530200  0.86470800  1
  P  P19  1  0.82729400  0.17939600  0.33545400  1
  P  P20  1  0.35771100  0.95579500  0.52244300  1
  P  P21  1  0.71084900  0.32731500  0.85939700  1
  P  P22  1  0.34874400  0.45729500  0.00489100  1
  P  P23  1  0.49940500  0.83956700  0.03814400  1
  O  O24  1  0.28788700  0.00829900  0.40303100  1
  O  O25  1  0.67127700  0.90328100  0.46998600  1
  O  O26  1  0.39915400  0.65549400  0.46614300  1
  O  O27  1  0.34768100  0.83384700  0.44437000  1
  O  O28  1  0.66843600  0.69917200  0.39606800  1
  O  O29  1  0.84815000  0.16673200  0.54931700  1
  O  O30  1  0.37502000  0.74876000  0.13247100  1
  O  O31  1  0.64044900  0.19813400  0.86041600  1
  O  O32  1  0.83384700  0.34768100  0.94437000  1
  O  O33  1  0.33641400  0.36371100  0.46730700  1
  O  O34  1  0.74876000  0.37502000  0.63247100  1
  O  O35  1  0.19813400  0.64044900  0.36041600  1
  O  O36  1  0.01420700  0.78700000  0.41093000  1
  O  O37  1  0.35097200  0.13075700  0.00519400  1
  O  O38  1  0.42210900  0.24810300  0.68040300  1
  O  O39  1  0.65549400  0.39915400  0.96614300  1
  O  O40  1  0.16673200  0.84815000  0.04931700  1
  O  O41  1  0.01277700  0.98575000  0.49939900  1
  O  O42  1  0.24810300  0.42210900  0.18040300  1
  O  O43  1  0.30449500  0.92035900  0.74570800  1
  O  O44  1  0.03096100  0.48532800  0.02560800  1
  O  O45  1  0.51460400  0.81052800  0.82979200  1
  O  O46  1  0.09193100  0.87676500  0.73002100  1
  O  O47  1  0.80468100  0.87603200  0.19237200  1
  O  O48  1  0.00829900  0.28788700  0.90303100  1
  O  O49  1  0.69917200  0.66843600  0.89606800  1
  O  O50  1  0.87676500  0.09193100  0.23002100  1
  O  O51  1  0.98575000  0.01277700  0.99939900  1
  O  O52  1  0.92035900  0.30449500  0.24570800  1
  O  O53  1  0.36371100  0.33641400  0.96730700  1
  O  O54  1  0.16444100  0.70575000  0.78802800  1
  O  O55  1  0.80349100  0.58924500  0.65977900  1
  O  O56  1  0.17807700  0.20464800  0.29839900  1
  O  O57  1  0.50569800  0.30653200  0.33118000  1
  O  O58  1  0.81052800  0.51460400  0.32979200  1
  O  O59  1  0.58924500  0.80349100  0.15977900  1
  O  O60  1  0.30653200  0.50569800  0.83118000  1
  O  O61  1  0.20464800  0.17807700  0.79839900  1
  O  O62  1  0.87603200  0.80468100  0.69237200  1
  O  O63  1  0.53548800  0.46623900  0.56543400  1
  O  O64  1  0.46623900  0.53548800  0.06543400  1
  O  O65  1  0.78700000  0.01420700  0.91093000  1
  O  O66  1  0.48532800  0.03096100  0.52560800  1
  O  O67  1  0.13075700  0.35097200  0.50519400  1
  O  O68  1  0.96438500  0.51268000  0.56069400  1
  O  O69  1  0.70575000  0.16444100  0.28802800  1
  O  O70  1  0.90328100  0.67127700  0.96998600  1
  O  O71  1  0.51268000  0.96438500  0.06069400  1
