# generated using pymatgen
data_VBi2O5
_symmetry_space_group_name_H-M   'P 1'
_cell_length_a   11.26970933
_cell_length_b   11.26970933
_cell_length_c   5.46995500
_cell_angle_alpha   90.00000000
_cell_angle_beta   90.00000000
_cell_angle_gamma   94.31418871
_symmetry_Int_Tables_number   1
_chemical_formula_structural   VBi2O5
_chemical_formula_sum   'V6 Bi12 O30'
_cell_volume   692.75054893
_cell_formula_units_Z   6
loop_
 _symmetry_equiv_pos_site_id
 _symmetry_equiv_pos_as_xyz
  1  'x, y, z'
loop_
 _atom_site_type_symbol
 _atom_site_label
 _atom_site_symmetry_multiplicity
 _atom_site_fract_x
 _atom_site_fract_y
 _atom_site_fract_z
 _atom_site_occupancy
  V  V0  1  0.58307600  0.91727600  0.75000000  1
  V  V1  1  0.41692400  0.08272400  0.25000000  1
  V  V2  1  0.91727600  0.58307600  0.75000000  1
  V  V3  1  0.08272400  0.41692400  0.25000000  1
  V  V4  1  0.26625300  0.26625300  0.75000000  1
  V  V5  1  0.73374700  0.73374700  0.25000000  1
  Bi  Bi6  1  0.42424400  0.74920200  0.25000000  1
  Bi  Bi7  1  0.57575600  0.25079800  0.75000000  1
  Bi  Bi8  1  0.74920200  0.42424400  0.25000000  1
  Bi  Bi9  1  0.25079800  0.57575600  0.75000000  1
  Bi  Bi10  1  0.75900500  0.08510600  0.25000000  1
  Bi  Bi11  1  0.24099500  0.91489400  0.75000000  1
  Bi  Bi12  1  0.08510600  0.75900500  0.25000000  1
  Bi  Bi13  1  0.91489400  0.24099500  0.75000000  1
  Bi  Bi14  1  0.08568500  0.08568500  0.25000000  1
  Bi  Bi15  1  0.91431500  0.91431500  0.75000000  1
  Bi  Bi16  1  0.40202400  0.40202400  0.25000000  1
  Bi  Bi17  1  0.59797600  0.59797600  0.75000000  1
  O  O18  1  0.92069300  0.07930700  0.50000000  1
  O  O19  1  0.07930700  0.92069300  0.00000000  1
  O  O20  1  0.07930700  0.92069300  0.50000000  1
  O  O21  1  0.92069300  0.07930700  0.00000000  1
  O  O22  1  0.40950900  0.59049100  0.50000000  1
  O  O23  1  0.59049100  0.40950900  0.00000000  1
  O  O24  1  0.59049100  0.40950900  0.50000000  1
  O  O25  1  0.40950900  0.59049100  0.00000000  1
  O  O26  1  0.75812300  0.24187700  0.50000000  1
  O  O27  1  0.24187700  0.75812300  0.00000000  1
  O  O28  1  0.24187700  0.75812300  0.50000000  1
  O  O29  1  0.75812300  0.24187700  0.00000000  1
  O  O30  1  0.38899400  0.22252500  0.50138200  1
  O  O31  1  0.50000000  0.00000000  0.50000000  1
  O  O32  1  0.00000000  0.50000000  0.50000000  1
  O  O33  1  0.00000000  0.50000000  0.00000000  1
  O  O34  1  0.50000000  0.00000000  0.00000000  1
  O  O35  1  0.61100600  0.77747500  0.49861800  1
  O  O36  1  0.38899400  0.22252500  0.99861800  1
  O  O37  1  0.77747500  0.61100600  0.00138200  1
  O  O38  1  0.22252500  0.38899400  0.50138200  1
  O  O39  1  0.84533000  0.84533000  0.25000000  1
  O  O40  1  0.15467000  0.15467000  0.75000000  1
  O  O41  1  0.99380400  0.71865200  0.75000000  1
  O  O42  1  0.00619600  0.28134800  0.25000000  1
  O  O43  1  0.71865200  0.99380400  0.75000000  1
  O  O44  1  0.28134800  0.00619600  0.25000000  1
  O  O45  1  0.22252500  0.38899400  0.99861800  1
  O  O46  1  0.77747500  0.61100600  0.49861800  1
  O  O47  1  0.61100600  0.77747500  0.00138200  1
