# generated using pymatgen
data_Yb(ClO4)3
_symmetry_space_group_name_H-M   'P 1'
_cell_length_a   9.43058236
_cell_length_b   9.43058236
_cell_length_c   5.87820500
_cell_angle_alpha   90.00000000
_cell_angle_beta   90.00000000
_cell_angle_gamma   120.00000252
_symmetry_Int_Tables_number   1
_chemical_formula_structural   Yb(ClO4)3
_chemical_formula_sum   'Yb2 Cl6 O24'
_cell_volume   452.74365539
_cell_formula_units_Z   2
loop_
 _symmetry_equiv_pos_site_id
 _symmetry_equiv_pos_as_xyz
  1  'x, y, z'
loop_
 _atom_site_type_symbol
 _atom_site_label
 _atom_site_symmetry_multiplicity
 _atom_site_fract_x
 _atom_site_fract_y
 _atom_site_fract_z
 _atom_site_occupancy
  Yb  Yb0  1  0.66666700  0.33333300  0.75000000  1
  Yb  Yb1  1  0.33333300  0.66666700  0.25000000  1
  Cl  Cl2  1  0.29619200  0.90566600  0.75000000  1
  Cl  Cl3  1  0.70380800  0.09433400  0.25000000  1
  Cl  Cl4  1  0.60947400  0.70380800  0.75000000  1
  Cl  Cl5  1  0.39052600  0.29619200  0.25000000  1
  Cl  Cl6  1  0.09433400  0.39052600  0.75000000  1
  Cl  Cl7  1  0.90566600  0.60947400  0.25000000  1
  O  O8  1  0.78306600  0.80906700  0.75000000  1
  O  O9  1  0.96939400  0.43836400  0.75000000  1
  O  O10  1  0.46897000  0.03060600  0.75000000  1
  O  O11  1  0.19093300  0.97399900  0.75000000  1
  O  O12  1  0.97399900  0.78306600  0.25000000  1
  O  O13  1  0.46203600  0.26281600  0.45086300  1
  O  O14  1  0.19922000  0.46203600  0.95086300  1
  O  O15  1  0.53103000  0.96939400  0.25000000  1
  O  O16  1  0.53796400  0.73718400  0.95086300  1
  O  O17  1  0.03060600  0.56163600  0.25000000  1
  O  O18  1  0.02600100  0.21693400  0.75000000  1
  O  O19  1  0.26281600  0.80078000  0.54913700  1
  O  O20  1  0.80078000  0.53796400  0.45086300  1
  O  O21  1  0.46203600  0.26281600  0.04913700  1
  O  O22  1  0.53796400  0.73718400  0.54913700  1
  O  O23  1  0.26281600  0.80078000  0.95086300  1
  O  O24  1  0.80078000  0.53796400  0.04913700  1
  O  O25  1  0.56163600  0.53103000  0.75000000  1
  O  O26  1  0.43836400  0.46897000  0.25000000  1
  O  O27  1  0.19922000  0.46203600  0.54913700  1
  O  O28  1  0.73718400  0.19922000  0.04913700  1
  O  O29  1  0.21693400  0.19093300  0.25000000  1
  O  O30  1  0.73718400  0.19922000  0.45086300  1
  O  O31  1  0.80906700  0.02600100  0.25000000  1
