# generated using pymatgen
data_SiO2
_symmetry_space_group_name_H-M   'P 1'
_cell_length_a   10.22992757
_cell_length_b   10.22992794
_cell_length_c   14.14375300
_cell_angle_alpha   90.00000000
_cell_angle_beta   90.00000000
_cell_angle_gamma   136.58488277
_symmetry_Int_Tables_number   1
_chemical_formula_structural   SiO2
_chemical_formula_sum   'Si18 O36'
_cell_volume   1017.28581980
_cell_formula_units_Z   18
loop_
 _symmetry_equiv_pos_site_id
 _symmetry_equiv_pos_as_xyz
  1  'x, y, z'
loop_
 _atom_site_type_symbol
 _atom_site_label
 _atom_site_symmetry_multiplicity
 _atom_site_fract_x
 _atom_site_fract_y
 _atom_site_fract_z
 _atom_site_occupancy
  Si  Si0  1  0.53043800  0.88310200  0.94901900  1
  Si  Si1  1  0.07966300  0.92033800  0.54001800  1
  Si  Si2  1  0.46956200  0.11689800  0.44901900  1
  Si  Si3  1  0.88310200  0.53043800  0.44901900  1
  Si  Si4  1  0.13974700  0.86025300  0.75000000  1
  Si  Si5  1  0.11689800  0.46956200  0.55098100  1
  Si  Si6  1  0.46956200  0.11689800  0.05098100  1
  Si  Si7  1  0.86025300  0.13974700  0.25000000  1
  Si  Si8  1  0.03376600  0.55818000  0.25000000  1
  Si  Si9  1  0.11689800  0.46956200  0.94901900  1
  Si  Si10  1  0.96623400  0.44182000  0.75000000  1
  Si  Si11  1  0.88310200  0.53043800  0.05098100  1
  Si  Si12  1  0.55818000  0.03376600  0.75000000  1
  Si  Si13  1  0.92033700  0.07966300  0.04001800  1
  Si  Si14  1  0.92033700  0.07966300  0.45998200  1
  Si  Si15  1  0.07966300  0.92033800  0.95998200  1
  Si  Si16  1  0.53043800  0.88310200  0.55098100  1
  Si  Si17  1  0.44182000  0.96623400  0.25000000  1
  O  O18  1  0.65574700  0.34425300  0.04050600  1
  O  O19  1  0.34425300  0.65574700  0.54050600  1
  O  O20  1  0.00000000  0.50000000  0.50000000  1
  O  O21  1  0.57296100  0.94488200  0.83891500  1
  O  O22  1  0.63521300  0.01826300  0.25000000  1
  O  O23  1  0.06380000  0.29388100  0.50159500  1
  O  O24  1  0.08908000  0.91092100  0.65580900  1
  O  O25  1  0.57296100  0.94488200  0.66108500  1
  O  O26  1  0.08908000  0.91092100  0.84419100  1
  O  O27  1  0.70611900  0.93620000  0.99840500  1
  O  O28  1  0.00000000  0.00000000  0.00000000  1
  O  O29  1  0.98173700  0.36478700  0.25000000  1
  O  O30  1  0.29388100  0.06380000  0.00159500  1
  O  O31  1  0.93620000  0.70611900  0.00159500  1
  O  O32  1  0.05511800  0.42703900  0.66108500  1
  O  O33  1  0.91092100  0.08908000  0.15580900  1
  O  O34  1  0.70611900  0.93620000  0.50159500  1
  O  O35  1  0.26520800  0.73479200  0.25000000  1
  O  O36  1  0.91092100  0.08908000  0.34419100  1
  O  O37  1  0.73479200  0.26520800  0.75000000  1
  O  O38  1  0.94488200  0.57296100  0.33891500  1
  O  O39  1  0.65574700  0.34425300  0.45949400  1
  O  O40  1  0.50000000  0.00000000  0.00000000  1
  O  O41  1  0.05511800  0.42703900  0.83891500  1
  O  O42  1  0.93620000  0.70611900  0.49840500  1
  O  O43  1  0.94488200  0.57296100  0.16108500  1
  O  O44  1  0.29388100  0.06380000  0.49840500  1
  O  O45  1  0.34425300  0.65574700  0.95949400  1
  O  O46  1  0.00000000  0.00000000  0.50000000  1
  O  O47  1  0.36478700  0.98173700  0.75000000  1
  O  O48  1  0.42703900  0.05511800  0.33891500  1
  O  O49  1  0.42703900  0.05511800  0.16108500  1
  O  O50  1  0.01826300  0.63521300  0.75000000  1
  O  O51  1  0.00000000  0.50000000  0.00000000  1
  O  O52  1  0.06380000  0.29388100  0.99840500  1
  O  O53  1  0.50000000  0.00000000  0.50000000  1
