# generated using pymatgen
data_SiO2
_symmetry_space_group_name_H-M   'P 1'
_cell_length_a   14.15314952
_cell_length_b   14.15314952
_cell_length_c   14.15314952
_cell_angle_alpha   60.00000000
_cell_angle_beta   60.00000000
_cell_angle_gamma   60.00000000
_symmetry_Int_Tables_number   1
_chemical_formula_structural   SiO2
_chemical_formula_sum   'Si34 O68'
_cell_volume   2004.67644012
_cell_formula_units_Z   34
loop_
 _symmetry_equiv_pos_site_id
 _symmetry_equiv_pos_as_xyz
  1  'x, y, z'
loop_
 _atom_site_type_symbol
 _atom_site_label
 _atom_site_symmetry_multiplicity
 _atom_site_fract_x
 _atom_site_fract_y
 _atom_site_fract_z
 _atom_site_occupancy
  Si  Si0  1  0.36079400  0.75421700  0.75421700  1
  Si  Si1  1  0.49578300  0.88920600  0.11922800  1
  Si  Si2  1  0.75421700  0.75421700  0.36079400  1
  Si  Si3  1  0.75421700  0.36079400  0.13077200  1
  Si  Si4  1  0.11922800  0.88920600  0.49578300  1
  Si  Si5  1  0.90774000  0.27678000  0.90774000  1
  Si  Si6  1  0.49578300  0.11922800  0.49578300  1
  Si  Si7  1  0.13077200  0.36079400  0.75421700  1
  Si  Si8  1  0.36079400  0.75421700  0.13077200  1
  Si  Si9  1  0.49578300  0.49578300  0.11922800  1
  Si  Si10  1  0.11922800  0.49578300  0.49578300  1
  Si  Si11  1  0.49578300  0.88920600  0.49578300  1
  Si  Si12  1  0.34226000  0.97322000  0.34226000  1
  Si  Si13  1  0.75421700  0.75421700  0.13077200  1
  Si  Si14  1  0.75421700  0.36079400  0.75421700  1
  Si  Si15  1  0.88920600  0.49578300  0.49578300  1
  Si  Si16  1  0.90774000  0.90774000  0.27678000  1
  Si  Si17  1  0.97322000  0.34226000  0.34226000  1
  Si  Si18  1  0.75421700  0.13077200  0.75421700  1
  Si  Si19  1  0.11922800  0.49578300  0.88920600  1
  Si  Si20  1  0.34226000  0.34226000  0.97322000  1
  Si  Si21  1  0.25000000  0.25000000  0.25000000  1
  Si  Si22  1  0.75421700  0.13077200  0.36079400  1
  Si  Si23  1  0.27678000  0.90774000  0.90774000  1
  Si  Si24  1  0.88920600  0.49578300  0.11922800  1
  Si  Si25  1  0.13077200  0.75421700  0.75421700  1
  Si  Si26  1  0.34226000  0.34226000  0.34226000  1
  Si  Si27  1  0.13077200  0.75421700  0.36079400  1
  Si  Si28  1  0.00000000  0.00000000  0.00000000  1
  Si  Si29  1  0.49578300  0.49578300  0.88920600  1
  Si  Si30  1  0.90774000  0.90774000  0.90774000  1
  Si  Si31  1  0.36079400  0.13077200  0.75421700  1
  Si  Si32  1  0.88920600  0.11922800  0.49578300  1
  Si  Si33  1  0.49578300  0.11922800  0.88920600  1
  O  O34  1  0.00098600  0.49901400  0.00098600  1
  O  O35  1  0.41925100  0.23189700  0.41925100  1
  O  O36  1  0.95390500  0.95390500  0.95390500  1
  O  O37  1  0.83074900  0.01810300  0.83074900  1
  O  O38  1  0.24901400  0.75098600  0.24901400  1
  O  O39  1  0.41925100  0.92960000  0.41925100  1
  O  O40  1  0.32040000  0.83074900  0.83074900  1
  O  O41  1  0.62500000  0.81032400  0.12500000  1
  O  O42  1  0.92960000  0.23189700  0.41925100  1
  O  O43  1  0.29609500  0.29609500  0.11171500  1
  O  O44  1  0.12500000  0.43967600  0.62500000  1
  O  O45  1  0.92960000  0.41925100  0.23189700  1
  O  O46  1  0.41925100  0.92960000  0.23189700  1
  O  O47  1  0.23189700  0.41925100  0.92960000  1
  O  O48  1  0.49901400  0.00098600  0.00098600  1
  O  O49  1  0.41925100  0.41925100  0.23189700  1
  O  O50  1  0.75098600  0.24901400  0.75098600  1
  O  O51  1  0.12500000  0.43967600  0.81032400  1
  O  O52  1  0.23189700  0.41925100  0.41925100  1
  O  O53  1  0.83074900  0.83074900  0.01810300  1
  O  O54  1  0.32040000  0.83074900  0.01810300  1
  O  O55  1  0.29609500  0.29609500  0.29609500  1
  O  O56  1  0.00098600  0.00098600  0.49901400  1
  O  O57  1  0.95390500  0.95390500  0.13828500  1
  O  O58  1  0.41925100  0.23189700  0.92960000  1
  O  O59  1  0.62500000  0.43967600  0.12500000  1
  O  O60  1  0.83074900  0.01810300  0.32040000  1
  O  O61  1  0.81032400  0.43967600  0.12500000  1
  O  O62  1  0.00098600  0.49901400  0.49901400  1
  O  O63  1  0.13828500  0.95390500  0.95390500  1
  O  O64  1  0.92960000  0.41925100  0.41925100  1
  O  O65  1  0.43967600  0.62500000  0.12500000  1
  O  O66  1  0.23189700  0.92960000  0.41925100  1
  O  O67  1  0.83074900  0.32040000  0.01810300  1
  O  O68  1  0.43967600  0.12500000  0.81032400  1
  O  O69  1  0.81032400  0.43967600  0.62500000  1
  O  O70  1  0.75098600  0.24901400  0.24901400  1
  O  O71  1  0.81032400  0.62500000  0.43967600  1
  O  O72  1  0.24901400  0.24901400  0.75098600  1
  O  O73  1  0.01810300  0.83074900  0.83074900  1
  O  O74  1  0.62500000  0.43967600  0.81032400  1
  O  O75  1  0.12500000  0.81032400  0.62500000  1
  O  O76  1  0.01810300  0.83074900  0.32040000  1
  O  O77  1  0.81032400  0.12500000  0.43967600  1
  O  O78  1  0.12500000  0.62500000  0.43967600  1
  O  O79  1  0.32040000  0.01810300  0.83074900  1
  O  O80  1  0.75098600  0.75098600  0.24901400  1
  O  O81  1  0.43967600  0.81032400  0.62500000  1
  O  O82  1  0.24901400  0.75098600  0.75098600  1
  O  O83  1  0.81032400  0.62500000  0.12500000  1
  O  O84  1  0.01810300  0.32040000  0.83074900  1
  O  O85  1  0.62500000  0.81032400  0.43967600  1
  O  O86  1  0.12500000  0.62500000  0.81032400  1
  O  O87  1  0.49901400  0.49901400  0.00098600  1
  O  O88  1  0.43967600  0.12500000  0.62500000  1
  O  O89  1  0.11171500  0.29609500  0.29609500  1
  O  O90  1  0.43967600  0.81032400  0.12500000  1
  O  O91  1  0.43967600  0.62500000  0.81032400  1
  O  O92  1  0.41925100  0.41925100  0.92960000  1
  O  O93  1  0.62500000  0.12500000  0.81032400  1
  O  O94  1  0.95390500  0.13828500  0.95390500  1
  O  O95  1  0.49901400  0.00098600  0.49901400  1
  O  O96  1  0.29609500  0.11171500  0.29609500  1
  O  O97  1  0.83074900  0.32040000  0.83074900  1
  O  O98  1  0.62500000  0.12500000  0.43967600  1
  O  O99  1  0.83074900  0.83074900  0.32040000  1
  O  O100  1  0.12500000  0.81032400  0.43967600  1
  O  O101  1  0.81032400  0.12500000  0.62500000  1
