# generated using pymatgen
data_Sr(AsO4)2
_symmetry_space_group_name_H-M   'P 1'
_cell_length_a   6.51321600
_cell_length_b   7.62865374
_cell_length_c   8.05706256
_cell_angle_alpha   111.96562096
_cell_angle_beta   110.74092004
_cell_angle_gamma   98.80452228
_symmetry_Int_Tables_number   1
_chemical_formula_structural   Sr(AsO4)2
_chemical_formula_sum   'Sr2 As4 O16'
_cell_volume   327.85414402
_cell_formula_units_Z   2
loop_
 _symmetry_equiv_pos_site_id
 _symmetry_equiv_pos_as_xyz
  1  'x, y, z'
loop_
 _atom_site_type_symbol
 _atom_site_label
 _atom_site_symmetry_multiplicity
 _atom_site_fract_x
 _atom_site_fract_y
 _atom_site_fract_z
 _atom_site_occupancy
  Sr  Sr0  1  0.72788700  0.11189200  0.90712600  1
  Sr  Sr1  1  0.27211300  0.88810800  0.09287400  1
  As  As2  1  0.08305500  0.82671500  0.57236800  1
  As  As3  1  0.91694500  0.17328500  0.42763200  1
  As  As4  1  0.64681300  0.55024800  0.80498500  1
  As  As5  1  0.35318700  0.44975200  0.19501500  1
  O  O6  1  0.30321300  0.88003400  0.79262900  1
  O  O7  1  0.69678700  0.11996600  0.20737100  1
  O  O8  1  0.25019600  0.01245500  0.53193500  1
  O  O9  1  0.74980400  0.98754500  0.46806500  1
  O  O10  1  0.91882900  0.61113900  0.37364300  1
  O  O11  1  0.08117100  0.38886100  0.62635700  1
  O  O12  1  0.90360500  0.98131600  0.64973600  1
  O  O13  1  0.09639500  0.01868400  0.35026400  1
  O  O14  1  0.51944300  0.59059300  0.98486700  1
  O  O15  1  0.48055700  0.40940700  0.01513300  1
  O  O16  1  0.82321000  0.78335800  0.89317700  1
  O  O17  1  0.17679000  0.21664200  0.10682300  1
  O  O18  1  0.75290000  0.36478100  0.79784100  1
  O  O19  1  0.24710000  0.63521900  0.20215900  1
  O  O20  1  0.42354500  0.48155700  0.55071800  1
  O  O21  1  0.57645500  0.51844300  0.44928200  1
