# generated using pymatgen
data_H14RhC6NClO4
_symmetry_space_group_name_H-M   'P 1'
_cell_length_a   9.33451300
_cell_length_b   11.23562143
_cell_length_c   12.05141244
_cell_angle_alpha   88.08077640
_cell_angle_beta   86.20785279
_cell_angle_gamma   66.90300101
_symmetry_Int_Tables_number   1
_chemical_formula_structural   H14RhC6NClO4
_chemical_formula_sum   'H56 Rh4 C24 N4 Cl4 O16'
_cell_volume   1160.04111089
_cell_formula_units_Z   4
loop_
 _symmetry_equiv_pos_site_id
 _symmetry_equiv_pos_as_xyz
  1  'x, y, z'
loop_
 _atom_site_type_symbol
 _atom_site_label
 _atom_site_symmetry_multiplicity
 _atom_site_fract_x
 _atom_site_fract_y
 _atom_site_fract_z
 _atom_site_occupancy
  H  H0  1  0.93990800  0.19220400  0.31513000  1
  H  H1  1  0.97098100  0.72391200  0.60673200  1
  H  H2  1  0.09732200  0.46955100  0.13672800  1
  H  H3  1  0.61715100  0.18519100  0.77620900  1
  H  H4  1  0.50415500  0.95294000  0.68330500  1
  H  H5  1  0.65970800  0.98205700  0.21736400  1
  H  H6  1  0.64176800  0.88650000  0.33536700  1
  H  H7  1  0.45595300  0.67509300  0.14034200  1
  H  H8  1  0.49584500  0.04706000  0.31669500  1
  H  H9  1  0.90531500  0.51299800  0.30459300  1
  H  H10  1  0.88684900  0.34316800  0.70135100  1
  H  H11  1  0.55301400  0.30770700  0.17907900  1
  H  H12  1  0.11315100  0.65683200  0.29864900  1
  H  H13  1  0.34029200  0.01794300  0.78263600  1
  H  H14  1  0.95803700  0.35846800  0.88554500  1
  H  H15  1  0.44698600  0.69229300  0.82092100  1
  H  H16  1  0.84921700  0.68304000  0.27725300  1
  H  H17  1  0.56952900  0.38927400  0.05073100  1
  H  H18  1  0.28335500  0.26248700  0.00069600  1
  H  H19  1  0.83139100  0.98475100  0.34781300  1
  H  H20  1  0.42631600  0.10810500  0.03138800  1
  H  H21  1  0.43047100  0.61072600  0.94926900  1
  H  H22  1  0.71664500  0.73751300  0.99930400  1
  H  H23  1  0.29853300  0.06649500  0.48222900  1
  H  H24  1  0.23605700  0.93618100  0.46663900  1
  H  H25  1  0.31628500  0.61441100  0.83512700  1
  H  H26  1  0.91667600  0.61579000  0.41025600  1
  H  H27  1  0.56340600  0.09985300  0.51416600  1
  H  H28  1  0.41173300  0.26439100  0.80363600  1
  H  H29  1  0.38284900  0.81480900  0.22379100  1
  H  H30  1  0.09468500  0.48700200  0.69540700  1
  H  H31  1  0.30158300  0.20167700  0.14171300  1
  H  H32  1  0.68371500  0.38558900  0.16487300  1
  H  H33  1  0.02901900  0.27608800  0.39326800  1
  H  H34  1  0.70146700  0.93350500  0.51777100  1
  H  H35  1  0.08332400  0.38421000  0.58974400  1
  H  H36  1  0.15078300  0.31696000  0.72274700  1
  H  H37  1  0.90267800  0.53044900  0.86327200  1
  H  H38  1  0.31213100  0.86639800  0.65247800  1
  H  H39  1  0.35823200  0.11350000  0.66463300  1
  H  H40  1  0.16860900  0.01524900  0.65218700  1
  H  H41  1  0.17039700  0.49310400  0.31909000  1
  H  H42  1  0.58826700  0.73560900  0.19636400  1
  H  H43  1  0.69841700  0.79832300  0.85828700  1
  H  H44  1  0.43659400  0.90014700  0.48583400  1
  H  H45  1  0.82960300  0.50689600  0.68091000  1
  H  H46  1  0.06009200  0.80779600  0.68487000  1
  H  H47  1  0.76394300  0.06381900  0.53336100  1
  H  H48  1  0.02567900  0.84494600  0.54197400  1
  H  H49  1  0.75889200  0.46136300  0.86486000  1
  H  H50  1  0.68786900  0.13360200  0.34752200  1
  H  H51  1  0.04196300  0.64153200  0.11445500  1
  H  H52  1  0.24110800  0.53863700  0.13514000  1
  H  H53  1  0.97432100  0.15505400  0.45802600  1
  H  H54  1  0.57368400  0.89189500  0.96861200  1
  H  H55  1  0.54404700  0.32490700  0.85965800  1
  Rh  Rh56  1  0.01709500  0.95501900  0.09400700  1
  Rh  Rh57  1  0.55999900  0.56237600  0.54568800  1
  Rh  Rh58  1  0.98290500  0.04498100  0.90599300  1
  Rh  Rh59  1  0.44000100  0.43762400  0.45431200  1
  C  C60  1  0.80640700  0.88582400  0.96544700  1
  C  C61  1  0.30668800  0.17657300  0.05386300  1
  C  C62  1  0.76297500  0.20833100  0.07554100  1
  C  C63  1  0.52020900  0.28002200  0.78780200  1
  C  C64  1  0.47979100  0.71997800  0.21219800  1
  C  C65  1  0.88067300  0.44506800  0.84259300  1
  C  C66  1  0.31693200  0.96713400  0.50763100  1
  C  C67  1  0.51154700  0.36084300  0.68415300  1
  C  C68  1  0.19359300  0.11417600  0.03455300  1
  C  C69  1  0.48845300  0.63915700  0.31584700  1
  C  C70  1  0.23702500  0.79166900  0.92445900  1
  C  C71  1  0.61993600  0.98486500  0.30512000  1
  C  C72  1  0.07050300  0.40159600  0.67937600  1
  C  C73  1  0.11932700  0.55493200  0.15740700  1
  C  C74  1  0.38006400  0.01513500  0.69488000  1
  C  C75  1  0.63335100  0.32966800  0.11922100  1
  C  C76  1  0.21827300  0.66885500  0.56797500  1
  C  C77  1  0.92949700  0.59840400  0.32062400  1
  C  C78  1  0.94085500  0.23393700  0.39592800  1
  C  C79  1  0.69331200  0.82342700  0.94613700  1
  C  C80  1  0.36664900  0.67033200  0.88077900  1
  C  C81  1  0.68306800  0.03286600  0.49236900  1
  C  C82  1  0.78172700  0.33114500  0.43202500  1
  C  C83  1  0.05914500  0.76606300  0.60407200  1
  N  N84  1  0.90853900  0.42446300  0.72072000  1
  N  N85  1  0.71179700  0.03791400  0.36964500  1
  N  N86  1  0.28820300  0.96208600  0.63035500  1
  N  N87  1  0.09146100  0.57553700  0.27928000  1
  Cl  Cl88  1  0.94382800  0.13437700  0.69928400  1
  Cl  Cl89  1  0.05617200  0.86562300  0.30071600  1
  Cl  Cl90  1  0.68713100  0.69860300  0.64216500  1
  Cl  Cl91  1  0.31286900  0.30139700  0.35783500  1
  O  O92  1  0.77449500  0.42721500  0.48963900  1
  O  O93  1  0.13481600  0.13256100  0.93878700  1
  O  O94  1  0.33680900  0.69001700  0.59632000  1
  O  O95  1  0.86518400  0.86743900  0.06121300  1
  O  O96  1  0.45082000  0.33413600  0.60100400  1
  O  O97  1  0.17129900  0.88053900  0.85288200  1
  O  O98  1  0.43398500  0.55076100  0.31352300  1
  O  O99  1  0.56601500  0.44923900  0.68647700  1
  O  O100  1  0.66319100  0.30998300  0.40368000  1
  O  O101  1  0.83319900  0.95327700  0.88549400  1
  O  O102  1  0.54918000  0.66586400  0.39899600  1
  O  O103  1  0.79961600  0.20401700  0.97109900  1
  O  O104  1  0.20038400  0.79598300  0.02890100  1
  O  O105  1  0.22550500  0.57278500  0.51036100  1
  O  O106  1  0.16680100  0.04672300  0.11450600  1
  O  O107  1  0.82870100  0.11946100  0.14711800  1
