# generated using pymatgen
data_SnAsO4
_symmetry_space_group_name_H-M   'P 1'
_cell_length_a   15.60636500
_cell_length_b   4.60816100
_cell_length_c   5.22464564
_cell_angle_alpha   87.34468783
_cell_angle_beta   90.00000000
_cell_angle_gamma   90.00000000
_symmetry_Int_Tables_number   1
_chemical_formula_structural   SnAsO4
_chemical_formula_sum   'Sn4 As4 O16'
_cell_volume   375.33554644
_cell_formula_units_Z   4
loop_
 _symmetry_equiv_pos_site_id
 _symmetry_equiv_pos_as_xyz
  1  'x, y, z'
loop_
 _atom_site_type_symbol
 _atom_site_label
 _atom_site_symmetry_multiplicity
 _atom_site_fract_x
 _atom_site_fract_y
 _atom_site_fract_z
 _atom_site_occupancy
  Sn  Sn0  1  0.33162200  0.07401100  0.57887500  1
  Sn  Sn1  1  0.83162200  0.92598900  0.92112500  1
  Sn  Sn2  1  0.66837800  0.92598900  0.42112500  1
  Sn  Sn3  1  0.16837800  0.07401100  0.07887500  1
  As  As4  1  0.35140800  0.57476100  0.07979100  1
  As  As5  1  0.85140800  0.42523900  0.42020900  1
  As  As6  1  0.64859200  0.42523900  0.92020900  1
  As  As7  1  0.14859200  0.57476100  0.57979100  1
  O  O8  1  0.28851000  0.31503600  0.92203400  1
  O  O9  1  0.78851000  0.68496400  0.57796600  1
  O  O10  1  0.71149000  0.68496400  0.07796600  1
  O  O11  1  0.21149000  0.31503600  0.42203400  1
  O  O12  1  0.40563700  0.38689200  0.32265200  1
  O  O13  1  0.90563700  0.61310800  0.17734800  1
  O  O14  1  0.59436300  0.61310800  0.67734800  1
  O  O15  1  0.09436300  0.38689200  0.82265200  1
  O  O16  1  0.40500200  0.76802900  0.84103700  1
  O  O17  1  0.90500200  0.23197100  0.65896300  1
  O  O18  1  0.59499800  0.23197100  0.15896300  1
  O  O19  1  0.09499800  0.76802900  0.34103700  1
  O  O20  1  0.28639100  0.82597800  0.24108300  1
  O  O21  1  0.78639100  0.17402200  0.25891700  1
  O  O22  1  0.71360900  0.17402200  0.75891700  1
  O  O23  1  0.21360900  0.82597800  0.74108300  1
