# generated using pymatgen
data_K2Hg3C8(NO)8
_symmetry_space_group_name_H-M   'P 1'
_cell_length_a   4.11086200
_cell_length_b   10.69174246
_cell_length_c   11.20560298
_cell_angle_alpha   92.18648335
_cell_angle_beta   94.86462614
_cell_angle_gamma   94.09046761
_symmetry_Int_Tables_number   1
_chemical_formula_structural   K2Hg3C8(NO)8
_chemical_formula_sum   'K2 Hg3 C8 N8 O8'
_cell_volume   489.00326458
_cell_formula_units_Z   1
loop_
 _symmetry_equiv_pos_site_id
 _symmetry_equiv_pos_as_xyz
  1  'x, y, z'
loop_
 _atom_site_type_symbol
 _atom_site_label
 _atom_site_symmetry_multiplicity
 _atom_site_fract_x
 _atom_site_fract_y
 _atom_site_fract_z
 _atom_site_occupancy
  K  K0  1  0.78535500  0.51057500  0.21029200  1
  K  K1  1  0.21464500  0.48942500  0.78970800  1
  Hg  Hg2  1  0.72912100  0.11614900  0.39029700  1
  Hg  Hg3  1  0.00000000  0.00000000  0.00000000  1
  Hg  Hg4  1  0.27087900  0.88385100  0.60970300  1
  C  C5  1  0.21928800  0.15127400  0.67832700  1
  C  C6  1  0.21532500  0.23176400  0.20286400  1
  C  C7  1  0.30062200  0.64026000  0.47914400  1
  C  C8  1  0.78071200  0.84872600  0.32167300  1
  C  C9  1  0.78467500  0.76823600  0.79713600  1
  C  C10  1  0.71394000  0.24801100  0.95058000  1
  C  C11  1  0.28606000  0.75198900  0.04942000  1
  C  C12  1  0.69937800  0.35974000  0.52085600  1
  N  N13  1  0.29769800  0.07933600  0.60147900  1
  N  N14  1  0.70230200  0.92066400  0.39852100  1
  N  N15  1  0.76657300  0.31088400  0.42780200  1
  N  N16  1  0.31682600  0.86225600  0.02979000  1
  N  N17  1  0.23342700  0.68911600  0.57219800  1
  N  N18  1  0.80991300  0.87334500  0.76130400  1
  N  N19  1  0.19008700  0.12665500  0.23869600  1
  N  N20  1  0.68317400  0.13774400  0.97021000  1
  O  O21  1  0.28456700  0.64216300  0.06852100  1
  O  O22  1  0.23971000  0.33696400  0.16562600  1
  O  O23  1  0.35849500  0.58345900  0.38963100  1
  O  O24  1  0.14538500  0.22910700  0.74863400  1
  O  O25  1  0.85461500  0.77089300  0.25136600  1
  O  O26  1  0.71543300  0.35783700  0.93147900  1
  O  O27  1  0.64150500  0.41654100  0.61036900  1
  O  O28  1  0.76029000  0.66303600  0.83437400  1
