# generated using pymatgen
data_Ag3BO3
_symmetry_space_group_name_H-M   'P 1'
_cell_length_a   7.41705370
_cell_length_b   7.41705370
_cell_length_c   7.41705418
_cell_angle_alpha   84.55323787
_cell_angle_beta   84.55323787
_cell_angle_gamma   84.55324049
_symmetry_Int_Tables_number   1
_chemical_formula_structural   Ag3BO3
_chemical_formula_sum   'Ag12 B4 O12'
_cell_volume   402.83338608
_cell_formula_units_Z   4
loop_
 _symmetry_equiv_pos_site_id
 _symmetry_equiv_pos_as_xyz
  1  'x, y, z'
loop_
 _atom_site_type_symbol
 _atom_site_label
 _atom_site_symmetry_multiplicity
 _atom_site_fract_x
 _atom_site_fract_y
 _atom_site_fract_z
 _atom_site_occupancy
  Ag  Ag0  1  0.87437000  0.37201600  0.38055400  1
  Ag  Ag1  1  0.37437000  0.88055400  0.87201600  1
  Ag  Ag2  1  0.88055400  0.87201600  0.37437000  1
  Ag  Ag3  1  0.62798400  0.61944600  0.12563000  1
  Ag  Ag4  1  0.12798400  0.62563000  0.11944600  1
  Ag  Ag5  1  0.38055400  0.87437000  0.37201600  1
  Ag  Ag6  1  0.61944600  0.12563000  0.62798400  1
  Ag  Ag7  1  0.12563000  0.62798400  0.61944600  1
  Ag  Ag8  1  0.62563000  0.11944600  0.12798400  1
  Ag  Ag9  1  0.87201600  0.37437000  0.88055400  1
  Ag  Ag10  1  0.11944600  0.12798400  0.62563000  1
  Ag  Ag11  1  0.37201600  0.38055400  0.87437000  1
  B  B12  1  0.62429200  0.62429200  0.62429200  1
  B  B13  1  0.37570800  0.37570800  0.37570800  1
  B  B14  1  0.12429200  0.12429200  0.12429200  1
  B  B15  1  0.87570800  0.87570800  0.87570800  1
  O  O16  1  0.13015300  0.98180900  0.25984700  1
  O  O17  1  0.98180900  0.25984700  0.13015300  1
  O  O18  1  0.63015300  0.75984700  0.48180900  1
  O  O19  1  0.36984700  0.24015300  0.51819100  1
  O  O20  1  0.01819100  0.74015300  0.86984700  1
  O  O21  1  0.24015300  0.51819100  0.36984700  1
  O  O22  1  0.75984700  0.48180900  0.63015300  1
  O  O23  1  0.74015300  0.86984700  0.01819100  1
  O  O24  1  0.51819100  0.36984700  0.24015300  1
  O  O25  1  0.86984700  0.01819100  0.74015300  1
  O  O26  1  0.48180900  0.63015300  0.75984700  1
  O  O27  1  0.25984700  0.13015300  0.98180900  1
