# generated using pymatgen
data_Na2LuMoPO8
_symmetry_space_group_name_H-M   'P 1'
_cell_length_a   11.42466396
_cell_length_b   11.42466396
_cell_length_c   11.42466396
_cell_angle_alpha   145.24923695
_cell_angle_beta   116.30724928
_cell_angle_gamma   74.64350721
_symmetry_Int_Tables_number   1
_chemical_formula_structural   Na2LuMoPO8
_chemical_formula_sum   'Na8 Lu4 Mo4 P4 O32'
_cell_volume   747.42132501
_cell_formula_units_Z   4
loop_
 _symmetry_equiv_pos_site_id
 _symmetry_equiv_pos_as_xyz
  1  'x, y, z'
loop_
 _atom_site_type_symbol
 _atom_site_label
 _atom_site_symmetry_multiplicity
 _atom_site_fract_x
 _atom_site_fract_y
 _atom_site_fract_z
 _atom_site_occupancy
  Na  Na0  1  0.90384100  0.85704300  0.06832100  1
  Na  Na1  1  0.40384100  0.33552000  0.04679800  1
  Na  Na2  1  0.71127800  0.16448000  0.56832100  1
  Na  Na3  1  0.78872200  0.35704300  0.45320200  1
  Na  Na4  1  0.28872200  0.83552000  0.43167900  1
  Na  Na5  1  0.59615900  0.66448000  0.95320200  1
  Na  Na6  1  0.21127800  0.64295700  0.54679800  1
  Na  Na7  1  0.09615900  0.14295700  0.93167900  1
  Lu  Lu8  1  0.17845500  0.75000000  0.92845500  1
  Lu  Lu9  1  0.82154500  0.25000000  0.07154500  1
  Lu  Lu10  1  0.67845500  0.75000000  0.42845500  1
  Lu  Lu11  1  0.32154500  0.25000000  0.57154500  1
  Mo  Mo12  1  0.92569400  0.67569400  0.25000000  1
  Mo  Mo13  1  0.57430600  0.82430600  0.75000000  1
  Mo  Mo14  1  0.07430600  0.32430600  0.75000000  1
  Mo  Mo15  1  0.42569400  0.17569400  0.25000000  1
  P  P16  1  0.06839800  0.25000000  0.31839800  1
  P  P17  1  0.43160200  0.75000000  0.18160200  1
  P  P18  1  0.56839800  0.25000000  0.81839800  1
  P  P19  1  0.93160200  0.75000000  0.68160200  1
  O  O20  1  0.42331200  0.17132900  0.73036500  1
  O  O21  1  0.39905100  0.81218900  0.67114300  1
  O  O22  1  0.92331200  0.19294700  0.25198300  1
  O  O23  1  0.65643800  0.07995000  0.72222400  1
  O  O24  1  0.05903600  0.30705300  0.23036500  1
  O  O25  1  0.15643800  0.43421400  0.57648800  1
  O  O26  1  0.84356200  0.56578600  0.42351200  1
  O  O27  1  0.85895300  0.68781100  0.08686100  1
  O  O28  1  0.15558500  0.16703000  0.56013200  1
  O  O29  1  0.65558500  0.09545300  0.98855600  1
  O  O30  1  0.60094900  0.18781100  0.32885700  1
  O  O31  1  0.34356200  0.92005000  0.27777600  1
  O  O32  1  0.07668800  0.80705300  0.74801700  1
  O  O33  1  0.10689800  0.59545300  0.93986800  1
  O  O34  1  0.84441500  0.83297000  0.43986800  1
  O  O35  1  0.85772700  0.93421400  0.77777600  1
  O  O36  1  0.60689800  0.66703000  0.51144400  1
  O  O37  1  0.55903700  0.32867100  0.75198300  1
  O  O38  1  0.14104700  0.31218900  0.91313900  1
  O  O39  1  0.89905100  0.22790800  0.58686100  1
  O  O40  1  0.14227300  0.06578600  0.22222400  1
  O  O41  1  0.94096300  0.69294700  0.76963500  1
  O  O42  1  0.64104700  0.72790800  0.82885700  1
  O  O43  1  0.64227300  0.42005000  0.07648800  1
  O  O44  1  0.89310200  0.40454700  0.06013200  1
  O  O45  1  0.44096300  0.67132900  0.24801700  1
  O  O46  1  0.57668800  0.82867100  0.26963500  1
  O  O47  1  0.10094900  0.77209200  0.41313900  1
  O  O48  1  0.35772700  0.57995000  0.92351200  1
  O  O49  1  0.34441500  0.90454700  0.01144400  1
  O  O50  1  0.39310200  0.33297000  0.48855600  1
  O  O51  1  0.35895300  0.27209200  0.17114300  1
