# generated using pymatgen
data_Na6U(Mo2O9)2
_symmetry_space_group_name_H-M   'P 1'
_cell_length_a   7.18867700
_cell_length_b   9.75490678
_cell_length_c   13.59822349
_cell_angle_alpha   74.21140706
_cell_angle_beta   86.72866295
_cell_angle_gamma   82.99681088
_symmetry_Int_Tables_number   1
_chemical_formula_structural   Na6U(Mo2O9)2
_chemical_formula_sum   'Na12 U2 Mo8 O36'
_cell_volume   910.46663320
_cell_formula_units_Z   2
loop_
 _symmetry_equiv_pos_site_id
 _symmetry_equiv_pos_as_xyz
  1  'x, y, z'
loop_
 _atom_site_type_symbol
 _atom_site_label
 _atom_site_symmetry_multiplicity
 _atom_site_fract_x
 _atom_site_fract_y
 _atom_site_fract_z
 _atom_site_occupancy
  Na  Na0  1  0.18459600  0.03669000  0.07275900  1
  Na  Na1  1  0.81540400  0.96331000  0.92724100  1
  Na  Na2  1  0.78967500  0.32228100  0.16206600  1
  Na  Na3  1  0.72490800  0.79641300  0.71860800  1
  Na  Na4  1  0.43022700  0.33837400  0.96579000  1
  Na  Na5  1  0.56977300  0.66162600  0.03421000  1
  Na  Na6  1  0.27509200  0.20358700  0.28139200  1
  Na  Na7  1  0.97675200  0.41413700  0.38898900  1
  Na  Na8  1  0.39054100  0.24981600  0.56310000  1
  Na  Na9  1  0.21032500  0.67771900  0.83793400  1
  Na  Na10  1  0.60945900  0.75018400  0.43690000  1
  Na  Na11  1  0.02324800  0.58586300  0.61101100  1
  U  U12  1  0.07364300  0.81759300  0.32609800  1
  U  U13  1  0.92635700  0.18240700  0.67390200  1
  Mo  Mo14  1  0.34337300  0.01171900  0.85044800  1
  Mo  Mo15  1  0.65662700  0.98828100  0.14955200  1
  Mo  Mo16  1  0.23862600  0.90770200  0.56753600  1
  Mo  Mo17  1  0.92717200  0.37121700  0.90480600  1
  Mo  Mo18  1  0.47068900  0.50982300  0.32600500  1
  Mo  Mo19  1  0.07282800  0.62878300  0.09519400  1
  Mo  Mo20  1  0.76137400  0.09229800  0.43246400  1
  Mo  Mo21  1  0.52931100  0.49017700  0.67399500  1
  O  O22  1  0.11745900  0.08957700  0.54593800  1
  O  O23  1  0.50625700  0.86038100  0.84166800  1
  O  O24  1  0.84343000  0.05966700  0.06716000  1
  O  O25  1  0.36466000  0.69408200  0.31559100  1
  O  O26  1  0.30923000  0.37971500  0.37951800  1
  O  O27  1  0.53423000  0.09428200  0.38994100  1
  O  O28  1  0.08908700  0.75506500  0.17330000  1
  O  O29  1  0.11536200  0.78620700  0.66411100  1
  O  O30  1  0.63534000  0.30591800  0.68440900  1
  O  O31  1  0.99891000  0.64700900  0.40582100  1
  O  O32  1  0.11871600  0.30415500  0.98859400  1
  O  O33  1  0.88254100  0.91042300  0.45406200  1
  O  O34  1  0.88128400  0.69584500  0.01140600  1
  O  O35  1  0.88463800  0.21379300  0.33588900  1
  O  O36  1  0.13870600  0.99462700  0.25143400  1
  O  O37  1  0.46577000  0.90571800  0.61005900  1
  O  O38  1  0.72375800  0.39661300  0.98333400  1
  O  O39  1  0.44438700  0.51004500  0.79579500  1
  O  O40  1  0.15657000  0.94033300  0.93284000  1
  O  O41  1  0.86129400  0.00537300  0.74856600  1
  O  O42  1  0.66023000  0.48269200  0.40959200  1
  O  O43  1  0.00109000  0.35299100  0.59417900  1
  O  O44  1  0.23932800  0.11707900  0.72705800  1
  O  O45  1  0.54604700  0.87785200  0.09164200  1
  O  O46  1  0.96736300  0.54014900  0.81946700  1
  O  O47  1  0.73140500  0.15402400  0.54822400  1
  O  O48  1  0.33977000  0.51730800  0.59040800  1
  O  O49  1  0.26859500  0.84597600  0.45177600  1
  O  O50  1  0.55561300  0.48995500  0.20420500  1
  O  O51  1  0.03263700  0.45985100  0.18053300  1
  O  O52  1  0.91091300  0.24493500  0.82670000  1
  O  O53  1  0.49374300  0.13961900  0.15833200  1
  O  O54  1  0.76067200  0.88292100  0.27294200  1
  O  O55  1  0.45395300  0.12214800  0.90835800  1
  O  O56  1  0.27624200  0.60338700  0.01666600  1
  O  O57  1  0.69077000  0.62028500  0.62048200  1
