# generated using pymatgen
data_Ba5Ru2ClO9
_symmetry_space_group_name_H-M   'P 1'
_cell_length_a   6.18978504
_cell_length_b   6.18978504
_cell_length_c   18.32687000
_cell_angle_alpha   90.00000000
_cell_angle_beta   90.00000000
_cell_angle_gamma   120.75770975
_symmetry_Int_Tables_number   1
_chemical_formula_structural   Ba5Ru2ClO9
_chemical_formula_sum   'Ba10 Ru4 Cl2 O18'
_cell_volume   603.39714282
_cell_formula_units_Z   2
loop_
 _symmetry_equiv_pos_site_id
 _symmetry_equiv_pos_as_xyz
  1  'x, y, z'
loop_
 _atom_site_type_symbol
 _atom_site_label
 _atom_site_symmetry_multiplicity
 _atom_site_fract_x
 _atom_site_fract_y
 _atom_site_fract_z
 _atom_site_occupancy
  Ba  Ba0  1  0.15813100  0.84186900  0.01839900  1
  Ba  Ba1  1  0.84186900  0.15813100  0.51839900  1
  Ba  Ba2  1  0.83208300  0.16791700  0.74640200  1
  Ba  Ba3  1  0.16791700  0.83208300  0.24640200  1
  Ba  Ba4  1  0.49029500  0.50970500  0.34358500  1
  Ba  Ba5  1  0.50970500  0.49029500  0.84358500  1
  Ba  Ba6  1  0.49269200  0.50730800  0.64878400  1
  Ba  Ba7  1  0.82932500  0.17067500  0.97365700  1
  Ba  Ba8  1  0.50730800  0.49269200  0.14878400  1
  Ba  Ba9  1  0.17067500  0.82932500  0.47365700  1
  Ru  Ru10  1  0.17380100  0.82619900  0.67098100  1
  Ru  Ru11  1  0.16116900  0.83883100  0.82115000  1
  Ru  Ru12  1  0.82619900  0.17380100  0.17098100  1
  Ru  Ru13  1  0.83883100  0.16116900  0.32115000  1
  Cl  Cl14  1  0.45736400  0.54263600  0.99603500  1
  Cl  Cl15  1  0.54263600  0.45736400  0.49603500  1
  O  O16  1  0.46201100  0.00982900  0.88124500  1
  O  O17  1  0.00319400  0.99680600  0.87598400  1
  O  O18  1  0.68303700  0.31696300  0.25057600  1
  O  O19  1  0.31941100  0.13295400  0.74389300  1
  O  O20  1  0.00982900  0.46201100  0.38124500  1
  O  O21  1  0.99017100  0.53798900  0.88124500  1
  O  O22  1  0.03462500  0.51378700  0.61457100  1
  O  O23  1  0.02736200  0.97263800  0.60923000  1
  O  O24  1  0.51378700  0.03462500  0.11457100  1
  O  O25  1  0.86704600  0.68058900  0.74389300  1
  O  O26  1  0.68058900  0.86704600  0.24389300  1
  O  O27  1  0.13295400  0.31941100  0.24389300  1
  O  O28  1  0.99680600  0.00319400  0.37598400  1
  O  O29  1  0.31696300  0.68303700  0.75057600  1
  O  O30  1  0.48621300  0.96537500  0.61457100  1
  O  O31  1  0.96537500  0.48621300  0.11457100  1
  O  O32  1  0.53798900  0.99017100  0.38124500  1
  O  O33  1  0.97263800  0.02736200  0.10923000  1
