# generated using pymatgen
data_BaNaZr2F11
_symmetry_space_group_name_H-M   'P 1'
_cell_length_a   13.38273121
_cell_length_b   13.38273121
_cell_length_c   13.38273121
_cell_angle_alpha   143.50977380
_cell_angle_beta   143.50977380
_cell_angle_gamma   52.56098602
_symmetry_Int_Tables_number   1
_chemical_formula_structural   BaNaZr2F11
_chemical_formula_sum   'Ba4 Na4 Zr8 F44'
_cell_volume   842.61551265
_cell_formula_units_Z   4
loop_
 _symmetry_equiv_pos_site_id
 _symmetry_equiv_pos_as_xyz
  1  'x, y, z'
loop_
 _atom_site_type_symbol
 _atom_site_label
 _atom_site_symmetry_multiplicity
 _atom_site_fract_x
 _atom_site_fract_y
 _atom_site_fract_z
 _atom_site_occupancy
  Ba  Ba0  1  0.16185300  0.66185300  0.50000000  1
  Ba  Ba1  1  0.58814700  0.58814700  0.00000000  1
  Ba  Ba2  1  0.41185300  0.41185300  0.00000000  1
  Ba  Ba3  1  0.33814700  0.83814700  0.50000000  1
  Na  Na4  1  0.88485800  0.88485800  0.00000000  1
  Na  Na5  1  0.63485800  0.13485800  0.50000000  1
  Na  Na6  1  0.86514200  0.36514200  0.50000000  1
  Na  Na7  1  0.11514200  0.11514200  0.00000000  1
  Zr  Zr8  1  0.71420800  0.13739000  0.85260800  1
  Zr  Zr9  1  0.46521700  0.38839900  0.35260800  1
  Zr  Zr10  1  0.86261000  0.71521700  0.57681800  1
  Zr  Zr11  1  0.13839900  0.28579200  0.42318200  1
  Zr  Zr12  1  0.03579200  0.11261000  0.64739200  1
  Zr  Zr13  1  0.88739000  0.53478300  0.92318200  1
  Zr  Zr14  1  0.61160100  0.96420800  0.07681800  1
  Zr  Zr15  1  0.28478300  0.86160100  0.14739200  1
  F  F16  1  0.12354000  0.84006700  0.86116500  1
  F  F17  1  0.53531800  0.10936200  0.80129200  1
  F  F18  1  0.21468200  0.14063800  0.69870800  1
  F  F19  1  0.06089200  0.99280400  0.70611000  1
  F  F20  1  0.28669400  0.35478200  0.29389000  1
  F  F21  1  0.88164700  0.15455600  0.13378700  1
  F  F22  1  0.64521800  0.93910800  0.93191200  1
  F  F23  1  0.85936200  0.55807000  0.07404400  1
  F  F24  1  0.72923100  0.50214000  0.63378700  1
  F  F25  1  0.49786000  0.13164700  0.22709100  1
  F  F26  1  0.01237500  0.37354000  0.78347300  1
  F  F27  1  0.06090500  0.86975600  0.42942700  1
  F  F28  1  0.77109700  0.98762500  0.36116500  1
  F  F29  1  0.89063800  0.69193000  0.42595600  1
  F  F30  1  0.90455600  0.27076900  0.77290900  1
  F  F31  1  0.10478200  0.31089200  0.56808800  1
  F  F32  1  0.13024400  0.55967100  0.19114900  1
  F  F33  1  0.02076900  0.74786000  0.86621300  1
  F  F34  1  0.68909500  0.38024400  0.07057300  1
  F  F35  1  0.00177800  0.50177800  0.50000000  1
  F  F36  1  0.74280400  0.53669400  0.43191200  1
  F  F37  1  0.48402600  0.78531800  0.92595600  1
  F  F38  1  0.30967100  0.61852200  0.92942700  1
  F  F39  1  0.36852200  0.93909500  0.80885100  1
  F  F40  1  0.68910800  0.25719600  0.79389000  1
  F  F41  1  0.38147800  0.31090500  0.69114900  1
  F  F42  1  0.97890300  0.26237500  0.13883500  1
  F  F43  1  0.86835300  0.09544400  0.36621300  1
  F  F44  1  0.84544400  0.97923100  0.72709100  1
  F  F45  1  0.25177800  0.25177800  0.00000000  1
  F  F46  1  0.74822200  0.74822200  0.00000000  1
  F  F47  1  0.26597400  0.46468200  0.57404400  1
  F  F48  1  0.15993300  0.02109700  0.28347300  1
  F  F49  1  0.44032900  0.63147800  0.57057300  1
  F  F50  1  0.73762500  0.87646000  0.71652700  1
  F  F51  1  0.49822200  0.99822200  0.50000000  1
  F  F52  1  0.61975600  0.69032900  0.30885100  1
  F  F53  1  0.44193000  0.51597400  0.30129200  1
  F  F54  1  0.62646000  0.40993300  0.63883500  1
  F  F55  1  0.46330600  0.89521800  0.20611000  1
  F  F56  1  0.30807000  0.73402600  0.19870800  1
  F  F57  1  0.59006700  0.22890300  0.21652700  1
  F  F58  1  0.00719600  0.71330600  0.06808800  1
  F  F59  1  0.25214000  0.11835300  0.27290900  1
