# generated using pymatgen
data_WSBr4
_symmetry_space_group_name_H-M   'P 1'
_cell_length_a   6.48174900
_cell_length_b   10.45984500
_cell_length_c   13.65462499
_cell_angle_alpha   69.35906194
_cell_angle_beta   90.00000000
_cell_angle_gamma   90.00000000
_symmetry_Int_Tables_number   1
_chemical_formula_structural   WSBr4
_chemical_formula_sum   'W4 S4 Br16'
_cell_volume   866.33117894
_cell_formula_units_Z   4
loop_
 _symmetry_equiv_pos_site_id
 _symmetry_equiv_pos_as_xyz
  1  'x, y, z'
loop_
 _atom_site_type_symbol
 _atom_site_label
 _atom_site_symmetry_multiplicity
 _atom_site_fract_x
 _atom_site_fract_y
 _atom_site_fract_z
 _atom_site_occupancy
  W  W0  1  0.93259500  0.76213700  0.04217900  1
  W  W1  1  0.06740500  0.23786300  0.95782100  1
  W  W2  1  0.43259500  0.23786300  0.45782100  1
  W  W3  1  0.56740500  0.76213700  0.54217900  1
  S  S4  1  0.26353100  0.38639300  0.97834900  1
  S  S5  1  0.23646900  0.38639300  0.47834900  1
  S  S6  1  0.76353100  0.61360700  0.52165100  1
  S  S7  1  0.73646900  0.61360700  0.02165100  1
  Br  Br8  1  0.72134400  0.80339500  0.69306000  1
  Br  Br9  1  0.80987600  0.20059200  0.09836900  1
  Br  Br10  1  0.23878200  0.02402400  0.07139400  1
  Br  Br11  1  0.77865600  0.80339500  0.19306000  1
  Br  Br12  1  0.19820800  0.62413200  0.16392600  1
  Br  Br13  1  0.69820800  0.37586800  0.33607400  1
  Br  Br14  1  0.76121800  0.97597600  0.92860600  1
  Br  Br15  1  0.26121800  0.02402400  0.57139400  1
  Br  Br16  1  0.69012400  0.20059200  0.59836900  1
  Br  Br17  1  0.22134400  0.19660500  0.80694000  1
  Br  Br18  1  0.30179200  0.62413200  0.66392600  1
  Br  Br19  1  0.27865600  0.19660500  0.30694000  1
  Br  Br20  1  0.19012400  0.79940800  0.90163100  1
  Br  Br21  1  0.30987600  0.79940800  0.40163100  1
  Br  Br22  1  0.80179200  0.37586800  0.83607400  1
  Br  Br23  1  0.73878200  0.97597600  0.42860600  1
