# generated using pymatgen
data_Na3FeS3
_symmetry_space_group_name_H-M   'P 1'
_cell_length_a   6.91620200
_cell_length_b   7.18380600
_cell_length_c   14.29071478
_cell_angle_alpha   61.20981500
_cell_angle_beta   90.00000000
_cell_angle_gamma   90.00000000
_symmetry_Int_Tables_number   1
_chemical_formula_structural   Na3FeS3
_chemical_formula_sum   'Na12 Fe4 S12'
_cell_volume   622.26192759
_cell_formula_units_Z   4
loop_
 _symmetry_equiv_pos_site_id
 _symmetry_equiv_pos_as_xyz
  1  'x, y, z'
loop_
 _atom_site_type_symbol
 _atom_site_label
 _atom_site_symmetry_multiplicity
 _atom_site_fract_x
 _atom_site_fract_y
 _atom_site_fract_z
 _atom_site_occupancy
  Na  Na0  1  0.01361900  0.95840200  0.88479000  1
  Na  Na1  1  0.48638100  0.95840200  0.38479000  1
  Na  Na2  1  0.98638100  0.04159800  0.11521000  1
  Na  Na3  1  0.98499700  0.51230000  0.71673400  1
  Na  Na4  1  0.51268600  0.88607300  0.90361600  1
  Na  Na5  1  0.51361900  0.04159800  0.61521000  1
  Na  Na6  1  0.48499700  0.48770000  0.78326600  1
  Na  Na7  1  0.01268600  0.11392700  0.59638400  1
  Na  Na8  1  0.51500300  0.51230000  0.21673400  1
  Na  Na9  1  0.98731400  0.88607300  0.40361600  1
  Na  Na10  1  0.01500300  0.48770000  0.28326600  1
  Na  Na11  1  0.48731400  0.11392700  0.09638400  1
  Fe  Fe12  1  0.12567700  0.50126500  0.07368900  1
  Fe  Fe13  1  0.87432300  0.49873500  0.92631100  1
  Fe  Fe14  1  0.62567700  0.49873500  0.42631100  1
  Fe  Fe15  1  0.37432300  0.50126500  0.57368900  1
  S  S16  1  0.25582600  0.79463500  0.57121400  1
  S  S17  1  0.72445000  0.79243600  0.27892300  1
  S  S18  1  0.29902200  0.48960400  0.42393000  1
  S  S19  1  0.22445000  0.20756400  0.22107700  1
  S  S20  1  0.20097800  0.48960400  0.92393000  1
  S  S21  1  0.70097800  0.51039600  0.57607000  1
  S  S22  1  0.74417400  0.20536500  0.42878600  1
  S  S23  1  0.27555000  0.20756400  0.72107700  1
  S  S24  1  0.79902200  0.51039600  0.07607000  1
  S  S25  1  0.77555000  0.79243600  0.77892300  1
  S  S26  1  0.75582600  0.20536500  0.92878600  1
  S  S27  1  0.24417400  0.79463500  0.07121400  1
