# generated using pymatgen
data_S
_symmetry_space_group_name_H-M   'P 1'
_cell_length_a   9.02143300
_cell_length_b   16.27005800
_cell_length_c   20.32062400
_cell_angle_alpha   90.00000000
_cell_angle_beta   90.00000000
_cell_angle_gamma   90.00000000
_symmetry_Int_Tables_number   1
_chemical_formula_structural   S
_chemical_formula_sum   S88
_cell_volume   2982.64570952
_cell_formula_units_Z   88
loop_
 _symmetry_equiv_pos_site_id
 _symmetry_equiv_pos_as_xyz
  1  'x, y, z'
loop_
 _atom_site_type_symbol
 _atom_site_label
 _atom_site_symmetry_multiplicity
 _atom_site_fract_x
 _atom_site_fract_y
 _atom_site_fract_z
 _atom_site_occupancy
  S  S0  1  0.98218300  0.41386400  0.39279800  1
  S  S1  1  0.28672000  0.25813300  0.97588300  1
  S  S2  1  0.66008000  0.08358400  0.09448200  1
  S  S3  1  0.47834900  0.16127300  0.21939000  1
  S  S4  1  0.90413100  0.42825600  0.98631100  1
  S  S5  1  0.45941100  0.85590700  0.39441500  1
  S  S6  1  0.58692200  0.17857200  0.62712200  1
  S  S7  1  0.54372400  0.58207300  0.14075900  1
  S  S8  1  0.64454100  0.71969400  0.88444000  1
  S  S9  1  0.42234200  0.22167800  0.68782600  1
  S  S10  1  0.92983700  0.53093100  0.42537200  1
  S  S11  1  0.54178800  0.44900900  0.94367300  1
  S  S12  1  0.45627600  0.08207300  0.14075900  1
  S  S13  1  0.54372400  0.91792700  0.64075900  1
  S  S14  1  0.26985800  0.88156200  0.92977300  1
  S  S15  1  0.33992000  0.58358400  0.09448200  1
  S  S16  1  0.14384300  0.96950200  0.72825400  1
  S  S17  1  0.07016300  0.46906900  0.92537200  1
  S  S18  1  0.52165100  0.83872700  0.71939000  1
  S  S19  1  0.03840700  0.39162600  0.71951100  1
  S  S20  1  0.57765800  0.72167800  0.68782600  1
  S  S21  1  0.73014200  0.38156200  0.92977300  1
  S  S22  1  0.76054900  0.36882300  0.18345000  1
  S  S23  1  0.07016300  0.03093100  0.42537200  1
  S  S24  1  0.26985800  0.61843800  0.42977300  1
  S  S25  1  0.95489200  0.33336200  0.47032000  1
  S  S26  1  0.76054900  0.13117700  0.68345000  1
  S  S27  1  0.03840700  0.10837400  0.21951100  1
  S  S28  1  0.49549400  0.47241100  0.36284700  1
  S  S29  1  0.94964600  0.30214100  0.16941500  1
  S  S30  1  0.90413100  0.07174400  0.48631100  1
  S  S31  1  0.54178800  0.05099100  0.44367300  1
  S  S32  1  0.85615700  0.03049800  0.22825400  1
  S  S33  1  0.45627600  0.41792700  0.64075900  1
  S  S34  1  0.35545900  0.21969400  0.88444000  1
  S  S35  1  0.92983700  0.96906900  0.92537200  1
  S  S36  1  0.96159300  0.89162600  0.71951100  1
  S  S37  1  0.15697600  0.16748100  0.01800700  1
  S  S38  1  0.49549400  0.02758900  0.86284700  1
  S  S39  1  0.15697600  0.33251900  0.51800700  1
  S  S40  1  0.45941100  0.64409300  0.89441500  1
  S  S41  1  0.20959300  0.00710700  0.63614800  1
  S  S42  1  0.50450600  0.52758900  0.86284700  1
  S  S43  1  0.41307800  0.82142800  0.12712200  1
  S  S44  1  0.98768200  0.27568600  0.75070600  1
  S  S45  1  0.41307800  0.67857200  0.62712200  1
  S  S46  1  0.01231800  0.72431400  0.25070600  1
  S  S47  1  0.09586900  0.57174400  0.48631100  1
  S  S48  1  0.01781700  0.91386400  0.39279800  1
  S  S49  1  0.05035400  0.69785900  0.66941500  1
  S  S50  1  0.04510800  0.83336200  0.47032000  1
  S  S51  1  0.66008000  0.41641600  0.59448200  1
  S  S52  1  0.50450600  0.97241100  0.36284700  1
  S  S53  1  0.64454100  0.78030600  0.38444000  1
  S  S54  1  0.01781700  0.58613600  0.89279800  1
  S  S55  1  0.96159300  0.60837400  0.21951100  1
  S  S56  1  0.52165100  0.66127300  0.21939000  1
  S  S57  1  0.73014200  0.11843800  0.42977300  1
  S  S58  1  0.84302400  0.66748100  0.01800700  1
  S  S59  1  0.54058900  0.14409300  0.89441500  1
  S  S60  1  0.85615700  0.46950200  0.72825400  1
  S  S61  1  0.42234200  0.27832200  0.18782600  1
  S  S62  1  0.58692200  0.32142800  0.12712200  1
  S  S63  1  0.35545900  0.28030600  0.38444000  1
  S  S64  1  0.71328000  0.74186700  0.47588300  1
  S  S65  1  0.71328000  0.75813300  0.97588300  1
  S  S66  1  0.94964600  0.19785900  0.66941500  1
  S  S67  1  0.98768200  0.22431400  0.25070600  1
  S  S68  1  0.45821200  0.55099100  0.44367300  1
  S  S69  1  0.09586900  0.92825600  0.98631100  1
  S  S70  1  0.33992000  0.91641600  0.59448200  1
  S  S71  1  0.45821200  0.94900900  0.94367300  1
  S  S72  1  0.79040700  0.50710700  0.63614800  1
  S  S73  1  0.23945100  0.86882300  0.18345000  1
  S  S74  1  0.01231800  0.77568600  0.75070600  1
  S  S75  1  0.28672000  0.24186700  0.47588300  1
  S  S76  1  0.79040700  0.99289300  0.13614800  1
  S  S77  1  0.04510800  0.66663800  0.97032000  1
  S  S78  1  0.14384300  0.53049800  0.22825400  1
  S  S79  1  0.57765800  0.77832200  0.18782600  1
  S  S80  1  0.20959300  0.49289300  0.13614800  1
  S  S81  1  0.98218300  0.08613600  0.89279800  1
  S  S82  1  0.47834900  0.33872700  0.71939000  1
  S  S83  1  0.23945100  0.63117700  0.68345000  1
  S  S84  1  0.05035400  0.80214100  0.16941500  1
  S  S85  1  0.84302400  0.83251900  0.51800700  1
  S  S86  1  0.95489200  0.16663800  0.97032000  1
  S  S87  1  0.54058900  0.35590700  0.39441500  1
