# generated using pymatgen
data_PO2
_symmetry_space_group_name_H-M   'P 1'
_cell_length_a   7.23359119
_cell_length_b   7.23359119
_cell_length_c   7.29814452
_cell_angle_alpha   85.03140271
_cell_angle_beta   85.03140271
_cell_angle_gamma   93.12995179
_symmetry_Int_Tables_number   1
_chemical_formula_structural   PO2
_chemical_formula_sum   'P8 O16'
_cell_volume   378.26704899
_cell_formula_units_Z   8
loop_
 _symmetry_equiv_pos_site_id
 _symmetry_equiv_pos_as_xyz
  1  'x, y, z'
loop_
 _atom_site_type_symbol
 _atom_site_label
 _atom_site_symmetry_multiplicity
 _atom_site_fract_x
 _atom_site_fract_y
 _atom_site_fract_z
 _atom_site_occupancy
  P  P0  1  0.74387500  0.97819700  0.82361100  1
  P  P1  1  0.97819700  0.74387500  0.32361100  1
  P  P2  1  0.64669600  0.27516300  0.55953900  1
  P  P3  1  0.25612500  0.02180300  0.17638900  1
  P  P4  1  0.35330400  0.72483700  0.44046100  1
  P  P5  1  0.72483700  0.35330400  0.94046100  1
  P  P6  1  0.27516300  0.64669600  0.05953900  1
  P  P7  1  0.02180300  0.25612500  0.67638900  1
  O  O8  1  0.61881600  0.38118400  0.75000000  1
  O  O9  1  0.63154300  0.05155500  0.65531400  1
  O  O10  1  0.69987700  0.11733700  0.97853300  1
  O  O11  1  0.95928600  0.04071400  0.75000000  1
  O  O12  1  0.36845700  0.94844500  0.34468600  1
  O  O13  1  0.11733700  0.69987700  0.47853300  1
  O  O14  1  0.04071400  0.95928600  0.25000000  1
  O  O15  1  0.38118400  0.61881600  0.25000000  1
  O  O16  1  0.28625500  0.21911300  0.11423300  1
  O  O17  1  0.05155500  0.63154300  0.15531400  1
  O  O18  1  0.94844500  0.36845700  0.84468600  1
  O  O19  1  0.71374500  0.78088700  0.88576700  1
  O  O20  1  0.21911300  0.28625500  0.61423300  1
  O  O21  1  0.88266300  0.30012300  0.52146700  1
  O  O22  1  0.30012300  0.88266300  0.02146700  1
  O  O23  1  0.78088700  0.71374500  0.38576700  1
