# generated using pymatgen
data_CuCClO
_symmetry_space_group_name_H-M   'P 1'
_cell_length_a   3.66227300
_cell_length_b   5.04768400
_cell_length_c   8.38342100
_cell_angle_alpha   90.00000000
_cell_angle_beta   90.00000000
_cell_angle_gamma   90.00000000
_symmetry_Int_Tables_number   1
_chemical_formula_structural   CuCClO
_chemical_formula_sum   'Cu2 C2 Cl2 O2'
_cell_volume   154.97589399
_cell_formula_units_Z   2
loop_
 _symmetry_equiv_pos_site_id
 _symmetry_equiv_pos_as_xyz
  1  'x, y, z'
loop_
 _atom_site_type_symbol
 _atom_site_label
 _atom_site_symmetry_multiplicity
 _atom_site_fract_x
 _atom_site_fract_y
 _atom_site_fract_z
 _atom_site_occupancy
  Cu  Cu0  1  0.50000000  0.50514500  0.85762300  1
  Cu  Cu1  1  0.00000000  0.00514500  0.14237700  1
  C  C2  1  0.00000000  0.20682300  0.32008800  1
  C  C3  1  0.50000000  0.70682300  0.67991200  1
  Cl  Cl4  1  0.00000000  0.21085400  0.88852400  1
  Cl  Cl5  1  0.50000000  0.71085400  0.11147600  1
  O  O6  1  0.00000000  0.33257700  0.43483400  1
  O  O7  1  0.50000000  0.83257700  0.56516600  1
