# generated using pymatgen
data_Ce4Si2S3O7
_symmetry_space_group_name_H-M   'P 1'
_cell_length_a   11.12781248
_cell_length_b   11.12781248
_cell_length_c   11.12781248
_cell_angle_alpha   114.32007360
_cell_angle_beta   114.32007360
_cell_angle_gamma   100.15622305
_symmetry_Int_Tables_number   1
_chemical_formula_structural   Ce4Si2S3O7
_chemical_formula_sum   'Ce16 Si8 S12 O28'
_cell_volume   1040.20869865
_cell_formula_units_Z   4
loop_
 _symmetry_equiv_pos_site_id
 _symmetry_equiv_pos_as_xyz
  1  'x, y, z'
loop_
 _atom_site_type_symbol
 _atom_site_label
 _atom_site_symmetry_multiplicity
 _atom_site_fract_x
 _atom_site_fract_y
 _atom_site_fract_z
 _atom_site_occupancy
  Ce  Ce0  1  0.92191100  0.42191100  0.84382100  1
  Ce  Ce1  1  0.70301500  0.46838100  0.23463400  1
  Ce  Ce2  1  0.53161900  0.29698500  0.76536600  1
  Ce  Ce3  1  0.17191100  0.82808900  0.00000000  1
  Ce  Ce4  1  0.21838100  0.95301500  0.73463400  1
  Ce  Ce5  1  0.51625300  0.78161900  0.73463400  1
  Ce  Ce6  1  0.82808900  0.17191100  0.00000000  1
  Ce  Ce7  1  0.92191100  0.07808900  0.50000000  1
  Ce  Ce8  1  0.53161900  0.76625300  0.23463400  1
  Ce  Ce9  1  0.17191100  0.17191100  0.34382100  1
  Ce  Ce10  1  0.82808900  0.82808900  0.65617900  1
  Ce  Ce11  1  0.57808900  0.42191100  0.50000000  1
  Ce  Ce12  1  0.21838100  0.48374700  0.26536600  1
  Ce  Ce13  1  0.57808900  0.07808900  0.15617900  1
  Ce  Ce14  1  0.23374700  0.46838100  0.76536600  1
  Ce  Ce15  1  0.04698500  0.78161900  0.26536600  1
  Si  Si16  1  0.34547400  0.22176300  0.12371100  1
  Si  Si17  1  0.40452600  0.02823700  0.37628900  1
  Si  Si18  1  0.77823700  0.90194800  0.12371100  1
  Si  Si19  1  0.09805200  0.22176300  0.87628900  1
  Si  Si20  1  0.97176300  0.59547400  0.62371100  1
  Si  Si21  1  0.65194800  0.02823700  0.62371100  1
  Si  Si22  1  0.97176300  0.34805200  0.37628900  1
  Si  Si23  1  0.77823700  0.65452600  0.87628900  1
  S  S24  1  0.87500000  0.77380500  0.39880500  1
  S  S25  1  0.87500000  0.47619500  0.10119500  1
  S  S26  1  0.37500000  0.77380500  0.89880500  1
  S  S27  1  0.37500000  0.47619500  0.60119500  1
  S  S28  1  0.75000000  0.25000000  0.50000000  1
  S  S29  1  0.00000000  0.00000000  0.00000000  1
  S  S30  1  0.52380500  0.62500000  0.39880500  1
  S  S31  1  0.22619500  0.12500000  0.60119500  1
  S  S32  1  0.22619500  0.62500000  0.10119500  1
  S  S33  1  0.50000000  0.50000000  0.00000000  1
  S  S34  1  0.52380500  0.12500000  0.89880500  1
  S  S35  1  0.25000000  0.75000000  0.50000000  1
  O  O36  1  0.72939500  0.72939500  0.00000000  1
  O  O37  1  0.67721200  0.95099800  0.72621400  1
  O  O38  1  0.95109500  0.69215100  0.97850900  1
  O  O39  1  0.03635900  0.27741400  0.47850900  1
  O  O40  1  0.22478400  0.95099800  0.27378600  1
  O  O41  1  0.30784900  0.04890500  0.02149100  1
  O  O42  1  0.44215100  0.20109500  0.47850900  1
  O  O43  1  0.70099800  0.47478400  0.77378600  1
  O  O44  1  0.44215100  0.96364100  0.24105500  1
  O  O45  1  0.30784900  0.28635900  0.25894500  1
  O  O46  1  0.79890400  0.55784900  0.52149100  1
  O  O47  1  0.72258600  0.20109500  0.75894500  1
  O  O48  1  0.79890400  0.27741400  0.24105500  1
  O  O49  1  0.70099800  0.92721200  0.22621400  1
  O  O50  1  0.04900200  0.32278800  0.27378600  1
  O  O51  1  0.02060500  0.52060500  0.50000000  1
  O  O52  1  0.71364100  0.69215100  0.74105500  1
  O  O53  1  0.95109500  0.97258600  0.25894500  1
  O  O54  1  0.07278800  0.29900200  0.77378600  1
  O  O55  1  0.02741400  0.04890400  0.74105500  1
  O  O56  1  0.03635900  0.55784900  0.75894500  1
  O  O57  1  0.47939500  0.97939500  0.50000000  1
  O  O58  1  0.52521600  0.29900200  0.22621400  1
  O  O59  1  0.71364100  0.97258600  0.02149100  1
  O  O60  1  0.02741400  0.28635900  0.97850900  1
  O  O61  1  0.27060500  0.27060500  0.00000000  1
  O  O62  1  0.72258600  0.96364100  0.52149100  1
  O  O63  1  0.04900200  0.77521600  0.72621400  1
