# generated using pymatgen
data_U2O5F8
_symmetry_space_group_name_H-M   'P 1'
_cell_length_a   10.23198300
_cell_length_b   10.44369600
_cell_length_c   12.69860200
_cell_angle_alpha   90.00000000
_cell_angle_beta   90.00000000
_cell_angle_gamma   90.00000000
_symmetry_Int_Tables_number   1
_chemical_formula_structural   U2O5F8
_chemical_formula_sum   'U8 O20 F32'
_cell_volume   1356.96905321
_cell_formula_units_Z   4
loop_
 _symmetry_equiv_pos_site_id
 _symmetry_equiv_pos_as_xyz
  1  'x, y, z'
loop_
 _atom_site_type_symbol
 _atom_site_label
 _atom_site_symmetry_multiplicity
 _atom_site_fract_x
 _atom_site_fract_y
 _atom_site_fract_z
 _atom_site_occupancy
  U  U0  1  0.29028000  0.25000000  0.71827300  1
  U  U1  1  0.20972000  0.25000000  0.21827300  1
  U  U2  1  0.70972000  0.75000000  0.28172700  1
  U  U3  1  0.79028000  0.75000000  0.78172700  1
  U  U4  1  0.43757200  0.75000000  0.56393000  1
  U  U5  1  0.06242800  0.75000000  0.06393000  1
  U  U6  1  0.56242800  0.25000000  0.43607000  1
  U  U7  1  0.93757200  0.25000000  0.93607000  1
  O  O8  1  0.60099600  0.75000000  0.02498900  1
  O  O9  1  0.89900400  0.75000000  0.52498900  1
  O  O10  1  0.39900400  0.25000000  0.97501100  1
  O  O11  1  0.10099600  0.25000000  0.47501100  1
  O  O12  1  0.23383200  0.41964200  0.20860100  1
  O  O13  1  0.26616800  0.08035800  0.70860100  1
  O  O14  1  0.76616800  0.91964200  0.79139900  1
  O  O15  1  0.73383200  0.58035800  0.29139900  1
  O  O16  1  0.76616800  0.58035800  0.79139900  1
  O  O17  1  0.73383200  0.91964200  0.29139900  1
  O  O18  1  0.23383200  0.08035800  0.20860100  1
  O  O19  1  0.26616800  0.41964200  0.70860100  1
  O  O20  1  0.37306500  0.35481500  0.92658700  1
  O  O21  1  0.12693500  0.14518500  0.42658700  1
  O  O22  1  0.62693500  0.85481500  0.07341300  1
  O  O23  1  0.87306500  0.64518500  0.57341300  1
  O  O24  1  0.62693500  0.64518500  0.07341300  1
  O  O25  1  0.87306500  0.85481500  0.57341300  1
  O  O26  1  0.37306500  0.14518500  0.92658700  1
  O  O27  1  0.12693500  0.35481500  0.42658700  1
  F  F28  1  0.40058400  0.60379400  0.46342800  1
  F  F29  1  0.09941600  0.89620600  0.96342800  1
  F  F30  1  0.59941600  0.10379400  0.53657200  1
  F  F31  1  0.90058400  0.39620600  0.03657200  1
  F  F32  1  0.59941600  0.39620600  0.53657200  1
  F  F33  1  0.90058400  0.10379400  0.03657200  1
  F  F34  1  0.40058400  0.89620600  0.46342800  1
  F  F35  1  0.09941600  0.60379400  0.96342800  1
  F  F36  1  0.38639800  0.25000000  0.54998400  1
  F  F37  1  0.11360200  0.25000000  0.04998400  1
  F  F38  1  0.61360200  0.75000000  0.45001600  1
  F  F39  1  0.88639800  0.75000000  0.95001600  1
  F  F40  1  0.36346300  0.25000000  0.35280000  1
  F  F41  1  0.13653700  0.25000000  0.85280000  1
  F  F42  1  0.63653700  0.75000000  0.64720000  1
  F  F43  1  0.86346300  0.75000000  0.14720000  1
  F  F44  1  0.43540900  0.61157700  0.67417900  1
  F  F45  1  0.06459100  0.88842300  0.17417900  1
  F  F46  1  0.56459100  0.11157700  0.32582100  1
  F  F47  1  0.93540900  0.38842300  0.82582100  1
  F  F48  1  0.56459100  0.38842300  0.32582100  1
  F  F49  1  0.93540900  0.11157700  0.82582100  1
  F  F50  1  0.43540900  0.88842300  0.67417900  1
  F  F51  1  0.06459100  0.61157700  0.17417900  1
  F  F52  1  0.51167300  0.75000000  0.24425400  1
  F  F53  1  0.98832700  0.75000000  0.74425400  1
  F  F54  1  0.48832700  0.25000000  0.75574600  1
  F  F55  1  0.01167300  0.25000000  0.25574600  1
  F  F56  1  0.23958000  0.75000000  0.58172400  1
  F  F57  1  0.26042000  0.75000000  0.08172400  1
  F  F58  1  0.76042000  0.25000000  0.41827600  1
  F  F59  1  0.73958000  0.25000000  0.91827600  1
