# generated using pymatgen
data_K2SO4
_symmetry_space_group_name_H-M   'P 1'
_cell_length_a   5.44268434
_cell_length_b   5.44268434
_cell_length_c   9.56330500
_cell_angle_alpha   90.00000000
_cell_angle_beta   90.00000000
_cell_angle_gamma   120.00000412
_symmetry_Int_Tables_number   1
_chemical_formula_structural   K2SO4
_chemical_formula_sum   'K4 S2 O8'
_cell_volume   245.33805321
_cell_formula_units_Z   2
loop_
 _symmetry_equiv_pos_site_id
 _symmetry_equiv_pos_as_xyz
  1  'x, y, z'
loop_
 _atom_site_type_symbol
 _atom_site_label
 _atom_site_symmetry_multiplicity
 _atom_site_fract_x
 _atom_site_fract_y
 _atom_site_fract_z
 _atom_site_occupancy
  K  K0  1  0.00000000  0.00000000  0.00000000  1
  K  K1  1  0.66666700  0.33333300  0.92113000  1
  K  K2  1  0.00000000  0.00000000  0.50000000  1
  K  K3  1  0.33333300  0.66666700  0.07887000  1
  S  S4  1  0.33333300  0.66666700  0.71582600  1
  S  S5  1  0.66666700  0.33333300  0.28417400  1
  O  O6  1  0.66666700  0.33333300  0.43695100  1
  O  O7  1  0.33333300  0.66666700  0.56304900  1
  O  O8  1  0.86590300  0.73180500  0.76071600  1
  O  O9  1  0.26819500  0.13409700  0.76071600  1
  O  O10  1  0.13409700  0.86590300  0.23928400  1
  O  O11  1  0.13409700  0.26819500  0.23928400  1
  O  O12  1  0.73180500  0.86590300  0.23928400  1
  O  O13  1  0.86590300  0.13409700  0.76071600  1
