# generated using pymatgen
data_MoO3
_symmetry_space_group_name_H-M   'P 1'
_cell_length_a   3.76422400
_cell_length_b   3.93003200
_cell_length_c   7.49184162
_cell_angle_alpha   76.57475125
_cell_angle_beta   90.00000000
_cell_angle_gamma   90.00000000
_symmetry_Int_Tables_number   1
_chemical_formula_structural   MoO3
_chemical_formula_sum   'Mo2 O6'
_cell_volume   107.80211673
_cell_formula_units_Z   2
loop_
 _symmetry_equiv_pos_site_id
 _symmetry_equiv_pos_as_xyz
  1  'x, y, z'
loop_
 _atom_site_type_symbol
 _atom_site_label
 _atom_site_symmetry_multiplicity
 _atom_site_fract_x
 _atom_site_fract_y
 _atom_site_fract_z
 _atom_site_occupancy
  Mo  Mo0  1  0.25000000  0.65724000  0.29568600  1
  Mo  Mo1  1  0.75000000  0.34276000  0.70431400  1
  O  O2  1  0.25000000  0.09875100  0.32320300  1
  O  O3  1  0.75000000  0.90124900  0.67679700  1
  O  O4  1  0.75000000  0.56427000  0.36939200  1
  O  O5  1  0.25000000  0.43573000  0.63060800  1
  O  O6  1  0.25000000  0.72286500  0.06299200  1
  O  O7  1  0.75000000  0.27713500  0.93700800  1
