# generated using pymatgen
data_SrCo2(AsO4)2
_symmetry_space_group_name_H-M   'P 1'
_cell_length_a   5.56895700
_cell_length_b   7.28065085
_cell_length_c   9.70860746
_cell_angle_alpha   109.43399061
_cell_angle_beta   99.15694169
_cell_angle_gamma   96.20029605
_symmetry_Int_Tables_number   1
_chemical_formula_structural   SrCo2(AsO4)2
_chemical_formula_sum   'Sr2 Co4 As4 O16'
_cell_volume   360.96512606
_cell_formula_units_Z   2
loop_
 _symmetry_equiv_pos_site_id
 _symmetry_equiv_pos_as_xyz
  1  'x, y, z'
loop_
 _atom_site_type_symbol
 _atom_site_label
 _atom_site_symmetry_multiplicity
 _atom_site_fract_x
 _atom_site_fract_y
 _atom_site_fract_z
 _atom_site_occupancy
  Sr  Sr0  1  0.67103300  0.77976900  0.52461400  1
  Sr  Sr1  1  0.32896700  0.22023100  0.47538600  1
  Co  Co2  1  0.52848900  0.64519900  0.87886100  1
  Co  Co3  1  0.13533400  0.87556400  0.06327300  1
  Co  Co4  1  0.47151100  0.35480100  0.12113900  1
  Co  Co5  1  0.86466600  0.12443600  0.93672700  1
  As  As6  1  0.92892500  0.41665200  0.74952000  1
  As  As7  1  0.07107500  0.58334800  0.25048000  1
  As  As8  1  0.22889800  0.87041200  0.71602200  1
  As  As9  1  0.77110200  0.12958800  0.28397800  1
  O  O10  1  0.61290300  0.26277900  0.97234300  1
  O  O11  1  0.77207400  0.53730800  0.27479400  1
  O  O12  1  0.72980200  0.43317700  0.60257100  1
  O  O13  1  0.53811400  0.83538200  0.77948700  1
  O  O14  1  0.12191100  0.81836200  0.24153300  1
  O  O15  1  0.38709700  0.73722100  0.02765700  1
  O  O16  1  0.46188600  0.16461800  0.22051300  1
  O  O17  1  0.27019800  0.56682300  0.39742900  1
  O  O18  1  0.13728800  0.40605000  0.09469900  1
  O  O19  1  0.85351300  0.00092600  0.08393200  1
  O  O20  1  0.14648700  0.99907400  0.91606800  1
  O  O21  1  0.87808900  0.18163800  0.75846700  1
  O  O22  1  0.31768300  0.02216700  0.62440500  1
  O  O23  1  0.68231700  0.97783300  0.37559500  1
  O  O24  1  0.86271200  0.59395000  0.90530100  1
  O  O25  1  0.22792600  0.46269200  0.72520600  1
