# generated using pymatgen
data_BaCaCo4O7
_symmetry_space_group_name_H-M   'P 1'
_cell_length_a   6.40024900
_cell_length_b   10.30109600
_cell_length_c   11.10306300
_cell_angle_alpha   90.00000000
_cell_angle_beta   90.00000000
_cell_angle_gamma   90.00000000
_symmetry_Int_Tables_number   1
_chemical_formula_structural   BaCaCo4O7
_chemical_formula_sum   'Ba4 Ca4 Co16 O28'
_cell_volume   732.02027334
_cell_formula_units_Z   4
loop_
 _symmetry_equiv_pos_site_id
 _symmetry_equiv_pos_as_xyz
  1  'x, y, z'
loop_
 _atom_site_type_symbol
 _atom_site_label
 _atom_site_symmetry_multiplicity
 _atom_site_fract_x
 _atom_site_fract_y
 _atom_site_fract_z
 _atom_site_occupancy
  Ba  Ba0  1  0.50503100  0.99698300  0.16432900  1
  Ba  Ba1  1  0.00503100  0.49698300  0.33567100  1
  Ba  Ba2  1  0.99496900  0.99698300  0.66432900  1
  Ba  Ba3  1  0.49496900  0.49698300  0.83567100  1
  Ca  Ca4  1  0.50481600  0.12679200  0.82603300  1
  Ca  Ca5  1  0.49518400  0.62679200  0.17396700  1
  Ca  Ca6  1  0.99518400  0.12679200  0.32603300  1
  Ca  Ca7  1  0.00481600  0.62679200  0.67396700  1
  Co  Co8  1  0.23772200  0.81854900  0.42107600  1
  Co  Co9  1  0.73772200  0.31854900  0.07892400  1
  Co  Co10  1  0.99809100  0.81154000  0.17386700  1
  Co  Co11  1  0.25055100  0.30634200  0.58563200  1
  Co  Co12  1  0.74944900  0.80634200  0.41436800  1
  Co  Co13  1  0.24944900  0.30634200  0.08563200  1
  Co  Co14  1  0.50190900  0.81154000  0.67386700  1
  Co  Co15  1  0.49689900  0.55410600  0.50220500  1
  Co  Co16  1  0.49809100  0.31154000  0.32613300  1
  Co  Co17  1  0.99689900  0.05410600  0.99779500  1
  Co  Co18  1  0.76227800  0.31854900  0.57892400  1
  Co  Co19  1  0.00310100  0.55410600  0.00220500  1
  Co  Co20  1  0.00190900  0.31154000  0.82613300  1
  Co  Co21  1  0.50310100  0.05410600  0.49779500  1
  Co  Co22  1  0.75055100  0.80634200  0.91436800  1
  Co  Co23  1  0.26227800  0.81854900  0.92107600  1
  O  O24  1  0.48793500  0.74472400  0.50167800  1
  O  O25  1  0.06935800  0.49629800  0.84645900  1
  O  O26  1  0.43064200  0.49629800  0.34645900  1
  O  O27  1  0.93064200  0.99629800  0.15354100  1
  O  O28  1  0.21108100  0.21616100  0.73659900  1
  O  O29  1  0.98793500  0.24472400  0.99832200  1
  O  O30  1  0.27083600  0.79174300  0.25919100  1
  O  O31  1  0.77083600  0.29174300  0.24080900  1
  O  O32  1  0.71571600  0.99688300  0.39865700  1
  O  O33  1  0.28891900  0.21616100  0.23659900  1
  O  O34  1  0.71108100  0.71616100  0.76340100  1
  O  O35  1  0.01206500  0.74472400  0.00167800  1
  O  O36  1  0.76486600  0.50430000  0.55020500  1
  O  O37  1  0.99244900  0.26938000  0.49236700  1
  O  O38  1  0.22916400  0.79174300  0.75919100  1
  O  O39  1  0.00755100  0.76938000  0.50763300  1
  O  O40  1  0.78428400  0.99688300  0.89865700  1
  O  O41  1  0.26486600  0.00430000  0.94979500  1
  O  O42  1  0.50755100  0.26938000  0.99236700  1
  O  O43  1  0.23513400  0.00430000  0.44979500  1
  O  O44  1  0.56935800  0.99629800  0.65354100  1
  O  O45  1  0.21571600  0.49688300  0.10134300  1
  O  O46  1  0.51206500  0.24472400  0.49832200  1
  O  O47  1  0.72916400  0.29174300  0.74080900  1
  O  O48  1  0.28428400  0.49688300  0.60134300  1
  O  O49  1  0.73513400  0.50430000  0.05020500  1
  O  O50  1  0.78891900  0.71616100  0.26340100  1
  O  O51  1  0.49244900  0.76938000  0.00763300  1
