# generated using pymatgen
data_Ag3F8
_symmetry_space_group_name_H-M   'P 1'
_cell_length_a   11.40149300
_cell_length_b   5.23278400
_cell_length_c   7.16939685
_cell_angle_alpha   50.53139726
_cell_angle_beta   90.00000000
_cell_angle_gamma   90.00000000
_symmetry_Int_Tables_number   1
_chemical_formula_structural   Ag3F8
_chemical_formula_sum   'Ag6 F16'
_cell_volume   330.20168187
_cell_formula_units_Z   2
loop_
 _symmetry_equiv_pos_site_id
 _symmetry_equiv_pos_as_xyz
  1  'x, y, z'
loop_
 _atom_site_type_symbol
 _atom_site_label
 _atom_site_symmetry_multiplicity
 _atom_site_fract_x
 _atom_site_fract_y
 _atom_site_fract_z
 _atom_site_occupancy
  Ag  Ag0  1  0.31607700  0.75459100  0.97476900  1
  Ag  Ag1  1  0.68392300  0.24540900  0.02523100  1
  Ag  Ag2  1  0.81607700  0.24540900  0.52523100  1
  Ag  Ag3  1  0.18392300  0.75459100  0.47476900  1
  Ag  Ag4  1  0.00000000  0.50000000  0.00000000  1
  Ag  Ag5  1  0.50000000  0.50000000  0.50000000  1
  F  F6  1  0.91238500  0.95674200  0.82674300  1
  F  F7  1  0.71743400  0.54572000  0.24021000  1
  F  F8  1  0.08761500  0.04325800  0.17325700  1
  F  F9  1  0.58761500  0.95674200  0.32674300  1
  F  F10  1  0.53487800  0.41141700  0.83354200  1
  F  F11  1  0.32915200  0.91516200  0.28531600  1
  F  F12  1  0.67084800  0.08483800  0.71468400  1
  F  F13  1  0.28256600  0.45428000  0.75979000  1
  F  F14  1  0.17084800  0.91516200  0.78531600  1
  F  F15  1  0.78256600  0.54572000  0.74021000  1
  F  F16  1  0.03487800  0.58858300  0.66645800  1
  F  F17  1  0.46512200  0.58858300  0.16645800  1
  F  F18  1  0.21743400  0.45428000  0.25979000  1
  F  F19  1  0.96512200  0.41141700  0.33354200  1
  F  F20  1  0.41238500  0.04325800  0.67325700  1
  F  F21  1  0.82915200  0.08483800  0.21468400  1
