# generated using pymatgen
data_BaYbCo4O7
_symmetry_space_group_name_H-M   'P 1'
_cell_length_a   6.32730536
_cell_length_b   6.32730536
_cell_length_c   10.48658200
_cell_angle_alpha   90.00000000
_cell_angle_beta   90.00000000
_cell_angle_gamma   119.99999336
_symmetry_Int_Tables_number   1
_chemical_formula_structural   BaYbCo4O7
_chemical_formula_sum   'Ba2 Yb2 Co8 O14'
_cell_volume   363.58186012
_cell_formula_units_Z   2
loop_
 _symmetry_equiv_pos_site_id
 _symmetry_equiv_pos_as_xyz
  1  'x, y, z'
loop_
 _atom_site_type_symbol
 _atom_site_label
 _atom_site_symmetry_multiplicity
 _atom_site_fract_x
 _atom_site_fract_y
 _atom_site_fract_z
 _atom_site_occupancy
  Ba  Ba0  1  0.66666700  0.33333300  0.51761700  1
  Ba  Ba1  1  0.33333300  0.66666700  0.01761700  1
  Yb  Yb2  1  0.66666700  0.33333300  0.87302100  1
  Yb  Yb3  1  0.33333300  0.66666700  0.37302100  1
  Co  Co4  1  0.17203500  0.82796500  0.68067300  1
  Co  Co5  1  0.82796500  0.65593000  0.18067300  1
  Co  Co6  1  0.82796500  0.17203500  0.18067300  1
  Co  Co7  1  0.00000000  0.00000000  0.93712900  1
  Co  Co8  1  0.65593000  0.82796500  0.68067300  1
  Co  Co9  1  0.17203500  0.34407000  0.68067300  1
  Co  Co10  1  0.34407000  0.17203500  0.18067300  1
  Co  Co11  1  0.00000000  0.00000000  0.43712900  1
  O  O12  1  0.67104000  0.83552000  0.50141000  1
  O  O13  1  0.50518300  0.49481700  0.72625100  1
  O  O14  1  0.83552000  0.67104000  0.00141000  1
  O  O15  1  0.49481700  0.50518300  0.22625100  1
  O  O16  1  0.16448000  0.83552000  0.50141000  1
  O  O17  1  0.98963500  0.49481700  0.72625100  1
  O  O18  1  0.00000000  0.00000000  0.74792900  1
  O  O19  1  0.50518300  0.01036500  0.72625100  1
  O  O20  1  0.49481700  0.98963500  0.22625100  1
  O  O21  1  0.32896000  0.16448000  0.00141000  1
  O  O22  1  0.01036500  0.50518300  0.22625100  1
  O  O23  1  0.16448000  0.32896000  0.50141000  1
  O  O24  1  0.00000000  0.00000000  0.24792900  1
  O  O25  1  0.83552000  0.16448000  0.00141000  1
