# generated using pymatgen
data_Ag2PS3
_symmetry_space_group_name_H-M   'P 1'
_cell_length_a   6.33797500
_cell_length_b   11.23478100
_cell_length_c   14.38294700
_cell_angle_alpha   90.00000000
_cell_angle_beta   90.00000000
_cell_angle_gamma   90.00000000
_symmetry_Int_Tables_number   1
_chemical_formula_structural   Ag2PS3
_chemical_formula_sum   'Ag16 P8 S24'
_cell_volume   1024.14868812
_cell_formula_units_Z   8
loop_
 _symmetry_equiv_pos_site_id
 _symmetry_equiv_pos_as_xyz
  1  'x, y, z'
loop_
 _atom_site_type_symbol
 _atom_site_label
 _atom_site_symmetry_multiplicity
 _atom_site_fract_x
 _atom_site_fract_y
 _atom_site_fract_z
 _atom_site_occupancy
  Ag  Ag0  1  0.09091500  0.87376700  0.12811400  1
  Ag  Ag1  1  0.40810600  0.86016400  0.61269300  1
  Ag  Ag2  1  0.18844900  0.79575000  0.87443600  1
  Ag  Ag3  1  0.81155100  0.29575000  0.62556400  1
  Ag  Ag4  1  0.90908500  0.37376700  0.37188600  1
  Ag  Ag5  1  0.01261100  0.68818100  0.61912500  1
  Ag  Ag6  1  0.51261100  0.81181900  0.38087500  1
  Ag  Ag7  1  0.09189400  0.13983600  0.11269300  1
  Ag  Ag8  1  0.90810600  0.63983600  0.38730700  1
  Ag  Ag9  1  0.31155100  0.20425000  0.37443600  1
  Ag  Ag10  1  0.40908500  0.12623300  0.62811400  1
  Ag  Ag11  1  0.68844900  0.70425000  0.12556400  1
  Ag  Ag12  1  0.48738900  0.31181900  0.11912500  1
  Ag  Ag13  1  0.59189400  0.36016400  0.88730700  1
  Ag  Ag14  1  0.59091500  0.62623300  0.87188600  1
  Ag  Ag15  1  0.98738900  0.18818100  0.88087500  1
  P  P16  1  0.37828200  0.52581800  0.29911100  1
  P  P17  1  0.57165800  0.99928400  0.04217400  1
  P  P18  1  0.87828200  0.97418200  0.70088900  1
  P  P19  1  0.07165800  0.50071600  0.95782600  1
  P  P20  1  0.12171800  0.47418200  0.79911100  1
  P  P21  1  0.92834200  0.00071600  0.54217400  1
  P  P22  1  0.62171800  0.02581800  0.20088900  1
  P  P23  1  0.42834200  0.49928400  0.45782600  1
  S  S24  1  0.91520000  0.66313500  0.96938400  1
  S  S25  1  0.20664800  0.37979800  0.25514200  1
  S  S26  1  0.70664800  0.12020200  0.74485800  1
  S  S27  1  0.41520000  0.83686500  0.03061600  1
  S  S28  1  0.27517800  0.31488200  0.78608500  1
  S  S29  1  0.39607800  0.14112900  0.99732500  1
  S  S30  1  0.66697200  0.52530800  0.23706600  1
  S  S31  1  0.58480000  0.33686500  0.46938400  1
  S  S32  1  0.63989000  0.00862400  0.48268300  1
  S  S33  1  0.77517800  0.18511800  0.21391500  1
  S  S34  1  0.08480000  0.16313500  0.53061600  1
  S  S35  1  0.22482200  0.68511800  0.28608500  1
  S  S36  1  0.89607800  0.35887100  0.00267500  1
  S  S37  1  0.16697200  0.97469200  0.76293400  1
  S  S38  1  0.13989000  0.49137600  0.51731700  1
  S  S39  1  0.86011000  0.99137600  0.98268300  1
  S  S40  1  0.29335200  0.62020200  0.75514200  1
  S  S41  1  0.79335200  0.87979800  0.24485800  1
  S  S42  1  0.83302800  0.47469200  0.73706600  1
  S  S43  1  0.36011000  0.50862400  0.01731700  1
  S  S44  1  0.60392200  0.64112900  0.50267500  1
  S  S45  1  0.72482200  0.81488200  0.71391500  1
  S  S46  1  0.33302800  0.02530800  0.26293400  1
  S  S47  1  0.10392200  0.85887100  0.49732500  1
