# generated using pymatgen
data_Na5Co2O5
_symmetry_space_group_name_H-M   'P 1'
_cell_length_a   8.55517841
_cell_length_b   8.55517841
_cell_length_c   11.50046418
_cell_angle_alpha   77.10177592
_cell_angle_beta   77.10177592
_cell_angle_gamma   57.04790427
_symmetry_Int_Tables_number   1
_chemical_formula_structural   Na5Co2O5
_chemical_formula_sum   'Na20 Co8 O20'
_cell_volume   683.14333177
_cell_formula_units_Z   4
loop_
 _symmetry_equiv_pos_site_id
 _symmetry_equiv_pos_as_xyz
  1  'x, y, z'
loop_
 _atom_site_type_symbol
 _atom_site_label
 _atom_site_symmetry_multiplicity
 _atom_site_fract_x
 _atom_site_fract_y
 _atom_site_fract_z
 _atom_site_occupancy
  Na  Na0  1  0.32861700  0.99953800  0.96011300  1
  Na  Na1  1  0.62133600  0.40302100  0.37673900  1
  Na  Na2  1  0.99953800  0.32861700  0.46011300  1
  Na  Na3  1  0.59697900  0.37866400  0.12326100  1
  Na  Na4  1  0.40302100  0.62133600  0.87673900  1
  Na  Na5  1  0.98871300  0.79825700  0.81000600  1
  Na  Na6  1  0.37866400  0.59697900  0.62326100  1
  Na  Na7  1  0.79825700  0.98871300  0.31000600  1
  Na  Na8  1  0.60321900  0.79364600  0.48310600  1
  Na  Na9  1  0.67138300  0.00046200  0.03988700  1
  Na  Na10  1  0.43409300  0.77782800  0.21186100  1
  Na  Na11  1  0.39678100  0.20635400  0.51689400  1
  Na  Na12  1  0.20174300  0.01128700  0.68999400  1
  Na  Na13  1  0.20635400  0.39678100  0.01689400  1
  Na  Na14  1  0.22217200  0.56590700  0.28813900  1
  Na  Na15  1  0.79364600  0.60321900  0.98310600  1
  Na  Na16  1  0.00046200  0.67138300  0.53988700  1
  Na  Na17  1  0.56590700  0.22217200  0.78813900  1
  Na  Na18  1  0.01128700  0.20174300  0.18999400  1
  Na  Na19  1  0.77782800  0.43409300  0.71186100  1
  Co  Co20  1  0.18385400  0.91545000  0.44308100  1
  Co  Co21  1  0.38601100  0.14444000  0.26807400  1
  Co  Co22  1  0.08455000  0.81614600  0.05691900  1
  Co  Co23  1  0.85556000  0.61398900  0.23192600  1
  Co  Co24  1  0.81614600  0.08455000  0.55691900  1
  Co  Co25  1  0.91545000  0.18385400  0.94308100  1
  Co  Co26  1  0.14444000  0.38601100  0.76807400  1
  Co  Co27  1  0.61398900  0.85556000  0.73192600  1
  O  O28  1  0.32275100  0.68423000  0.08994300  1
  O  O29  1  0.30711700  0.04285600  0.42883000  1
  O  O30  1  0.31577000  0.67724900  0.41005700  1
  O  O31  1  0.90541100  0.64828200  0.36618900  1
  O  O32  1  0.09458900  0.35171800  0.63381100  1
  O  O33  1  0.64828200  0.90541100  0.86618900  1
  O  O34  1  0.26392100  0.48529600  0.80745800  1
  O  O35  1  0.04285600  0.30711700  0.92883000  1
  O  O36  1  0.73607900  0.51470400  0.19254200  1
  O  O37  1  0.48529600  0.26392100  0.30745800  1
  O  O38  1  0.10260200  0.93965300  0.89231000  1
  O  O39  1  0.95714400  0.69288300  0.07117000  1
  O  O40  1  0.51470400  0.73607900  0.69254200  1
  O  O41  1  0.89739800  0.06034700  0.10769000  1
  O  O42  1  0.68423000  0.32275100  0.58994300  1
  O  O43  1  0.06034700  0.89739800  0.60769000  1
  O  O44  1  0.35171800  0.09458900  0.13381100  1
  O  O45  1  0.93965300  0.10260200  0.39231000  1
  O  O46  1  0.67724900  0.31577000  0.91005700  1
  O  O47  1  0.69288300  0.95714400  0.57117000  1
