# generated using pymatgen
data_Ag3CS(NO2)3
_symmetry_space_group_name_H-M   'P 1'
_cell_length_a   6.59913100
_cell_length_b   7.99327929
_cell_length_c   8.13196815
_cell_angle_alpha   105.37823438
_cell_angle_beta   93.44406134
_cell_angle_gamma   90.53869704
_symmetry_Int_Tables_number   1
_chemical_formula_structural   Ag3CS(NO2)3
_chemical_formula_sum   'Ag6 C2 S2 N6 O12'
_cell_volume   412.70265107
_cell_formula_units_Z   2
loop_
 _symmetry_equiv_pos_site_id
 _symmetry_equiv_pos_as_xyz
  1  'x, y, z'
loop_
 _atom_site_type_symbol
 _atom_site_label
 _atom_site_symmetry_multiplicity
 _atom_site_fract_x
 _atom_site_fract_y
 _atom_site_fract_z
 _atom_site_occupancy
  Ag  Ag0  1  0.44936900  0.27265500  0.14296600  1
  Ag  Ag1  1  0.55063100  0.72734500  0.85703400  1
  Ag  Ag2  1  0.00000000  0.00000000  0.50000000  1
  Ag  Ag3  1  0.02704600  0.64500300  0.82406300  1
  Ag  Ag4  1  0.97295400  0.35499700  0.17593700  1
  Ag  Ag5  1  0.50000000  0.00000000  0.50000000  1
  C  C6  1  0.26983700  0.61121700  0.43555100  1
  C  C7  1  0.73016300  0.38878300  0.56444900  1
  S  S8  1  0.72320300  0.21641000  0.39877100  1
  S  S9  1  0.27679700  0.78359000  0.60122900  1
  N  N10  1  0.68394800  0.67564000  0.21207800  1
  N  N11  1  0.31605200  0.32436000  0.78792200  1
  N  N12  1  0.74126000  0.51445600  0.68115200  1
  N  N13  1  0.82978200  0.06404200  0.86777400  1
  N  N14  1  0.25874000  0.48554400  0.31884800  1
  N  N15  1  0.17021800  0.93595800  0.13222600  1
  O  O16  1  0.75919900  0.05036400  0.00503100  1
  O  O17  1  0.27760200  0.46056200  0.90493500  1
  O  O18  1  0.93273200  0.19628000  0.86367600  1
  O  O19  1  0.72239800  0.53943800  0.09506500  1
  O  O20  1  0.20331600  0.06065800  0.26867300  1
  O  O21  1  0.24080100  0.94963600  0.99496900  1
  O  O22  1  0.57604400  0.79117900  0.17027400  1
  O  O23  1  0.06726800  0.80372000  0.13632400  1
  O  O24  1  0.75000600  0.69514900  0.36431800  1
  O  O25  1  0.24999400  0.30485100  0.63568200  1
  O  O26  1  0.79668400  0.93934200  0.73132700  1
  O  O27  1  0.42395600  0.20882100  0.82972600  1
