# generated using pymatgen
data_KC2IN2
_symmetry_space_group_name_H-M   'P 1'
_cell_length_a   4.43170544
_cell_length_b   4.43170544
_cell_length_c   9.16281263
_cell_angle_alpha   88.79276190
_cell_angle_beta   88.79276190
_cell_angle_gamma   62.99594452
_symmetry_Int_Tables_number   1
_chemical_formula_structural   KC2IN2
_chemical_formula_sum   'K1 C2 I1 N2'
_cell_volume   160.28880002
_cell_formula_units_Z   1
loop_
 _symmetry_equiv_pos_site_id
 _symmetry_equiv_pos_as_xyz
  1  'x, y, z'
loop_
 _atom_site_type_symbol
 _atom_site_label
 _atom_site_symmetry_multiplicity
 _atom_site_fract_x
 _atom_site_fract_y
 _atom_site_fract_z
 _atom_site_occupancy
  K  K0  1  0.50000000  0.50000000  0.50000000  1
  C  C1  1  0.11667700  0.11667700  0.22696400  1
  C  C2  1  0.88332300  0.88332300  0.77303600  1
  I  I3  1  0.00000000  0.00000000  0.00000000  1
  N  N4  1  0.82786700  0.82786700  0.65418500  1
  N  N5  1  0.17213300  0.17213300  0.34581500  1
