# generated using pymatgen
data_Si2H2O3
_symmetry_space_group_name_H-M   'P 1'
_cell_length_a   10.79416965
_cell_length_b   10.79416965
_cell_length_c   14.03598764
_cell_angle_alpha   56.63773090
_cell_angle_beta   56.63773090
_cell_angle_gamma   51.19256191
_symmetry_Int_Tables_number   1
_chemical_formula_structural   Si2H2O3
_chemical_formula_sum   'Si20 H20 O30'
_cell_volume   1010.04945315
_cell_formula_units_Z   10
loop_
 _symmetry_equiv_pos_site_id
 _symmetry_equiv_pos_as_xyz
  1  'x, y, z'
loop_
 _atom_site_type_symbol
 _atom_site_label
 _atom_site_symmetry_multiplicity
 _atom_site_fract_x
 _atom_site_fract_y
 _atom_site_fract_z
 _atom_site_occupancy
  Si  Si0  1  0.31483700  0.68062600  0.89170900  1
  Si  Si1  1  0.31905100  0.69528200  0.61279500  1
  Si  Si2  1  0.69528200  0.31905100  0.11279500  1
  Si  Si3  1  0.68062600  0.31483700  0.39170900  1
  Si  Si4  1  0.23893300  0.12643900  0.73122900  1
  Si  Si5  1  0.90343800  0.71920600  0.77092000  1
  Si  Si6  1  0.71920600  0.90343800  0.27092000  1
  Si  Si7  1  0.12643900  0.23893300  0.23122900  1
  Si  Si8  1  0.85191200  0.36352500  0.78803000  1
  Si  Si9  1  0.60431000  0.20130100  0.70339900  1
  Si  Si10  1  0.20130100  0.60431000  0.20339900  1
  Si  Si11  1  0.36352500  0.85191200  0.28803000  1
  Si  Si12  1  0.86251300  0.35650500  0.53889200  1
  Si  Si13  1  0.65348700  0.14292900  0.95417200  1
  Si  Si14  1  0.14292900  0.65348700  0.45417200  1
  Si  Si15  1  0.35650500  0.86251300  0.03889200  1
  Si  Si16  1  0.25210200  0.12941700  0.46674300  1
  Si  Si17  1  0.86820400  0.77826900  0.01310300  1
  Si  Si18  1  0.77826900  0.86820400  0.51310300  1
  Si  Si19  1  0.12941700  0.25210200  0.96674300  1
  H  H20  1  0.35337000  0.86996700  0.87520600  1
  H  H21  1  0.10860600  0.71917200  0.60162400  1
  H  H22  1  0.71917200  0.10860600  0.10162400  1
  H  H23  1  0.86996700  0.35337000  0.37520600  1
  H  H24  1  0.63875100  0.91269500  0.79560200  1
  H  H25  1  0.91269500  0.63875100  0.29560200  1
  H  H26  1  0.11274000  0.64106300  0.06424800  1
  H  H27  1  0.37586500  0.87511300  0.42793500  1
  H  H28  1  0.87511300  0.37586500  0.92793500  1
  H  H29  1  0.64106300  0.11274000  0.56424800  1
  H  H30  1  0.42536100  0.55871900  0.75901100  1
  H  H31  1  0.55871900  0.42536100  0.25901100  1
  H  H32  1  0.42240900  0.11229300  0.53498400  1
  H  H33  1  0.91831600  0.57156900  0.96337300  1
  H  H34  1  0.57156900  0.91831600  0.46337300  1
  H  H35  1  0.11229300  0.42240900  0.03498400  1
  H  H36  1  0.79416100  0.57148100  0.59971200  1
  H  H37  1  0.41922700  0.21868700  0.89656900  1
  H  H38  1  0.21868700  0.41922700  0.39656900  1
  H  H39  1  0.57148100  0.79416100  0.09971200  1
  O  O40  1  0.28985100  0.88574900  0.83246500  1
  O  O41  1  0.09178600  0.76212800  0.65907400  1
  O  O42  1  0.76212800  0.09178600  0.15907400  1
  O  O43  1  0.88574900  0.28985100  0.33246500  1
  O  O44  1  0.04195500  0.19801500  0.75631500  1
  O  O45  1  0.73832500  0.92766000  0.76149400  1
  O  O46  1  0.92766000  0.73832500  0.26149400  1
  O  O47  1  0.19801500  0.04195500  0.25631500  1
  O  O48  1  0.71977700  0.28473300  0.86092800  1
  O  O49  1  0.75335700  0.24880100  0.64377600  1
  O  O50  1  0.24880100  0.75335700  0.14377600  1
  O  O51  1  0.28473300  0.71977700  0.36092800  1
  O  O52  1  0.05406500  0.19365700  0.54477000  1
  O  O53  1  0.82145700  0.96763600  0.91495200  1
  O  O54  1  0.96763600  0.82145700  0.41495200  1
  O  O55  1  0.19365700  0.05406500  0.04477000  1
  O  O56  1  0.09639500  0.70387500  0.98281900  1
  O  O57  1  0.32335900  0.89427600  0.51149000  1
  O  O58  1  0.89427600  0.32335900  0.01149000  1
  O  O59  1  0.70387500  0.09639500  0.48281900  1
  O  O60  1  0.32901000  0.67178000  0.75271900  1
  O  O61  1  0.67178000  0.32901000  0.25271900  1
  O  O62  1  0.32441200  0.09255300  0.58087400  1
  O  O63  1  0.92512000  0.67658800  0.91160200  1
  O  O64  1  0.67658800  0.92512000  0.41160200  1
  O  O65  1  0.09255300  0.32441200  0.08087400  1
  O  O66  1  0.82206900  0.45232200  0.63645100  1
  O  O67  1  0.53236600  0.21029400  0.85175500  1
  O  O68  1  0.21029400  0.53236600  0.35175500  1
  O  O69  1  0.45232200  0.82206900  0.13645100  1
