# generated using pymatgen
data_Mn7SiO12
_symmetry_space_group_name_H-M   'P 1'
_cell_length_a   12.07370977
_cell_length_b   12.07370977
_cell_length_c   12.07370977
_cell_angle_alpha   131.43181086
_cell_angle_beta   131.43181086
_cell_angle_gamma   71.12791393
_symmetry_Int_Tables_number   1
_chemical_formula_structural   Mn7SiO12
_chemical_formula_sum   'Mn28 Si4 O48'
_cell_volume   968.62969741
_cell_formula_units_Z   4
loop_
 _symmetry_equiv_pos_site_id
 _symmetry_equiv_pos_as_xyz
  1  'x, y, z'
loop_
 _atom_site_type_symbol
 _atom_site_label
 _atom_site_symmetry_multiplicity
 _atom_site_fract_x
 _atom_site_fract_y
 _atom_site_fract_z
 _atom_site_occupancy
  Mn  Mn0  1  0.62500000  0.40377000  0.27877000  1
  Mn  Mn1  1  0.71676900  0.78323100  0.50000000  1
  Mn  Mn2  1  0.09623000  0.87500000  0.72123000  1
  Mn  Mn3  1  0.37500000  0.12500000  0.75000000  1
  Mn  Mn4  1  0.87500000  0.12500000  0.25000000  1
  Mn  Mn5  1  0.87500000  0.62500000  0.75000000  1
  Mn  Mn6  1  0.59623000  0.87500000  0.22123000  1
  Mn  Mn7  1  0.50000000  0.00000000  0.50000000  1
  Mn  Mn8  1  0.37500000  0.62500000  0.75000000  1
  Mn  Mn9  1  0.75000000  0.75000000  0.00000000  1
  Mn  Mn10  1  0.62500000  0.90377000  0.77877000  1
  Mn  Mn11  1  0.12500000  0.34623000  0.72123000  1
  Mn  Mn12  1  0.46676900  0.03323100  0.00000000  1
  Mn  Mn13  1  0.03323100  0.46676900  0.00000000  1
  Mn  Mn14  1  0.15377000  0.37500000  0.27877000  1
  Mn  Mn15  1  0.25000000  0.25000000  0.00000000  1
  Mn  Mn16  1  0.21676900  0.71676900  0.93353700  1
  Mn  Mn17  1  0.87500000  0.62500000  0.25000000  1
  Mn  Mn18  1  0.00000000  0.50000000  0.50000000  1
  Mn  Mn19  1  0.96676900  0.96676900  0.43353700  1
  Mn  Mn20  1  0.87500000  0.12500000  0.75000000  1
  Mn  Mn21  1  0.28323100  0.21676900  0.50000000  1
  Mn  Mn22  1  0.53323100  0.53323100  0.56646300  1
  Mn  Mn23  1  0.65377000  0.37500000  0.77877000  1
  Mn  Mn24  1  0.78323100  0.28323100  0.06646300  1
  Mn  Mn25  1  0.12500000  0.84623000  0.22123000  1
  Mn  Mn26  1  0.37500000  0.12500000  0.25000000  1
  Mn  Mn27  1  0.37500000  0.62500000  0.25000000  1
  Si  Si28  1  0.25000000  0.75000000  0.50000000  1
  Si  Si29  1  0.50000000  0.50000000  0.00000000  1
  Si  Si30  1  0.00000000  0.00000000  0.00000000  1
  Si  Si31  1  0.75000000  0.25000000  0.50000000  1
  O  O32  1  0.67233800  0.51961900  0.53084700  1
  O  O33  1  0.81000400  0.11263800  0.52517600  1
  O  O34  1  0.73825400  0.84144500  0.18374900  1
  O  O35  1  0.30450500  0.98825400  0.39680800  1
  O  O36  1  0.98038100  0.82766200  0.46915300  1
  O  O37  1  0.71517200  0.18999600  0.30263400  1
  O  O38  1  0.44549500  0.26174600  0.10319200  1
  O  O39  1  0.09230300  0.69549500  0.68374900  1
  O  O40  1  0.38736200  0.68999600  0.47482400  1
  O  O41  1  0.93999600  0.13736200  0.97482400  1
  O  O42  1  0.08746200  0.61263800  0.30263400  1
  O  O43  1  0.35850900  0.51122800  0.53084700  1
  O  O44  1  0.48877200  0.01961900  0.84728100  1
  O  O45  1  0.59144500  0.90769700  0.60319200  1
  O  O46  1  0.57766200  0.60850900  0.34728100  1
  O  O47  1  0.23825400  0.05450500  0.89680800  1
  O  O48  1  0.85850900  0.32766200  0.84728100  1
  O  O49  1  0.16253800  0.96517200  0.02517600  1
  O  O50  1  0.65769700  0.55450500  0.81625100  1
  O  O51  1  0.01174600  0.40855400  0.31625100  1
  O  O52  1  0.65855500  0.76174600  0.81625100  1
  O  O53  1  0.26122800  0.23038100  0.65271900  1
  O  O54  1  0.51174600  0.19549500  0.60319200  1
  O  O55  1  0.86263800  0.83746200  0.80263400  1
  O  O56  1  0.03482800  0.06000400  0.19736600  1
  O  O57  1  0.76122800  0.10850900  0.03084700  1
  O  O58  1  0.31000400  0.78482800  0.69736600  1
  O  O59  1  0.53482800  0.33746200  0.97482400  1
  O  O60  1  0.15855400  0.34230300  0.89680800  1
  O  O61  1  0.15769700  0.34144500  0.10319200  1
  O  O62  1  0.89149100  0.92233800  0.65271900  1
  O  O63  1  0.48038100  0.01122800  0.15271900  1
  O  O64  1  0.98877200  0.14149100  0.46915300  1
  O  O65  1  0.36263800  0.56000400  0.02517600  1
  O  O66  1  0.17233800  0.64149100  0.15271900  1
  O  O67  1  0.94549500  0.84230300  0.18374900  1
  O  O68  1  0.21517200  0.91253800  0.52517600  1
  O  O69  1  0.59230300  0.90855400  0.39680800  1
  O  O70  1  0.07766200  0.73038100  0.96915300  1
  O  O71  1  0.39149100  0.73877200  0.96915300  1
  O  O72  1  0.80450500  0.40769700  0.31625100  1
  O  O73  1  0.66253800  0.63736200  0.19736600  1
  O  O74  1  0.26961900  0.23877200  0.34728100  1
  O  O75  1  0.43999600  0.46517200  0.80263400  1
  O  O76  1  0.09144500  0.48825400  0.68374900  1
  O  O77  1  0.76961900  0.42233800  0.03084700  1
  O  O78  1  0.58746200  0.28482800  0.47482400  1
  O  O79  1  0.88736200  0.41253800  0.69736600  1
