# generated using pymatgen
data_Mg2Tl
_symmetry_space_group_name_H-M   'P 1'
_cell_length_a   8.35931239
_cell_length_b   8.35931239
_cell_length_c   3.58043100
_cell_angle_alpha   90.00000000
_cell_angle_beta   90.00000000
_cell_angle_gamma   120.00000308
_symmetry_Int_Tables_number   1
_chemical_formula_structural   Mg2Tl
_chemical_formula_sum   'Mg6 Tl3'
_cell_volume   216.67411797
_cell_formula_units_Z   3
loop_
 _symmetry_equiv_pos_site_id
 _symmetry_equiv_pos_as_xyz
  1  'x, y, z'
loop_
 _atom_site_type_symbol
 _atom_site_label
 _atom_site_symmetry_multiplicity
 _atom_site_fract_x
 _atom_site_fract_y
 _atom_site_fract_z
 _atom_site_occupancy
  Mg  Mg0  1  0.28629100  0.00000000  0.00000000  1
  Mg  Mg1  1  0.37153700  0.37153700  0.50000000  1
  Mg  Mg2  1  0.00000000  0.28629100  0.00000000  1
  Mg  Mg3  1  0.62846300  0.00000000  0.50000000  1
  Mg  Mg4  1  0.00000000  0.62846300  0.50000000  1
  Mg  Mg5  1  0.71370900  0.71370900  0.00000000  1
  Tl  Tl6  1  0.33333300  0.66666700  0.00000000  1
  Tl  Tl7  1  0.00000000  0.00000000  0.50000000  1
  Tl  Tl8  1  0.66666700  0.33333300  0.00000000  1
