# generated using pymatgen
data_K3Bi5(AsO4)6
_symmetry_space_group_name_H-M   'P 1'
_cell_length_a   9.90484197
_cell_length_b   9.90484197
_cell_length_c   19.49083486
_cell_angle_alpha   66.61894828
_cell_angle_beta   66.61894828
_cell_angle_gamma   43.33162111
_symmetry_Int_Tables_number   1
_chemical_formula_structural   K3Bi5(AsO4)6
_chemical_formula_sum   'K6 Bi10 As12 O48'
_cell_volume   1186.52135780
_cell_formula_units_Z   2
loop_
 _symmetry_equiv_pos_site_id
 _symmetry_equiv_pos_as_xyz
  1  'x, y, z'
loop_
 _atom_site_type_symbol
 _atom_site_label
 _atom_site_symmetry_multiplicity
 _atom_site_fract_x
 _atom_site_fract_y
 _atom_site_fract_z
 _atom_site_occupancy
  K  K0  1  0.30585800  0.69414200  0.25000000  1
  K  K1  1  0.46567100  0.68538700  0.41765500  1
  K  K2  1  0.68538700  0.46567100  0.91765500  1
  K  K3  1  0.31461300  0.53432900  0.08234500  1
  K  K4  1  0.69414200  0.30585800  0.75000000  1
  K  K5  1  0.53432900  0.31461300  0.58234500  1
  Bi  Bi6  1  0.82180500  0.61502900  0.20153400  1
  Bi  Bi7  1  0.95916400  0.76735700  0.47271400  1
  Bi  Bi8  1  0.76735700  0.95916400  0.97271400  1
  Bi  Bi9  1  0.84111500  0.15888500  0.25000000  1
  Bi  Bi10  1  0.61502900  0.82180500  0.70153400  1
  Bi  Bi11  1  0.38497100  0.17819500  0.29846600  1
  Bi  Bi12  1  0.23264300  0.04083600  0.02728600  1
  Bi  Bi13  1  0.17819500  0.38497100  0.79846600  1
  Bi  Bi14  1  0.04083600  0.23264300  0.52728600  1
  Bi  Bi15  1  0.15888500  0.84111500  0.75000000  1
  As  As16  1  0.28898200  0.44948800  0.91407100  1
  As  As17  1  0.91129300  0.66302300  0.34590600  1
  As  As18  1  0.71101800  0.55051200  0.08592900  1
  As  As19  1  0.08870700  0.33697700  0.65409400  1
  As  As20  1  0.44948800  0.28898200  0.41407100  1
  As  As21  1  0.55051200  0.71101800  0.58592900  1
  As  As22  1  0.66302300  0.91129300  0.84590600  1
  As  As23  1  0.83537800  0.02330800  0.11621100  1
  As  As24  1  0.33697700  0.08870700  0.15409400  1
  As  As25  1  0.97669200  0.16462200  0.38378900  1
  As  As26  1  0.16462200  0.97669200  0.88378900  1
  As  As27  1  0.02330800  0.83537800  0.61621100  1
  O  O28  1  0.70049800  0.46383700  0.18513200  1
  O  O29  1  0.85076500  0.37071800  0.03392900  1
  O  O30  1  0.65227000  0.80471600  0.57725800  1
  O  O31  1  0.33787300  0.83321000  0.81260000  1
  O  O32  1  0.46033600  0.71722500  0.08216100  1
  O  O33  1  0.66212700  0.16679000  0.18740000  1
  O  O34  1  0.56225300  0.90658600  0.94028500  1
  O  O35  1  0.71722500  0.46033600  0.58216100  1
  O  O36  1  0.87332400  0.49252200  0.71620600  1
  O  O37  1  0.14810300  0.74363200  0.53274500  1
  O  O38  1  0.34773000  0.19528400  0.42274200  1
  O  O39  1  0.28277500  0.53966400  0.41783900  1
  O  O40  1  0.84941600  0.89790900  0.84185800  1
  O  O41  1  0.19836300  0.10545300  0.36890100  1
  O  O42  1  0.19528400  0.34773000  0.92274200  1
  O  O43  1  0.89790900  0.84941600  0.34185800  1
  O  O44  1  0.46383700  0.70049800  0.68513200  1
  O  O45  1  0.75531000  0.71601300  0.81174700  1
  O  O46  1  0.85189700  0.25636800  0.46725500  1
  O  O47  1  0.25636800  0.85189700  0.96725500  1
  O  O48  1  0.53616300  0.29950200  0.31486800  1
  O  O49  1  0.15058400  0.10209100  0.15814200  1
  O  O50  1  0.05032400  0.95223000  0.12114900  1
  O  O51  1  0.80163700  0.89454700  0.63109900  1
  O  O52  1  0.53966400  0.28277500  0.91783900  1
  O  O53  1  0.24469000  0.28398700  0.18825300  1
  O  O54  1  0.50747800  0.12667600  0.78379400  1
  O  O55  1  0.14923500  0.62928200  0.96607100  1
  O  O56  1  0.95223000  0.05032400  0.62114900  1
  O  O57  1  0.10209100  0.15058400  0.65814200  1
  O  O58  1  0.16679000  0.66212700  0.68740000  1
  O  O59  1  0.37071800  0.85076500  0.53392900  1
  O  O60  1  0.04777000  0.94967600  0.37885100  1
  O  O61  1  0.94967600  0.04777000  0.87885100  1
  O  O62  1  0.43774700  0.09341400  0.05971500  1
  O  O63  1  0.28398700  0.24469000  0.68825300  1
  O  O64  1  0.62928200  0.14923500  0.46607100  1
  O  O65  1  0.80471600  0.65227000  0.07725800  1
  O  O66  1  0.90658600  0.56225300  0.44028500  1
  O  O67  1  0.83321000  0.33787300  0.31260000  1
  O  O68  1  0.09341400  0.43774700  0.55971500  1
  O  O69  1  0.12667600  0.50747800  0.28379400  1
  O  O70  1  0.71601300  0.75531000  0.31174700  1
  O  O71  1  0.89454700  0.80163700  0.13109900  1
  O  O72  1  0.29950200  0.53616300  0.81486800  1
  O  O73  1  0.74363200  0.14810300  0.03274500  1
  O  O74  1  0.49252200  0.87332400  0.21620600  1
  O  O75  1  0.10545300  0.19836300  0.86890100  1
