# generated using pymatgen
data_SiO2
_symmetry_space_group_name_H-M   'P 1'
_cell_length_a   6.90483843
_cell_length_b   6.90483843
_cell_length_c   6.90483843
_cell_angle_alpha   98.37758591
_cell_angle_beta   98.37758591
_cell_angle_gamma   135.12176862
_symmetry_Int_Tables_number   1
_chemical_formula_structural   SiO2
_chemical_formula_sum   'Si4 O8'
_cell_volume   214.69742064
_cell_formula_units_Z   4
loop_
 _symmetry_equiv_pos_site_id
 _symmetry_equiv_pos_as_xyz
  1  'x, y, z'
loop_
 _atom_site_type_symbol
 _atom_site_label
 _atom_site_symmetry_multiplicity
 _atom_site_fract_x
 _atom_site_fract_y
 _atom_site_fract_z
 _atom_site_occupancy
  Si  Si0  1  0.17670000  0.17670000  0.35340000  1
  Si  Si1  1  0.82330000  0.17670000  0.00000000  1
  Si  Si2  1  0.17670000  0.82330000  0.00000000  1
  Si  Si3  1  0.82330000  0.82330000  0.64660000  1
  O  O4  1  0.50000000  0.50000000  0.50000000  1
  O  O5  1  0.00000000  0.50000000  0.00000000  1
  O  O6  1  0.50000000  0.00000000  0.00000000  1
  O  O7  1  0.00000000  0.00000000  0.50000000  1
  O  O8  1  0.00000000  0.20892300  0.20892300  1
  O  O9  1  0.79107700  0.00000000  0.79107700  1
  O  O10  1  0.20892300  0.00000000  0.20892300  1
  O  O11  1  0.00000000  0.79107700  0.79107700  1
