# generated using pymatgen
data_BaCu(SiO3)2
_symmetry_space_group_name_H-M   'P 1'
_cell_length_a   13.48663774
_cell_length_b   13.48663774
_cell_length_c   13.48663774
_cell_angle_alpha   136.19720790
_cell_angle_beta   136.19720790
_cell_angle_gamma   63.67559567
_symmetry_Int_Tables_number   1
_chemical_formula_structural   BaCu(SiO3)2
_chemical_formula_sum   'Ba8 Cu8 Si16 O48'
_cell_volume   1159.84312031
_cell_formula_units_Z   8
loop_
 _symmetry_equiv_pos_site_id
 _symmetry_equiv_pos_as_xyz
  1  'x, y, z'
loop_
 _atom_site_type_symbol
 _atom_site_label
 _atom_site_symmetry_multiplicity
 _atom_site_fract_x
 _atom_site_fract_y
 _atom_site_fract_z
 _atom_site_occupancy
  Ba  Ba0  1  0.12500000  0.13808000  0.51308000  1
  Ba  Ba1  1  0.62500000  0.61192000  0.48692000  1
  Ba  Ba2  1  0.12500000  0.63808000  0.01308000  1
  Ba  Ba3  1  0.62500000  0.11192000  0.98692000  1
  Ba  Ba4  1  0.38808000  0.87500000  0.01308000  1
  Ba  Ba5  1  0.88808000  0.87500000  0.51308000  1
  Ba  Ba6  1  0.86192000  0.37500000  0.98692000  1
  Ba  Ba7  1  0.36192000  0.37500000  0.48692000  1
  Cu  Cu8  1  0.69155400  0.69155400  0.00000000  1
  Cu  Cu9  1  0.30844600  0.30844600  0.00000000  1
  Cu  Cu10  1  0.19155400  0.19155400  0.00000000  1
  Cu  Cu11  1  0.80844600  0.80844600  0.00000000  1
  Cu  Cu12  1  0.05844600  0.55844600  0.50000000  1
  Cu  Cu13  1  0.94155400  0.44155400  0.50000000  1
  Cu  Cu14  1  0.44155400  0.94155400  0.50000000  1
  Cu  Cu15  1  0.55844600  0.05844600  0.50000000  1
  Si  Si16  1  0.50173000  0.72447400  0.22539900  1
  Si  Si17  1  0.02633100  0.75173000  0.27725600  1
  Si  Si18  1  0.77552600  0.99827000  0.77460100  1
  Si  Si19  1  0.99907500  0.22447400  0.22274400  1
  Si  Si20  1  0.52633100  0.24907500  0.27460100  1
  Si  Si21  1  0.47447400  0.74907500  0.72274400  1
  Si  Si22  1  0.24827000  0.52552600  0.27460100  1
  Si  Si23  1  0.27552600  0.50092500  0.77725600  1
  Si  Si24  1  0.72366900  0.49827000  0.22274400  1
  Si  Si25  1  0.74827000  0.47366900  0.72274400  1
  Si  Si26  1  0.00173000  0.77633100  0.77725600  1
  Si  Si27  1  0.49907500  0.27633100  0.77460100  1
  Si  Si28  1  0.75092500  0.02552600  0.27725600  1
  Si  Si29  1  0.22366900  0.00092500  0.22539900  1
  Si  Si30  1  0.97447400  0.25173000  0.72539900  1
  Si  Si31  1  0.25092500  0.97366900  0.72539900  1
  O  O32  1  0.11670800  0.34432300  0.84173500  1
  O  O33  1  0.34083000  0.49992700  0.22399400  1
  O  O34  1  0.00007300  0.15917000  0.77600600  1
  O  O35  1  0.90917000  0.63316400  0.65909700  1
  O  O36  1  0.85964400  0.36069900  0.75484000  1
  O  O37  1  0.24741200  0.97502600  0.34173500  1
  O  O38  1  0.10585900  0.86069900  0.50105500  1
  O  O39  1  0.74741200  0.40567700  0.27238600  1
  O  O40  1  0.24992700  0.52593300  0.65909700  1
  O  O41  1  0.63329200  0.90567700  0.65826500  1
  O  O42  1  0.60585900  0.10480400  0.24516000  1
  O  O43  1  0.27593300  0.11683600  0.77600600  1
  O  O44  1  0.86683600  0.59083000  0.34090300  1
  O  O45  1  0.89519600  0.14035600  0.50105500  1
  O  O46  1  0.52497400  0.25258800  0.65826500  1
  O  O47  1  0.02497400  0.36670800  0.27238600  1
  O  O48  1  0.39519600  0.89414100  0.75484000  1
  O  O49  1  0.00258800  0.84432300  0.22761400  1
  O  O50  1  0.47406700  0.13316400  0.72399400  1
  O  O51  1  0.61069900  0.60964400  0.25484000  1
  O  O52  1  0.63930100  0.39414100  0.49894500  1
  O  O53  1  0.61670800  0.77497400  0.77238600  1
  O  O54  1  0.13329200  0.47502600  0.72761400  1
  O  O55  1  0.59432300  0.86670800  0.34173500  1
  O  O56  1  0.89035600  0.88930100  0.74516000  1
  O  O57  1  0.39035600  0.64519600  0.00105500  1
  O  O58  1  0.84083000  0.61683600  0.84090300  1
  O  O59  1  0.72502600  0.88329200  0.22761400  1
  O  O60  1  0.09432300  0.75258800  0.72761400  1
  O  O61  1  0.22502600  0.99741200  0.84173500  1
  O  O62  1  0.40917000  0.75007300  0.27600600  1
  O  O63  1  0.15567700  0.38329200  0.15826500  1
  O  O64  1  0.65567700  0.49741200  0.77238600  1
  O  O65  1  0.97406700  0.25007300  0.34090300  1
  O  O66  1  0.35964400  0.60480400  0.49894500  1
  O  O67  1  0.14414100  0.14519600  0.25484000  1
  O  O68  1  0.38316400  0.22406700  0.22399400  1
  O  O69  1  0.77593300  0.99992700  0.15909700  1
  O  O70  1  0.13930100  0.64035600  0.24516000  1
  O  O71  1  0.88316400  0.65917000  0.15909700  1
  O  O72  1  0.11069900  0.85585900  0.00105500  1
  O  O73  1  0.50258800  0.27497400  0.15826500  1
  O  O74  1  0.35480400  0.35585900  0.74516000  1
  O  O75  1  0.74992700  0.09083000  0.72399400  1
  O  O76  1  0.85480400  0.10964400  0.99894500  1
  O  O77  1  0.36683600  0.02593300  0.27600600  1
  O  O78  1  0.50007300  0.72406700  0.84090300  1
  O  O79  1  0.64414100  0.38930100  0.99894500  1
