# generated using pymatgen
data_Ba5P9
_symmetry_space_group_name_H-M   'P 1'
_cell_length_a   12.44393751
_cell_length_b   10.92576555
_cell_length_c   9.45378323
_cell_angle_alpha   74.87705651
_cell_angle_beta   57.95076461
_cell_angle_gamma   47.17217887
_symmetry_Int_Tables_number   1
_chemical_formula_structural   Ba5P9
_chemical_formula_sum   'Ba10 P18'
_cell_volume   788.62027476
_cell_formula_units_Z   2
loop_
 _symmetry_equiv_pos_site_id
 _symmetry_equiv_pos_as_xyz
  1  'x, y, z'
loop_
 _atom_site_type_symbol
 _atom_site_label
 _atom_site_symmetry_multiplicity
 _atom_site_fract_x
 _atom_site_fract_y
 _atom_site_fract_z
 _atom_site_occupancy
  Ba  Ba0  1  0.62228700  0.01113700  0.35049200  1
  Ba  Ba1  1  0.83919700  0.66080300  0.66080300  1
  Ba  Ba2  1  0.23886300  0.62771300  0.23391600  1
  Ba  Ba3  1  0.01608400  0.35049200  0.01113700  1
  Ba  Ba4  1  0.09973700  0.68209700  0.86812200  1
  Ba  Ba5  1  0.58919700  0.41080300  0.41080300  1
  Ba  Ba6  1  0.56790300  0.15026300  0.89995500  1
  Ba  Ba7  1  0.38187800  0.89995500  0.15026300  1
  Ba  Ba8  1  0.35004500  0.86812200  0.68209700  1
  Ba  Ba9  1  0.89950800  0.23391600  0.62771300  1
  P  P10  1  0.53157900  0.61411100  0.89175400  1
  P  P11  1  0.02536200  0.53179100  0.24810600  1
  P  P12  1  0.75286000  0.76747900  0.03648200  1
  P  P13  1  0.97409800  0.02590200  0.02590200  1
  P  P14  1  0.71820900  0.22463800  0.05525800  1
  P  P15  1  0.22409800  0.27590200  0.27590200  1
  P  P16  1  0.44317800  0.03648200  0.76747900  1
  P  P17  1  0.00189400  0.05525800  0.22463800  1
  P  P18  1  0.19474200  0.24810600  0.53179100  1
  P  P19  1  0.25642800  0.39127300  0.54495100  1
  P  P20  1  0.35824600  0.28744400  0.71842100  1
  P  P21  1  0.21351800  0.80682200  0.49714000  1
  P  P22  1  0.96255600  0.89175400  0.61411100  1
  P  P23  1  0.63588900  0.71842100  0.28744400  1
  P  P24  1  0.48252100  0.49714000  0.80682200  1
  P  P25  1  0.70504900  0.44265200  0.99357200  1
  P  P26  1  0.80734800  0.54495100  0.39127300  1
  P  P27  1  0.85872700  0.99357200  0.44265200  1
