# generated using pymatgen
data_TeI4
_symmetry_space_group_name_H-M   'P 1'
_cell_length_a   7.54792900
_cell_length_b   15.18875100
_cell_length_c   17.42256700
_cell_angle_alpha   90.00000000
_cell_angle_beta   90.00000000
_cell_angle_gamma   90.00000000
_symmetry_Int_Tables_number   1
_chemical_formula_structural   TeI4
_chemical_formula_sum   'Te8 I32'
_cell_volume   1997.38604859
_cell_formula_units_Z   8
loop_
 _symmetry_equiv_pos_site_id
 _symmetry_equiv_pos_as_xyz
  1  'x, y, z'
loop_
 _atom_site_type_symbol
 _atom_site_label
 _atom_site_symmetry_multiplicity
 _atom_site_fract_x
 _atom_site_fract_y
 _atom_site_fract_z
 _atom_site_occupancy
  Te  Te0  1  0.26876200  0.39760100  0.00000000  1
  Te  Te1  1  0.74453500  0.16345900  0.36043500  1
  Te  Te2  1  0.25546500  0.66345900  0.86043500  1
  Te  Te3  1  0.24981600  0.92948400  0.00000000  1
  Te  Te4  1  0.74453500  0.16345900  0.63956500  1
  Te  Te5  1  0.73123800  0.89760100  0.50000000  1
  Te  Te6  1  0.75018400  0.42948400  0.50000000  1
  Te  Te7  1  0.25546500  0.66345900  0.13956500  1
  I  I8  1  0.52083700  0.83059200  0.61872300  1
  I  I9  1  0.97804500  0.24865500  0.50000000  1
  I  I10  1  0.51081500  0.08081300  0.50000000  1
  I  I11  1  0.48675200  0.82368200  0.12661500  1
  I  I12  1  0.98189100  0.76183400  0.50000000  1
  I  I13  1  0.02873800  0.73899600  0.75180100  1
  I  I14  1  0.48675200  0.82368200  0.87338500  1
  I  I15  1  0.04330900  0.99935700  0.11919900  1
  I  I16  1  0.95669100  0.49935700  0.38080100  1
  I  I17  1  0.02621100  0.50277600  0.87364500  1
  I  I18  1  0.47916300  0.33059200  0.11872300  1
  I  I19  1  0.51488300  0.08716900  0.74622500  1
  I  I20  1  0.97126200  0.23899600  0.25180100  1
  I  I21  1  0.97378900  0.00277600  0.37364500  1
  I  I22  1  0.48511700  0.58716900  0.24622500  1
  I  I23  1  0.48511700  0.58716900  0.75377500  1
  I  I24  1  0.97378900  0.00277600  0.62635500  1
  I  I25  1  0.95669100  0.49935700  0.61919900  1
  I  I26  1  0.52083700  0.83059200  0.38127700  1
  I  I27  1  0.02195500  0.74865500  0.00000000  1
  I  I28  1  0.47916300  0.33059200  0.88127700  1
  I  I29  1  0.49386900  0.56255100  0.50000000  1
  I  I30  1  0.51324800  0.32368200  0.37338500  1
  I  I31  1  0.04330900  0.99935700  0.88080100  1
  I  I32  1  0.02621100  0.50277600  0.12635500  1
  I  I33  1  0.97126200  0.23899600  0.74819900  1
  I  I34  1  0.48918500  0.58081300  0.00000000  1
  I  I35  1  0.01810900  0.26183400  0.00000000  1
  I  I36  1  0.51324800  0.32368200  0.62661500  1
  I  I37  1  0.51488300  0.08716900  0.25377500  1
  I  I38  1  0.50613100  0.06255100  0.00000000  1
  I  I39  1  0.02873800  0.73899600  0.24819900  1
