# generated using pymatgen
data_Fe2BO4
_symmetry_space_group_name_H-M   'P 1'
_cell_length_a   6.34830194
_cell_length_b   9.47414200
_cell_length_c   9.37163498
_cell_angle_alpha   90.00000000
_cell_angle_beta   90.51438962
_cell_angle_gamma   90.00000000
_symmetry_Int_Tables_number   1
_chemical_formula_structural   Fe2BO4
_chemical_formula_sum   'Fe16 B8 O32'
_cell_volume   563.63159084
_cell_formula_units_Z   8
loop_
 _symmetry_equiv_pos_site_id
 _symmetry_equiv_pos_as_xyz
  1  'x, y, z'
loop_
 _atom_site_type_symbol
 _atom_site_label
 _atom_site_symmetry_multiplicity
 _atom_site_fract_x
 _atom_site_fract_y
 _atom_site_fract_z
 _atom_site_occupancy
  Fe  Fe0  1  0.66515900  0.44380200  0.49355500  1
  Fe  Fe1  1  0.66515900  0.55619800  0.99355500  1
  Fe  Fe2  1  0.41392200  0.68380500  0.27136800  1
  Fe  Fe3  1  0.41392200  0.31619500  0.77136800  1
  Fe  Fe4  1  0.16643200  0.81314100  0.50075000  1
  Fe  Fe5  1  0.16643200  0.18685900  0.00075000  1
  Fe  Fe6  1  0.91545200  0.94527300  0.78622900  1
  Fe  Fe7  1  0.91545200  0.05472700  0.28622900  1
  Fe  Fe8  1  0.16593500  0.55640800  0.99958600  1
  Fe  Fe9  1  0.16593500  0.44359200  0.49958600  1
  Fe  Fe10  1  0.91566600  0.68060100  0.27009600  1
  Fe  Fe11  1  0.91566600  0.31939900  0.77009600  1
  Fe  Fe12  1  0.66488000  0.81460300  0.50559200  1
  Fe  Fe13  1  0.66488000  0.18539700  0.00559200  1
  Fe  Fe14  1  0.41462700  0.94080000  0.78528400  1
  Fe  Fe15  1  0.41462700  0.05920000  0.28528400  1
  B  B16  1  0.15600400  0.12563800  0.55470100  1
  B  B17  1  0.15600400  0.87436200  0.05470100  1
  B  B18  1  0.67724500  0.12681900  0.55309800  1
  B  B19  1  0.67724500  0.87318100  0.05309800  1
  B  B20  1  0.90900100  0.37592500  0.22580300  1
  B  B21  1  0.90900100  0.62407500  0.72580300  1
  B  B22  1  0.42176200  0.37619000  0.22409000  1
  B  B23  1  0.42176200  0.62381000  0.72409000  1
  O  O24  1  0.90608400  0.49891700  0.14510300  1
  O  O25  1  0.90608400  0.50108300  0.64510300  1
  O  O26  1  0.42549300  0.37987900  0.37005700  1
  O  O27  1  0.42549300  0.62012100  0.87005700  1
  O  O28  1  0.66337800  0.63252800  0.41121600  1
  O  O29  1  0.66337800  0.36747200  0.91121600  1
  O  O30  1  0.16967000  0.74544500  0.12001100  1
  O  O31  1  0.16967000  0.25455500  0.62001100  1
  O  O32  1  0.41638500  0.75516300  0.65461500  1
  O  O33  1  0.41638500  0.24483700  0.15461500  1
  O  O34  1  0.91364500  0.86903800  0.38289800  1
  O  O35  1  0.91364500  0.13096200  0.88289800  1
  O  O36  1  0.14926900  0.88408300  0.90812700  1
  O  O37  1  0.14926900  0.11591700  0.40812700  1
  O  O38  1  0.68083100  0.00050200  0.63291100  1
  O  O39  1  0.68083100  0.99949800  0.13291100  1
  O  O40  1  0.42602700  0.50069800  0.14545800  1
  O  O41  1  0.42602700  0.49930200  0.64545800  1
  O  O42  1  0.90388800  0.38207800  0.37154400  1
  O  O43  1  0.90388800  0.61792200  0.87154400  1
  O  O44  1  0.16208600  0.63325100  0.40747700  1
  O  O45  1  0.16208600  0.36674900  0.90747700  1
  O  O46  1  0.66935200  0.74316200  0.11909100  1
  O  O47  1  0.66935200  0.25683800  0.61909100  1
  O  O48  1  0.91473400  0.75672800  0.65823500  1
  O  O49  1  0.91473400  0.24327200  0.15823500  1
  O  O50  1  0.41569900  0.86956000  0.38883000  1
  O  O51  1  0.41569900  0.13044000  0.88883000  1
  O  O52  1  0.68206300  0.88252600  0.90740700  1
  O  O53  1  0.68206300  0.11747400  0.40740700  1
  O  O54  1  0.14819100  0.99839300  0.63350000  1
  O  O55  1  0.14819100  0.00160700  0.13350000  1
