# generated using pymatgen
data_TlCu2P2O7
_symmetry_space_group_name_H-M   'P 1'
_cell_length_a   8.98774700
_cell_length_b   9.39046400
_cell_length_c   16.70623200
_cell_angle_alpha   90.00000000
_cell_angle_beta   90.00000000
_cell_angle_gamma   90.00000000
_symmetry_Int_Tables_number   1
_chemical_formula_structural   TlCu2P2O7
_chemical_formula_sum   'Tl8 Cu16 P16 O56'
_cell_volume   1409.99118985
_cell_formula_units_Z   8
loop_
 _symmetry_equiv_pos_site_id
 _symmetry_equiv_pos_as_xyz
  1  'x, y, z'
loop_
 _atom_site_type_symbol
 _atom_site_label
 _atom_site_symmetry_multiplicity
 _atom_site_fract_x
 _atom_site_fract_y
 _atom_site_fract_z
 _atom_site_occupancy
  Tl  Tl0  1  0.70789700  0.50147900  0.66748500  1
  Tl  Tl1  1  0.70789700  0.99852100  0.16748500  1
  Tl  Tl2  1  0.20789700  0.50147900  0.83251500  1
  Tl  Tl3  1  0.79210300  0.00147900  0.66748500  1
  Tl  Tl4  1  0.29210300  0.00147900  0.83251500  1
  Tl  Tl5  1  0.29210300  0.49852100  0.33251500  1
  Tl  Tl6  1  0.20789700  0.99852100  0.33251500  1
  Tl  Tl7  1  0.79210300  0.49852100  0.16748500  1
  Cu  Cu8  1  0.04646900  0.75857600  0.68243900  1
  Cu  Cu9  1  0.95353100  0.25857600  0.81756100  1
  Cu  Cu10  1  0.72178500  0.02109300  0.93325000  1
  Cu  Cu11  1  0.22178500  0.47890700  0.06675000  1
  Cu  Cu12  1  0.27821500  0.52109300  0.56675000  1
  Cu  Cu13  1  0.54646900  0.75857600  0.81756100  1
  Cu  Cu14  1  0.04646900  0.74142400  0.18243900  1
  Cu  Cu15  1  0.95353100  0.24142400  0.31756100  1
  Cu  Cu16  1  0.77821500  0.52109300  0.93325000  1
  Cu  Cu17  1  0.54646900  0.74142400  0.31756100  1
  Cu  Cu18  1  0.45353100  0.24142400  0.18243900  1
  Cu  Cu19  1  0.77821500  0.97890700  0.43325000  1
  Cu  Cu20  1  0.45353100  0.25857600  0.68243900  1
  Cu  Cu21  1  0.27821500  0.97890700  0.06675000  1
  Cu  Cu22  1  0.22178500  0.02109300  0.56675000  1
  Cu  Cu23  1  0.72178500  0.47890700  0.43325000  1
  P  P24  1  0.92526400  0.71078400  0.51769400  1
  P  P25  1  0.92410800  0.71484100  0.34973800  1
  P  P26  1  0.42410800  0.71484100  0.15026200  1
  P  P27  1  0.07589200  0.21484100  0.15026200  1
  P  P28  1  0.57473600  0.21078400  0.51769400  1
  P  P29  1  0.07473600  0.21078400  0.98230600  1
  P  P30  1  0.42526400  0.78921600  0.48230600  1
  P  P31  1  0.92526400  0.78921600  0.01769400  1
  P  P32  1  0.57473600  0.28921600  0.01769400  1
  P  P33  1  0.57589200  0.21484100  0.34973800  1
  P  P34  1  0.92410800  0.78515900  0.84973800  1
  P  P35  1  0.42410800  0.78515900  0.65026200  1
  P  P36  1  0.57589200  0.28515900  0.84973800  1
  P  P37  1  0.42526400  0.71078400  0.98230600  1
  P  P38  1  0.07473600  0.28921600  0.48230600  1
  P  P39  1  0.07589200  0.28515900  0.65026200  1
  O  O40  1  0.45523200  0.17989000  0.58121000  1
  O  O41  1  0.37879800  0.62751700  0.65341800  1
  O  O42  1  0.62725200  0.36636500  0.52049300  1
  O  O43  1  0.12120200  0.37248300  0.15341800  1
  O  O44  1  0.01228400  0.68753600  0.43322600  1
  O  O45  1  0.51228400  0.68753600  0.06677400  1
  O  O46  1  0.04476800  0.82011000  0.08121000  1
  O  O47  1  0.79879800  0.60089400  0.51968700  1
  O  O48  1  0.79879800  0.89910600  0.01968700  1
  O  O49  1  0.62725200  0.13363500  0.02049300  1
  O  O50  1  0.95390600  0.18046400  0.21241300  1
  O  O51  1  0.70828300  0.38849200  0.84671300  1
  O  O52  1  0.87274800  0.86636500  0.52049300  1
  O  O53  1  0.29879800  0.60089400  0.98031300  1
  O  O54  1  0.54609400  0.68046400  0.21241300  1
  O  O55  1  0.45523200  0.32011000  0.08121000  1
  O  O56  1  0.95390600  0.31953600  0.71241300  1
  O  O57  1  0.20120200  0.10089400  0.98031300  1
  O  O58  1  0.20120200  0.39910600  0.48031300  1
  O  O59  1  0.70828300  0.11150800  0.34671300  1
  O  O60  1  0.45390600  0.18046400  0.28758700  1
  O  O61  1  0.98771600  0.31246400  0.56677400  1
  O  O62  1  0.62120200  0.37248300  0.34658200  1
  O  O63  1  0.62120200  0.12751700  0.84658200  1
  O  O64  1  0.54476800  0.82011000  0.41879000  1
  O  O65  1  0.37274800  0.86636500  0.97950700  1
  O  O66  1  0.12725200  0.13363500  0.47950700  1
  O  O67  1  0.20828300  0.38849200  0.65328700  1
  O  O68  1  0.29171700  0.61150800  0.15328700  1
  O  O69  1  0.70120200  0.39910600  0.01968700  1
  O  O70  1  0.29171700  0.88849200  0.65328700  1
  O  O71  1  0.95523200  0.17989000  0.91879000  1
  O  O72  1  0.04609400  0.68046400  0.28758700  1
  O  O73  1  0.45390600  0.31953600  0.78758700  1
  O  O74  1  0.79171700  0.61150800  0.34671300  1
  O  O75  1  0.04609400  0.81953600  0.78758700  1
  O  O76  1  0.87274800  0.63363500  0.02049300  1
  O  O77  1  0.54476800  0.67989000  0.91879000  1
  O  O78  1  0.87879800  0.62751700  0.84658200  1
  O  O79  1  0.48771600  0.18753600  0.43322600  1
  O  O80  1  0.70120200  0.10089400  0.51968700  1
  O  O81  1  0.98771600  0.18753600  0.06677400  1
  O  O82  1  0.54609400  0.81953600  0.71241300  1
  O  O83  1  0.12725200  0.36636500  0.97950700  1
  O  O84  1  0.20828300  0.11150800  0.15328700  1
  O  O85  1  0.37879800  0.87248300  0.15341800  1
  O  O86  1  0.95523200  0.32011000  0.41879000  1
  O  O87  1  0.12120200  0.12751700  0.65341800  1
  O  O88  1  0.51228400  0.81246400  0.56677400  1
  O  O89  1  0.29879800  0.89910600  0.48031300  1
  O  O90  1  0.01228400  0.81246400  0.93322600  1
  O  O91  1  0.79171700  0.88849200  0.84671300  1
  O  O92  1  0.87879800  0.87248300  0.34658200  1
  O  O93  1  0.48771600  0.31246400  0.93322600  1
  O  O94  1  0.04476800  0.67989000  0.58121000  1
  O  O95  1  0.37274800  0.63363500  0.47950700  1
