# generated using pymatgen
data_PbI2
_symmetry_space_group_name_H-M   'P 1'
_cell_length_a   4.66789059
_cell_length_b   4.66789059
_cell_length_c   37.62898700
_cell_angle_alpha   90.00000000
_cell_angle_beta   90.00000000
_cell_angle_gamma   120.00000832
_symmetry_Int_Tables_number   1
_chemical_formula_structural   PbI2
_chemical_formula_sum   'Pb5 I10'
_cell_volume   710.05903510
_cell_formula_units_Z   5
loop_
 _symmetry_equiv_pos_site_id
 _symmetry_equiv_pos_as_xyz
  1  'x, y, z'
loop_
 _atom_site_type_symbol
 _atom_site_label
 _atom_site_symmetry_multiplicity
 _atom_site_fract_x
 _atom_site_fract_y
 _atom_site_fract_z
 _atom_site_occupancy
  Pb  Pb0  1  0.00000000  0.00000000  0.85284700  1
  Pb  Pb1  1  0.33333300  0.66666700  0.45304500  1
  Pb  Pb2  1  0.33333300  0.66666700  0.65322900  1
  Pb  Pb3  1  0.33333300  0.66666700  0.25303500  1
  Pb  Pb4  1  0.33333300  0.66666700  0.05288600  1
  I  I5  1  0.66666700  0.33333300  0.10254800  1
  I  I6  1  0.66666700  0.33333300  0.70278100  1
  I  I7  1  0.00000000  0.00000000  0.20341100  1
  I  I8  1  0.33333300  0.66666700  0.80323200  1
  I  I9  1  0.66666700  0.33333300  0.50265500  1
  I  I10  1  0.00000000  0.00000000  0.00328400  1
  I  I11  1  0.66666700  0.33333300  0.30261300  1
  I  I12  1  0.66666700  0.33333300  0.90243100  1
  I  I13  1  0.00000000  0.00000000  0.40340800  1
  I  I14  1  0.00000000  0.00000000  0.60359500  1
