# generated using pymatgen
data_CaAlSi
_symmetry_space_group_name_H-M   'P 1'
_cell_length_a   4.20654180
_cell_length_b   4.20654180
_cell_length_c   21.78218000
_cell_angle_alpha   90.00000000
_cell_angle_beta   90.00000000
_cell_angle_gamma   119.99999681
_symmetry_Int_Tables_number   1
_chemical_formula_structural   CaAlSi
_chemical_formula_sum   'Ca5 Al5 Si5'
_cell_volume   333.79698167
_cell_formula_units_Z   5
loop_
 _symmetry_equiv_pos_site_id
 _symmetry_equiv_pos_as_xyz
  1  'x, y, z'
loop_
 _atom_site_type_symbol
 _atom_site_label
 _atom_site_symmetry_multiplicity
 _atom_site_fract_x
 _atom_site_fract_y
 _atom_site_fract_z
 _atom_site_occupancy
  Ca  Ca0  1  0.00000000  0.00000000  0.69902400  1
  Ca  Ca1  1  0.00000000  0.00000000  0.30097600  1
  Ca  Ca2  1  0.00000000  0.00000000  0.09877000  1
  Ca  Ca3  1  0.00000000  0.00000000  0.90123000  1
  Ca  Ca4  1  0.00000000  0.00000000  0.50000000  1
  Al  Al5  1  0.33333300  0.66666700  0.58803600  1
  Al  Al6  1  0.33333300  0.66666700  0.41196400  1
  Al  Al7  1  0.66666700  0.33333300  0.19104300  1
  Al  Al8  1  0.66666700  0.33333300  0.00000000  1
  Al  Al9  1  0.66666700  0.33333300  0.80895700  1
  Si  Si10  1  0.66666700  0.33333300  0.39370700  1
  Si  Si11  1  0.33333300  0.66666700  0.20729400  1
  Si  Si12  1  0.33333300  0.66666700  0.79270600  1
  Si  Si13  1  0.66666700  0.33333300  0.60629300  1
  Si  Si14  1  0.33333300  0.66666700  0.00000000  1
