# generated using pymatgen
data_H10C3IN
_symmetry_space_group_name_H-M   'P 1'
_cell_length_a   8.44287000
_cell_length_b   5.61962300
_cell_length_c   7.24876946
_cell_angle_alpha   75.88376560
_cell_angle_beta   90.00000000
_cell_angle_gamma   90.00000000
_symmetry_Int_Tables_number   1
_chemical_formula_structural   H10C3IN
_chemical_formula_sum   'H20 C6 I2 N2'
_cell_volume   333.53780908
_cell_formula_units_Z   2
loop_
 _symmetry_equiv_pos_site_id
 _symmetry_equiv_pos_as_xyz
  1  'x, y, z'
loop_
 _atom_site_type_symbol
 _atom_site_label
 _atom_site_symmetry_multiplicity
 _atom_site_fract_x
 _atom_site_fract_y
 _atom_site_fract_z
 _atom_site_occupancy
  H  H0  1  0.10739000  0.69364600  0.87279300  1
  H  H1  1  0.64327900  0.82615500  0.34800900  1
  H  H2  1  0.99992900  0.53129900  0.21794900  1
  H  H3  1  0.75000000  0.58699900  0.51064600  1
  H  H4  1  0.14327900  0.17384500  0.65199100  1
  H  H5  1  0.25000000  0.31096900  0.91102100  1
  H  H6  1  0.00007100  0.46870100  0.78205100  1
  H  H7  1  0.35672100  0.17384500  0.65199100  1
  H  H8  1  0.89918900  0.28274900  0.37884200  1
  H  H9  1  0.60081100  0.28274900  0.37884200  1
  H  H10  1  0.89261000  0.30635400  0.12720700  1
  H  H11  1  0.60739000  0.30635400  0.12720700  1
  H  H12  1  0.25000000  0.41300100  0.48935400  1
  H  H13  1  0.49992900  0.46870100  0.78205100  1
  H  H14  1  0.75000000  0.68903100  0.08897900  1
  H  H15  1  0.10081100  0.71725100  0.62115800  1
  H  H16  1  0.50007100  0.53129900  0.21794900  1
  H  H17  1  0.85672100  0.82615500  0.34800900  1
  H  H18  1  0.39261000  0.69364600  0.87279300  1
  H  H19  1  0.39918900  0.71725100  0.62115800  1
  C  C20  1  0.60362700  0.40967100  0.23739800  1
  C  C21  1  0.75000000  0.71164600  0.36833600  1
  C  C22  1  0.10362700  0.59032900  0.76260200  1
  C  C23  1  0.39637300  0.59032900  0.76260200  1
  C  C24  1  0.25000000  0.28835400  0.63166400  1
  C  C25  1  0.89637300  0.40967100  0.23739800  1
  I  I26  1  0.75000000  0.03514400  0.80254900  1
  I  I27  1  0.25000000  0.96485600  0.19745100  1
  N  N28  1  0.75000000  0.56258100  0.22358100  1
  N  N29  1  0.25000000  0.43741900  0.77641900  1
