# generated using pymatgen
data_HgB2(CN)8
_symmetry_space_group_name_H-M   'P 1'
_cell_length_a   7.94351853
_cell_length_b   7.94351853
_cell_length_c   6.09301300
_cell_angle_alpha   90.00000000
_cell_angle_beta   90.00000000
_cell_angle_gamma   120.00000445
_symmetry_Int_Tables_number   1
_chemical_formula_structural   HgB2(CN)8
_chemical_formula_sum   'Hg1 B2 C8 N8'
_cell_volume   332.95730169
_cell_formula_units_Z   1
loop_
 _symmetry_equiv_pos_site_id
 _symmetry_equiv_pos_as_xyz
  1  'x, y, z'
loop_
 _atom_site_type_symbol
 _atom_site_label
 _atom_site_symmetry_multiplicity
 _atom_site_fract_x
 _atom_site_fract_y
 _atom_site_fract_z
 _atom_site_occupancy
  Hg  Hg0  1  0.00000000  0.00000000  0.00000000  1
  B  B1  1  0.66666700  0.33333300  0.37095000  1
  B  B2  1  0.33333300  0.66666700  0.62905000  1
  C  C3  1  0.77547200  0.55094400  0.28306300  1
  C  C4  1  0.55094400  0.77547200  0.71693700  1
  C  C5  1  0.33333300  0.66666700  0.36885600  1
  C  C6  1  0.22452800  0.44905600  0.71693700  1
  C  C7  1  0.77547200  0.22452800  0.28306300  1
  C  C8  1  0.66666700  0.33333300  0.63114400  1
  C  C9  1  0.44905600  0.22452800  0.28306300  1
  C  C10  1  0.22452800  0.77547200  0.71693700  1
  N  N11  1  0.14441200  0.28882400  0.77692600  1
  N  N12  1  0.14441200  0.85558800  0.77692600  1
  N  N13  1  0.28882400  0.14441200  0.22307400  1
  N  N14  1  0.85558800  0.71117600  0.22307400  1
  N  N15  1  0.71117600  0.85558800  0.77692600  1
  N  N16  1  0.33333300  0.66666700  0.17757300  1
  N  N17  1  0.66666700  0.33333300  0.82242700  1
  N  N18  1  0.85558800  0.14441200  0.22307400  1
