# generated using pymatgen
data_MnH8C2NCl3
_symmetry_space_group_name_H-M   'P 1'
_cell_length_a   13.39437700
_cell_length_b   6.49826900
_cell_length_c   9.02384105
_cell_angle_alpha   79.82574980
_cell_angle_beta   90.00000000
_cell_angle_gamma   90.00000000
_symmetry_Int_Tables_number   1
_chemical_formula_structural   MnH8C2NCl3
_chemical_formula_sum   'Mn4 H32 C8 N4 Cl12'
_cell_volume   773.08658392
_cell_formula_units_Z   4
loop_
 _symmetry_equiv_pos_site_id
 _symmetry_equiv_pos_as_xyz
  1  'x, y, z'
loop_
 _atom_site_type_symbol
 _atom_site_label
 _atom_site_symmetry_multiplicity
 _atom_site_fract_x
 _atom_site_fract_y
 _atom_site_fract_z
 _atom_site_occupancy
  Mn  Mn0  1  0.25444600  0.01866700  0.79680200  1
  Mn  Mn1  1  0.24555400  0.51866700  0.79680200  1
  Mn  Mn2  1  0.75444600  0.48133300  0.20319800  1
  Mn  Mn3  1  0.74555400  0.98133300  0.20319800  1
  H  H4  1  0.41934600  0.43077100  0.12941900  1
  H  H5  1  0.04181100  0.57134800  0.11204400  1
  H  H6  1  0.55820300  0.99476100  0.68779200  1
  H  H7  1  0.08994500  0.05624000  0.35927500  1
  H  H8  1  0.91934600  0.06922900  0.87058100  1
  H  H9  1  0.45818900  0.07134800  0.11204400  1
  H  H10  1  0.16248200  0.59698600  0.19188800  1
  H  H11  1  0.66248200  0.90301400  0.80811200  1
  H  H12  1  0.01867400  0.15729500  0.76571500  1
  H  H13  1  0.91005500  0.94376000  0.64072500  1
  H  H14  1  0.92143300  0.20638300  0.53902700  1
  H  H15  1  0.81243500  0.13069000  0.64912600  1
  H  H16  1  0.18756500  0.86931000  0.35087400  1
  H  H17  1  0.42143300  0.29361700  0.46097300  1
  H  H18  1  0.58065400  0.56922900  0.87058100  1
  H  H19  1  0.83751800  0.40301400  0.80811200  1
  H  H20  1  0.05820300  0.50523900  0.31220800  1
  H  H21  1  0.08065400  0.93077100  0.12941900  1
  H  H22  1  0.98132600  0.84270500  0.23428500  1
  H  H23  1  0.94179700  0.49476100  0.68779200  1
  H  H24  1  0.07856700  0.79361700  0.46097300  1
  H  H25  1  0.58994500  0.44376000  0.64072500  1
  H  H26  1  0.33751800  0.09698600  0.19188800  1
  H  H27  1  0.51867400  0.34270500  0.23428500  1
  H  H28  1  0.54181100  0.92865200  0.88795600  1
  H  H29  1  0.57856700  0.70638300  0.53902700  1
  H  H30  1  0.68756500  0.63069000  0.64912600  1
  H  H31  1  0.41005500  0.55624000  0.35927500  1
  H  H32  1  0.44179700  0.00523900  0.31220800  1
  H  H33  1  0.95818900  0.42865200  0.88795600  1
  H  H34  1  0.31243500  0.36931000  0.35087400  1
  H  H35  1  0.48132600  0.65729500  0.76571500  1
  C  C36  1  0.91804200  0.39116100  0.79075400  1
  C  C37  1  0.41804200  0.10883900  0.20924600  1
  C  C38  1  0.08195800  0.60883900  0.20924600  1
  C  C39  1  0.89312300  0.10818500  0.64150900  1
  C  C40  1  0.39312300  0.39181500  0.35849100  1
  C  C41  1  0.60687700  0.60818500  0.64150900  1
  C  C42  1  0.10687700  0.89181500  0.35849100  1
  C  C43  1  0.58195800  0.89116100  0.79075400  1
  N  N44  1  0.94188300  0.17217900  0.77481200  1
  N  N45  1  0.44188300  0.32782100  0.22518800  1
  N  N46  1  0.05811700  0.82782100  0.22518800  1
  N  N47  1  0.55811700  0.67217900  0.77481200  1
  Cl  Cl48  1  0.83287900  0.68951900  0.38760700  1
  Cl  Cl49  1  0.89301800  0.22427800  0.20048200  1
  Cl  Cl50  1  0.33287900  0.81048100  0.61239300  1
  Cl  Cl51  1  0.60698200  0.72427800  0.20048200  1
  Cl  Cl52  1  0.17119700  0.20868700  0.99429900  1
  Cl  Cl53  1  0.82880300  0.79131300  0.00570100  1
  Cl  Cl54  1  0.39301800  0.27572200  0.79951800  1
  Cl  Cl55  1  0.67119700  0.29131300  0.00570100  1
  Cl  Cl56  1  0.32880300  0.70868700  0.99429900  1
  Cl  Cl57  1  0.66712100  0.18951900  0.38760700  1
  Cl  Cl58  1  0.10698200  0.77572200  0.79951800  1
  Cl  Cl59  1  0.16712100  0.31048100  0.61239300  1
