# generated using pymatgen
data_Ta6Hg(Br8O9)2
_symmetry_space_group_name_H-M   'P 1'
_cell_length_a   15.10879443
_cell_length_b   15.10879443
_cell_length_c   15.10879443
_cell_angle_alpha   60.00000000
_cell_angle_beta   60.00000000
_cell_angle_gamma   60.00000000
_symmetry_Int_Tables_number   1
_chemical_formula_structural   Ta6Hg(Br8O9)2
_chemical_formula_sum   'Ta12 Hg2 Br32 O36'
_cell_volume   2438.79018904
_cell_formula_units_Z   2
loop_
 _symmetry_equiv_pos_site_id
 _symmetry_equiv_pos_as_xyz
  1  'x, y, z'
loop_
 _atom_site_type_symbol
 _atom_site_label
 _atom_site_symmetry_multiplicity
 _atom_site_fract_x
 _atom_site_fract_y
 _atom_site_fract_z
 _atom_site_occupancy
  Ta  Ta0  1  0.35868600  0.64131400  0.64131400  1
  Ta  Ta1  1  0.64131400  0.35868600  0.35868600  1
  Ta  Ta2  1  0.64131400  0.64131400  0.35868600  1
  Ta  Ta3  1  0.35868600  0.35868600  0.64131400  1
  Ta  Ta4  1  0.64131400  0.35868600  0.64131400  1
  Ta  Ta5  1  0.35868600  0.64131400  0.35868600  1
  Ta  Ta6  1  0.89131400  0.60868600  0.60868600  1
  Ta  Ta7  1  0.60868600  0.89131400  0.89131400  1
  Ta  Ta8  1  0.60868600  0.60868600  0.89131400  1
  Ta  Ta9  1  0.89131400  0.89131400  0.60868600  1
  Ta  Ta10  1  0.60868600  0.89131400  0.60868600  1
  Ta  Ta11  1  0.89131400  0.60868600  0.89131400  1
  Hg  Hg12  1  0.25000000  0.25000000  0.25000000  1
  Hg  Hg13  1  0.00000000  0.00000000  0.00000000  1
  Br  Br14  1  0.26038800  0.49759200  0.74442800  1
  Br  Br15  1  0.49759200  0.26038800  0.49759200  1
  Br  Br16  1  0.74442800  0.49759200  0.26038800  1
  Br  Br17  1  0.49759200  0.74442800  0.49759200  1
  Br  Br18  1  0.49759200  0.74442800  0.26038800  1
  Br  Br19  1  0.26038800  0.49759200  0.49759200  1
  Br  Br20  1  0.49759200  0.26038800  0.74442800  1
  Br  Br21  1  0.74442800  0.49759200  0.49759200  1
  Br  Br22  1  0.74442800  0.26038800  0.49759200  1
  Br  Br23  1  0.49759200  0.49759200  0.26038800  1
  Br  Br24  1  0.26038800  0.74442800  0.49759200  1
  Br  Br25  1  0.49759200  0.49759200  0.74442800  1
  Br  Br26  1  0.98961200  0.75240800  0.50557200  1
  Br  Br27  1  0.75240800  0.98961200  0.75240800  1
  Br  Br28  1  0.50557200  0.75240800  0.98961200  1
  Br  Br29  1  0.75240800  0.50557200  0.75240800  1
  Br  Br30  1  0.75240800  0.50557200  0.98961200  1
  Br  Br31  1  0.98961200  0.75240800  0.75240800  1
  Br  Br32  1  0.75240800  0.98961200  0.50557200  1
  Br  Br33  1  0.50557200  0.75240800  0.75240800  1
  Br  Br34  1  0.50557200  0.98961200  0.75240800  1
  Br  Br35  1  0.75240800  0.75240800  0.98961200  1
  Br  Br36  1  0.98961200  0.50557200  0.75240800  1
  Br  Br37  1  0.75240800  0.75240800  0.50557200  1
  Br  Br38  1  0.03396300  0.32201200  0.32201200  1
  Br  Br39  1  0.32201200  0.03396300  0.32201200  1
  Br  Br40  1  0.32201200  0.32201200  0.03396300  1
  Br  Br41  1  0.32201200  0.32201200  0.32201200  1
  Br  Br42  1  0.21603700  0.92798800  0.92798800  1
  Br  Br43  1  0.92798800  0.21603700  0.92798800  1
  Br  Br44  1  0.92798800  0.92798800  0.21603700  1
  Br  Br45  1  0.92798800  0.92798800  0.92798800  1
  O  O46  1  0.27822600  0.72177400  0.72177400  1
  O  O47  1  0.72177400  0.27822600  0.27822600  1
  O  O48  1  0.72177400  0.72177400  0.27822600  1
  O  O49  1  0.27822600  0.27822600  0.72177400  1
  O  O50  1  0.72177400  0.27822600  0.72177400  1
  O  O51  1  0.27822600  0.72177400  0.27822600  1
  O  O52  1  0.97177400  0.52822600  0.52822600  1
  O  O53  1  0.52822600  0.97177400  0.97177400  1
  O  O54  1  0.52822600  0.52822600  0.97177400  1
  O  O55  1  0.97177400  0.97177400  0.52822600  1
  O  O56  1  0.52822600  0.97177400  0.52822600  1
  O  O57  1  0.97177400  0.52822600  0.97177400  1
  O  O58  1  0.60039500  0.18366300  0.18366300  1
  O  O59  1  0.18366300  0.60039500  0.03227800  1
  O  O60  1  0.18366300  0.03227800  0.60039500  1
  O  O61  1  0.03227800  0.18366300  0.18366300  1
  O  O62  1  0.18366300  0.18366300  0.60039500  1
  O  O63  1  0.60039500  0.03227800  0.18366300  1
  O  O64  1  0.03227800  0.60039500  0.18366300  1
  O  O65  1  0.18366300  0.18366300  0.03227800  1
  O  O66  1  0.18366300  0.60039500  0.18366300  1
  O  O67  1  0.03227800  0.18366300  0.60039500  1
  O  O68  1  0.60039500  0.18366300  0.03227800  1
  O  O69  1  0.18366300  0.03227800  0.18366300  1
  O  O70  1  0.64960500  0.06633700  0.06633700  1
  O  O71  1  0.06633700  0.64960500  0.21772200  1
  O  O72  1  0.06633700  0.21772200  0.64960500  1
  O  O73  1  0.21772200  0.06633700  0.06633700  1
  O  O74  1  0.06633700  0.06633700  0.64960500  1
  O  O75  1  0.64960500  0.21772200  0.06633700  1
  O  O76  1  0.21772200  0.64960500  0.06633700  1
  O  O77  1  0.06633700  0.06633700  0.21772200  1
  O  O78  1  0.06633700  0.64960500  0.06633700  1
  O  O79  1  0.21772200  0.06633700  0.64960500  1
  O  O80  1  0.64960500  0.06633700  0.21772200  1
  O  O81  1  0.06633700  0.21772200  0.06633700  1
