# generated using pymatgen
data_Th(NO4)4
_symmetry_space_group_name_H-M   'P 1'
_cell_length_a   17.37668000
_cell_length_b   8.02307900
_cell_length_c   12.41442275
_cell_angle_alpha   58.92898345
_cell_angle_beta   90.00000000
_cell_angle_gamma   90.00000000
_symmetry_Int_Tables_number   1
_chemical_formula_structural   Th(NO4)4
_chemical_formula_sum   'Th4 N16 O64'
_cell_volume   1482.43650954
_cell_formula_units_Z   4
loop_
 _symmetry_equiv_pos_site_id
 _symmetry_equiv_pos_as_xyz
  1  'x, y, z'
loop_
 _atom_site_type_symbol
 _atom_site_label
 _atom_site_symmetry_multiplicity
 _atom_site_fract_x
 _atom_site_fract_y
 _atom_site_fract_z
 _atom_site_occupancy
  Th  Th0  1  0.62307600  0.04884600  0.26284900  1
  Th  Th1  1  0.87692400  0.04884600  0.76284900  1
  Th  Th2  1  0.37692400  0.95115400  0.73715100  1
  Th  Th3  1  0.12307600  0.95115400  0.23715100  1
  N  N4  1  0.72415600  0.34452800  0.25423400  1
  N  N5  1  0.77584400  0.34452800  0.75423400  1
  N  N6  1  0.27584400  0.65547200  0.74576600  1
  N  N7  1  0.22415600  0.65547200  0.24576600  1
  N  N8  1  0.51766400  0.35925300  0.22113900  1
  N  N9  1  0.98233600  0.35925300  0.72113900  1
  N  N10  1  0.48233600  0.64074700  0.77886100  1
  N  N11  1  0.01766400  0.64074700  0.27886100  1
  N  N12  1  0.47401100  0.87526100  0.26037700  1
  N  N13  1  0.02598900  0.87526100  0.76037700  1
  N  N14  1  0.52598900  0.12473900  0.73962300  1
  N  N15  1  0.97401100  0.12473900  0.23962300  1
  N  N16  1  0.77461200  0.85479100  0.30745700  1
  N  N17  1  0.72538800  0.85479100  0.80745700  1
  N  N18  1  0.22538800  0.14520900  0.69254300  1
  N  N19  1  0.27461200  0.14520900  0.19254300  1
  O  O20  1  0.61972100  0.87060700  0.04649200  1
  O  O21  1  0.88027900  0.87060700  0.54649200  1
  O  O22  1  0.38027900  0.12939300  0.95350800  1
  O  O23  1  0.11972100  0.12939300  0.45350800  1
  O  O24  1  0.62674400  0.65613500  0.53848100  1
  O  O25  1  0.87325600  0.65613500  0.03848100  1
  O  O26  1  0.37325600  0.34386500  0.46151900  1
  O  O27  1  0.12674400  0.34386500  0.96151900  1
  O  O28  1  0.64115400  0.54944200  0.49679200  1
  O  O29  1  0.85884600  0.54944200  0.99679200  1
  O  O30  1  0.35884600  0.45055800  0.50320800  1
  O  O31  1  0.14115400  0.45055800  0.00320800  1
  O  O32  1  0.63087700  0.04053200  0.01737100  1
  O  O33  1  0.86912300  0.04053200  0.51737100  1
  O  O34  1  0.36912300  0.95946800  0.98262900  1
  O  O35  1  0.13087700  0.95946800  0.48262900  1
  O  O36  1  0.72546700  0.29887000  0.16777000  1
  O  O37  1  0.77453300  0.29887000  0.66777000  1
  O  O38  1  0.27453300  0.70113000  0.83223000  1
  O  O39  1  0.22546700  0.70113000  0.33223000  1
  O  O40  1  0.67402000  0.24571800  0.34404500  1
  O  O41  1  0.82598000  0.24571800  0.84404500  1
  O  O42  1  0.32598000  0.75428200  0.65595500  1
  O  O43  1  0.17402000  0.75428200  0.15595500  1
  O  O44  1  0.76508800  0.46796300  0.25257800  1
  O  O45  1  0.73491200  0.46796300  0.75257800  1
  O  O46  1  0.23491200  0.53203700  0.74742200  1
  O  O47  1  0.26508800  0.53203700  0.24742200  1
  O  O48  1  0.56655300  0.37300900  0.13678100  1
  O  O49  1  0.93344700  0.37300900  0.63678100  1
  O  O50  1  0.43344700  0.62699100  0.86321900  1
  O  O51  1  0.06655300  0.62699100  0.36321900  1
  O  O52  1  0.51572200  0.18826600  0.32345400  1
  O  O53  1  0.98427800  0.18826600  0.82345400  1
  O  O54  1  0.48427800  0.81173400  0.67654600  1
  O  O55  1  0.01572200  0.81173400  0.17654600  1
  O  O56  1  0.47857200  0.49507300  0.20537000  1
  O  O57  1  0.02142800  0.49507300  0.70537000  1
  O  O58  1  0.52142800  0.50492700  0.79463000  1
  O  O59  1  0.97857200  0.50492700  0.29463000  1
  O  O60  1  0.50325000  0.02117000  0.15947500  1
  O  O61  1  0.99675000  0.02117000  0.65947500  1
  O  O62  1  0.49675000  0.97883000  0.84052500  1
  O  O63  1  0.00325000  0.97883000  0.34052500  1
  O  O64  1  0.52022900  0.80067100  0.35760400  1
  O  O65  1  0.97977100  0.80067100  0.85760400  1
  O  O66  1  0.47977100  0.19932900  0.64239600  1
  O  O67  1  0.02022900  0.19932900  0.14239600  1
  O  O68  1  0.40971600  0.81310800  0.26522300  1
  O  O69  1  0.09028400  0.81310800  0.76522300  1
  O  O70  1  0.59028400  0.18689200  0.73477700  1
  O  O71  1  0.90971600  0.18689200  0.23477700  1
  O  O72  1  0.72835700  0.89123100  0.21405200  1
  O  O73  1  0.77164300  0.89123100  0.71405200  1
  O  O74  1  0.27164300  0.10876900  0.78594800  1
  O  O75  1  0.22835700  0.10876900  0.28594800  1
  O  O76  1  0.74591400  0.90272500  0.38428700  1
  O  O77  1  0.75408600  0.90272500  0.88428700  1
  O  O78  1  0.25408600  0.09727500  0.61571300  1
  O  O79  1  0.24591400  0.09727500  0.11571300  1
  O  O80  1  0.83780700  0.78421500  0.31954100  1
  O  O81  1  0.66219300  0.78421500  0.81954100  1
  O  O82  1  0.16219300  0.21578500  0.68045900  1
  O  O83  1  0.33780700  0.21578500  0.18045900  1
