# generated using pymatgen
data_Sr(B3O7)2
_symmetry_space_group_name_H-M   'P 1'
_cell_length_a   8.07613400
_cell_length_b   10.11736700
_cell_length_c   14.61549824
_cell_angle_alpha   61.87432069
_cell_angle_beta   90.00000000
_cell_angle_gamma   90.00000000
_symmetry_Int_Tables_number   1
_chemical_formula_structural   Sr(B3O7)2
_chemical_formula_sum   'Sr4 B24 O56'
_cell_volume   1053.20207733
_cell_formula_units_Z   4
loop_
 _symmetry_equiv_pos_site_id
 _symmetry_equiv_pos_as_xyz
  1  'x, y, z'
loop_
 _atom_site_type_symbol
 _atom_site_label
 _atom_site_symmetry_multiplicity
 _atom_site_fract_x
 _atom_site_fract_y
 _atom_site_fract_z
 _atom_site_occupancy
  Sr  Sr0  1  0.43815300  0.78292100  0.69307800  1
  Sr  Sr1  1  0.93815300  0.21707900  0.80692200  1
  Sr  Sr2  1  0.56184700  0.21707900  0.30692200  1
  Sr  Sr3  1  0.06184700  0.78292100  0.19307800  1
  B  B4  1  0.33474900  0.16811900  0.67877900  1
  B  B5  1  0.83474900  0.83188100  0.82122100  1
  B  B6  1  0.66525100  0.83188100  0.32122100  1
  B  B7  1  0.16525100  0.16811900  0.17877900  1
  B  B8  1  0.33816800  0.42601300  0.68279000  1
  B  B9  1  0.83816800  0.57398700  0.81721000  1
  B  B10  1  0.66183200  0.57398700  0.31721000  1
  B  B11  1  0.16183200  0.42601300  0.18279000  1
  B  B12  1  0.26158100  0.40544600  0.52774700  1
  B  B13  1  0.76158100  0.59455400  0.97225300  1
  B  B14  1  0.73841900  0.59455400  0.47225300  1
  B  B15  1  0.23841900  0.40544600  0.02774700  1
  B  B16  1  0.04116100  0.78954400  0.69281300  1
  B  B17  1  0.54116100  0.21045600  0.80718700  1
  B  B18  1  0.95883900  0.21045600  0.30718700  1
  B  B19  1  0.45883900  0.78954400  0.19281300  1
  B  B20  1  0.09974900  0.52008800  0.74795000  1
  B  B21  1  0.59974900  0.47991200  0.75205000  1
  B  B22  1  0.90025100  0.47991200  0.25205000  1
  B  B23  1  0.40025100  0.52008800  0.24795000  1
  B  B24  1  0.09677500  0.98161900  0.74958000  1
  B  B25  1  0.59677500  0.01838100  0.75042000  1
  B  B26  1  0.90322500  0.01838100  0.25042000  1
  B  B27  1  0.40322500  0.98161900  0.24958000  1
  O  O28  1  0.45183500  0.04955600  0.69394000  1
  O  O29  1  0.95183500  0.95044400  0.80606000  1
  O  O30  1  0.54816500  0.95044400  0.30606000  1
  O  O31  1  0.04816500  0.04955600  0.19394000  1
  O  O32  1  0.45436800  0.52448400  0.69711900  1
  O  O33  1  0.95436800  0.47551600  0.80288100  1
  O  O34  1  0.54563200  0.47551600  0.30288100  1
  O  O35  1  0.04563200  0.52448400  0.19711900  1
  O  O36  1  0.81158400  0.52139100  0.57676200  1
  O  O37  1  0.31158400  0.47860900  0.92323800  1
  O  O38  1  0.18841600  0.47860900  0.42323800  1
  O  O39  1  0.68841600  0.52139100  0.07676200  1
  O  O40  1  0.30087700  0.75712400  0.47450300  1
  O  O41  1  0.80087700  0.24287600  0.02549700  1
  O  O42  1  0.69912300  0.24287600  0.52549700  1
  O  O43  1  0.19912300  0.75712400  0.97450300  1
  O  O44  1  0.96363000  0.85370700  0.59264300  1
  O  O45  1  0.46363000  0.14629300  0.90735700  1
  O  O46  1  0.03637000  0.14629300  0.40735700  1
  O  O47  1  0.53637000  0.85370700  0.09264300  1
  O  O48  1  0.68618000  0.59323800  0.75671000  1
  O  O49  1  0.18618000  0.40676200  0.74329000  1
  O  O50  1  0.31382000  0.40676200  0.24329000  1
  O  O51  1  0.81382000  0.59323800  0.25671000  1
  O  O52  1  0.14874800  0.66694300  0.70135400  1
  O  O53  1  0.64874800  0.33305700  0.79864600  1
  O  O54  1  0.85125200  0.33305700  0.29864600  1
  O  O55  1  0.35125200  0.66694300  0.20135400  1
  O  O56  1  0.68216400  0.89516600  0.75963100  1
  O  O57  1  0.18216400  0.10483400  0.74036900  1
  O  O58  1  0.31783600  0.10483400  0.24036900  1
  O  O59  1  0.81783600  0.89516600  0.25963100  1
  O  O60  1  0.14823000  0.89777600  0.70352200  1
  O  O61  1  0.64823000  0.10222400  0.79647800  1
  O  O62  1  0.85177000  0.10222400  0.29647800  1
  O  O63  1  0.35177000  0.89777600  0.20352200  1
  O  O64  1  0.28993000  0.25755300  0.56836100  1
  O  O65  1  0.78993000  0.74244700  0.93163900  1
  O  O66  1  0.71007000  0.74244700  0.43163900  1
  O  O67  1  0.21007000  0.25755300  0.06836100  1
  O  O68  1  0.29663600  0.49184400  0.57233200  1
  O  O69  1  0.79663600  0.50815600  0.92766800  1
  O  O70  1  0.70336400  0.50815600  0.42766800  1
  O  O71  1  0.20336400  0.49184400  0.07233200  1
  O  O72  1  0.57777000  0.98927000  0.50785300  1
  O  O73  1  0.07777000  0.01073000  0.99214700  1
  O  O74  1  0.42223000  0.01073000  0.49214700  1
  O  O75  1  0.92223000  0.98927000  0.00785300  1
  O  O76  1  0.87186300  0.38315600  0.60381800  1
  O  O77  1  0.37186300  0.61684400  0.89618200  1
  O  O78  1  0.12813700  0.61684400  0.39618200  1
  O  O79  1  0.62813700  0.38315600  0.10381800  1
  O  O80  1  0.41425400  0.27238300  0.71660700  1
  O  O81  1  0.91425400  0.72761700  0.78339300  1
  O  O82  1  0.58574600  0.72761700  0.28339300  1
  O  O83  1  0.08574600  0.27238300  0.21660700  1
