# generated using pymatgen
data_SnNF3
_symmetry_space_group_name_H-M   'P 1'
_cell_length_a   6.79242556
_cell_length_b   3.64711128
_cell_length_c   6.40200548
_cell_angle_alpha   99.00096045
_cell_angle_beta   99.81975849
_cell_angle_gamma   70.48878992
_symmetry_Int_Tables_number   1
_chemical_formula_structural   SnNF3
_chemical_formula_sum   'Sn2 N2 F6'
_cell_volume   146.45036468
_cell_formula_units_Z   2
loop_
 _symmetry_equiv_pos_site_id
 _symmetry_equiv_pos_as_xyz
  1  'x, y, z'
loop_
 _atom_site_type_symbol
 _atom_site_label
 _atom_site_symmetry_multiplicity
 _atom_site_fract_x
 _atom_site_fract_y
 _atom_site_fract_z
 _atom_site_occupancy
  Sn  Sn0  1  0.76376200  0.88948300  0.94679300  1
  Sn  Sn1  1  0.23623800  0.11051700  0.05320700  1
  N  N2  1  0.11603900  0.63427600  0.88931000  1
  N  N3  1  0.88396100  0.36572400  0.11069000  1
  F  F4  1  0.26781800  0.85540700  0.31156300  1
  F  F5  1  0.53133300  0.18837800  0.16615800  1
  F  F6  1  0.84777300  0.46091900  0.32737000  1
  F  F7  1  0.73218200  0.14459300  0.68843700  1
  F  F8  1  0.46866700  0.81162200  0.83384200  1
  F  F9  1  0.15222700  0.53908100  0.67263000  1
