# generated using pymatgen
data_Sm5Si4
_symmetry_space_group_name_H-M   'P 1'
_cell_length_a   7.65613800
_cell_length_b   7.86731100
_cell_length_c   14.96501600
_cell_angle_alpha   90.00000000
_cell_angle_beta   90.00000000
_cell_angle_gamma   90.00000000
_symmetry_Int_Tables_number   1
_chemical_formula_structural   Sm5Si4
_chemical_formula_sum   'Sm20 Si16'
_cell_volume   901.39108165
_cell_formula_units_Z   4
loop_
 _symmetry_equiv_pos_site_id
 _symmetry_equiv_pos_as_xyz
  1  'x, y, z'
loop_
 _atom_site_type_symbol
 _atom_site_label
 _atom_site_symmetry_multiplicity
 _atom_site_fract_x
 _atom_site_fract_y
 _atom_site_fract_z
 _atom_site_occupancy
  Sm  Sm0  1  0.85702100  0.48687200  0.75000000  1
  Sm  Sm1  1  0.31339400  0.18084500  0.12209100  1
  Sm  Sm2  1  0.14297900  0.51312800  0.25000000  1
  Sm  Sm3  1  0.81339400  0.31915500  0.37790900  1
  Sm  Sm4  1  0.46361000  0.68644800  0.39953500  1
  Sm  Sm5  1  0.68660600  0.81915500  0.87790900  1
  Sm  Sm6  1  0.53639000  0.31355200  0.89953500  1
  Sm  Sm7  1  0.96361000  0.81355200  0.10046500  1
  Sm  Sm8  1  0.64297900  0.98687200  0.25000000  1
  Sm  Sm9  1  0.35702100  0.01312800  0.75000000  1
  Sm  Sm10  1  0.53639000  0.31355200  0.60046500  1
  Sm  Sm11  1  0.03639000  0.18644800  0.89953500  1
  Sm  Sm12  1  0.96361000  0.81355200  0.39953500  1
  Sm  Sm13  1  0.18660600  0.68084500  0.87790900  1
  Sm  Sm14  1  0.68660600  0.81915500  0.62209100  1
  Sm  Sm15  1  0.31339400  0.18084500  0.37790900  1
  Sm  Sm16  1  0.46361000  0.68644800  0.10046500  1
  Sm  Sm17  1  0.03639000  0.18644800  0.60046500  1
  Sm  Sm18  1  0.18660600  0.68084500  0.62209100  1
  Sm  Sm19  1  0.81339400  0.31915500  0.12209100  1
  Si  Si20  1  0.51848600  0.39963600  0.25000000  1
  Si  Si21  1  0.13822700  0.47313000  0.04044600  1
  Si  Si22  1  0.63822700  0.02687000  0.04044600  1
  Si  Si23  1  0.25612100  0.87727400  0.25000000  1
  Si  Si24  1  0.24387900  0.37727400  0.75000000  1
  Si  Si25  1  0.86177300  0.52687000  0.95955400  1
  Si  Si26  1  0.74387900  0.12272600  0.75000000  1
  Si  Si27  1  0.48151400  0.60036400  0.75000000  1
  Si  Si28  1  0.36177300  0.97313000  0.95955400  1
  Si  Si29  1  0.98151400  0.89963600  0.75000000  1
  Si  Si30  1  0.86177300  0.52687000  0.54044600  1
  Si  Si31  1  0.36177300  0.97313000  0.54044600  1
  Si  Si32  1  0.75612100  0.62272600  0.25000000  1
  Si  Si33  1  0.13822700  0.47313000  0.45955400  1
  Si  Si34  1  0.01848600  0.10036400  0.25000000  1
  Si  Si35  1  0.63822700  0.02687000  0.45955400  1
