# generated using pymatgen
data_Ce2Ge4Pt7
_symmetry_space_group_name_H-M   'P 1'
_cell_length_a   4.10844400
_cell_length_b   11.59261400
_cell_length_c   20.11886700
_cell_angle_alpha   90.00000000
_cell_angle_beta   90.00000000
_cell_angle_gamma   90.00000000
_symmetry_Int_Tables_number   1
_chemical_formula_structural   Ce2Ge4Pt7
_chemical_formula_sum   'Ce8 Ge16 Pt28'
_cell_volume   958.21345923
_cell_formula_units_Z   4
loop_
 _symmetry_equiv_pos_site_id
 _symmetry_equiv_pos_as_xyz
  1  'x, y, z'
loop_
 _atom_site_type_symbol
 _atom_site_label
 _atom_site_symmetry_multiplicity
 _atom_site_fract_x
 _atom_site_fract_y
 _atom_site_fract_z
 _atom_site_occupancy
  Ce  Ce0  1  0.75000000  0.74309100  0.02808900  1
  Ce  Ce1  1  0.75000000  0.75690900  0.52808900  1
  Ce  Ce2  1  0.25000000  0.25690900  0.97191100  1
  Ce  Ce3  1  0.25000000  0.01398100  0.28064100  1
  Ce  Ce4  1  0.25000000  0.24309100  0.47191100  1
  Ce  Ce5  1  0.75000000  0.98601900  0.71935900  1
  Ce  Ce6  1  0.25000000  0.48601900  0.78064100  1
  Ce  Ce7  1  0.75000000  0.51398100  0.21935900  1
  Ge  Ge8  1  0.75000000  0.42290400  0.41438700  1
  Ge  Ge9  1  0.25000000  0.29292700  0.25577800  1
  Ge  Ge10  1  0.25000000  0.56411500  0.08682700  1
  Ge  Ge11  1  0.25000000  0.92290400  0.08561300  1
  Ge  Ge12  1  0.25000000  0.20707300  0.75577800  1
  Ge  Ge13  1  0.75000000  0.24685200  0.59486400  1
  Ge  Ge14  1  0.75000000  0.43588500  0.91317300  1
  Ge  Ge15  1  0.25000000  0.74685200  0.90513600  1
  Ge  Ge16  1  0.25000000  0.93588500  0.58682700  1
  Ge  Ge17  1  0.75000000  0.06411500  0.41317300  1
  Ge  Ge18  1  0.75000000  0.70707300  0.74422200  1
  Ge  Ge19  1  0.75000000  0.79292700  0.24422200  1
  Ge  Ge20  1  0.25000000  0.75314800  0.40513600  1
  Ge  Ge21  1  0.75000000  0.25314800  0.09486400  1
  Ge  Ge22  1  0.25000000  0.57709600  0.58561300  1
  Ge  Ge23  1  0.75000000  0.07709600  0.91438700  1
  Pt  Pt24  1  0.75000000  0.45249700  0.04135900  1
  Pt  Pt25  1  0.75000000  0.62061700  0.37014500  1
  Pt  Pt26  1  0.75000000  0.43686800  0.53488800  1
  Pt  Pt27  1  0.75000000  0.87938300  0.87014500  1
  Pt  Pt28  1  0.75000000  0.06313200  0.03488800  1
  Pt  Pt29  1  0.25000000  0.54750300  0.95864100  1
  Pt  Pt30  1  0.25000000  0.12061700  0.12985500  1
  Pt  Pt31  1  0.75000000  0.55151200  0.66194900  1
  Pt  Pt32  1  0.75000000  0.94848800  0.16194900  1
  Pt  Pt33  1  0.75000000  0.25651500  0.84852000  1
  Pt  Pt34  1  0.25000000  0.74348500  0.15148000  1
  Pt  Pt35  1  0.25000000  0.37938300  0.62985500  1
  Pt  Pt36  1  0.25000000  0.82151400  0.78293600  1
  Pt  Pt37  1  0.75000000  0.24348500  0.34852000  1
  Pt  Pt38  1  0.75000000  0.87080200  0.36303100  1
  Pt  Pt39  1  0.25000000  0.93686800  0.96511200  1
  Pt  Pt40  1  0.25000000  0.67848600  0.28293600  1
  Pt  Pt41  1  0.75000000  0.32151400  0.71706400  1
  Pt  Pt42  1  0.75000000  0.62919800  0.86303100  1
  Pt  Pt43  1  0.25000000  0.05151200  0.83805100  1
  Pt  Pt44  1  0.25000000  0.12919800  0.63696900  1
  Pt  Pt45  1  0.25000000  0.95249700  0.45864100  1
  Pt  Pt46  1  0.75000000  0.04750300  0.54135900  1
  Pt  Pt47  1  0.25000000  0.56313200  0.46511200  1
  Pt  Pt48  1  0.25000000  0.44848800  0.33805100  1
  Pt  Pt49  1  0.25000000  0.75651500  0.65148000  1
  Pt  Pt50  1  0.25000000  0.37080200  0.13696900  1
  Pt  Pt51  1  0.75000000  0.17848600  0.21706400  1
