# generated using pymatgen
data_CsMn4Cl9
_symmetry_space_group_name_H-M   'P 1'
_cell_length_a   9.87932961
_cell_length_b   9.87932961
_cell_length_c   9.87932961
_cell_angle_alpha   106.45194509
_cell_angle_beta   106.45194509
_cell_angle_gamma   115.69483574
_symmetry_Int_Tables_number   1
_chemical_formula_structural   CsMn4Cl9
_chemical_formula_sum   'Cs2 Mn8 Cl18'
_cell_volume   735.62896857
_cell_formula_units_Z   2
loop_
 _symmetry_equiv_pos_site_id
 _symmetry_equiv_pos_as_xyz
  1  'x, y, z'
loop_
 _atom_site_type_symbol
 _atom_site_label
 _atom_site_symmetry_multiplicity
 _atom_site_fract_x
 _atom_site_fract_y
 _atom_site_fract_z
 _atom_site_occupancy
  Cs  Cs0  1  0.00000000  0.00000000  0.00000000  1
  Cs  Cs1  1  0.25000000  0.75000000  0.50000000  1
  Mn  Mn2  1  0.30066300  0.40219700  0.69045600  1
  Mn  Mn3  1  0.59780300  0.28825900  0.89846600  1
  Mn  Mn4  1  0.86020700  0.05066300  0.39846600  1
  Mn  Mn5  1  0.94933700  0.34780300  0.80954400  1
  Mn  Mn6  1  0.53825900  0.13979300  0.19045600  1
  Mn  Mn7  1  0.71174100  0.61020700  0.30954400  1
  Mn  Mn8  1  0.38979300  0.69933700  0.10153400  1
  Mn  Mn9  1  0.65219700  0.46174100  0.60153400  1
  Cl  Cl10  1  0.88260300  0.68780100  0.59014400  1
  Cl  Cl11  1  0.60078600  0.79335600  0.38103800  1
  Cl  Cl12  1  0.04335600  0.16231800  0.69257000  1
  Cl  Cl13  1  0.75000000  0.25000000  0.50000000  1
  Cl  Cl14  1  0.46974700  0.35078600  0.30743000  1
  Cl  Cl15  1  0.83768200  0.53025300  0.88103800  1
  Cl  Cl16  1  0.31219900  0.90234200  0.19480200  1
  Cl  Cl17  1  0.09765800  0.29246000  0.40985600  1
  Cl  Cl18  1  0.36739700  0.06219900  0.90985600  1
  Cl  Cl19  1  0.64921400  0.95664400  0.11896200  1
  Cl  Cl20  1  0.54246000  0.63260300  0.69480200  1
  Cl  Cl21  1  0.70754000  0.11739700  0.80519800  1
  Cl  Cl22  1  0.93780100  0.84765800  0.30519800  1
  Cl  Cl23  1  0.15234200  0.45754000  0.09014400  1
  Cl  Cl24  1  0.20664400  0.58768200  0.80743000  1
  Cl  Cl25  1  0.41231800  0.21974700  0.61896200  1
  Cl  Cl26  1  0.78025300  0.39921400  0.19257000  1
  Cl  Cl27  1  0.50000000  0.50000000  0.00000000  1
