# generated using pymatgen
data_Si5Pt12
_symmetry_space_group_name_H-M   'P 1'
_cell_length_a   13.57091900
_cell_length_b   13.57091900
_cell_length_c   5.61863200
_cell_angle_alpha   90.00000000
_cell_angle_beta   90.00000000
_cell_angle_gamma   90.00000000
_symmetry_Int_Tables_number   1
_chemical_formula_structural   Si5Pt12
_chemical_formula_sum   'Si20 Pt48'
_cell_volume   1034.78257053
_cell_formula_units_Z   4
loop_
 _symmetry_equiv_pos_site_id
 _symmetry_equiv_pos_as_xyz
  1  'x, y, z'
loop_
 _atom_site_type_symbol
 _atom_site_label
 _atom_site_symmetry_multiplicity
 _atom_site_fract_x
 _atom_site_fract_y
 _atom_site_fract_z
 _atom_site_occupancy
  Si  Si0  1  0.18537400  0.88443400  0.98542000  1
  Si  Si1  1  0.69298100  0.88686400  0.56560900  1
  Si  Si2  1  0.88686400  0.30701900  0.43439100  1
  Si  Si3  1  0.11313600  0.69298100  0.43439100  1
  Si  Si4  1  0.30701900  0.11313600  0.56560900  1
  Si  Si5  1  0.00000000  0.00000000  0.50000000  1
  Si  Si6  1  0.11556600  0.18537400  0.01458000  1
  Si  Si7  1  0.81462600  0.11556600  0.98542000  1
  Si  Si8  1  0.80701900  0.61313600  0.43439100  1
  Si  Si9  1  0.31462600  0.61556600  0.01458000  1
  Si  Si10  1  0.68537400  0.38443400  0.01458000  1
  Si  Si11  1  0.61556600  0.68537400  0.98542000  1
  Si  Si12  1  0.38686400  0.80701900  0.56560900  1
  Si  Si13  1  0.88443400  0.81462600  0.01458000  1
  Si  Si14  1  0.19298100  0.38686400  0.43439100  1
  Si  Si15  1  0.00000000  0.50000000  0.94531300  1
  Si  Si16  1  0.38443400  0.31462600  0.98542000  1
  Si  Si17  1  0.50000000  0.00000000  0.05468700  1
  Si  Si18  1  0.61313600  0.19298100  0.56560900  1
  Si  Si19  1  0.50000000  0.50000000  0.50000000  1
  Pt  Pt20  1  0.64680600  0.01837100  0.30715400  1
  Pt  Pt21  1  0.66601800  0.20713300  0.09792500  1
  Pt  Pt22  1  0.48162900  0.14680600  0.30715400  1
  Pt  Pt23  1  0.14680600  0.51837100  0.69284600  1
  Pt  Pt24  1  0.14713100  0.53469900  0.19295800  1
  Pt  Pt25  1  0.70713300  0.83398200  0.09792500  1
  Pt  Pt26  1  0.15332000  0.21370500  0.46300400  1
  Pt  Pt27  1  0.35319400  0.98162900  0.30715400  1
  Pt  Pt28  1  0.28629500  0.65332000  0.46300400  1
  Pt  Pt29  1  0.46292000  0.65564800  0.75507200  1
  Pt  Pt30  1  0.96292000  0.15564800  0.24492800  1
  Pt  Pt31  1  0.46530100  0.14713100  0.80704200  1
  Pt  Pt32  1  0.15564800  0.03708000  0.75507200  1
  Pt  Pt33  1  0.65564800  0.53708000  0.24492800  1
  Pt  Pt34  1  0.21370500  0.84668000  0.53699600  1
  Pt  Pt35  1  0.83398200  0.29286700  0.90207500  1
  Pt  Pt36  1  0.98162900  0.64680600  0.69284600  1
  Pt  Pt37  1  0.03708000  0.84435200  0.24492800  1
  Pt  Pt38  1  0.78629500  0.15332000  0.53699600  1
  Pt  Pt39  1  0.01837100  0.35319400  0.69284600  1
  Pt  Pt40  1  0.20713300  0.33398200  0.90207500  1
  Pt  Pt41  1  0.51968400  0.35378900  0.25425600  1
  Pt  Pt42  1  0.84668000  0.78629500  0.46300400  1
  Pt  Pt43  1  0.34435200  0.46292000  0.24492800  1
  Pt  Pt44  1  0.29286700  0.16601800  0.09792500  1
  Pt  Pt45  1  0.53708000  0.34435200  0.75507200  1
  Pt  Pt46  1  0.85286900  0.46530100  0.19295800  1
  Pt  Pt47  1  0.71370500  0.34668000  0.46300400  1
  Pt  Pt48  1  0.64713100  0.03469900  0.80704200  1
  Pt  Pt49  1  0.64621100  0.51968400  0.74574400  1
  Pt  Pt50  1  0.79286700  0.66601800  0.90207500  1
  Pt  Pt51  1  0.65332000  0.71370500  0.53699600  1
  Pt  Pt52  1  0.84435200  0.96292000  0.75507200  1
  Pt  Pt53  1  0.96530100  0.64713100  0.19295800  1
  Pt  Pt54  1  0.48031600  0.64621100  0.25425600  1
  Pt  Pt55  1  0.35286900  0.96530100  0.80704200  1
  Pt  Pt56  1  0.85378900  0.98031600  0.25425600  1
  Pt  Pt57  1  0.16601800  0.70713300  0.90207500  1
  Pt  Pt58  1  0.01968400  0.85378900  0.74574400  1
  Pt  Pt59  1  0.03469900  0.35286900  0.19295800  1
  Pt  Pt60  1  0.53469900  0.85286900  0.80704200  1
  Pt  Pt61  1  0.98031600  0.14621100  0.74574400  1
  Pt  Pt62  1  0.34668000  0.28629500  0.53699600  1
  Pt  Pt63  1  0.33398200  0.79286700  0.09792500  1
  Pt  Pt64  1  0.35378900  0.48031600  0.74574400  1
  Pt  Pt65  1  0.85319400  0.48162900  0.69284600  1
  Pt  Pt66  1  0.51837100  0.85319400  0.30715400  1
  Pt  Pt67  1  0.14621100  0.01968400  0.25425600  1
