# generated using pymatgen
data_Si2H2O3
_symmetry_space_group_name_H-M   'P 1'
_cell_length_a   10.29234696
_cell_length_b   10.29234696
_cell_length_c   14.30752245
_cell_angle_alpha   60.49835229
_cell_angle_beta   60.49835229
_cell_angle_gamma   50.41359471
_symmetry_Int_Tables_number   1
_chemical_formula_structural   Si2H2O3
_chemical_formula_sum   'Si20 H20 O30'
_cell_volume   979.87765626
_cell_formula_units_Z   10
loop_
 _symmetry_equiv_pos_site_id
 _symmetry_equiv_pos_as_xyz
  1  'x, y, z'
loop_
 _atom_site_type_symbol
 _atom_site_label
 _atom_site_symmetry_multiplicity
 _atom_site_fract_x
 _atom_site_fract_y
 _atom_site_fract_z
 _atom_site_occupancy
  Si  Si0  1  0.28876800  0.69483000  0.88524500  1
  Si  Si1  1  0.25679200  0.73843000  0.62385800  1
  Si  Si2  1  0.73843000  0.25679200  0.12385800  1
  Si  Si3  1  0.69483000  0.28876800  0.38524500  1
  Si  Si4  1  0.25410600  0.10307800  0.75629700  1
  Si  Si5  1  0.92894900  0.76047000  0.73062500  1
  Si  Si6  1  0.76047000  0.92894900  0.23062500  1
  Si  Si7  1  0.10307800  0.25410600  0.25629700  1
  Si  Si8  1  0.83496300  0.39494300  0.80194400  1
  Si  Si9  1  0.58932400  0.21245500  0.70382700  1
  Si  Si10  1  0.21245500  0.58932400  0.20382700  1
  Si  Si11  1  0.39494300  0.83496300  0.30194400  1
  Si  Si12  1  0.83583500  0.37094000  0.56207600  1
  Si  Si13  1  0.60808500  0.16711600  0.97038900  1
  Si  Si14  1  0.16711600  0.60808500  0.47038900  1
  Si  Si15  1  0.37094000  0.83583500  0.06207600  1
  Si  Si16  1  0.26097900  0.14166500  0.49609100  1
  Si  Si17  1  0.89467700  0.74288300  0.99702400  1
  Si  Si18  1  0.74288300  0.89467700  0.49702400  1
  Si  Si19  1  0.14166500  0.26097900  0.99609100  1
  H  H20  1  0.06296100  0.99101300  0.84738500  1
  H  H21  1  0.99101300  0.06296100  0.34738500  1
  H  H22  1  0.63409100  0.94774400  0.72345400  1
  H  H23  1  0.94774400  0.63409100  0.22345400  1
  H  H24  1  0.79599300  0.20108000  0.79101300  1
  H  H25  1  0.90811700  0.06192700  0.67644100  1
  H  H26  1  0.06192700  0.90811700  0.17644100  1
  H  H27  1  0.20108000  0.79599300  0.29101300  1
  H  H28  1  0.36514000  0.88516100  0.45003000  1
  H  H29  1  0.88516100  0.36514000  0.95003000  1
  H  H30  1  0.46659500  0.59757100  0.71558900  1
  H  H31  1  0.59757100  0.46659500  0.21558900  1
  H  H32  1  0.46221400  0.99486200  0.59871700  1
  H  H33  1  0.86523800  0.61142300  0.91817000  1
  H  H34  1  0.61142300  0.86523800  0.41817000  1
  H  H35  1  0.99486200  0.46221400  0.09871700  1
  H  H36  1  0.74243700  0.60097400  0.63309200  1
  H  H37  1  0.39328900  0.26646500  0.87389300  1
  H  H38  1  0.26646500  0.39328900  0.37389300  1
  H  H39  1  0.60097400  0.74243700  0.13309200  1
  O  O40  1  0.18798600  0.93608000  0.83721800  1
  O  O41  1  0.03740000  0.86605500  0.68901200  1
  O  O42  1  0.86605500  0.03740000  0.18901200  1
  O  O43  1  0.93608000  0.18798600  0.33721800  1
  O  O44  1  0.04930200  0.26500500  0.75247800  1
  O  O45  1  0.71150500  0.96949900  0.72710800  1
  O  O46  1  0.96949900  0.71150500  0.22710800  1
  O  O47  1  0.26500500  0.04930200  0.25247800  1
  O  O48  1  0.77130500  0.23519400  0.85510500  1
  O  O49  1  0.79820000  0.18790800  0.67780300  1
  O  O50  1  0.18790800  0.79820000  0.17780300  1
  O  O51  1  0.23519400  0.77130500  0.35510500  1
  O  O52  1  0.04759400  0.23901000  0.55303700  1
  O  O53  1  0.75643900  0.95837300  0.96858400  1
  O  O54  1  0.95837300  0.75643900  0.46858400  1
  O  O55  1  0.23901000  0.04759400  0.05303700  1
  O  O56  1  0.09305400  0.71666500  0.93996700  1
  O  O57  1  0.30699900  0.91988400  0.52197400  1
  O  O58  1  0.91988400  0.30699900  0.02197400  1
  O  O59  1  0.71666500  0.09305400  0.43996700  1
  O  O60  1  0.34046500  0.68381800  0.73262000  1
  O  O61  1  0.68381800  0.34046500  0.23262000  1
  O  O62  1  0.32886500  0.06974700  0.61818700  1
  O  O63  1  0.88823200  0.70668100  0.88300200  1
  O  O64  1  0.70668100  0.88823200  0.38300200  1
  O  O65  1  0.06974700  0.32886500  0.11818700  1
  O  O66  1  0.76885200  0.47908000  0.67251100  1
  O  O67  1  0.52249500  0.22093000  0.84265400  1
  O  O68  1  0.22093000  0.52249500  0.34265400  1
  O  O69  1  0.47908000  0.76885200  0.17251100  1
