# generated using pymatgen
data_SiHg2(OF3)2
_symmetry_space_group_name_H-M   'P 1'
_cell_length_a   9.08096100
_cell_length_b   5.11526500
_cell_length_c   8.53144830
_cell_angle_alpha   67.43227782
_cell_angle_beta   90.00000000
_cell_angle_gamma   90.00000000
_symmetry_Int_Tables_number   1
_chemical_formula_structural   SiHg2(OF3)2
_chemical_formula_sum   'Si2 Hg4 O4 F12'
_cell_volume   365.95280103
_cell_formula_units_Z   2
loop_
 _symmetry_equiv_pos_site_id
 _symmetry_equiv_pos_as_xyz
  1  'x, y, z'
loop_
 _atom_site_type_symbol
 _atom_site_label
 _atom_site_symmetry_multiplicity
 _atom_site_fract_x
 _atom_site_fract_y
 _atom_site_fract_z
 _atom_site_occupancy
  Si  Si0  1  0.00000000  0.00000000  0.50000000  1
  Si  Si1  1  0.50000000  0.00000000  0.00000000  1
  Hg  Hg2  1  0.65628300  0.74145200  0.61713200  1
  Hg  Hg3  1  0.15628300  0.25854800  0.88286800  1
  Hg  Hg4  1  0.34371700  0.25854800  0.38286800  1
  Hg  Hg5  1  0.84371700  0.74145200  0.11713200  1
  O  O6  1  0.02852000  0.60276200  0.03455000  1
  O  O7  1  0.52852000  0.39723800  0.46545000  1
  O  O8  1  0.97148000  0.39723800  0.96545000  1
  O  O9  1  0.47148000  0.60276200  0.53455000  1
  F  F10  1  0.61374600  0.89753000  0.87533000  1
  F  F11  1  0.11374600  0.10247000  0.62467000  1
  F  F12  1  0.38625400  0.10247000  0.12467000  1
  F  F13  1  0.88625400  0.89753000  0.37533000  1
  F  F14  1  0.07811500  0.67951100  0.57817800  1
  F  F15  1  0.57811500  0.32048900  0.92182200  1
  F  F16  1  0.92188500  0.32048900  0.42182200  1
  F  F17  1  0.42188500  0.67951100  0.07817800  1
  F  F18  1  0.86411300  0.88896200  0.66733200  1
  F  F19  1  0.36411300  0.11103800  0.83266800  1
  F  F20  1  0.13588700  0.11103800  0.33266800  1
  F  F21  1  0.63588700  0.88896200  0.16733200  1
