# generated using pymatgen
data_La23Cd4Pt7
_symmetry_space_group_name_H-M   'P 1'
_cell_length_a   10.26355803
_cell_length_b   10.26355803
_cell_length_c   23.34586000
_cell_angle_alpha   90.00000000
_cell_angle_beta   90.00000000
_cell_angle_gamma   120.00000022
_symmetry_Int_Tables_number   1
_chemical_formula_structural   La23Cd4Pt7
_chemical_formula_sum   'La46 Cd8 Pt14'
_cell_volume   2129.78808067
_cell_formula_units_Z   2
loop_
 _symmetry_equiv_pos_site_id
 _symmetry_equiv_pos_as_xyz
  1  'x, y, z'
loop_
 _atom_site_type_symbol
 _atom_site_label
 _atom_site_symmetry_multiplicity
 _atom_site_fract_x
 _atom_site_fract_y
 _atom_site_fract_z
 _atom_site_occupancy
  La  La0  1  0.40999300  0.20499700  0.94558500  1
  La  La1  1  0.33333300  0.66666700  0.14480400  1
  La  La2  1  0.57839100  0.78919500  0.99146600  1
  La  La3  1  0.12810000  0.87190000  0.13540800  1
  La  La4  1  0.20563400  0.79436600  0.72066400  1
  La  La5  1  0.91512900  0.45756500  0.35593700  1
  La  La6  1  0.92061500  0.46030700  0.08499500  1
  La  La7  1  0.07938500  0.53969300  0.58499500  1
  La  La8  1  0.78919500  0.21080500  0.49146600  1
  La  La9  1  0.12810000  0.25620000  0.13540800  1
  La  La10  1  0.20012600  0.40025200  0.28367300  1
  La  La11  1  0.59000700  0.79500300  0.44558500  1
  La  La12  1  0.87190000  0.12810000  0.63540800  1
  La  La13  1  0.58873200  0.79436600  0.72066400  1
  La  La14  1  0.79500300  0.20499700  0.94558500  1
  La  La15  1  0.21080500  0.78919500  0.99146600  1
  La  La16  1  0.40025200  0.20012600  0.78367300  1
  La  La17  1  0.20499700  0.40999300  0.44558500  1
  La  La18  1  0.53969300  0.07938500  0.08499500  1
  La  La19  1  0.79500300  0.59000700  0.94558500  1
  La  La20  1  0.42160900  0.21080500  0.49146600  1
  La  La21  1  0.08487100  0.54243500  0.85593700  1
  La  La22  1  0.46030700  0.53969300  0.58499500  1
  La  La23  1  0.79987400  0.59974800  0.78367300  1
  La  La24  1  0.20563400  0.41126800  0.72066400  1
  La  La25  1  0.00000000  0.00000000  0.49365900  1
  La  La26  1  0.59974800  0.79987400  0.28367300  1
  La  La27  1  0.20012600  0.79987400  0.28367300  1
  La  La28  1  0.79987400  0.20012600  0.78367300  1
  La  La29  1  0.66666700  0.33333300  0.64480400  1
  La  La30  1  0.54243500  0.08487100  0.35593700  1
  La  La31  1  0.25620000  0.12810000  0.63540800  1
  La  La32  1  0.00000000  0.00000000  0.99365900  1
  La  La33  1  0.20499700  0.79500300  0.44558500  1
  La  La34  1  0.45756500  0.54243500  0.85593700  1
  La  La35  1  0.79436600  0.58873200  0.22066400  1
  La  La36  1  0.45756500  0.91512900  0.85593700  1
  La  La37  1  0.79436600  0.20563400  0.22066400  1
  La  La38  1  0.21080500  0.42160900  0.99146600  1
  La  La39  1  0.78919500  0.57839100  0.49146600  1
  La  La40  1  0.46030700  0.92061500  0.58499500  1
  La  La41  1  0.54243500  0.45756500  0.35593700  1
  La  La42  1  0.53969300  0.46030700  0.08499500  1
  La  La43  1  0.87190000  0.74380000  0.63540800  1
  La  La44  1  0.74380000  0.87190000  0.13540800  1
  La  La45  1  0.41126800  0.20563400  0.22066400  1
  Cd  Cd46  1  0.21370400  0.10685200  0.36298400  1
  Cd  Cd47  1  0.00000000  0.00000000  0.24921200  1
  Cd  Cd48  1  0.10685200  0.21370400  0.86298400  1
  Cd  Cd49  1  0.89314800  0.78629600  0.36298400  1
  Cd  Cd50  1  0.89314800  0.10685200  0.36298400  1
  Cd  Cd51  1  0.00000000  0.00000000  0.74921200  1
  Cd  Cd52  1  0.10685200  0.89314800  0.86298400  1
  Cd  Cd53  1  0.78629600  0.89314800  0.86298400  1
  Pt  Pt54  1  0.66666700  0.33333300  0.86189300  1
  Pt  Pt55  1  0.33333300  0.66666700  0.36189300  1
  Pt  Pt56  1  0.95685200  0.47842600  0.71201100  1
  Pt  Pt57  1  0.47842600  0.52157400  0.21201100  1
  Pt  Pt58  1  0.52157400  0.47842600  0.71201100  1
  Pt  Pt59  1  0.52157400  0.04314800  0.71201100  1
  Pt  Pt60  1  0.14203200  0.85796800  0.56301200  1
  Pt  Pt61  1  0.85796800  0.71593600  0.06301200  1
  Pt  Pt62  1  0.04314800  0.52157400  0.21201100  1
  Pt  Pt63  1  0.14203200  0.28406400  0.56301200  1
  Pt  Pt64  1  0.28406400  0.14203200  0.06301200  1
  Pt  Pt65  1  0.85796800  0.14203200  0.06301200  1
  Pt  Pt66  1  0.71593600  0.85796800  0.56301200  1
  Pt  Pt67  1  0.47842600  0.95685200  0.21201100  1
