# generated using pymatgen
data_C
_symmetry_space_group_name_H-M   'P 1'
_cell_length_a   8.32137500
_cell_length_b   9.59662600
_cell_length_c   14.07642100
_cell_angle_alpha   90.00000000
_cell_angle_beta   90.00000000
_cell_angle_gamma   90.00000000
_symmetry_Int_Tables_number   1
_chemical_formula_structural   C
_chemical_formula_sum   C120
_cell_volume   1124.10249278
_cell_formula_units_Z   120
loop_
 _symmetry_equiv_pos_site_id
 _symmetry_equiv_pos_as_xyz
  1  'x, y, z'
loop_
 _atom_site_type_symbol
 _atom_site_label
 _atom_site_symmetry_multiplicity
 _atom_site_fract_x
 _atom_site_fract_y
 _atom_site_fract_z
 _atom_site_occupancy
  C  C0  1  0.15342400  0.28355100  0.14539100  1
  C  C1  1  0.81795900  0.35228000  0.44888900  1
  C  C2  1  0.23027700  0.83478800  0.21014600  1
  C  C3  1  0.18764600  0.32513600  0.95550700  1
  C  C4  1  0.68548500  0.12026600  0.12076500  1
  C  C5  1  0.15342400  0.71644900  0.14539100  1
  C  C6  1  0.81235400  0.67486400  0.04449300  1
  C  C7  1  0.31795900  0.14772000  0.05111100  1
  C  C8  1  0.69324800  0.92776400  0.86218900  1
  C  C9  1  0.84657600  0.71644900  0.85460900  1
  C  C10  1  0.81795900  0.64772000  0.44888900  1
  C  C11  1  0.68764600  0.17486400  0.54449300  1
  C  C12  1  0.18204100  0.64772000  0.55111100  1
  C  C13  1  0.84657600  0.28355100  0.85460900  1
  C  C14  1  0.06310500  0.87539100  0.74887800  1
  C  C15  1  0.78432800  0.50000000  0.68044200  1
  C  C16  1  0.14293400  0.57385500  0.46998600  1
  C  C17  1  0.22589800  0.23952800  0.87473700  1
  C  C18  1  0.72930400  0.22414000  0.45106000  1
  C  C19  1  0.07761600  0.42960400  0.91189500  1
  C  C20  1  0.31451500  0.12026600  0.87923500  1
  C  C21  1  0.37257700  0.23680700  0.28509300  1
  C  C22  1  0.71567200  0.00000000  0.18044200  1
  C  C23  1  0.26972300  0.33478800  0.71014600  1
  C  C24  1  0.31451500  0.87973400  0.87923500  1
  C  C25  1  0.57761600  0.07039600  0.58810500  1
  C  C26  1  0.27410200  0.26047200  0.37473700  1
  C  C27  1  0.18548500  0.37973400  0.37923500  1
  C  C28  1  0.68764600  0.82513600  0.54449300  1
  C  C29  1  0.18204100  0.35228000  0.55111100  1
  C  C30  1  0.80675200  0.42776400  0.36218900  1
  C  C31  1  0.16128800  0.00000000  0.75516700  1
  C  C32  1  0.85706600  0.57385500  0.53001400  1
  C  C33  1  0.81235400  0.32513600  0.04449300  1
  C  C34  1  0.72589800  0.26047200  0.62526300  1
  C  C35  1  0.64293400  0.07385500  0.03001400  1
  C  C36  1  0.68204100  0.85228000  0.94888900  1
  C  C37  1  0.22930400  0.72414000  0.04894000  1
  C  C38  1  0.73027700  0.33478800  0.28985400  1
  C  C39  1  0.65342400  0.21644900  0.35460900  1
  C  C40  1  0.92238400  0.57039600  0.08810500  1
  C  C41  1  0.65342400  0.78355100  0.35460900  1
  C  C42  1  0.83871200  0.00000000  0.24483300  1
  C  C43  1  0.27069600  0.22414000  0.54894000  1
  C  C44  1  0.76972300  0.16521200  0.78985400  1
  C  C45  1  0.42238400  0.07039600  0.41189500  1
  C  C46  1  0.06310500  0.12460900  0.74887800  1
  C  C47  1  0.42238400  0.92960400  0.41189500  1
  C  C48  1  0.19324800  0.57223600  0.63781100  1
  C  C49  1  0.77069600  0.27586000  0.95106000  1
  C  C50  1  0.31235400  0.82513600  0.45550700  1
  C  C51  1  0.99304700  0.65582300  0.83700500  1
  C  C52  1  0.62742300  0.76319300  0.71490700  1
  C  C53  1  0.43689500  0.62460900  0.24887800  1
  C  C54  1  0.76972300  0.83478800  0.78985400  1
  C  C55  1  0.81451500  0.37973400  0.62076500  1
  C  C56  1  0.49304700  0.15582300  0.66299500  1
  C  C57  1  0.62742300  0.23680700  0.71490700  1
  C  C58  1  0.77069600  0.72414000  0.95106000  1
  C  C59  1  0.77410200  0.23952800  0.12526300  1
  C  C60  1  0.09497900  0.07854000  0.25235100  1
  C  C61  1  0.12742300  0.26319300  0.78509300  1
  C  C62  1  0.14293400  0.42614500  0.46998600  1
  C  C63  1  0.07761600  0.57039600  0.91189500  1
  C  C64  1  0.23027700  0.16521200  0.21014600  1
  C  C65  1  0.93689500  0.87539100  0.25112200  1
  C  C66  1  0.43689500  0.37539100  0.24887800  1
  C  C67  1  0.27410200  0.73952800  0.37473700  1
  C  C68  1  0.68204100  0.14772000  0.94888900  1
  C  C69  1  0.90502100  0.92146000  0.74764900  1
  C  C70  1  0.57761600  0.92960400  0.58810500  1
  C  C71  1  0.50695300  0.84417700  0.33700500  1
  C  C72  1  0.28432800  0.00000000  0.81955800  1
  C  C73  1  0.35706600  0.92614500  0.96998600  1
  C  C74  1  0.92238400  0.42960400  0.08810500  1
  C  C75  1  0.40502100  0.42146000  0.75235100  1
  C  C76  1  0.18548500  0.62026600  0.37923500  1
  C  C77  1  0.99304700  0.34417700  0.83700500  1
  C  C78  1  0.81451500  0.62026600  0.62076500  1
  C  C79  1  0.66128800  0.50000000  0.74483300  1
  C  C80  1  0.30675200  0.92776400  0.13781100  1
  C  C81  1  0.21567200  0.50000000  0.31955800  1
  C  C82  1  0.12742300  0.73680700  0.78509300  1
  C  C83  1  0.27069600  0.77586000  0.54894000  1
  C  C84  1  0.77410200  0.76047200  0.12526300  1
  C  C85  1  0.26972300  0.66521200  0.71014600  1
  C  C86  1  0.50695300  0.15582300  0.33700500  1
  C  C87  1  0.68548500  0.87973400  0.12076500  1
  C  C88  1  0.59497900  0.57854000  0.24764900  1
  C  C89  1  0.72930400  0.77586000  0.45106000  1
  C  C90  1  0.33871200  0.50000000  0.25516700  1
  C  C91  1  0.59497900  0.42146000  0.24764900  1
  C  C92  1  0.30675200  0.07223600  0.13781100  1
  C  C93  1  0.00695300  0.65582300  0.16299500  1
  C  C94  1  0.31235400  0.17486400  0.45550700  1
  C  C95  1  0.34657600  0.78355100  0.64539100  1
  C  C96  1  0.93689500  0.12460900  0.25112200  1
  C  C97  1  0.64293400  0.92614500  0.03001400  1
  C  C98  1  0.00695300  0.34417700  0.16299500  1
  C  C99  1  0.87257700  0.73680700  0.21490700  1
  C  C100  1  0.34657600  0.21644900  0.64539100  1
  C  C101  1  0.80675200  0.57223600  0.36218900  1
  C  C102  1  0.72589800  0.73952800  0.62526300  1
  C  C103  1  0.90502100  0.07854000  0.74764900  1
  C  C104  1  0.09497900  0.92146000  0.25235100  1
  C  C105  1  0.35706600  0.07385500  0.96998600  1
  C  C106  1  0.49304700  0.84417700  0.66299500  1
  C  C107  1  0.56310500  0.37539100  0.75112200  1
  C  C108  1  0.56310500  0.62460900  0.75112200  1
  C  C109  1  0.31795900  0.85228000  0.05111100  1
  C  C110  1  0.18764600  0.67486400  0.95550700  1
  C  C111  1  0.19324800  0.42776400  0.63781100  1
  C  C112  1  0.87257700  0.26319300  0.21490700  1
  C  C113  1  0.73027700  0.66521200  0.28985400  1
  C  C114  1  0.40502100  0.57854000  0.75235100  1
  C  C115  1  0.22589800  0.76047200  0.87473700  1
  C  C116  1  0.69324800  0.07223600  0.86218900  1
  C  C117  1  0.37257700  0.76319300  0.28509300  1
  C  C118  1  0.22930400  0.27586000  0.04894000  1
  C  C119  1  0.85706600  0.42614500  0.53001400  1
