# generated using pymatgen
data_TiCl3
_symmetry_space_group_name_H-M   'P 1'
_cell_length_a   6.10575307
_cell_length_b   6.10575307
_cell_length_c   19.05697400
_cell_angle_alpha   90.00000000
_cell_angle_beta   90.00000000
_cell_angle_gamma   119.99998993
_symmetry_Int_Tables_number   1
_chemical_formula_structural   TiCl3
_chemical_formula_sum   'Ti6 Cl18'
_cell_volume   615.26624643
_cell_formula_units_Z   6
loop_
 _symmetry_equiv_pos_site_id
 _symmetry_equiv_pos_as_xyz
  1  'x, y, z'
loop_
 _atom_site_type_symbol
 _atom_site_label
 _atom_site_symmetry_multiplicity
 _atom_site_fract_x
 _atom_site_fract_y
 _atom_site_fract_z
 _atom_site_occupancy
  Ti  Ti0  1  0.00000000  0.00000000  0.16549300  1
  Ti  Ti1  1  0.00000000  0.00000000  0.83450700  1
  Ti  Ti2  1  0.66666700  0.33333300  0.50000000  1
  Ti  Ti3  1  0.33333300  0.66666700  0.83448500  1
  Ti  Ti4  1  0.33333300  0.66666700  0.50000000  1
  Ti  Ti5  1  0.33333300  0.66666700  0.16551500  1
  Cl  Cl6  1  0.64704800  0.99996600  0.42611700  1
  Cl  Cl7  1  0.66672400  0.98044400  0.76069100  1
  Cl  Cl8  1  0.35291800  0.35295200  0.42611700  1
  Cl  Cl9  1  0.01955600  0.33327600  0.23930900  1
  Cl  Cl10  1  0.31474100  0.98133200  0.90817600  1
  Cl  Cl11  1  0.00003400  0.35295200  0.57388300  1
  Cl  Cl12  1  0.64704800  0.64708200  0.57388300  1
  Cl  Cl13  1  0.00003400  0.64708200  0.42611700  1
  Cl  Cl14  1  0.66672400  0.68627900  0.23930900  1
  Cl  Cl15  1  0.01866800  0.33340900  0.90817600  1
  Cl  Cl16  1  0.31372100  0.33327600  0.76069100  1
  Cl  Cl17  1  0.35291800  0.99996600  0.57388300  1
  Cl  Cl18  1  0.66659100  0.68525900  0.90817600  1
  Cl  Cl19  1  0.31372100  0.98044400  0.23930900  1
  Cl  Cl20  1  0.01955600  0.68627900  0.76069100  1
  Cl  Cl21  1  0.01866800  0.68525900  0.09182400  1
  Cl  Cl22  1  0.66659100  0.98133200  0.09182400  1
  Cl  Cl23  1  0.31474100  0.33340900  0.09182400  1
