# generated using pymatgen
data_Al45V7
_symmetry_space_group_name_H-M   'P 1'
_cell_length_a   11.10639026
_cell_length_b   11.10639026
_cell_length_c   11.08407510
_cell_angle_alpha   74.07857064
_cell_angle_beta   74.07857064
_cell_angle_gamma   40.03292805
_symmetry_Int_Tables_number   1
_chemical_formula_structural   Al45V7
_chemical_formula_sum   'Al45 V7'
_cell_volume   841.13221698
_cell_formula_units_Z   1
loop_
 _symmetry_equiv_pos_site_id
 _symmetry_equiv_pos_as_xyz
  1  'x, y, z'
loop_
 _atom_site_type_symbol
 _atom_site_label
 _atom_site_symmetry_multiplicity
 _atom_site_fract_x
 _atom_site_fract_y
 _atom_site_fract_z
 _atom_site_occupancy
  Al  Al0  1  0.75094100  0.38654400  0.01036100  1
  Al  Al1  1  0.24905900  0.61345600  0.98963900  1
  Al  Al2  1  0.61345600  0.24905900  0.98963900  1
  Al  Al3  1  0.75988200  0.14940000  0.62316700  1
  Al  Al4  1  0.70717400  0.70717400  0.51036000  1
  Al  Al5  1  0.99555100  0.36540200  0.64835200  1
  Al  Al6  1  0.85060000  0.24011800  0.37683300  1
  Al  Al7  1  0.15057700  0.77767300  0.20560000  1
  Al  Al8  1  0.52842000  0.14152400  0.85626900  1
  Al  Al9  1  0.89111600  0.52005700  0.86723900  1
  Al  Al10  1  0.14152400  0.52842000  0.85626900  1
  Al  Al11  1  0.85847600  0.47158000  0.14373100  1
  Al  Al12  1  0.62501200  0.62501200  0.36172800  1
  Al  Al13  1  0.99429800  0.62575100  0.62185400  1
  Al  Al14  1  0.52005700  0.89111600  0.86723900  1
  Al  Al15  1  0.87127600  0.87127600  0.11283500  1
  Al  Al16  1  0.12872400  0.12872400  0.88716500  1
  Al  Al17  1  0.47928000  0.47928000  0.75680100  1
  Al  Al18  1  0.77536500  0.77536500  0.99222500  1
  Al  Al19  1  0.37424900  0.00570200  0.37814600  1
  Al  Al20  1  0.47158000  0.85847600  0.14373100  1
  Al  Al21  1  0.00444900  0.63459800  0.35164800  1
  Al  Al22  1  0.38443000  0.38443000  0.22794100  1
  Al  Al23  1  0.62575100  0.99429800  0.62185400  1
  Al  Al24  1  0.09046400  0.09046400  0.15452300  1
  Al  Al25  1  0.84942300  0.22232700  0.79440000  1
  Al  Al26  1  0.37498800  0.37498800  0.63827200  1
  Al  Al27  1  0.52072000  0.52072000  0.24319900  1
  Al  Al28  1  0.08257700  0.08257700  0.55797000  1
  Al  Al29  1  0.61557000  0.61557000  0.77205900  1
  Al  Al30  1  0.50000000  0.50000000  0.50000000  1
  Al  Al31  1  0.24011800  0.85060000  0.37683300  1
  Al  Al32  1  0.22463500  0.22463500  0.00777500  1
  Al  Al33  1  0.00570200  0.37424900  0.37814600  1
  Al  Al34  1  0.38654400  0.75094100  0.01036100  1
  Al  Al35  1  0.36540200  0.99555100  0.64835200  1
  Al  Al36  1  0.77767300  0.15057700  0.20560000  1
  Al  Al37  1  0.14940000  0.75988200  0.62316700  1
  Al  Al38  1  0.91742300  0.91742300  0.44203000  1
  Al  Al39  1  0.90953600  0.90953600  0.84547700  1
  Al  Al40  1  0.47994300  0.10888400  0.13276100  1
  Al  Al41  1  0.29282600  0.29282600  0.48964000  1
  Al  Al42  1  0.22232700  0.84942300  0.79440000  1
  Al  Al43  1  0.63459800  0.00444900  0.35164800  1
  Al  Al44  1  0.10888400  0.47994300  0.13276100  1
  V  V45  1  0.74899500  0.74899500  0.23945700  1
  V  V46  1  0.41582000  0.75578200  0.58093900  1
  V  V47  1  0.58418000  0.24421800  0.41906100  1
  V  V48  1  0.25100500  0.25100500  0.76054300  1
  V  V49  1  0.75578200  0.41582000  0.58093900  1
  V  V50  1  0.00000000  0.00000000  0.00000000  1
  V  V51  1  0.24421800  0.58418000  0.41906100  1
