# generated using pymatgen
data_LaMg4Cu
_symmetry_space_group_name_H-M   'P 1'
_cell_length_a   10.33366353
_cell_length_b   10.33366353
_cell_length_c   4.53365400
_cell_angle_alpha   90.00000000
_cell_angle_beta   90.00000000
_cell_angle_gamma   119.99999702
_symmetry_Int_Tables_number   1
_chemical_formula_structural   LaMg4Cu
_chemical_formula_sum   'La3 Mg12 Cu3'
_cell_volume   419.26407463
_cell_formula_units_Z   3
loop_
 _symmetry_equiv_pos_site_id
 _symmetry_equiv_pos_as_xyz
  1  'x, y, z'
loop_
 _atom_site_type_symbol
 _atom_site_label
 _atom_site_symmetry_multiplicity
 _atom_site_fract_x
 _atom_site_fract_y
 _atom_site_fract_z
 _atom_site_occupancy
  La  La0  1  0.00000000  0.40753100  0.00000000  1
  La  La1  1  0.40753100  0.00000000  0.00000000  1
  La  La2  1  0.59246900  0.59246900  0.00000000  1
  Mg  Mg3  1  0.52126900  0.81654100  0.50000000  1
  Mg  Mg4  1  0.29527200  0.47873100  0.50000000  1
  Mg  Mg5  1  0.47873100  0.29527200  0.50000000  1
  Mg  Mg6  1  0.70472800  0.18345900  0.50000000  1
  Mg  Mg7  1  0.83380800  0.83380800  0.50000000  1
  Mg  Mg8  1  0.00000000  0.16619200  0.50000000  1
  Mg  Mg9  1  0.16619200  0.00000000  0.50000000  1
  Mg  Mg10  1  0.18345900  0.70472800  0.50000000  1
  Mg  Mg11  1  0.00000000  0.74731400  0.00000000  1
  Mg  Mg12  1  0.81654100  0.52126900  0.50000000  1
  Mg  Mg13  1  0.25268600  0.25268600  0.00000000  1
  Mg  Mg14  1  0.74731400  0.00000000  0.00000000  1
  Cu  Cu15  1  0.00000000  0.00000000  0.00000000  1
  Cu  Cu16  1  0.66666700  0.33333300  0.00000000  1
  Cu  Cu17  1  0.33333300  0.66666700  0.00000000  1
