# generated using pymatgen
data_Tm2NiAs2
_symmetry_space_group_name_H-M   'P 1'
_cell_length_a   4.08664665
_cell_length_b   4.08664665
_cell_length_c   13.80678100
_cell_angle_alpha   90.00000000
_cell_angle_beta   90.00000000
_cell_angle_gamma   120.00001048
_symmetry_Int_Tables_number   1
_chemical_formula_structural   Tm2NiAs2
_chemical_formula_sum   'Tm4 Ni2 As4'
_cell_volume   199.69040512
_cell_formula_units_Z   2
loop_
 _symmetry_equiv_pos_site_id
 _symmetry_equiv_pos_as_xyz
  1  'x, y, z'
loop_
 _atom_site_type_symbol
 _atom_site_label
 _atom_site_symmetry_multiplicity
 _atom_site_fract_x
 _atom_site_fract_y
 _atom_site_fract_z
 _atom_site_occupancy
  Tm  Tm0  1  0.33333300  0.66666700  0.88049200  1
  Tm  Tm1  1  0.66666700  0.33333300  0.38049200  1
  Tm  Tm2  1  0.66666700  0.33333300  0.11569400  1
  Tm  Tm3  1  0.33333300  0.66666700  0.61569400  1
  Ni  Ni4  1  0.00000000  0.00000000  0.73465500  1
  Ni  Ni5  1  0.00000000  0.00000000  0.23465500  1
  As  As6  1  0.00000000  0.00000000  0.50018500  1
  As  As7  1  0.00000000  0.00000000  0.00018500  1
  As  As8  1  0.66666700  0.33333300  0.75264300  1
  As  As9  1  0.33333300  0.66666700  0.25264300  1
