# generated using pymatgen
data_H8C2BrN
_symmetry_space_group_name_H-M   'P 1'
_cell_length_a   6.28166900
_cell_length_b   4.71973200
_cell_length_c   8.52901320
_cell_angle_alpha   86.66291862
_cell_angle_beta   90.00000000
_cell_angle_gamma   90.00000000
_symmetry_Int_Tables_number   1
_chemical_formula_structural   H8C2BrN
_chemical_formula_sum   'H16 C4 Br2 N2'
_cell_volume   252.43765569
_cell_formula_units_Z   2
loop_
 _symmetry_equiv_pos_site_id
 _symmetry_equiv_pos_as_xyz
  1  'x, y, z'
loop_
 _atom_site_type_symbol
 _atom_site_label
 _atom_site_symmetry_multiplicity
 _atom_site_fract_x
 _atom_site_fract_y
 _atom_site_fract_z
 _atom_site_occupancy
  H  H0  1  0.10783900  0.82037900  0.72412600  1
  H  H1  1  0.61368000  0.75272900  0.13385300  1
  H  H2  1  0.60783900  0.17962100  0.27587400  1
  H  H3  1  0.75000000  0.96796200  0.53503100  1
  H  H4  1  0.25000000  0.98307200  0.96329400  1
  H  H5  1  0.39204700  0.29074900  0.56649200  1
  H  H6  1  0.10795300  0.29074900  0.56649200  1
  H  H7  1  0.89216100  0.17962100  0.27587400  1
  H  H8  1  0.11368000  0.24727100  0.86614700  1
  H  H9  1  0.38632000  0.24727100  0.86614700  1
  H  H10  1  0.60795300  0.70925100  0.43350800  1
  H  H11  1  0.25000000  0.03203800  0.46496900  1
  H  H12  1  0.39216100  0.82037900  0.72412600  1
  H  H13  1  0.75000000  0.01692800  0.03670600  1
  H  H14  1  0.89204700  0.70925100  0.43350800  1
  H  H15  1  0.88632000  0.75272900  0.13385300  1
  C  C16  1  0.25000000  0.95644100  0.71740200  1
  C  C17  1  0.75000000  0.04355900  0.28259800  1
  C  C18  1  0.75000000  0.84543800  0.42945800  1
  C  C19  1  0.25000000  0.15456200  0.57054200  1
  Br  Br20  1  0.75000000  0.38226600  0.84234700  1
  Br  Br21  1  0.25000000  0.61773400  0.15765300  1
  N  N22  1  0.25000000  0.12113800  0.86220800  1
  N  N23  1  0.75000000  0.87886200  0.13779200  1
