# generated using pymatgen
data_FeP4
_symmetry_space_group_name_H-M   'P 1'
_cell_length_a   5.69972257
_cell_length_b   5.69972257
_cell_length_c   5.53454800
_cell_angle_alpha   90.00000000
_cell_angle_beta   90.00000000
_cell_angle_gamma   127.86351004
_symmetry_Int_Tables_number   1
_chemical_formula_structural   FeP4
_chemical_formula_sum   'Fe2 P8'
_cell_volume   141.94759984
_cell_formula_units_Z   2
loop_
 _symmetry_equiv_pos_site_id
 _symmetry_equiv_pos_as_xyz
  1  'x, y, z'
loop_
 _atom_site_type_symbol
 _atom_site_label
 _atom_site_symmetry_multiplicity
 _atom_site_fract_x
 _atom_site_fract_y
 _atom_site_fract_z
 _atom_site_occupancy
  Fe  Fe0  1  0.17415800  0.82584200  0.75000000  1
  Fe  Fe1  1  0.82584200  0.17415800  0.25000000  1
  P  P2  1  0.00265800  0.63667200  0.13267200  1
  P  P3  1  0.30645100  0.26966900  0.80172200  1
  P  P4  1  0.99734200  0.36332800  0.63267200  1
  P  P5  1  0.26966900  0.30645100  0.19827800  1
  P  P6  1  0.63667200  0.00265800  0.86732800  1
  P  P7  1  0.36332800  0.99734200  0.36732800  1
  P  P8  1  0.69354900  0.73033100  0.30172200  1
  P  P9  1  0.73033100  0.69354900  0.69827800  1
