# generated using pymatgen
data_NbBr5
_symmetry_space_group_name_H-M   'P 1'
_cell_length_a   6.96443775
_cell_length_b   7.54283391
_cell_length_c   10.11951242
_cell_angle_alpha   109.93079391
_cell_angle_beta   91.12540355
_cell_angle_gamma   115.97432485
_symmetry_Int_Tables_number   1
_chemical_formula_structural   NbBr5
_chemical_formula_sum   'Nb2 Br10'
_cell_volume   440.20710756
_cell_formula_units_Z   2
loop_
 _symmetry_equiv_pos_site_id
 _symmetry_equiv_pos_as_xyz
  1  'x, y, z'
loop_
 _atom_site_type_symbol
 _atom_site_label
 _atom_site_symmetry_multiplicity
 _atom_site_fract_x
 _atom_site_fract_y
 _atom_site_fract_z
 _atom_site_occupancy
  Nb  Nb0  1  0.10496300  0.21814200  0.71971600  1
  Nb  Nb1  1  0.89503700  0.78185800  0.28028400  1
  Br  Br2  1  0.88752500  0.37201300  0.64932300  1
  Br  Br3  1  0.22844300  0.17333300  0.45821100  1
  Br  Br4  1  0.11247500  0.62798700  0.35067700  1
  Br  Br5  1  0.56461000  0.43579200  0.17470900  1
  Br  Br6  1  0.43539000  0.56420800  0.82529100  1
  Br  Br7  1  0.70358500  0.98566700  0.25457500  1
  Br  Br8  1  0.77155700  0.82666700  0.54178900  1
  Br  Br9  1  0.07002800  0.81622500  0.07636500  1
  Br  Br10  1  0.92997200  0.18377500  0.92363500  1
  Br  Br11  1  0.29641500  0.01433300  0.74542500  1
