# generated using pymatgen
data_Sn2Cl4O3
_symmetry_space_group_name_H-M   'P 1'
_cell_length_a   9.86089000
_cell_length_b   7.12304500
_cell_length_c   17.24033551
_cell_angle_alpha   79.57458526
_cell_angle_beta   90.00000000
_cell_angle_gamma   90.00000000
_symmetry_Int_Tables_number   1
_chemical_formula_structural   Sn2Cl4O3
_chemical_formula_sum   'Sn8 Cl16 O12'
_cell_volume   1190.96236671
_cell_formula_units_Z   4
loop_
 _symmetry_equiv_pos_site_id
 _symmetry_equiv_pos_as_xyz
  1  'x, y, z'
loop_
 _atom_site_type_symbol
 _atom_site_label
 _atom_site_symmetry_multiplicity
 _atom_site_fract_x
 _atom_site_fract_y
 _atom_site_fract_z
 _atom_site_occupancy
  Sn  Sn0  1  0.93065700  0.88757900  0.40078600  1
  Sn  Sn1  1  0.43065700  0.61242100  0.59921400  1
  Sn  Sn2  1  0.06934300  0.11242100  0.59921400  1
  Sn  Sn3  1  0.56934300  0.38757900  0.40078600  1
  Sn  Sn4  1  0.44626200  0.17679200  0.24683900  1
  Sn  Sn5  1  0.94626200  0.32320800  0.75316100  1
  Sn  Sn6  1  0.55373800  0.82320800  0.75316100  1
  Sn  Sn7  1  0.05373800  0.67679200  0.24683900  1
  Cl  Cl8  1  0.31683300  0.03908400  0.35867200  1
  Cl  Cl9  1  0.81683300  0.46091600  0.64132800  1
  Cl  Cl10  1  0.68316700  0.96091600  0.64132800  1
  Cl  Cl11  1  0.18316700  0.53908400  0.35867200  1
  Cl  Cl12  1  0.93289600  0.42751900  0.21037500  1
  Cl  Cl13  1  0.43289600  0.07248100  0.78962500  1
  Cl  Cl14  1  0.06710400  0.57248100  0.78962500  1
  Cl  Cl15  1  0.56710400  0.92751900  0.21037500  1
  Cl  Cl16  1  0.80961000  0.22689100  0.41808400  1
  Cl  Cl17  1  0.30961000  0.27310900  0.58191600  1
  Cl  Cl18  1  0.19039000  0.77310900  0.58191600  1
  Cl  Cl19  1  0.69039000  0.72689100  0.41808400  1
  Cl  Cl20  1  0.19839600  0.81073000  0.14602400  1
  Cl  Cl21  1  0.69839600  0.68927000  0.85397600  1
  Cl  Cl22  1  0.80160400  0.18927000  0.85397600  1
  Cl  Cl23  1  0.30160400  0.31073000  0.14602400  1
  O  O24  1  0.55956200  0.36618400  0.28373600  1
  O  O25  1  0.05956200  0.13381600  0.71626400  1
  O  O26  1  0.44043800  0.63381600  0.71626400  1
  O  O27  1  0.94043800  0.86618400  0.28373600  1
  O  O28  1  0.63042300  0.38332000  0.07426700  1
  O  O29  1  0.13042300  0.11668000  0.92573300  1
  O  O30  1  0.36957700  0.61668000  0.92573300  1
  O  O31  1  0.86957700  0.88332000  0.07426700  1
  O  O32  1  0.81570800  0.76572400  0.03964600  1
  O  O33  1  0.31570800  0.73427600  0.96035400  1
  O  O34  1  0.18429200  0.23427600  0.96035400  1
  O  O35  1  0.68429200  0.26572400  0.03964600  1
