# generated using pymatgen
data_CdCu2
_symmetry_space_group_name_H-M   'P 1'
_cell_length_a   5.04570414
_cell_length_b   5.04570414
_cell_length_c   16.17610900
_cell_angle_alpha   90.00000000
_cell_angle_beta   90.00000000
_cell_angle_gamma   120.00000177
_symmetry_Int_Tables_number   1
_chemical_formula_structural   CdCu2
_chemical_formula_sum   'Cd8 Cu16'
_cell_volume   356.65494596
_cell_formula_units_Z   8
loop_
 _symmetry_equiv_pos_site_id
 _symmetry_equiv_pos_as_xyz
  1  'x, y, z'
loop_
 _atom_site_type_symbol
 _atom_site_label
 _atom_site_symmetry_multiplicity
 _atom_site_fract_x
 _atom_site_fract_y
 _atom_site_fract_z
 _atom_site_occupancy
  Cd  Cd0  1  0.33333300  0.66666700  0.84395500  1
  Cd  Cd1  1  0.00000000  0.00000000  0.59427000  1
  Cd  Cd2  1  0.66666700  0.33333300  0.15604500  1
  Cd  Cd3  1  0.00000000  0.00000000  0.40573000  1
  Cd  Cd4  1  0.00000000  0.00000000  0.90573000  1
  Cd  Cd5  1  0.00000000  0.00000000  0.09427000  1
  Cd  Cd6  1  0.33333300  0.66666700  0.65604500  1
  Cd  Cd7  1  0.66666700  0.33333300  0.34395500  1
  Cu  Cu8  1  0.83561500  0.67122900  0.75000000  1
  Cu  Cu9  1  0.16438500  0.32877100  0.25000000  1
  Cu  Cu10  1  0.16438500  0.83561500  0.25000000  1
  Cu  Cu11  1  0.66666700  0.33333300  0.87458700  1
  Cu  Cu12  1  0.50000000  0.00000000  0.50000000  1
  Cu  Cu13  1  0.66666700  0.33333300  0.62541300  1
  Cu  Cu14  1  0.32877100  0.16438500  0.75000000  1
  Cu  Cu15  1  0.00000000  0.50000000  0.50000000  1
  Cu  Cu16  1  0.50000000  0.50000000  0.50000000  1
  Cu  Cu17  1  0.83561500  0.16438500  0.75000000  1
  Cu  Cu18  1  0.33333300  0.66666700  0.37458700  1
  Cu  Cu19  1  0.67122900  0.83561500  0.25000000  1
  Cu  Cu20  1  0.00000000  0.50000000  0.00000000  1
  Cu  Cu21  1  0.50000000  0.50000000  0.00000000  1
  Cu  Cu22  1  0.33333300  0.66666700  0.12541300  1
  Cu  Cu23  1  0.50000000  0.00000000  0.00000000  1
