# generated using pymatgen
data_Ag10Te4Br3
_symmetry_space_group_name_H-M   'P 1'
_cell_length_a   11.18513859
_cell_length_b   11.18513859
_cell_length_c   13.91523100
_cell_angle_alpha   90.00000000
_cell_angle_beta   90.00000000
_cell_angle_gamma   91.18424635
_symmetry_Int_Tables_number   1
_chemical_formula_structural   Ag10Te4Br3
_chemical_formula_sum   'Ag40 Te16 Br12'
_cell_volume   1740.52548359
_cell_formula_units_Z   4
loop_
 _symmetry_equiv_pos_site_id
 _symmetry_equiv_pos_as_xyz
  1  'x, y, z'
loop_
 _atom_site_type_symbol
 _atom_site_label
 _atom_site_symmetry_multiplicity
 _atom_site_fract_x
 _atom_site_fract_y
 _atom_site_fract_z
 _atom_site_occupancy
  Ag  Ag0  1  0.88189300  0.93411100  0.21643900  1
  Ag  Ag1  1  0.15217000  0.64734500  0.35857300  1
  Ag  Ag2  1  0.82502200  0.36505800  0.09813000  1
  Ag  Ag3  1  0.17497800  0.63494200  0.59813000  1
  Ag  Ag4  1  0.31350000  0.40187400  0.34027300  1
  Ag  Ag5  1  0.88610000  0.35786500  0.35974800  1
  Ag  Ag6  1  0.35265500  0.84783000  0.35857300  1
  Ag  Ag7  1  0.60455600  0.14774100  0.63188300  1
  Ag  Ag8  1  0.64213500  0.11390000  0.35974800  1
  Ag  Ag9  1  0.85225900  0.39544400  0.63188300  1
  Ag  Ag10  1  0.35762500  0.40061600  0.12491900  1
  Ag  Ag11  1  0.62583900  0.37416100  0.73797400  1
  Ag  Ag12  1  0.59812600  0.68650000  0.34027300  1
  Ag  Ag13  1  0.79810400  0.98839200  0.55287300  1
  Ag  Ag14  1  0.63494200  0.17497800  0.09813000  1
  Ag  Ag15  1  0.02578000  0.16358700  0.90809400  1
  Ag  Ag16  1  0.40061600  0.35762500  0.62491900  1
  Ag  Ag17  1  0.98839200  0.79810400  0.05287300  1
  Ag  Ag18  1  0.35786500  0.88610000  0.85974800  1
  Ag  Ag19  1  0.59938400  0.64237500  0.12491900  1
  Ag  Ag20  1  0.64734500  0.15217000  0.85857300  1
  Ag  Ag21  1  0.14774100  0.60455600  0.13188300  1
  Ag  Ag22  1  0.16358700  0.02578000  0.40809400  1
  Ag  Ag23  1  0.83641300  0.97422000  0.90809400  1
  Ag  Ag24  1  0.93411100  0.88189300  0.71643900  1
  Ag  Ag25  1  0.36505800  0.82502200  0.59813000  1
  Ag  Ag26  1  0.40187400  0.31350000  0.84027300  1
  Ag  Ag27  1  0.20189600  0.01160800  0.05287300  1
  Ag  Ag28  1  0.97422000  0.83641300  0.40809400  1
  Ag  Ag29  1  0.06588900  0.11810700  0.21643900  1
  Ag  Ag30  1  0.14604200  0.85395800  0.21988100  1
  Ag  Ag31  1  0.11390000  0.64213500  0.85974800  1
  Ag  Ag32  1  0.11810700  0.06588900  0.71643900  1
  Ag  Ag33  1  0.39544400  0.85225900  0.13188300  1
  Ag  Ag34  1  0.64237500  0.59938400  0.62491900  1
  Ag  Ag35  1  0.01160800  0.20189600  0.55287300  1
  Ag  Ag36  1  0.37416100  0.62583900  0.23797400  1
  Ag  Ag37  1  0.85395800  0.14604200  0.71988100  1
  Ag  Ag38  1  0.84783000  0.35265500  0.85857300  1
  Ag  Ag39  1  0.68650000  0.59812600  0.84027300  1
  Te  Te40  1  0.63062600  0.36937400  0.53802500  1
  Te  Te41  1  0.89106600  0.10893400  0.39219700  1
  Te  Te42  1  0.36937400  0.63062600  0.03802500  1
  Te  Te43  1  0.29184900  0.52450400  0.75173200  1
  Te  Te44  1  0.04940400  0.30859200  0.73983900  1
  Te  Te45  1  0.30859200  0.04940400  0.23983900  1
  Te  Te46  1  0.69140800  0.95059600  0.73983900  1
  Te  Te47  1  0.52450400  0.29184900  0.25173200  1
  Te  Te48  1  0.11905000  0.88095000  0.57270400  1
  Te  Te49  1  0.61911200  0.38088800  0.93877500  1
  Te  Te50  1  0.95059600  0.69140800  0.23983900  1
  Te  Te51  1  0.10893400  0.89106600  0.89219700  1
  Te  Te52  1  0.88095000  0.11905000  0.07270400  1
  Te  Te53  1  0.70815100  0.47549600  0.25173200  1
  Te  Te54  1  0.47549600  0.70815100  0.75173200  1
  Te  Te55  1  0.38088800  0.61911200  0.43877500  1
  Br  Br56  1  0.50558100  0.00514100  0.99120100  1
  Br  Br57  1  0.10279300  0.36289900  0.23834300  1
  Br  Br58  1  0.25147800  0.25253600  0.99061200  1
  Br  Br59  1  0.00514100  0.50558100  0.49120100  1
  Br  Br60  1  0.63710100  0.89720700  0.23834300  1
  Br  Br61  1  0.74852200  0.74746400  0.49061200  1
  Br  Br62  1  0.74746400  0.74852200  0.99061200  1
  Br  Br63  1  0.36289900  0.10279300  0.73834300  1
  Br  Br64  1  0.25253600  0.25147800  0.49061200  1
  Br  Br65  1  0.49441900  0.99485900  0.49120100  1
  Br  Br66  1  0.89720700  0.63710100  0.73834300  1
  Br  Br67  1  0.99485900  0.49441900  0.99120100  1
