# generated using pymatgen
data_ScBr3O7
_symmetry_space_group_name_H-M   'P 1'
_cell_length_a   9.16016500
_cell_length_b   6.56587000
_cell_length_c   9.69128984
_cell_angle_alpha   48.44038983
_cell_angle_beta   90.00000000
_cell_angle_gamma   90.00000000
_symmetry_Int_Tables_number   1
_chemical_formula_structural   ScBr3O7
_chemical_formula_sum   'Sc2 Br6 O14'
_cell_volume   436.14724120
_cell_formula_units_Z   2
loop_
 _symmetry_equiv_pos_site_id
 _symmetry_equiv_pos_as_xyz
  1  'x, y, z'
loop_
 _atom_site_type_symbol
 _atom_site_label
 _atom_site_symmetry_multiplicity
 _atom_site_fract_x
 _atom_site_fract_y
 _atom_site_fract_z
 _atom_site_occupancy
  Sc  Sc0  1  0.14136600  0.50000000  0.75000000  1
  Sc  Sc1  1  0.85863400  0.50000000  0.25000000  1
  Br  Br2  1  0.17163800  0.23880300  0.51473600  1
  Br  Br3  1  0.82836200  0.76119700  0.48526400  1
  Br  Br4  1  0.17163800  0.76119700  0.98526400  1
  Br  Br5  1  0.82836200  0.23880300  0.01473600  1
  Br  Br6  1  0.76804200  0.00000000  0.75000000  1
  Br  Br7  1  0.23195800  0.00000000  0.25000000  1
  O  O8  1  0.21124200  0.65176100  0.49824800  1
  O  O9  1  0.78875800  0.34823900  0.50175200  1
  O  O10  1  0.21124200  0.34823900  0.00175200  1
  O  O11  1  0.78875800  0.65176100  0.99824800  1
  O  O12  1  0.90944300  0.50000000  0.75000000  1
  O  O13  1  0.09055700  0.50000000  0.25000000  1
  O  O14  1  0.18013000  0.87720400  0.67156900  1
  O  O15  1  0.81987000  0.12279600  0.32843100  1
  O  O16  1  0.18013000  0.12279600  0.82843100  1
  O  O17  1  0.81987000  0.87720400  0.17156900  1
  O  O18  1  0.49716600  0.62289500  0.70849800  1
  O  O19  1  0.50283400  0.37710500  0.29150200  1
  O  O20  1  0.49716600  0.37710500  0.79150200  1
  O  O21  1  0.50283400  0.62289500  0.20849800  1
