# generated using pymatgen
data_BiBr
_symmetry_space_group_name_H-M   'P 1'
_cell_length_a   7.62199944
_cell_length_b   7.62199944
_cell_length_c   21.49375260
_cell_angle_alpha   71.74696069
_cell_angle_beta   71.74696069
_cell_angle_gamma   32.51887712
_symmetry_Int_Tables_number   1
_chemical_formula_structural   BiBr
_chemical_formula_sum   'Bi8 Br8'
_cell_volume   634.52839271
_cell_formula_units_Z   8
loop_
 _symmetry_equiv_pos_site_id
 _symmetry_equiv_pos_as_xyz
  1  'x, y, z'
loop_
 _atom_site_type_symbol
 _atom_site_label
 _atom_site_symmetry_multiplicity
 _atom_site_fract_x
 _atom_site_fract_y
 _atom_site_fract_z
 _atom_site_occupancy
  Bi  Bi0  1  0.82618300  0.82618300  0.99445600  1
  Bi  Bi1  1  0.17381700  0.17381700  0.00554400  1
  Bi  Bi2  1  0.82116800  0.82116800  0.50507500  1
  Bi  Bi3  1  0.79424400  0.79424400  0.14381700  1
  Bi  Bi4  1  0.20575600  0.20575600  0.85618300  1
  Bi  Bi5  1  0.17883200  0.17883200  0.49492500  1
  Bi  Bi6  1  0.92928200  0.92928200  0.35512300  1
  Bi  Bi7  1  0.07071800  0.07071800  0.64487700  1
  Br  Br8  1  0.85230600  0.85230600  0.81793500  1
  Br  Br9  1  0.54971700  0.54971700  0.38176700  1
  Br  Br10  1  0.55913600  0.55913600  0.88695900  1
  Br  Br11  1  0.44086400  0.44086400  0.11304100  1
  Br  Br12  1  0.45028300  0.45028300  0.61823300  1
  Br  Br13  1  0.31790800  0.31790800  0.31828100  1
  Br  Br14  1  0.68209200  0.68209200  0.68171900  1
  Br  Br15  1  0.14769400  0.14769400  0.18206500  1
