# generated using pymatgen
data_Sb3O14
_symmetry_space_group_name_H-M   'P 1'
_cell_length_a   14.94328500
_cell_length_b   5.85603400
_cell_length_c   5.86391122
_cell_angle_alpha   71.72741294
_cell_angle_beta   90.00000000
_cell_angle_gamma   90.00000000
_symmetry_Int_Tables_number   1
_chemical_formula_structural   Sb3O14
_chemical_formula_sum   'Sb6 O28'
_cell_volume   487.26655226
_cell_formula_units_Z   2
loop_
 _symmetry_equiv_pos_site_id
 _symmetry_equiv_pos_as_xyz
  1  'x, y, z'
loop_
 _atom_site_type_symbol
 _atom_site_label
 _atom_site_symmetry_multiplicity
 _atom_site_fract_x
 _atom_site_fract_y
 _atom_site_fract_z
 _atom_site_occupancy
  Sb  Sb0  1  0.50000000  0.00000000  0.00000000  1
  Sb  Sb1  1  0.00000000  0.00000000  0.00000000  1
  Sb  Sb2  1  0.57072700  0.65155800  0.61304400  1
  Sb  Sb3  1  0.07072700  0.34844200  0.38695600  1
  Sb  Sb4  1  0.42927300  0.34844200  0.38695600  1
  Sb  Sb5  1  0.92927300  0.65155800  0.61304400  1
  O  O6  1  0.75000000  0.13187500  0.99563200  1
  O  O7  1  0.25000000  0.86812500  0.00436800  1
  O  O8  1  0.75000000  0.65902900  0.82629800  1
  O  O9  1  0.25000000  0.34097100  0.17370200  1
  O  O10  1  0.51242800  0.22034400  0.20836300  1
  O  O11  1  0.01242800  0.77965600  0.79163700  1
  O  O12  1  0.48757200  0.77965600  0.79163700  1
  O  O13  1  0.98757200  0.22034400  0.20836300  1
  O  O14  1  0.34744600  0.14714500  0.60455300  1
  O  O15  1  0.84744600  0.85285500  0.39544700  1
  O  O16  1  0.65255400  0.85285500  0.39544700  1
  O  O17  1  0.15255400  0.14714500  0.60455300  1
  O  O18  1  0.32546000  0.48919500  0.12458500  1
  O  O19  1  0.82546000  0.51080500  0.87541500  1
  O  O20  1  0.67454000  0.51080500  0.87541500  1
  O  O21  1  0.17454000  0.48919500  0.12458500  1
  O  O22  1  0.52146700  0.31458400  0.67512800  1
  O  O23  1  0.02146700  0.68541600  0.32487200  1
  O  O24  1  0.47853300  0.68541600  0.32487200  1
  O  O25  1  0.97853300  0.31458400  0.67512800  1
  O  O26  1  0.37336600  0.06967200  0.97870800  1
  O  O27  1  0.87336600  0.93032800  0.02129200  1
  O  O28  1  0.62663400  0.93032800  0.02129200  1
  O  O29  1  0.12663400  0.06967200  0.97870800  1
  O  O30  1  0.70879300  0.36104600  0.40934500  1
  O  O31  1  0.20879300  0.63895400  0.59065500  1
  O  O32  1  0.29120700  0.63895400  0.59065500  1
  O  O33  1  0.79120700  0.36104600  0.40934500  1
