# generated using pymatgen
data_Rb2Te
_symmetry_space_group_name_H-M   'P 1'
_cell_length_a   6.12774300
_cell_length_b   8.16357300
_cell_length_c   10.67119000
_cell_angle_alpha   90.00000000
_cell_angle_beta   90.00000000
_cell_angle_gamma   90.00000000
_symmetry_Int_Tables_number   1
_chemical_formula_structural   Rb2Te
_chemical_formula_sum   'Rb8 Te4'
_cell_volume   533.81856774
_cell_formula_units_Z   4
loop_
 _symmetry_equiv_pos_site_id
 _symmetry_equiv_pos_as_xyz
  1  'x, y, z'
loop_
 _atom_site_type_symbol
 _atom_site_label
 _atom_site_symmetry_multiplicity
 _atom_site_fract_x
 _atom_site_fract_y
 _atom_site_fract_z
 _atom_site_occupancy
  Rb  Rb0  1  0.25000000  0.50244800  0.74236100  1
  Rb  Rb1  1  0.75000000  0.49755200  0.25763900  1
  Rb  Rb2  1  0.75000000  0.75970800  0.58279300  1
  Rb  Rb3  1  0.25000000  0.74029200  0.08279300  1
  Rb  Rb4  1  0.25000000  0.24029200  0.41720700  1
  Rb  Rb5  1  0.25000000  0.00244800  0.75763900  1
  Rb  Rb6  1  0.75000000  0.25970800  0.91720700  1
  Rb  Rb7  1  0.75000000  0.99755200  0.24236100  1
  Te  Te8  1  0.25000000  0.74673500  0.41547900  1
  Te  Te9  1  0.75000000  0.75326500  0.91547900  1
  Te  Te10  1  0.25000000  0.24673500  0.08452100  1
  Te  Te11  1  0.75000000  0.25326500  0.58452100  1
