# generated using pymatgen
data_K3Cr(CN)6
_symmetry_space_group_name_H-M   'P 1'
_cell_length_a   13.80029700
_cell_length_b   8.54993400
_cell_length_c   13.75363929
_cell_angle_alpha   51.50785513
_cell_angle_beta   90.00000000
_cell_angle_gamma   90.00000000
_symmetry_Int_Tables_number   1
_chemical_formula_structural   K3Cr(CN)6
_chemical_formula_sum   'K12 Cr4 C24 N24'
_cell_volume   1270.16619410
_cell_formula_units_Z   4
loop_
 _symmetry_equiv_pos_site_id
 _symmetry_equiv_pos_as_xyz
  1  'x, y, z'
loop_
 _atom_site_type_symbol
 _atom_site_label
 _atom_site_symmetry_multiplicity
 _atom_site_fract_x
 _atom_site_fract_y
 _atom_site_fract_z
 _atom_site_occupancy
  K  K0  1  0.50213200  0.11055500  0.76401900  1
  K  K1  1  0.49952700  0.41637600  0.20709600  1
  K  K2  1  0.26091300  0.35519200  0.51772100  1
  K  K3  1  0.00047300  0.41637600  0.70709600  1
  K  K4  1  0.99952700  0.58362400  0.29290400  1
  K  K5  1  0.23908700  0.35519200  0.01772100  1
  K  K6  1  0.00213200  0.88944500  0.73598100  1
  K  K7  1  0.76091300  0.64480800  0.98227900  1
  K  K8  1  0.50047300  0.58362400  0.79290400  1
  K  K9  1  0.99786800  0.11055500  0.26401900  1
  K  K10  1  0.49786800  0.88944500  0.23598100  1
  K  K11  1  0.73908700  0.64480800  0.48227900  1
  Cr  Cr12  1  0.25681300  0.85888100  0.51757900  1
  Cr  Cr13  1  0.74318700  0.14111900  0.48242100  1
  Cr  Cr14  1  0.75681300  0.14111900  0.98242100  1
  Cr  Cr15  1  0.24318700  0.85888100  0.01757900  1
  C  C16  1  0.34983500  0.62811400  0.57910600  1
  C  C17  1  0.85109400  0.03632600  0.92010900  1
  C  C18  1  0.30895300  0.68782100  0.18596300  1
  C  C19  1  0.80895300  0.31217900  0.31403700  1
  C  C20  1  0.35109400  0.96367400  0.57989100  1
  C  C21  1  0.15016500  0.62811400  0.07910600  1
  C  C22  1  0.84179500  0.92399600  0.53286800  1
  C  C23  1  0.65016500  0.37188600  0.42089400  1
  C  C24  1  0.33793100  0.74508800  0.96157200  1
  C  C25  1  0.19104700  0.68782100  0.68596300  1
  C  C26  1  0.31716100  0.03403600  0.34400000  1
  C  C27  1  0.18283900  0.03403600  0.84400000  1
  C  C28  1  0.69104700  0.31217900  0.81403700  1
  C  C29  1  0.68283900  0.96596400  0.65600000  1
  C  C30  1  0.15820500  0.07600400  0.46713200  1
  C  C31  1  0.66206900  0.25491200  0.03842800  1
  C  C32  1  0.64890600  0.03632600  0.42010900  1
  C  C33  1  0.81716100  0.96596400  0.15600000  1
  C  C34  1  0.84983500  0.37188600  0.92089400  1
  C  C35  1  0.83793100  0.25491200  0.53842800  1
  C  C36  1  0.14890600  0.96367400  0.07989100  1
  C  C37  1  0.34179500  0.07600400  0.96713200  1
  C  C38  1  0.16206900  0.74508800  0.46157200  1
  C  C39  1  0.65820500  0.92399600  0.03286800  1
  N  N40  1  0.60066100  0.51344200  0.38018000  1
  N  N41  1  0.35088000  0.59097300  0.28118200  1
  N  N42  1  0.89287600  0.33186700  0.56281900  1
  N  N43  1  0.10105400  0.20093300  0.43906700  1
  N  N44  1  0.59664400  0.97605300  0.38240600  1
  N  N45  1  0.10712400  0.66813300  0.43718100  1
  N  N46  1  0.35198600  0.13437000  0.24419200  1
  N  N47  1  0.39933900  0.48655800  0.61982000  1
  N  N48  1  0.85198600  0.86563000  0.25580800  1
  N  N49  1  0.60712400  0.33186700  0.06281900  1
  N  N50  1  0.85088000  0.40902700  0.21881800  1
  N  N51  1  0.39894600  0.20093300  0.93906700  1
  N  N52  1  0.39287600  0.66813300  0.93718100  1
  N  N53  1  0.10066100  0.48655800  0.11982000  1
  N  N54  1  0.90335600  0.97605300  0.88240600  1
  N  N55  1  0.40335600  0.02394700  0.61759400  1
  N  N56  1  0.14912000  0.59097300  0.78118200  1
  N  N57  1  0.64801400  0.86563000  0.75580800  1
  N  N58  1  0.09664400  0.02394700  0.11759400  1
  N  N59  1  0.64912000  0.40902700  0.71881800  1
  N  N60  1  0.89933900  0.51344200  0.88018000  1
  N  N61  1  0.89894600  0.79906700  0.56093300  1
  N  N62  1  0.60105400  0.79906700  0.06093300  1
  N  N63  1  0.14801400  0.13437000  0.74419200  1
