# generated using pymatgen
data_Mn2H30C9N3Cl7
_symmetry_space_group_name_H-M   'P 1'
_cell_length_a   14.65218214
_cell_length_b   14.65218214
_cell_length_c   6.43755500
_cell_angle_alpha   90.00000000
_cell_angle_beta   90.00000000
_cell_angle_gamma   120.00000065
_symmetry_Int_Tables_number   1
_chemical_formula_structural   Mn2H30C9N3Cl7
_chemical_formula_sum   'Mn4 H60 C18 N6 Cl14'
_cell_volume   1196.89540321
_cell_formula_units_Z   2
loop_
 _symmetry_equiv_pos_site_id
 _symmetry_equiv_pos_as_xyz
  1  'x, y, z'
loop_
 _atom_site_type_symbol
 _atom_site_label
 _atom_site_symmetry_multiplicity
 _atom_site_fract_x
 _atom_site_fract_y
 _atom_site_fract_z
 _atom_site_occupancy
  Mn  Mn0  1  0.66666700  0.33333300  0.64303300  1
  Mn  Mn1  1  0.00000000  0.00000000  0.50259400  1
  Mn  Mn2  1  0.33333300  0.66666700  0.14303300  1
  Mn  Mn3  1  0.00000000  0.00000000  0.00259400  1
  H  H4  1  0.75561300  0.67904700  0.99330000  1
  H  H5  1  0.14422500  0.68610600  0.41910300  1
  H  H6  1  0.32095300  0.07656600  0.99330000  1
  H  H7  1  0.58271900  0.93506700  0.64919900  1
  H  H8  1  0.68610600  0.54188100  0.91910300  1
  H  H9  1  0.32095300  0.24438700  0.99330000  1
  H  H10  1  0.93506700  0.35234800  0.14919900  1
  H  H11  1  0.36957600  0.12390800  0.45563600  1
  H  H12  1  0.24566800  0.87609200  0.95563600  1
  H  H13  1  0.41728100  0.06493300  0.14919900  1
  H  H14  1  0.26839100  0.13419600  0.31557500  1
  H  H15  1  0.73160900  0.86580400  0.81557500  1
  H  H16  1  0.50213700  0.75106900  0.72190000  1
  H  H17  1  0.35234800  0.41728100  0.64919900  1
  H  H18  1  0.75561300  0.07656600  0.99330000  1
  H  H19  1  0.86580400  0.13419600  0.31557500  1
  H  H20  1  0.93506700  0.58271900  0.14919900  1
  H  H21  1  0.86580400  0.73160900  0.31557500  1
  H  H22  1  0.06493300  0.41728100  0.64919900  1
  H  H23  1  0.36957600  0.24566800  0.45563600  1
  H  H24  1  0.12390800  0.75433200  0.95563600  1
  H  H25  1  0.13419600  0.86580400  0.81557500  1
  H  H26  1  0.87609200  0.63042400  0.45563600  1
  H  H27  1  0.45811900  0.31389400  0.91910300  1
  H  H28  1  0.75433200  0.12390800  0.45563600  1
  H  H29  1  0.14422500  0.45811900  0.41910300  1
  H  H30  1  0.07656600  0.32095300  0.49330000  1
  H  H31  1  0.67904700  0.75561300  0.49330000  1
  H  H32  1  0.64765200  0.06493300  0.14919900  1
  H  H33  1  0.54188100  0.68610600  0.41910300  1
  H  H34  1  0.31389400  0.85577500  0.41910300  1
  H  H35  1  0.24893100  0.49786300  0.72190000  1
  H  H36  1  0.35234800  0.93506700  0.64919900  1
  H  H37  1  0.75106900  0.50213700  0.22190000  1
  H  H38  1  0.58271900  0.64765200  0.64919900  1
  H  H39  1  0.07656600  0.75561300  0.49330000  1
  H  H40  1  0.24438700  0.92343400  0.49330000  1
  H  H41  1  0.67904700  0.92343400  0.49330000  1
  H  H42  1  0.54188100  0.85577500  0.41910300  1
  H  H43  1  0.31389400  0.45811900  0.41910300  1
  H  H44  1  0.24438700  0.32095300  0.49330000  1
  H  H45  1  0.41728100  0.35234800  0.14919900  1
  H  H46  1  0.24893100  0.75106900  0.72190000  1
  H  H47  1  0.92343400  0.67904700  0.99330000  1
  H  H48  1  0.85577500  0.31389400  0.91910300  1
  H  H49  1  0.49786300  0.24893100  0.22190000  1
  H  H50  1  0.12390800  0.36957600  0.95563600  1
  H  H51  1  0.45811900  0.14422500  0.91910300  1
  H  H52  1  0.68610600  0.14422500  0.91910300  1
  H  H53  1  0.13419600  0.26839100  0.81557500  1
  H  H54  1  0.63042400  0.75433200  0.95563600  1
  H  H55  1  0.24566800  0.36957600  0.95563600  1
  H  H56  1  0.92343400  0.24438700  0.99330000  1
  H  H57  1  0.75433200  0.63042400  0.45563600  1
  H  H58  1  0.87609200  0.24566800  0.45563600  1
  H  H59  1  0.63042400  0.87609200  0.95563600  1
  H  H60  1  0.85577500  0.54188100  0.91910300  1
  H  H61  1  0.06493300  0.64765200  0.64919900  1
  H  H62  1  0.64765200  0.58271900  0.14919900  1
  H  H63  1  0.75106900  0.24893100  0.22190000  1
  C  C64  1  0.35110500  0.17555200  0.36441800  1
  C  C65  1  0.28577100  0.88321700  0.54939600  1
  C  C66  1  0.17555200  0.82444800  0.86441800  1
  C  C67  1  0.28577100  0.40255400  0.54939600  1
  C  C68  1  0.82444800  0.64889500  0.36441800  1
  C  C69  1  0.71422900  0.11678300  0.04939600  1
  C  C70  1  0.88321700  0.59744600  0.04939600  1
  C  C71  1  0.71422900  0.59744600  0.04939600  1
  C  C72  1  0.59744600  0.71422900  0.54939600  1
  C  C73  1  0.40255400  0.11678300  0.04939600  1
  C  C74  1  0.17555200  0.35110500  0.86441800  1
  C  C75  1  0.11678300  0.40255400  0.54939600  1
  C  C76  1  0.59744600  0.88321700  0.54939600  1
  C  C77  1  0.82444800  0.17555200  0.36441800  1
  C  C78  1  0.11678300  0.71422900  0.54939600  1
  C  C79  1  0.40255400  0.28577100  0.04939600  1
  C  C80  1  0.88321700  0.28577100  0.04939600  1
  C  C81  1  0.64889500  0.82444800  0.86441800  1
  N  N82  1  0.58046600  0.79023300  0.67528100  1
  N  N83  1  0.41953400  0.20976700  0.17528100  1
  N  N84  1  0.79023300  0.20976700  0.17528100  1
  N  N85  1  0.20976700  0.41953400  0.67528100  1
  N  N86  1  0.79023300  0.58046600  0.17528100  1
  N  N87  1  0.20976700  0.79023300  0.67528100  1
  Cl  Cl88  1  0.07843900  0.15687700  0.25366600  1
  Cl  Cl89  1  0.33333300  0.66666700  0.51506800  1
  Cl  Cl90  1  0.92156100  0.07843900  0.75366600  1
  Cl  Cl91  1  0.92156100  0.84312300  0.75366600  1
  Cl  Cl92  1  0.84297900  0.42148900  0.53009000  1
  Cl  Cl93  1  0.15702100  0.57851100  0.03009000  1
  Cl  Cl94  1  0.42148900  0.57851100  0.03009000  1
  Cl  Cl95  1  0.15687700  0.07843900  0.75366600  1
  Cl  Cl96  1  0.57851100  0.42148900  0.53009000  1
  Cl  Cl97  1  0.42148900  0.84297900  0.03009000  1
  Cl  Cl98  1  0.66666700  0.33333300  0.01506800  1
  Cl  Cl99  1  0.07843900  0.92156100  0.25366600  1
  Cl  Cl100  1  0.84312300  0.92156100  0.25366600  1
  Cl  Cl101  1  0.57851100  0.15702100  0.53009000  1
