# generated using pymatgen
data_V2NiP2H6O13
_symmetry_space_group_name_H-M   'P 1'
_cell_length_a   9.52082200
_cell_length_b   9.82418500
_cell_length_c   10.42843700
_cell_angle_alpha   90.00000000
_cell_angle_beta   90.00000000
_cell_angle_gamma   90.00000000
_symmetry_Int_Tables_number   1
_chemical_formula_structural   V2NiP2H6O13
_chemical_formula_sum   'V8 Ni4 P8 H24 O52'
_cell_volume   975.41672884
_cell_formula_units_Z   4
loop_
 _symmetry_equiv_pos_site_id
 _symmetry_equiv_pos_as_xyz
  1  'x, y, z'
loop_
 _atom_site_type_symbol
 _atom_site_label
 _atom_site_symmetry_multiplicity
 _atom_site_fract_x
 _atom_site_fract_y
 _atom_site_fract_z
 _atom_site_occupancy
  V  V0  1  0.25000000  0.22393500  0.65525400  1
  V  V1  1  0.25000000  0.27606500  0.15525400  1
  V  V2  1  0.75000000  0.77606500  0.34474600  1
  V  V3  1  0.75000000  0.72393500  0.84474600  1
  V  V4  1  0.25000000  0.91159800  0.47008600  1
  V  V5  1  0.25000000  0.58840200  0.97008600  1
  V  V6  1  0.75000000  0.08840200  0.52991400  1
  V  V7  1  0.75000000  0.41159800  0.02991400  1
  Ni  Ni8  1  0.25000000  0.87249400  0.75151100  1
  Ni  Ni9  1  0.25000000  0.62750600  0.25151100  1
  Ni  Ni10  1  0.75000000  0.12750600  0.24848900  1
  Ni  Ni11  1  0.75000000  0.37249400  0.74848900  1
  P  P12  1  0.55030300  0.81951600  0.59505900  1
  P  P13  1  0.94969700  0.68048400  0.09505900  1
  P  P14  1  0.05030300  0.18048400  0.40494100  1
  P  P15  1  0.44969700  0.31951600  0.90494100  1
  P  P16  1  0.44969700  0.18048400  0.40494100  1
  P  P17  1  0.05030300  0.31951600  0.90494100  1
  P  P18  1  0.94969700  0.81951600  0.59505900  1
  P  P19  1  0.55030300  0.68048400  0.09505900  1
  H  H20  1  0.47617000  0.88705200  0.90132700  1
  H  H21  1  0.02383000  0.61294800  0.40132700  1
  H  H22  1  0.97617000  0.11294800  0.09867300  1
  H  H23  1  0.52383000  0.38705200  0.59867300  1
  H  H24  1  0.52383000  0.11294800  0.09867300  1
  H  H25  1  0.97617000  0.38705200  0.59867300  1
  H  H26  1  0.02383000  0.88705200  0.90132700  1
  H  H27  1  0.47617000  0.61294800  0.40132700  1
  H  H28  1  0.43218000  0.03643900  0.85076300  1
  H  H29  1  0.06782000  0.46356100  0.35076300  1
  H  H30  1  0.93218000  0.96356100  0.14923700  1
  H  H31  1  0.56782000  0.53643900  0.64923700  1
  H  H32  1  0.56782000  0.96356100  0.14923700  1
  H  H33  1  0.93218000  0.53643900  0.64923700  1
  H  H34  1  0.06782000  0.03643900  0.85076300  1
  H  H35  1  0.43218000  0.46356100  0.35076300  1
  H  H36  1  0.25000000  0.51658200  0.71342400  1
  H  H37  1  0.25000000  0.98341800  0.21342400  1
  H  H38  1  0.75000000  0.48341800  0.28657600  1
  H  H39  1  0.75000000  0.01658200  0.78657600  1
  H  H40  1  0.25000000  0.49710600  0.56030500  1
  H  H41  1  0.25000000  0.00289400  0.06030500  1
  H  H42  1  0.75000000  0.50289400  0.43969500  1
  H  H43  1  0.75000000  0.99710600  0.93969500  1
  O  O44  1  0.39542600  0.03398400  0.40085400  1
  O  O45  1  0.10457400  0.46601600  0.90085400  1
  O  O46  1  0.89542600  0.96601600  0.59914600  1
  O  O47  1  0.60457400  0.53398400  0.09914600  1
  O  O48  1  0.60457400  0.96601600  0.59914600  1
  O  O49  1  0.89542600  0.53398400  0.09914600  1
  O  O50  1  0.10457400  0.03398400  0.40085400  1
  O  O51  1  0.39542600  0.46601600  0.90085400  1
  O  O52  1  0.38529000  0.81941300  0.59740500  1
  O  O53  1  0.11471000  0.68058700  0.09740500  1
  O  O54  1  0.88529000  0.18058700  0.40259500  1
  O  O55  1  0.61471000  0.31941300  0.90259500  1
  O  O56  1  0.61471000  0.18058700  0.40259500  1
  O  O57  1  0.88529000  0.31941300  0.90259500  1
  O  O58  1  0.11471000  0.81941300  0.59740500  1
  O  O59  1  0.38529000  0.68058700  0.09740500  1
  O  O60  1  0.59546500  0.74347300  0.47134800  1
  O  O61  1  0.90453500  0.75652700  0.97134800  1
  O  O62  1  0.09546500  0.25652700  0.52865200  1
  O  O63  1  0.40453500  0.24347300  0.02865200  1
  O  O64  1  0.40453500  0.25652700  0.52865200  1
  O  O65  1  0.09546500  0.24347300  0.02865200  1
  O  O66  1  0.90453500  0.74347300  0.47134800  1
  O  O67  1  0.59546500  0.75652700  0.97134800  1
  O  O68  1  0.25000000  0.05091000  0.64121800  1
  O  O69  1  0.25000000  0.44909000  0.14121800  1
  O  O70  1  0.75000000  0.94909000  0.35878200  1
  O  O71  1  0.75000000  0.55091000  0.85878200  1
  O  O72  1  0.25000000  0.69767400  0.84683000  1
  O  O73  1  0.25000000  0.80232600  0.34683000  1
  O  O74  1  0.75000000  0.30232600  0.15317000  1
  O  O75  1  0.75000000  0.19767400  0.65317000  1
  O  O76  1  0.59827100  0.73721100  0.71323200  1
  O  O77  1  0.90172900  0.76278900  0.21323200  1
  O  O78  1  0.09827100  0.26278900  0.28676800  1
  O  O79  1  0.40172900  0.23721100  0.78676800  1
  O  O80  1  0.40172900  0.26278900  0.28676800  1
  O  O81  1  0.09827100  0.23721100  0.78676800  1
  O  O82  1  0.90172900  0.73721100  0.71323200  1
  O  O83  1  0.59827100  0.76278900  0.21323200  1
  O  O84  1  0.39651400  0.94755500  0.87911700  1
  O  O85  1  0.10348600  0.55244500  0.37911700  1
  O  O86  1  0.89651400  0.05244500  0.12088300  1
  O  O87  1  0.60348600  0.44755500  0.62088300  1
  O  O88  1  0.60348600  0.05244500  0.12088300  1
  O  O89  1  0.89651400  0.44755500  0.62088300  1
  O  O90  1  0.10348600  0.94755500  0.87911700  1
  O  O91  1  0.39651400  0.55244500  0.37911700  1
  O  O92  1  0.25000000  0.45005700  0.64324600  1
  O  O93  1  0.25000000  0.04994300  0.14324600  1
  O  O94  1  0.75000000  0.54994300  0.35675400  1
  O  O95  1  0.75000000  0.95005700  0.85675400  1
