# generated using pymatgen
data_N2
_symmetry_space_group_name_H-M   'P 1'
_cell_length_a   6.93068287
_cell_length_b   6.93068287
_cell_length_c   6.93068278
_cell_angle_alpha   85.84491397
_cell_angle_beta   85.84491397
_cell_angle_gamma   85.84491325
_symmetry_Int_Tables_number   1
_chemical_formula_structural   N2
_chemical_formula_sum   N16
_cell_volume   330.40652473
_cell_formula_units_Z   8
loop_
 _symmetry_equiv_pos_site_id
 _symmetry_equiv_pos_as_xyz
  1  'x, y, z'
loop_
 _atom_site_type_symbol
 _atom_site_label
 _atom_site_symmetry_multiplicity
 _atom_site_fract_x
 _atom_site_fract_y
 _atom_site_fract_z
 _atom_site_occupancy
  N  N0  1  0.04571300  0.56185100  0.72449500  1
  N  N1  1  0.27550500  0.95428700  0.43814900  1
  N  N2  1  0.56185100  0.72449500  0.04571300  1
  N  N3  1  0.95666800  0.95666800  0.95666800  1
  N  N4  1  0.06185100  0.54571300  0.22449500  1
  N  N5  1  0.45428700  0.77550500  0.93814900  1
  N  N6  1  0.43814900  0.27550500  0.95428700  1
  N  N7  1  0.04333200  0.04333200  0.04333200  1
  N  N8  1  0.93814900  0.45428700  0.77550500  1
  N  N9  1  0.54333200  0.54333200  0.54333200  1
  N  N10  1  0.95428700  0.43814900  0.27550500  1
  N  N11  1  0.45666800  0.45666800  0.45666800  1
  N  N12  1  0.72449500  0.04571300  0.56185100  1
  N  N13  1  0.77550500  0.93814900  0.45428700  1
  N  N14  1  0.54571300  0.22449500  0.06185100  1
  N  N15  1  0.22449500  0.06185100  0.54571300  1
