# generated using pymatgen
data_Sb2Te2O9
_symmetry_space_group_name_H-M   'P 1'
_cell_length_a   5.15141700
_cell_length_b   14.49142900
_cell_length_c   21.64427801
_cell_angle_alpha   75.37895562
_cell_angle_beta   90.00000000
_cell_angle_gamma   90.00000000
_symmetry_Int_Tables_number   1
_chemical_formula_structural   Sb2Te2O9
_chemical_formula_sum   'Sb16 Te16 O72'
_cell_volume   1563.45108751
_cell_formula_units_Z   8
loop_
 _symmetry_equiv_pos_site_id
 _symmetry_equiv_pos_as_xyz
  1  'x, y, z'
loop_
 _atom_site_type_symbol
 _atom_site_label
 _atom_site_symmetry_multiplicity
 _atom_site_fract_x
 _atom_site_fract_y
 _atom_site_fract_z
 _atom_site_occupancy
  Sb  Sb0  1  0.77433700  0.02771700  0.65756600  1
  Sb  Sb1  1  0.44656200  0.18115500  0.81525800  1
  Sb  Sb2  1  0.70697400  0.82600200  0.44796800  1
  Sb  Sb3  1  0.05343800  0.68115500  0.81525800  1
  Sb  Sb4  1  0.70535400  0.73390900  0.94027000  1
  Sb  Sb5  1  0.22566300  0.97228300  0.34243400  1
  Sb  Sb6  1  0.94656200  0.31884500  0.18474200  1
  Sb  Sb7  1  0.55343800  0.81884500  0.18474200  1
  Sb  Sb8  1  0.20535400  0.76609100  0.05973000  1
  Sb  Sb9  1  0.29464600  0.26609100  0.05973000  1
  Sb  Sb10  1  0.72566300  0.52771700  0.65756600  1
  Sb  Sb11  1  0.29302600  0.17399800  0.55203200  1
  Sb  Sb12  1  0.27433700  0.47228300  0.34243400  1
  Sb  Sb13  1  0.79302600  0.32600200  0.44796800  1
  Sb  Sb14  1  0.20697400  0.67399800  0.55203200  1
  Sb  Sb15  1  0.79464600  0.23390900  0.94027000  1
  Te  Te16  1  0.72605000  0.47908700  0.91354700  1
  Te  Te17  1  0.03915400  0.78286500  0.29340900  1
  Te  Te18  1  0.13993700  0.89983500  0.56088100  1
  Te  Te19  1  0.22605000  0.02091300  0.08645300  1
  Te  Te20  1  0.78412200  0.56734800  0.22357200  1
  Te  Te21  1  0.96084600  0.21713500  0.70659100  1
  Te  Te22  1  0.21587800  0.43265200  0.77642800  1
  Te  Te23  1  0.46084600  0.28286500  0.29340900  1
  Te  Te24  1  0.63993700  0.60016500  0.43911900  1
  Te  Te25  1  0.36006300  0.39983500  0.56088100  1
  Te  Te26  1  0.27395000  0.52091300  0.08645300  1
  Te  Te27  1  0.86006300  0.10016500  0.43911900  1
  Te  Te28  1  0.53915400  0.71713500  0.70659100  1
  Te  Te29  1  0.71587800  0.06734800  0.22357200  1
  Te  Te30  1  0.28412200  0.93265200  0.77642800  1
  Te  Te31  1  0.77395000  0.97908700  0.91354700  1
  O  O32  1  0.73794200  0.20236200  0.22714500  1
  O  O33  1  0.08321700  0.88261300  0.07838300  1
  O  O34  1  0.02349000  0.27725700  0.52439100  1
  O  O35  1  0.91496000  0.03635600  0.12325900  1
  O  O36  1  0.25232000  0.75143800  0.22832000  1
  O  O37  1  0.75232000  0.74856200  0.77168000  1
  O  O38  1  0.61103000  0.42186200  0.62019600  1
  O  O39  1  0.91398700  0.55049300  0.83644700  1
  O  O40  1  0.58321700  0.61738700  0.92161700  1
  O  O41  1  0.94123000  0.23252800  0.40238800  1
  O  O42  1  0.26205800  0.79763800  0.77285500  1
  O  O43  1  0.41697200  0.71200600  0.00313700  1
  O  O44  1  0.04799000  0.04082000  0.26173700  1
  O  O45  1  0.91820200  0.88201700  0.36904600  1
  O  O46  1  0.58504000  0.53635600  0.12325900  1
  O  O47  1  0.08302800  0.21200600  0.00313700  1
  O  O48  1  0.96273600  0.54906400  0.30636200  1
  O  O49  1  0.41820200  0.61798300  0.63095400  1
  O  O50  1  0.03726400  0.45093600  0.69363800  1
  O  O51  1  0.45201000  0.54082000  0.26173700  1
  O  O52  1  0.54799000  0.45918000  0.73826300  1
  O  O53  1  0.46273600  0.95093600  0.69363800  1
  O  O54  1  0.39050700  0.14208100  0.11336000  1
  O  O55  1  0.18627600  0.12651300  0.76545900  1
  O  O56  1  0.05877000  0.76747200  0.59761200  1
  O  O57  1  0.89050700  0.35791900  0.88664000  1
  O  O58  1  0.24768000  0.25143800  0.22832000  1
  O  O59  1  0.41496000  0.46364400  0.87674100  1
  O  O60  1  0.55877000  0.73252800  0.40238800  1
  O  O61  1  0.11182700  0.08174800  0.50828500  1
  O  O62  1  0.44123000  0.26747200  0.59761200  1
  O  O63  1  0.06911000  0.42270100  0.42142700  1
  O  O64  1  0.11103000  0.07813800  0.37980400  1
  O  O65  1  0.74768000  0.24856200  0.77168000  1
  O  O66  1  0.58179800  0.38201700  0.36904600  1
  O  O67  1  0.76205800  0.70236200  0.22714500  1
  O  O68  1  0.81372400  0.87348700  0.23454100  1
  O  O69  1  0.53726400  0.04906400  0.30636200  1
  O  O70  1  0.81427800  0.62845900  0.70258500  1
  O  O71  1  0.95447000  0.28303000  0.10531700  1
  O  O72  1  0.10949300  0.64208100  0.11336000  1
  O  O73  1  0.08179800  0.11798300  0.63095400  1
  O  O74  1  0.54553000  0.78303000  0.10531700  1
  O  O75  1  0.91697200  0.78799400  0.99686300  1
  O  O76  1  0.38897000  0.57813800  0.37980400  1
  O  O77  1  0.47651000  0.77725700  0.52439100  1
  O  O78  1  0.68572200  0.12845900  0.70258500  1
  O  O79  1  0.41398700  0.94950700  0.16355300  1
  O  O80  1  0.60949300  0.85791900  0.88664000  1
  O  O81  1  0.41678300  0.38261300  0.07838300  1
  O  O82  1  0.31372400  0.62651300  0.76545900  1
  O  O83  1  0.43089000  0.92270100  0.42142700  1
  O  O84  1  0.88817300  0.91825200  0.49171500  1
  O  O85  1  0.88897000  0.92186200  0.62019600  1
  O  O86  1  0.58302800  0.28799400  0.99686300  1
  O  O87  1  0.56911000  0.07729900  0.57857300  1
  O  O88  1  0.38817300  0.58174800  0.50828500  1
  O  O89  1  0.04553000  0.71697000  0.89468300  1
  O  O90  1  0.91678300  0.11738700  0.92161700  1
  O  O91  1  0.97651000  0.72274300  0.47560900  1
  O  O92  1  0.23794200  0.29763800  0.77285500  1
  O  O93  1  0.31427800  0.87154100  0.29741500  1
  O  O94  1  0.45447000  0.21697000  0.89468300  1
  O  O95  1  0.93089000  0.57729900  0.57857300  1
  O  O96  1  0.52349000  0.22274300  0.47560900  1
  O  O97  1  0.18572200  0.37154100  0.29741500  1
  O  O98  1  0.68627600  0.37348700  0.23454100  1
  O  O99  1  0.08601300  0.44950700  0.16355300  1
  O  O100  1  0.58601300  0.05049300  0.83644700  1
  O  O101  1  0.08504000  0.96364400  0.87674100  1
  O  O102  1  0.61182700  0.41825200  0.49171500  1
  O  O103  1  0.95201000  0.95918000  0.73826300  1
