# generated using pymatgen
data_La3B(CBr)2
_symmetry_space_group_name_H-M   'P 1'
_cell_length_a   3.99713600
_cell_length_b   11.53863700
_cell_length_c   15.48124100
_cell_angle_alpha   90.00000000
_cell_angle_beta   90.00000000
_cell_angle_gamma   90.00000000
_symmetry_Int_Tables_number   1
_chemical_formula_structural   La3B(CBr)2
_chemical_formula_sum   'La12 B4 C8 Br8'
_cell_volume   714.01807758
_cell_formula_units_Z   4
loop_
 _symmetry_equiv_pos_site_id
 _symmetry_equiv_pos_as_xyz
  1  'x, y, z'
loop_
 _atom_site_type_symbol
 _atom_site_label
 _atom_site_symmetry_multiplicity
 _atom_site_fract_x
 _atom_site_fract_y
 _atom_site_fract_z
 _atom_site_occupancy
  La  La0  1  0.75000000  0.30071100  0.66961000  1
  La  La1  1  0.25000000  0.80071100  0.83039000  1
  La  La2  1  0.75000000  0.94669900  0.66036600  1
  La  La3  1  0.25000000  0.44669900  0.83963400  1
  La  La4  1  0.25000000  0.05330100  0.33963400  1
  La  La5  1  0.25000000  0.87762200  0.13810500  1
  La  La6  1  0.25000000  0.62237800  0.63810500  1
  La  La7  1  0.75000000  0.12237800  0.86189500  1
  La  La8  1  0.25000000  0.69928900  0.33039000  1
  La  La9  1  0.75000000  0.37762200  0.36189500  1
  La  La10  1  0.75000000  0.55330100  0.16036600  1
  La  La11  1  0.75000000  0.19928900  0.16961000  1
  B  B12  1  0.75000000  0.62464800  0.75435000  1
  B  B13  1  0.25000000  0.12464800  0.74565000  1
  B  B14  1  0.25000000  0.37535200  0.24565000  1
  B  B15  1  0.75000000  0.87535200  0.25435000  1
  C  C16  1  0.75000000  0.75218100  0.22426500  1
  C  C17  1  0.75000000  0.00087100  0.23167700  1
  C  C18  1  0.75000000  0.49912900  0.73167700  1
  C  C19  1  0.25000000  0.25218100  0.27573500  1
  C  C20  1  0.75000000  0.74781900  0.72426500  1
  C  C21  1  0.25000000  0.99912900  0.76832300  1
  C  C22  1  0.25000000  0.24781900  0.77573500  1
  C  C23  1  0.25000000  0.50087100  0.26832300  1
  Br  Br24  1  0.25000000  0.38499200  0.52821100  1
  Br  Br25  1  0.75000000  0.13463200  0.48872700  1
  Br  Br26  1  0.25000000  0.86536800  0.51127300  1
  Br  Br27  1  0.75000000  0.61500800  0.47178900  1
  Br  Br28  1  0.75000000  0.88499200  0.97178900  1
  Br  Br29  1  0.25000000  0.63463200  0.01127300  1
  Br  Br30  1  0.25000000  0.11500800  0.02821100  1
  Br  Br31  1  0.75000000  0.36536800  0.98872700  1
