# generated using pymatgen
data_K(WCl3)3
_symmetry_space_group_name_H-M   'P 1'
_cell_length_a   9.53789580
_cell_length_b   9.53789580
_cell_length_c   8.55695500
_cell_angle_alpha   90.00000000
_cell_angle_beta   90.00000000
_cell_angle_gamma   119.99999859
_symmetry_Int_Tables_number   1
_chemical_formula_structural   K(WCl3)3
_chemical_formula_sum   'K2 W6 Cl18'
_cell_volume   674.14766204
_cell_formula_units_Z   2
loop_
 _symmetry_equiv_pos_site_id
 _symmetry_equiv_pos_as_xyz
  1  'x, y, z'
loop_
 _atom_site_type_symbol
 _atom_site_label
 _atom_site_symmetry_multiplicity
 _atom_site_fract_x
 _atom_site_fract_y
 _atom_site_fract_z
 _atom_site_occupancy
  K  K0  1  0.33333300  0.66666700  0.50000000  1
  K  K1  1  0.66666700  0.33333300  0.50000000  1
  W  W2  1  0.82048400  0.82048400  0.87193100  1
  W  W3  1  0.17951600  0.00000000  0.87193100  1
  W  W4  1  0.82048400  0.00000000  0.12806900  1
  W  W5  1  0.17951600  0.17951600  0.12806900  1
  W  W6  1  0.00000000  0.17951600  0.87193100  1
  W  W7  1  0.00000000  0.82048400  0.12806900  1
  Cl  Cl8  1  0.39017800  0.00000000  0.69595800  1
  Cl  Cl9  1  0.60982200  0.60982200  0.69595800  1
  Cl  Cl10  1  0.41758600  0.20879300  0.00000000  1
  Cl  Cl11  1  0.79120700  0.58241400  0.00000000  1
  Cl  Cl12  1  0.20879300  0.79120700  0.00000000  1
  Cl  Cl13  1  0.58241400  0.79120700  0.00000000  1
  Cl  Cl14  1  0.79761400  0.00000000  0.68673700  1
  Cl  Cl15  1  0.20238600  0.00000000  0.31326300  1
  Cl  Cl16  1  0.00000000  0.60982200  0.30404200  1
  Cl  Cl17  1  0.60982200  0.00000000  0.30404200  1
  Cl  Cl18  1  0.00000000  0.39017800  0.69595800  1
  Cl  Cl19  1  0.39017800  0.39017800  0.30404200  1
  Cl  Cl20  1  0.00000000  0.79761400  0.68673700  1
  Cl  Cl21  1  0.20879300  0.41758600  0.00000000  1
  Cl  Cl22  1  0.79120700  0.20879300  0.00000000  1
  Cl  Cl23  1  0.20238600  0.20238600  0.68673700  1
  Cl  Cl24  1  0.00000000  0.20238600  0.31326300  1
  Cl  Cl25  1  0.79761400  0.79761400  0.31326300  1
