# generated using pymatgen
data_Ga
_symmetry_space_group_name_H-M   'P 1'
_cell_length_a   7.85517898
_cell_length_b   7.85517898
_cell_length_c   7.85517933
_cell_angle_alpha   71.17506445
_cell_angle_beta   71.17506445
_cell_angle_gamma   71.17506155
_symmetry_Int_Tables_number   1
_chemical_formula_structural   Ga
_chemical_formula_sum   Ga22
_cell_volume   421.10802679
_cell_formula_units_Z   22
loop_
 _symmetry_equiv_pos_site_id
 _symmetry_equiv_pos_as_xyz
  1  'x, y, z'
loop_
 _atom_site_type_symbol
 _atom_site_label
 _atom_site_symmetry_multiplicity
 _atom_site_fract_x
 _atom_site_fract_y
 _atom_site_fract_z
 _atom_site_occupancy
  Ga  Ga0  1  0.32009500  0.62578200  0.32009500  1
  Ga  Ga1  1  0.67990500  0.37421800  0.67990500  1
  Ga  Ga2  1  0.28054900  0.97792100  0.28054900  1
  Ga  Ga3  1  0.09654600  0.61519700  0.09654600  1
  Ga  Ga4  1  0.71945100  0.02207900  0.71945100  1
  Ga  Ga5  1  0.90345400  0.38480300  0.90345400  1
  Ga  Ga6  1  0.32009500  0.32009500  0.62578200  1
  Ga  Ga7  1  0.37421800  0.67990500  0.67990500  1
  Ga  Ga8  1  0.02207900  0.71945100  0.71945100  1
  Ga  Ga9  1  0.61519700  0.09654600  0.09654600  1
  Ga  Ga10  1  0.90345400  0.90345400  0.38480300  1
  Ga  Ga11  1  0.67990500  0.67990500  0.37421800  1
  Ga  Ga12  1  0.50000000  0.00000000  0.50000000  1
  Ga  Ga13  1  0.62578200  0.32009500  0.32009500  1
  Ga  Ga14  1  0.97792100  0.28054900  0.28054900  1
  Ga  Ga15  1  0.71945100  0.71945100  0.02207900  1
  Ga  Ga16  1  0.50000000  0.50000000  0.00000000  1
  Ga  Ga17  1  0.09654600  0.09654600  0.61519700  1
  Ga  Ga18  1  0.38480300  0.90345400  0.90345400  1
  Ga  Ga19  1  0.00000000  0.00000000  0.00000000  1
  Ga  Ga20  1  0.28054900  0.28054900  0.97792100  1
  Ga  Ga21  1  0.00000000  0.50000000  0.50000000  1
