# generated using pymatgen
data_GaSi2As(H3C)8
_symmetry_space_group_name_H-M   'P 1'
_cell_length_a   9.38788800
_cell_length_b   9.78828928
_cell_length_c   10.02629738
_cell_angle_alpha   77.58378148
_cell_angle_beta   81.03355869
_cell_angle_gamma   64.73824799
_symmetry_Int_Tables_number   1
_chemical_formula_structural   GaSi2As(H3C)8
_chemical_formula_sum   'Ga2 Si4 As2 H48 C16'
_cell_volume   811.58751709
_cell_formula_units_Z   2
loop_
 _symmetry_equiv_pos_site_id
 _symmetry_equiv_pos_as_xyz
  1  'x, y, z'
loop_
 _atom_site_type_symbol
 _atom_site_label
 _atom_site_symmetry_multiplicity
 _atom_site_fract_x
 _atom_site_fract_y
 _atom_site_fract_z
 _atom_site_occupancy
  Ga  Ga0  1  0.46816700  0.35477400  0.42717500  1
  Ga  Ga1  1  0.53183300  0.64522600  0.57282500  1
  Si  Si2  1  0.32602900  0.35782800  0.83370400  1
  Si  Si3  1  0.22814000  0.81459200  0.26377400  1
  Si  Si4  1  0.77186000  0.18540800  0.73622600  1
  Si  Si5  1  0.67397100  0.64217200  0.16629600  1
  As  As6  1  0.52530200  0.37998100  0.66145400  1
  As  As7  1  0.47469800  0.62001900  0.33854600  1
  H  H8  1  0.70898200  0.67645200  0.91240500  1
  H  H9  1  0.37534600  0.80776200  0.76068100  1
  H  H10  1  0.82978600  0.33340300  0.87980100  1
  H  H11  1  0.95436200  0.47034300  0.11892600  1
  H  H12  1  0.84034700  0.53849500  0.52442400  1
  H  H13  1  0.80702300  0.82154600  0.10359300  1
  H  H14  1  0.06039900  0.86729200  0.07494300  1
  H  H15  1  0.90692300  0.16796200  0.50045400  1
  H  H16  1  0.26324700  0.03397300  0.32262200  1
  H  H17  1  0.35243700  0.92543300  0.59672100  1
  H  H18  1  0.50745900  0.77325100  0.96559000  1
  H  H19  1  0.17021400  0.66659700  0.12019900  1
  H  H20  1  0.09884600  0.55831800  0.70265900  1
  H  H21  1  0.19297700  0.17845400  0.89640700  1
  H  H22  1  0.22145900  0.38048900  0.32258400  1
  H  H23  1  0.77854100  0.61951100  0.67741600  1
  H  H24  1  0.73744400  0.21810500  0.98382800  1
  H  H25  1  0.87948800  0.90162800  0.79979000  1
  H  H26  1  0.75547600  0.74059400  0.51554700  1
  H  H27  1  0.15965300  0.46150500  0.47557600  1
  H  H28  1  0.06162700  0.69927100  0.42446800  1
  H  H29  1  0.32501700  0.01666500  0.14788900  1
  H  H30  1  0.29101800  0.32354800  0.08759500  1
  H  H31  1  0.93837300  0.30072900  0.57553200  1
  H  H32  1  0.25003800  0.19841600  0.71815100  1
  H  H33  1  0.39310600  0.07992200  0.83700400  1
  H  H34  1  0.76024300  0.18668700  0.34845800  1
  H  H35  1  0.04563800  0.52965700  0.88107400  1
  H  H36  1  0.62465400  0.19223800  0.23931900  1
  H  H37  1  0.74996200  0.80158400  0.28184900  1
  H  H38  1  0.24452400  0.25940600  0.48445300  1
  H  H39  1  0.93960100  0.13270800  0.92505700  1
  H  H40  1  0.40925000  0.42886600  0.02633500  1
  H  H41  1  0.09307700  0.83203800  0.49954600  1
  H  H42  1  0.64756300  0.07456700  0.40327900  1
  H  H43  1  0.60689400  0.92007800  0.16299600  1
  H  H44  1  0.23975700  0.81331300  0.65154200  1
  H  H45  1  0.49254100  0.22674900  0.03441000  1
  H  H46  1  0.04466900  0.10085900  0.62767400  1
  H  H47  1  0.84102600  0.36099600  0.18506000  1
  H  H48  1  0.95533100  0.89914100  0.37232600  1
  H  H49  1  0.26255600  0.78189500  0.01617200  1
  H  H50  1  0.59075000  0.57113400  0.97366500  1
  H  H51  1  0.90115400  0.44168200  0.29734100  1
  H  H52  1  0.73675300  0.96602700  0.67737800  1
  H  H53  1  0.15897400  0.63900400  0.81494000  1
  H  H54  1  0.12051200  0.09837200  0.20021000  1
  H  H55  1  0.67498300  0.98333500  0.85211100  1
  C  C56  1  0.28750400  0.18764800  0.81968800  1
  C  C57  1  0.25048000  0.36666400  0.42815600  1
  C  C58  1  0.35539700  0.81491800  0.65375400  1
  C  C59  1  0.71249600  0.81235200  0.18031200  1
  C  C60  1  0.17696800  0.77844300  0.10353000  1
  C  C61  1  0.85950600  0.46159600  0.19555100  1
  C  C62  1  0.61379900  0.66764300  0.98858800  1
  C  C63  1  0.38620100  0.33235700  0.01141200  1
  C  C64  1  0.64460300  0.18508200  0.34624600  1
  C  C65  1  0.92937400  0.18984400  0.59630800  1
  C  C66  1  0.23588000  0.00846900  0.23058200  1
  C  C67  1  0.14049400  0.53840400  0.80444900  1
  C  C68  1  0.74952000  0.63333600  0.57184400  1
  C  C69  1  0.82303200  0.22155700  0.89647000  1
  C  C70  1  0.76412000  0.99153100  0.76941800  1
  C  C71  1  0.07062600  0.81015600  0.40369200  1
