# generated using pymatgen
data_PrCoSb3
_symmetry_space_group_name_H-M   'P 1'
_cell_length_a   6.21240500
_cell_length_b   12.17022700
_cell_length_c   12.85542900
_cell_angle_alpha   90.00000000
_cell_angle_beta   90.00000000
_cell_angle_gamma   90.00000000
_symmetry_Int_Tables_number   1
_chemical_formula_structural   PrCoSb3
_chemical_formula_sum   'Pr8 Co8 Sb24'
_cell_volume   971.95243803
_cell_formula_units_Z   8
loop_
 _symmetry_equiv_pos_site_id
 _symmetry_equiv_pos_as_xyz
  1  'x, y, z'
loop_
 _atom_site_type_symbol
 _atom_site_label
 _atom_site_symmetry_multiplicity
 _atom_site_fract_x
 _atom_site_fract_y
 _atom_site_fract_z
 _atom_site_occupancy
  Pr  Pr0  1  0.22420200  0.25000000  0.30281300  1
  Pr  Pr1  1  0.25000000  0.50000000  0.70065900  1
  Pr  Pr2  1  0.75000000  0.00000000  0.29934100  1
  Pr  Pr3  1  0.77579800  0.75000000  0.69718700  1
  Pr  Pr4  1  0.72420200  0.25000000  0.69718700  1
  Pr  Pr5  1  0.25000000  0.00000000  0.70065900  1
  Pr  Pr6  1  0.27579800  0.75000000  0.30281300  1
  Pr  Pr7  1  0.75000000  0.50000000  0.29934100  1
  Co  Co8  1  0.03793500  0.63603200  0.09715700  1
  Co  Co9  1  0.53793500  0.63603200  0.90284300  1
  Co  Co10  1  0.53793500  0.86396800  0.90284300  1
  Co  Co11  1  0.03793500  0.86396800  0.09715700  1
  Co  Co12  1  0.46206500  0.36396800  0.09715700  1
  Co  Co13  1  0.46206500  0.13603200  0.09715700  1
  Co  Co14  1  0.96206500  0.13603200  0.90284300  1
  Co  Co15  1  0.96206500  0.36396800  0.90284300  1
  Sb  Sb16  1  0.88454000  0.75000000  0.94502400  1
  Sb  Sb17  1  0.75000000  0.50000000  0.78271900  1
  Sb  Sb18  1  0.61546000  0.25000000  0.94502400  1
  Sb  Sb19  1  0.25000000  0.00000000  0.97241400  1
  Sb  Sb20  1  0.25000000  0.00000000  0.21728100  1
  Sb  Sb21  1  0.48667800  0.12423000  0.49753600  1
  Sb  Sb22  1  0.51332200  0.62423000  0.50246400  1
  Sb  Sb23  1  0.23151000  0.25000000  0.78822700  1
  Sb  Sb24  1  0.75000000  0.50000000  0.02758600  1
  Sb  Sb25  1  0.01332200  0.62423000  0.49753600  1
  Sb  Sb26  1  0.01332200  0.87577000  0.49753600  1
  Sb  Sb27  1  0.11546000  0.25000000  0.05497600  1
  Sb  Sb28  1  0.76849000  0.75000000  0.21177300  1
  Sb  Sb29  1  0.51332200  0.87577000  0.50246400  1
  Sb  Sb30  1  0.75000000  0.00000000  0.78271900  1
  Sb  Sb31  1  0.25000000  0.50000000  0.97241400  1
  Sb  Sb32  1  0.48667800  0.37577000  0.49753600  1
  Sb  Sb33  1  0.98667800  0.37577000  0.50246400  1
  Sb  Sb34  1  0.26849000  0.75000000  0.78822700  1
  Sb  Sb35  1  0.73151000  0.25000000  0.21177300  1
  Sb  Sb36  1  0.25000000  0.50000000  0.21728100  1
  Sb  Sb37  1  0.75000000  0.00000000  0.02758600  1
  Sb  Sb38  1  0.98667800  0.12423000  0.50246400  1
  Sb  Sb39  1  0.38454000  0.75000000  0.05497600  1
