# generated using pymatgen
data_SO4
_symmetry_space_group_name_H-M   'P 1'
_cell_length_a   5.00847004
_cell_length_b   5.00847004
_cell_length_c   9.06691360
_cell_angle_alpha   71.22477156
_cell_angle_beta   71.22477156
_cell_angle_gamma   58.13297303
_symmetry_Int_Tables_number   1
_chemical_formula_structural   SO4
_chemical_formula_sum   'S2 O8'
_cell_volume   179.58779936
_cell_formula_units_Z   2
loop_
 _symmetry_equiv_pos_site_id
 _symmetry_equiv_pos_as_xyz
  1  'x, y, z'
loop_
 _atom_site_type_symbol
 _atom_site_label
 _atom_site_symmetry_multiplicity
 _atom_site_fract_x
 _atom_site_fract_y
 _atom_site_fract_z
 _atom_site_occupancy
  S  S0  1  0.09183100  0.90816900  0.25000000  1
  S  S1  1  0.90816900  0.09183100  0.75000000  1
  O  O2  1  0.25824700  0.73893600  0.38676800  1
  O  O3  1  0.26106400  0.74175300  0.11323200  1
  O  O4  1  0.74175300  0.26106400  0.61323200  1
  O  O5  1  0.73893600  0.25824700  0.88676800  1
  O  O6  1  0.77352000  0.92555500  0.32111900  1
  O  O7  1  0.07444500  0.22648000  0.17888100  1
  O  O8  1  0.22648000  0.07444500  0.67888100  1
  O  O9  1  0.92555500  0.77352000  0.82111900  1
