# generated using pymatgen
data_CdH16C4(NCl2)2
_symmetry_space_group_name_H-M   'P 1'
_cell_length_a   7.48371300
_cell_length_b   7.59625800
_cell_length_c   22.70760000
_cell_angle_alpha   90.00000000
_cell_angle_beta   90.00000000
_cell_angle_gamma   90.00000000
_symmetry_Int_Tables_number   1
_chemical_formula_structural   CdH16C4(NCl2)2
_chemical_formula_sum   'Cd4 H64 C16 N8 Cl16'
_cell_volume   1290.88652117
_cell_formula_units_Z   4
loop_
 _symmetry_equiv_pos_site_id
 _symmetry_equiv_pos_as_xyz
  1  'x, y, z'
loop_
 _atom_site_type_symbol
 _atom_site_label
 _atom_site_symmetry_multiplicity
 _atom_site_fract_x
 _atom_site_fract_y
 _atom_site_fract_z
 _atom_site_occupancy
  Cd  Cd0  1  0.00000000  0.00000000  0.00000000  1
  Cd  Cd1  1  0.00000000  0.50000000  0.50000000  1
  Cd  Cd2  1  0.50000000  0.50000000  0.00000000  1
  Cd  Cd3  1  0.50000000  0.00000000  0.50000000  1
  H  H4  1  0.19360700  0.97244200  0.28829800  1
  H  H5  1  0.00881200  0.32544500  0.21457600  1
  H  H6  1  0.83506200  0.01229500  0.59958500  1
  H  H7  1  0.49638700  0.65629200  0.39807400  1
  H  H8  1  0.31755100  0.95446400  0.16054200  1
  H  H9  1  0.50881200  0.17455500  0.21457600  1
  H  H10  1  0.99638700  0.84370800  0.39807400  1
  H  H11  1  0.49778700  0.80231600  0.15892400  1
  H  H12  1  0.50249800  0.97347100  0.25450700  1
  H  H13  1  0.49118800  0.82544500  0.78542400  1
  H  H14  1  0.33506200  0.48770500  0.59958500  1
  H  H15  1  0.69360700  0.52755800  0.28829800  1
  H  H16  1  0.00221300  0.30231600  0.84107600  1
  H  H17  1  0.99118800  0.17455500  0.71457600  1
  H  H18  1  0.30639300  0.97244200  0.78829800  1
  H  H19  1  0.00361300  0.15629200  0.60192600  1
  H  H20  1  0.80639300  0.02755800  0.71170200  1
  H  H21  1  0.69360700  0.02755800  0.21170200  1
  H  H22  1  0.00361300  0.65629200  0.89807400  1
  H  H23  1  0.49750200  0.02652900  0.74549300  1
  H  H24  1  0.18244900  0.95446400  0.66054200  1
  H  H25  1  0.96621200  0.04212900  0.43142100  1
  H  H26  1  0.19360700  0.47244200  0.21170200  1
  H  H27  1  0.31755100  0.45446400  0.33945800  1
  H  H28  1  0.49750200  0.52652900  0.75450700  1
  H  H29  1  0.96621200  0.54212900  0.06857900  1
  H  H30  1  0.03378800  0.45787100  0.93142100  1
  H  H31  1  0.66493800  0.51229500  0.40041500  1
  H  H32  1  0.49118800  0.32544500  0.71457600  1
  H  H33  1  0.49778700  0.30231600  0.34107600  1
  H  H34  1  0.50361300  0.84370800  0.89807400  1
  H  H35  1  0.16493800  0.48770500  0.09958500  1
  H  H36  1  0.16493800  0.98770500  0.40041500  1
  H  H37  1  0.80639300  0.52755800  0.78829800  1
  H  H38  1  0.50249800  0.47347100  0.24549300  1
  H  H39  1  0.99750200  0.97347100  0.75450700  1
  H  H40  1  0.46621200  0.95787100  0.06857900  1
  H  H41  1  0.50221300  0.19768400  0.84107600  1
  H  H42  1  0.46621200  0.45787100  0.43142100  1
  H  H43  1  0.50221300  0.69768400  0.65892400  1
  H  H44  1  0.53378800  0.04212900  0.93142100  1
  H  H45  1  0.03378800  0.95787100  0.56857900  1
  H  H46  1  0.83506200  0.51229500  0.90041500  1
  H  H47  1  0.68244900  0.04553600  0.83945800  1
  H  H48  1  0.81755100  0.04553600  0.33945800  1
  H  H49  1  0.99778700  0.19768400  0.34107600  1
  H  H50  1  0.00881200  0.82544500  0.28542400  1
  H  H51  1  0.81755100  0.54553600  0.16054200  1
  H  H52  1  0.18244900  0.45446400  0.83945800  1
  H  H53  1  0.53378800  0.54212900  0.56857900  1
  H  H54  1  0.00249800  0.02652900  0.24549300  1
  H  H55  1  0.00249800  0.52652900  0.25450700  1
  H  H56  1  0.66493800  0.01229500  0.09958500  1
  H  H57  1  0.49638700  0.15629200  0.10192600  1
  H  H58  1  0.50361300  0.34370800  0.60192600  1
  H  H59  1  0.68244900  0.54553600  0.66054200  1
  H  H60  1  0.33506200  0.98770500  0.90041500  1
  H  H61  1  0.99118800  0.67455500  0.78542400  1
  H  H62  1  0.99638700  0.34370800  0.10192600  1
  H  H63  1  0.50881200  0.67455500  0.28542400  1
  H  H64  1  0.30639300  0.47244200  0.71170200  1
  H  H65  1  0.00221300  0.80231600  0.65892400  1
  H  H66  1  0.99778700  0.69768400  0.15892400  1
  H  H67  1  0.99750200  0.47347100  0.74549300  1
  C  C68  1  0.54710400  0.53501600  0.28671400  1
  C  C69  1  0.04710400  0.96498400  0.28671400  1
  C  C70  1  0.04710400  0.46498400  0.21328600  1
  C  C71  1  0.95289600  0.53501600  0.78671400  1
  C  C72  1  0.96384900  0.55711800  0.16062100  1
  C  C73  1  0.03615100  0.94288200  0.66062100  1
  C  C74  1  0.45289600  0.96498400  0.78671400  1
  C  C75  1  0.96384900  0.05711800  0.33937900  1
  C  C76  1  0.95289600  0.03501600  0.71328600  1
  C  C77  1  0.45289600  0.46498400  0.71328600  1
  C  C78  1  0.53615100  0.05711800  0.83937900  1
  C  C79  1  0.46384900  0.44288200  0.33937900  1
  C  C80  1  0.54710400  0.03501600  0.21328600  1
  C  C81  1  0.46384900  0.94288200  0.16062100  1
  C  C82  1  0.03615100  0.44288200  0.83937900  1
  C  C83  1  0.53615100  0.55711800  0.66062100  1
  N  N84  1  0.52694500  0.02207600  0.10394000  1
  N  N85  1  0.97305500  0.52207600  0.89606000  1
  N  N86  1  0.52694500  0.52207600  0.39606000  1
  N  N87  1  0.47305500  0.47792400  0.60394000  1
  N  N88  1  0.47305500  0.97792400  0.89606000  1
  N  N89  1  0.97305500  0.02207600  0.60394000  1
  N  N90  1  0.02694500  0.97792400  0.39606000  1
  N  N91  1  0.02694500  0.47792400  0.10394000  1
  Cl  Cl92  1  0.02854700  0.44380200  0.61276200  1
  Cl  Cl93  1  0.21443500  0.78725200  0.51678600  1
  Cl  Cl94  1  0.78556500  0.21274800  0.48321400  1
  Cl  Cl95  1  0.28556500  0.78725200  0.01678600  1
  Cl  Cl96  1  0.52854700  0.05619800  0.61276200  1
  Cl  Cl97  1  0.28556500  0.28725200  0.48321400  1
  Cl  Cl98  1  0.78556500  0.71274800  0.01678600  1
  Cl  Cl99  1  0.71443500  0.71274800  0.51678600  1
  Cl  Cl100  1  0.52854700  0.55619800  0.88723800  1
  Cl  Cl101  1  0.97145300  0.55619800  0.38723800  1
  Cl  Cl102  1  0.47145300  0.94380200  0.38723800  1
  Cl  Cl103  1  0.21443500  0.28725200  0.98321400  1
  Cl  Cl104  1  0.47145300  0.44380200  0.11276200  1
  Cl  Cl105  1  0.71443500  0.21274800  0.98321400  1
  Cl  Cl106  1  0.97145300  0.05619800  0.11276200  1
  Cl  Cl107  1  0.02854700  0.94380200  0.88723800  1
