# generated using pymatgen
data_TaBr5
_symmetry_space_group_name_H-M   'P 1'
_cell_length_a   6.71989100
_cell_length_b   14.07664500
_cell_length_c   19.58196300
_cell_angle_alpha   90.00000000
_cell_angle_beta   90.00000000
_cell_angle_gamma   90.00000000
_symmetry_Int_Tables_number   1
_chemical_formula_structural   TaBr5
_chemical_formula_sum   'Ta8 Br40'
_cell_volume   1852.32680957
_cell_formula_units_Z   8
loop_
 _symmetry_equiv_pos_site_id
 _symmetry_equiv_pos_as_xyz
  1  'x, y, z'
loop_
 _atom_site_type_symbol
 _atom_site_label
 _atom_site_symmetry_multiplicity
 _atom_site_fract_x
 _atom_site_fract_y
 _atom_site_fract_z
 _atom_site_occupancy
  Ta  Ta0  1  0.99252000  0.12502800  0.14201200  1
  Ta  Ta1  1  0.99252000  0.12502800  0.35798800  1
  Ta  Ta2  1  0.50748000  0.62502800  0.14201200  1
  Ta  Ta3  1  0.49252000  0.37497200  0.85798800  1
  Ta  Ta4  1  0.49252000  0.37497200  0.64201200  1
  Ta  Ta5  1  0.50748000  0.62502800  0.35798800  1
  Ta  Ta6  1  0.00748000  0.87497200  0.64201200  1
  Ta  Ta7  1  0.00748000  0.87497200  0.85798800  1
  Br  Br8  1  0.22167700  0.73146500  0.84741600  1
  Br  Br9  1  0.22252500  0.20352600  0.43610300  1
  Br  Br10  1  0.73911100  0.54651800  0.43545700  1
  Br  Br11  1  0.70229300  0.30390500  0.75000000  1
  Br  Br12  1  0.79236900  0.01829500  0.84775800  1
  Br  Br13  1  0.72167700  0.76853500  0.34741600  1
  Br  Br14  1  0.21583300  0.94653300  0.75000000  1
  Br  Br15  1  0.20229300  0.19609500  0.25000000  1
  Br  Br16  1  0.27832300  0.23146500  0.84741600  1
  Br  Br17  1  0.22252500  0.20352600  0.06389700  1
  Br  Br18  1  0.20763100  0.98170500  0.15224200  1
  Br  Br19  1  0.23911100  0.95348200  0.56454300  1
  Br  Br20  1  0.72252500  0.29647400  0.93610300  1
  Br  Br21  1  0.26088900  0.45348200  0.56454300  1
  Br  Br22  1  0.27747500  0.70352600  0.06389700  1
  Br  Br23  1  0.72252500  0.29647400  0.56389700  1
  Br  Br24  1  0.70763100  0.51829500  0.84775800  1
  Br  Br25  1  0.77747500  0.79647400  0.93610300  1
  Br  Br26  1  0.70763100  0.51829500  0.65224200  1
  Br  Br27  1  0.73911100  0.54651800  0.06454300  1
  Br  Br28  1  0.29770700  0.69609500  0.25000000  1
  Br  Br29  1  0.77747500  0.79647400  0.56389700  1
  Br  Br30  1  0.76088900  0.04651800  0.43545700  1
  Br  Br31  1  0.79770700  0.80390500  0.75000000  1
  Br  Br32  1  0.26088900  0.45348200  0.93545700  1
  Br  Br33  1  0.72167700  0.76853500  0.15258400  1
  Br  Br34  1  0.76088900  0.04651800  0.06454300  1
  Br  Br35  1  0.29236900  0.48170500  0.15224200  1
  Br  Br36  1  0.77832300  0.26853500  0.34741600  1
  Br  Br37  1  0.23911100  0.95348200  0.93545700  1
  Br  Br38  1  0.28416700  0.44653300  0.75000000  1
  Br  Br39  1  0.71583300  0.55346700  0.25000000  1
  Br  Br40  1  0.27832300  0.23146500  0.65258400  1
  Br  Br41  1  0.20763100  0.98170500  0.34775800  1
  Br  Br42  1  0.79236900  0.01829500  0.65224200  1
  Br  Br43  1  0.29236900  0.48170500  0.34775800  1
  Br  Br44  1  0.78416700  0.05346700  0.25000000  1
  Br  Br45  1  0.77832300  0.26853500  0.15258400  1
  Br  Br46  1  0.27747500  0.70352600  0.43610300  1
  Br  Br47  1  0.22167700  0.73146500  0.65258400  1
