# generated using pymatgen
data_C
_symmetry_space_group_name_H-M   'P 1'
_cell_length_a   19.14118073
_cell_length_b   19.14118073
_cell_length_c   19.14118128
_cell_angle_alpha   7.39611964
_cell_angle_beta   7.39611964
_cell_angle_gamma   7.39612110
_symmetry_Int_Tables_number   1
_chemical_formula_structural   C
_chemical_formula_sum   C8
_cell_volume   100.78328253
_cell_formula_units_Z   8
loop_
 _symmetry_equiv_pos_site_id
 _symmetry_equiv_pos_as_xyz
  1  'x, y, z'
loop_
 _atom_site_type_symbol
 _atom_site_label
 _atom_site_symmetry_multiplicity
 _atom_site_fract_x
 _atom_site_fract_y
 _atom_site_fract_z
 _atom_site_occupancy
  C  C0  1  0.03160900  0.03160900  0.03160900  1
  C  C1  1  0.90541300  0.90541300  0.90541300  1
  C  C2  1  0.76127100  0.76127100  0.76127100  1
  C  C3  1  0.09458700  0.09458700  0.09458700  1
  C  C4  1  0.96839100  0.96839100  0.96839100  1
  C  C5  1  0.36491300  0.36491300  0.36491300  1
  C  C6  1  0.23872900  0.23872900  0.23872900  1
  C  C7  1  0.63508700  0.63508700  0.63508700  1
