# generated using pymatgen
data_C
_symmetry_space_group_name_H-M   'P 1'
_cell_length_a   10.47059900
_cell_length_b   10.47059900
_cell_length_c   10.47059902
_cell_angle_alpha   13.82858156
_cell_angle_beta   13.82858156
_cell_angle_gamma   13.82857825
_symmetry_Int_Tables_number   1
_chemical_formula_structural   C
_chemical_formula_sum   C10
_cell_volume   57.07013088
_cell_formula_units_Z   10
loop_
 _symmetry_equiv_pos_site_id
 _symmetry_equiv_pos_as_xyz
  1  'x, y, z'
loop_
 _atom_site_type_symbol
 _atom_site_label
 _atom_site_symmetry_multiplicity
 _atom_site_fract_x
 _atom_site_fract_y
 _atom_site_fract_z
 _atom_site_occupancy
  C  C0  1  0.57468900  0.57468900  0.57468900  1
  C  C1  1  0.84164700  0.84164700  0.84164700  1
  C  C2  1  0.10864000  0.10864000  0.10864000  1
  C  C3  1  0.02481100  0.02481100  0.02481100  1
  C  C4  1  0.89136000  0.89136000  0.89136000  1
  C  C5  1  0.97518900  0.97518900  0.97518900  1
  C  C6  1  0.42531100  0.42531100  0.42531100  1
  C  C7  1  0.37483800  0.37483800  0.37483800  1
  C  C8  1  0.15835300  0.15835300  0.15835300  1
  C  C9  1  0.62516200  0.62516200  0.62516200  1
