# generated using pymatgen
data_Mg3Pt
_symmetry_space_group_name_H-M   'P 1'
_cell_length_a   4.62500850
_cell_length_b   4.62500850
_cell_length_c   8.34800800
_cell_angle_alpha   90.00000000
_cell_angle_beta   90.00000000
_cell_angle_gamma   120.00000718
_symmetry_Int_Tables_number   1
_chemical_formula_structural   Mg3Pt
_chemical_formula_sum   'Mg6 Pt2'
_cell_volume   154.64594176
_cell_formula_units_Z   2
loop_
 _symmetry_equiv_pos_site_id
 _symmetry_equiv_pos_as_xyz
  1  'x, y, z'
loop_
 _atom_site_type_symbol
 _atom_site_label
 _atom_site_symmetry_multiplicity
 _atom_site_fract_x
 _atom_site_fract_y
 _atom_site_fract_z
 _atom_site_occupancy
  Mg  Mg0  1  0.66666700  0.33333300  0.42285900  1
  Mg  Mg1  1  0.33333300  0.66666700  0.92285900  1
  Mg  Mg2  1  0.66666700  0.33333300  0.07714100  1
  Mg  Mg3  1  0.00000000  0.00000000  0.75000000  1
  Mg  Mg4  1  0.00000000  0.00000000  0.25000000  1
  Mg  Mg5  1  0.33333300  0.66666700  0.57714100  1
  Pt  Pt6  1  0.66666700  0.33333300  0.75000000  1
  Pt  Pt7  1  0.33333300  0.66666700  0.25000000  1
