# generated using pymatgen
data_NiTePd
_symmetry_space_group_name_H-M   'P 1'
_cell_length_a   3.81448600
_cell_length_b   6.34589300
_cell_length_c   8.42607300
_cell_angle_alpha   90.00000000
_cell_angle_beta   90.00000000
_cell_angle_gamma   90.00000000
_symmetry_Int_Tables_number   1
_chemical_formula_structural   NiTePd
_chemical_formula_sum   'Ni4 Te4 Pd4'
_cell_volume   203.96421943
_cell_formula_units_Z   4
loop_
 _symmetry_equiv_pos_site_id
 _symmetry_equiv_pos_as_xyz
  1  'x, y, z'
loop_
 _atom_site_type_symbol
 _atom_site_label
 _atom_site_symmetry_multiplicity
 _atom_site_fract_x
 _atom_site_fract_y
 _atom_site_fract_z
 _atom_site_occupancy
  Ni  Ni0  1  0.75000000  0.98942300  0.39503400  1
  Ni  Ni1  1  0.25000000  0.48942300  0.10496600  1
  Ni  Ni2  1  0.75000000  0.51057700  0.89503400  1
  Ni  Ni3  1  0.25000000  0.01057700  0.60496600  1
  Te  Te4  1  0.75000000  0.73989000  0.15679000  1
  Te  Te5  1  0.25000000  0.26011000  0.84321000  1
  Te  Te6  1  0.75000000  0.76011000  0.65679000  1
  Te  Te7  1  0.25000000  0.23989000  0.34321000  1
  Pd  Pd8  1  0.75000000  0.34626000  0.58573800  1
  Pd  Pd9  1  0.75000000  0.15374000  0.08573800  1
  Pd  Pd10  1  0.25000000  0.65374000  0.41426200  1
  Pd  Pd11  1  0.25000000  0.84626000  0.91426200  1
