# generated using pymatgen
data_Mg44Ir7
_symmetry_space_group_name_H-M   'P 1'
_cell_length_a   14.21168523
_cell_length_b   14.21168523
_cell_length_c   14.21168523
_cell_angle_alpha   60.00000000
_cell_angle_beta   60.00000000
_cell_angle_gamma   60.00000000
_symmetry_Int_Tables_number   1
_chemical_formula_structural   Mg44Ir7
_chemical_formula_sum   'Mg88 Ir14'
_cell_volume   2029.65275233
_cell_formula_units_Z   2
loop_
 _symmetry_equiv_pos_site_id
 _symmetry_equiv_pos_as_xyz
  1  'x, y, z'
loop_
 _atom_site_type_symbol
 _atom_site_label
 _atom_site_symmetry_multiplicity
 _atom_site_fract_x
 _atom_site_fract_y
 _atom_site_fract_z
 _atom_site_occupancy
  Mg  Mg0  1  0.51981800  0.86813500  0.09222900  1
  Mg  Mg1  1  0.44255100  0.66171000  0.23403000  1
  Mg  Mg2  1  0.85583000  0.64417000  0.64417000  1
  Mg  Mg3  1  0.78448800  0.78448800  0.00009600  1
  Mg  Mg4  1  0.66171000  0.23403000  0.66171000  1
  Mg  Mg5  1  0.51981800  0.51981800  0.09222900  1
  Mg  Mg6  1  0.66171000  0.44255100  0.23403000  1
  Mg  Mg7  1  0.23403000  0.44255100  0.66171000  1
  Mg  Mg8  1  0.43826100  0.68521700  0.43826100  1
  Mg  Mg9  1  0.28057600  0.91375900  0.28057600  1
  Mg  Mg10  1  0.05189300  0.05189300  0.05189300  1
  Mg  Mg11  1  0.18044900  0.81955100  0.81955100  1
  Mg  Mg12  1  0.08924200  0.30358600  0.30358600  1
  Mg  Mg13  1  0.86813500  0.51981800  0.51981800  1
  Mg  Mg14  1  0.23403000  0.66171000  0.66171000  1
  Mg  Mg15  1  0.66540300  0.02042800  0.29374200  1
  Mg  Mg16  1  0.52508900  0.91375900  0.28057600  1
  Mg  Mg17  1  0.66171000  0.44255100  0.66171000  1
  Mg  Mg18  1  0.09222900  0.51981800  0.51981800  1
  Mg  Mg19  1  0.29374200  0.66540300  0.02042800  1
  Mg  Mg20  1  0.78448800  0.43092900  0.00009600  1
  Mg  Mg21  1  0.68521700  0.43826100  0.43826100  1
  Mg  Mg22  1  0.84432100  0.05189300  0.05189300  1
  Mg  Mg23  1  0.51981800  0.51981800  0.86813500  1
  Mg  Mg24  1  0.18044900  0.81955100  0.18044900  1
  Mg  Mg25  1  0.23403000  0.66171000  0.44255100  1
  Mg  Mg26  1  0.05189300  0.84432100  0.05189300  1
  Mg  Mg27  1  0.43826100  0.43826100  0.43826100  1
  Mg  Mg28  1  0.09222900  0.51981800  0.86813500  1
  Mg  Mg29  1  0.86813500  0.09222900  0.51981800  1
  Mg  Mg30  1  0.66171000  0.66171000  0.44255100  1
  Mg  Mg31  1  0.02042800  0.66540300  0.02042800  1
  Mg  Mg32  1  0.43826100  0.43826100  0.68521700  1
  Mg  Mg33  1  0.29374200  0.02042800  0.66540300  1
  Mg  Mg34  1  0.66540300  0.29374200  0.02042800  1
  Mg  Mg35  1  0.49846800  0.16717700  0.16717700  1
  Mg  Mg36  1  0.78448800  0.00009600  0.78448800  1
  Mg  Mg37  1  0.43092900  0.78448800  0.78448800  1
  Mg  Mg38  1  0.00009600  0.43092900  0.78448800  1
  Mg  Mg39  1  0.30358600  0.08924200  0.30358600  1
  Mg  Mg40  1  0.78448800  0.78448800  0.43092900  1
  Mg  Mg41  1  0.28057600  0.91375900  0.52508900  1
  Mg  Mg42  1  0.81955100  0.18044900  0.18044900  1
  Mg  Mg43  1  0.85583000  0.85583000  0.64417000  1
  Mg  Mg44  1  0.43092900  0.78448800  0.00009600  1
  Mg  Mg45  1  0.81955100  0.81955100  0.18044900  1
  Mg  Mg46  1  0.16717700  0.16717700  0.16717700  1
  Mg  Mg47  1  0.64417000  0.64417000  0.85583000  1
  Mg  Mg48  1  0.30358600  0.30358600  0.08924200  1
  Mg  Mg49  1  0.28057600  0.52508900  0.28057600  1
  Mg  Mg50  1  0.78448800  0.00009600  0.43092900  1
  Mg  Mg51  1  0.51981800  0.09222900  0.51981800  1
  Mg  Mg52  1  0.16717700  0.49846800  0.16717700  1
  Mg  Mg53  1  0.29374200  0.02042800  0.02042800  1
  Mg  Mg54  1  0.02042800  0.02042800  0.29374200  1
  Mg  Mg55  1  0.52508900  0.28057600  0.91375900  1
  Mg  Mg56  1  0.81955100  0.18044900  0.81955100  1
  Mg  Mg57  1  0.02042800  0.29374200  0.02042800  1
  Mg  Mg58  1  0.66171000  0.23403000  0.44255100  1
  Mg  Mg59  1  0.66540300  0.02042800  0.02042800  1
  Mg  Mg60  1  0.02042800  0.02042800  0.66540300  1
  Mg  Mg61  1  0.28057600  0.52508900  0.91375900  1
  Mg  Mg62  1  0.86813500  0.51981800  0.09222900  1
  Mg  Mg63  1  0.64417000  0.85583000  0.85583000  1
  Mg  Mg64  1  0.51981800  0.09222900  0.86813500  1
  Mg  Mg65  1  0.28057600  0.28057600  0.91375900  1
  Mg  Mg66  1  0.91375900  0.28057600  0.28057600  1
  Mg  Mg67  1  0.91375900  0.28057600  0.52508900  1
  Mg  Mg68  1  0.52508900  0.28057600  0.28057600  1
  Mg  Mg69  1  0.16717700  0.16717700  0.49846800  1
  Mg  Mg70  1  0.02042800  0.29374200  0.66540300  1
  Mg  Mg71  1  0.44255100  0.66171000  0.66171000  1
  Mg  Mg72  1  0.02042800  0.66540300  0.29374200  1
  Mg  Mg73  1  0.85583000  0.64417000  0.85583000  1
  Mg  Mg74  1  0.78448800  0.43092900  0.78448800  1
  Mg  Mg75  1  0.00009600  0.78448800  0.78448800  1
  Mg  Mg76  1  0.64417000  0.85583000  0.64417000  1
  Mg  Mg77  1  0.18044900  0.18044900  0.81955100  1
  Mg  Mg78  1  0.05189300  0.05189300  0.84432100  1
  Mg  Mg79  1  0.43092900  0.00009600  0.78448800  1
  Mg  Mg80  1  0.28057600  0.28057600  0.52508900  1
  Mg  Mg81  1  0.09222900  0.86813500  0.51981800  1
  Mg  Mg82  1  0.66171000  0.66171000  0.23403000  1
  Mg  Mg83  1  0.91375900  0.52508900  0.28057600  1
  Mg  Mg84  1  0.44255100  0.23403000  0.66171000  1
  Mg  Mg85  1  0.51981800  0.86813500  0.51981800  1
  Mg  Mg86  1  0.00009600  0.78448800  0.43092900  1
  Mg  Mg87  1  0.30358600  0.30358600  0.30358600  1
  Ir  Ir88  1  0.41367300  0.08632700  0.41367300  1
  Ir  Ir89  1  0.24956500  0.91681200  0.91681200  1
  Ir  Ir90  1  0.65115200  0.65115200  0.04654500  1
  Ir  Ir91  1  0.65115200  0.04654500  0.65115200  1
  Ir  Ir92  1  0.91681200  0.91681200  0.24956500  1
  Ir  Ir93  1  0.91681200  0.91681200  0.91681200  1
  Ir  Ir94  1  0.91681200  0.24956500  0.91681200  1
  Ir  Ir95  1  0.08632700  0.08632700  0.41367300  1
  Ir  Ir96  1  0.08632700  0.41367300  0.08632700  1
  Ir  Ir97  1  0.04654500  0.65115200  0.65115200  1
  Ir  Ir98  1  0.65115200  0.65115200  0.65115200  1
  Ir  Ir99  1  0.41367300  0.41367300  0.08632700  1
  Ir  Ir100  1  0.41367300  0.08632700  0.08632700  1
  Ir  Ir101  1  0.08632700  0.41367300  0.41367300  1
