# generated using pymatgen
data_V2Hg2O7
_symmetry_space_group_name_H-M   'P 1'
_cell_length_a   3.45729900
_cell_length_b   19.26605200
_cell_length_c   12.00220400
_cell_angle_alpha   90.00000000
_cell_angle_beta   90.00000000
_cell_angle_gamma   90.00000000
_symmetry_Int_Tables_number   1
_chemical_formula_structural   V2Hg2O7
_chemical_formula_sum   'V8 Hg8 O28'
_cell_volume   799.44883290
_cell_formula_units_Z   4
loop_
 _symmetry_equiv_pos_site_id
 _symmetry_equiv_pos_as_xyz
  1  'x, y, z'
loop_
 _atom_site_type_symbol
 _atom_site_label
 _atom_site_symmetry_multiplicity
 _atom_site_fract_x
 _atom_site_fract_y
 _atom_site_fract_z
 _atom_site_occupancy
  V  V0  1  0.25000000  0.70201700  0.46489200  1
  V  V1  1  0.75000000  0.04838700  0.06748000  1
  V  V2  1  0.25000000  0.45161300  0.56748000  1
  V  V3  1  0.25000000  0.95161300  0.93252000  1
  V  V4  1  0.75000000  0.79798300  0.96489200  1
  V  V5  1  0.75000000  0.54838700  0.43252000  1
  V  V6  1  0.75000000  0.29798300  0.53510800  1
  V  V7  1  0.25000000  0.20201700  0.03510800  1
  Hg  Hg8  1  0.25000000  0.40374300  0.80025600  1
  Hg  Hg9  1  0.75000000  0.59625700  0.19974400  1
  Hg  Hg10  1  0.25000000  0.90374300  0.69974400  1
  Hg  Hg11  1  0.75000000  0.09625700  0.30025600  1
  Hg  Hg12  1  0.25000000  0.29112100  0.23306400  1
  Hg  Hg13  1  0.25000000  0.79112100  0.26693600  1
  Hg  Hg14  1  0.75000000  0.20887900  0.73306400  1
  Hg  Hg15  1  0.75000000  0.70887900  0.76693600  1
  O  O16  1  0.25000000  0.48266000  0.11390200  1
  O  O17  1  0.75000000  0.49065200  0.57682400  1
  O  O18  1  0.25000000  0.71032600  0.63361700  1
  O  O19  1  0.25000000  0.77679600  0.57403800  1
  O  O20  1  0.25000000  0.25191000  0.62265300  1
  O  O21  1  0.25000000  0.36100000  0.51607600  1
  O  O22  1  0.75000000  0.78967400  0.13361700  1
  O  O23  1  0.25000000  0.00934800  0.07682400  1
  O  O24  1  0.75000000  0.24809000  0.12265300  1
  O  O25  1  0.75000000  0.13900000  0.01607600  1
  O  O26  1  0.75000000  0.22320400  0.42596200  1
  O  O27  1  0.25000000  0.50934800  0.42317600  1
  O  O28  1  0.25000000  0.27679600  0.92596200  1
  O  O29  1  0.25000000  0.98266000  0.38609800  1
  O  O30  1  0.75000000  0.51734000  0.88609800  1
  O  O31  1  0.75000000  0.57487800  0.93507200  1
  O  O32  1  0.75000000  0.07487800  0.56492800  1
  O  O33  1  0.75000000  0.72320400  0.07403800  1
  O  O34  1  0.75000000  0.28967400  0.36638300  1
  O  O35  1  0.25000000  0.21032600  0.86638300  1
  O  O36  1  0.75000000  0.63900000  0.48392400  1
  O  O37  1  0.25000000  0.86100000  0.98392400  1
  O  O38  1  0.25000000  0.92512200  0.43507200  1
  O  O39  1  0.75000000  0.01734000  0.61390200  1
  O  O40  1  0.25000000  0.75191000  0.87734700  1
  O  O41  1  0.25000000  0.42512200  0.06492800  1
  O  O42  1  0.75000000  0.74809000  0.37734700  1
  O  O43  1  0.75000000  0.99065200  0.92317600  1
