# generated using pymatgen
data_S(NO2)2
_symmetry_space_group_name_H-M   'P 1'
_cell_length_a   6.72000200
_cell_length_b   8.54772523
_cell_length_c   11.00934902
_cell_angle_alpha   89.14416599
_cell_angle_beta   89.74523905
_cell_angle_gamma   89.19710991
_symmetry_Int_Tables_number   1
_chemical_formula_structural   S(NO2)2
_chemical_formula_sum   'S4 N8 O16'
_cell_volume   632.24674545
_cell_formula_units_Z   4
loop_
 _symmetry_equiv_pos_site_id
 _symmetry_equiv_pos_as_xyz
  1  'x, y, z'
loop_
 _atom_site_type_symbol
 _atom_site_label
 _atom_site_symmetry_multiplicity
 _atom_site_fract_x
 _atom_site_fract_y
 _atom_site_fract_z
 _atom_site_occupancy
  S  S0  1  0.66818700  0.93986400  0.54792500  1
  S  S1  1  0.19309900  0.56191800  0.45002700  1
  S  S2  1  0.33002700  0.43341800  0.95328900  1
  S  S3  1  0.82563100  0.06152600  0.04680600  1
  N  N4  1  0.09975800  0.81644900  0.79461000  1
  N  N5  1  0.60641000  0.68631300  0.20901100  1
  N  N6  1  0.89555500  0.30526600  0.69506700  1
  N  N7  1  0.32326200  0.17684200  0.32218400  1
  N  N8  1  0.29408500  0.97335300  0.84873700  1
  N  N9  1  0.79068800  0.51952000  0.15119200  1
  N  N10  1  0.70424000  0.47187600  0.64570300  1
  N  N11  1  0.27987200  0.04241200  0.34145300  1
  O  O12  1  0.47846500  0.02321300  0.55553300  1
  O  O13  1  0.00226100  0.48619700  0.43916300  1
  O  O14  1  0.50103600  0.53464400  0.94359100  1
  O  O15  1  0.01216800  0.97473900  0.05622500  1
  O  O16  1  0.91269900  0.20535800  0.62348200  1
  O  O17  1  0.41217800  0.28697100  0.36638700  1
  O  O18  1  0.07821700  0.71256100  0.86409400  1
  O  O19  1  0.58341400  0.78898200  0.13833400  1
  O  O20  1  0.71624600  0.58570600  0.70187100  1
  O  O21  1  0.20243800  0.92578300  0.30211800  1
  O  O22  1  0.28599100  0.09196300  0.79456500  1
  O  O23  1  0.78697300  0.40412600  0.20898800  1
  O  O24  1  0.74977500  0.91241800  0.42758700  1
  O  O25  1  0.26132300  0.59602600  0.57177400  1
  O  O26  1  0.26010300  0.39108200  0.07438300  1
  O  O27  1  0.74589800  0.09147600  0.92589800  1
