# generated using pymatgen
data_Sb2C4O
_symmetry_space_group_name_H-M   'P 1'
_cell_length_a   6.31776500
_cell_length_b   7.82155300
_cell_length_c   16.13568300
_cell_angle_alpha   90.00000000
_cell_angle_beta   90.00000000
_cell_angle_gamma   90.00000000
_symmetry_Int_Tables_number   1
_chemical_formula_structural   Sb2C4O
_chemical_formula_sum   'Sb8 C16 O4'
_cell_volume   797.34047995
_cell_formula_units_Z   4
loop_
 _symmetry_equiv_pos_site_id
 _symmetry_equiv_pos_as_xyz
  1  'x, y, z'
loop_
 _atom_site_type_symbol
 _atom_site_label
 _atom_site_symmetry_multiplicity
 _atom_site_fract_x
 _atom_site_fract_y
 _atom_site_fract_z
 _atom_site_occupancy
  Sb  Sb0  1  0.59071800  0.32153900  0.55310000  1
  Sb  Sb1  1  0.90928200  0.67846100  0.05310000  1
  Sb  Sb2  1  0.09071800  0.17846100  0.44690000  1
  Sb  Sb3  1  0.40928200  0.82153900  0.94690000  1
  Sb  Sb4  1  0.70163400  0.13671200  0.83588000  1
  Sb  Sb5  1  0.79836600  0.86328800  0.33588000  1
  Sb  Sb6  1  0.20163400  0.36328800  0.16412000  1
  Sb  Sb7  1  0.29836600  0.63671200  0.66412000  1
  C  C8  1  0.83609100  0.50083000  0.58081100  1
  C  C9  1  0.66390900  0.49917000  0.08081100  1
  C  C10  1  0.33609100  0.99917000  0.41918900  1
  C  C11  1  0.16390900  0.00083000  0.91918900  1
  C  C12  1  0.98566000  0.57429700  0.61485800  1
  C  C13  1  0.51434000  0.42570300  0.11485800  1
  C  C14  1  0.48566000  0.92570300  0.38514200  1
  C  C15  1  0.01434000  0.07429700  0.88514200  1
  C  C16  1  0.72606100  0.14274100  0.63746100  1
  C  C17  1  0.77393900  0.85725900  0.13746100  1
  C  C18  1  0.22606100  0.35725900  0.36253900  1
  C  C19  1  0.27393900  0.64274100  0.86253900  1
  C  C20  1  0.75973500  0.09268700  0.70894400  1
  C  C21  1  0.74026500  0.90731300  0.20894400  1
  C  C22  1  0.25973500  0.40731300  0.29105600  1
  C  C23  1  0.24026500  0.59268700  0.79105600  1
  O  O24  1  0.39549000  0.40041300  0.64180600  1
  O  O25  1  0.10451000  0.59958700  0.14180600  1
  O  O26  1  0.89549000  0.09958700  0.35819400  1
  O  O27  1  0.60451000  0.90041300  0.85819400  1
