# generated using pymatgen
data_Zn(NCl2)2
_symmetry_space_group_name_H-M   'P 1'
_cell_length_a   12.81441717
_cell_length_b   8.82302833
_cell_length_c   37.19920772
_cell_angle_alpha   90.00000000
_cell_angle_beta   91.24584827
_cell_angle_gamma   90.00000000
_symmetry_Int_Tables_number   1
_chemical_formula_structural   Zn(NCl2)2
_chemical_formula_sum   'Zn16 N32 Cl64'
_cell_volume   4204.82131480
_cell_formula_units_Z   16
loop_
 _symmetry_equiv_pos_site_id
 _symmetry_equiv_pos_as_xyz
  1  'x, y, z'
loop_
 _atom_site_type_symbol
 _atom_site_label
 _atom_site_symmetry_multiplicity
 _atom_site_fract_x
 _atom_site_fract_y
 _atom_site_fract_z
 _atom_site_occupancy
  Zn  Zn0  1  0.23670449  0.05989683  0.47955748  1
  Zn  Zn1  1  0.23670449  0.94010317  0.97955748  1
  Zn  Zn2  1  0.24763878  0.04242323  0.72101153  1
  Zn  Zn3  1  0.24763878  0.95757677  0.22101153  1
  Zn  Zn4  1  0.65011140  0.12512703  0.60013041  1
  Zn  Zn5  1  0.65011140  0.87487297  0.10013041  1
  Zn  Zn6  1  0.56471945  0.98361966  0.85419511  1
  Zn  Zn7  1  0.56471945  0.01638034  0.35419511  1
  Zn  Zn8  1  0.85325135  0.48682388  0.01100543  1
  Zn  Zn9  1  0.85325135  0.51317612  0.51100543  1
  Zn  Zn10  1  0.77331057  0.39212029  0.77914892  1
  Zn  Zn11  1  0.77331057  0.60787971  0.27914892  1
  Zn  Zn12  1  0.07929779  0.49548104  0.89803206  1
  Zn  Zn13  1  0.07929779  0.50451896  0.39803206  1
  Zn  Zn14  1  0.23399416  0.51282044  0.59807635  1
  Zn  Zn15  1  0.23399416  0.48717956  0.09807635  1
  N  N16  1  0.12685146  0.01301172  0.82043761  1
  N  N17  1  0.12685146  0.98698828  0.32043761  1
  N  N18  1  0.08928423  0.92909734  0.58207522  1
  N  N19  1  0.08928423  0.07090266  0.08207522  1
  N  N20  1  0.81386785  0.01527885  0.92741864  1
  N  N21  1  0.81386785  0.98472115  0.42741864  1
  N  N22  1  0.82594354  -0.00584288  0.70027782  1
  N  N23  1  0.82594354  0.00584288  0.20027782  1
  N  N24  1  0.29888613  0.96890624  0.66843450  1
  N  N25  1  0.29888613  0.03109376  0.16843450  1
  N  N26  1  0.33412140  0.07829527  0.94439467  1
  N  N27  1  0.33412140  0.92170473  0.44439467  1
  N  N28  1  0.62927081  0.06232952  0.54322284  1
  N  N29  1  0.62927081  0.93767048  0.04322284  1
  N  N30  1  0.52552846  0.95151047  0.78098305  1
  N  N31  1  0.52552846  0.04848853  0.28098305  1
  N  N32  1  0.62177402  0.50267213  0.67621916  1
  N  N33  1  0.62177402  0.49732787  0.17621916  1
  N  N34  1  0.59536155  0.49990855  0.94444445  1
  N  N35  1  0.59536155  0.50009145  0.44444445  1
  N  N36  1  0.34899329  0.53886034  0.55638142  1
  N  N37  1  0.34899329  0.46113966  0.05638142  1
  N  N38  1  0.30852109  0.53141934  0.82317915  1
  N  N39  1  0.30852109  0.46858066  0.32317915  1
  N  N40  1  0.81659305  0.57197286  0.81674760  1
  N  N41  1  0.81659305  0.42802714  0.31674760  1
  N  N42  1  0.68998280  0.54021122  0.58277454  1
  N  N43  1  0.68998280  0.45978878  0.08277454  1
  N  N44  1  0.11085797  0.50930002  0.95649567  1
  N  N45  1  0.11085797  0.49069998  0.45649567  1
  N  N46  1  0.09529779  0.42210616  0.70154807  1
  N  N47  1  0.09529779  0.57789384  0.20154807  1
  Cl  Cl48  1  0.22012398  0.96727019  0.58499946  1
  Cl  Cl49  1  0.22012398  0.03272981  0.08499946  1
  Cl  Cl50  1  0.11222773  0.91034594  0.48903362  1
  Cl  Cl51  1  0.11222773  0.08965406  0.98903362  1
  Cl  Cl52  1  0.32975885  0.25757258  0.48621483  1
  Cl  Cl53  1  0.32975885  0.74242742  0.98621483  1
  Cl  Cl54  1  0.40380391  0.77802801  0.45372070  1
  Cl  Cl55  1  0.40380391  0.22197199  0.95372070  1
  Cl  Cl56  1  0.24890099  0.00189679  0.83123539  1
  Cl  Cl57  1  0.24890099  -0.00189679  0.33123539  1
  Cl  Cl58  1  0.13523884  0.87296389  0.72932524  1
  Cl  Cl59  1  0.13523884  0.12703611  0.22932524  1
  Cl  Cl60  1  0.34739131  0.22838209  0.72969081  1
  Cl  Cl61  1  0.34739131  0.77161791  0.22969081  1
  Cl  Cl62  1  0.47358379  0.81541409  0.75859500  1
  Cl  Cl63  1  0.47358379  0.18458591  0.25859500  1
  Cl  Cl64  1  0.70175478  0.01974304  0.70301310  1
  Cl  Cl65  1  0.70175478  0.98025696  0.20301310  1
  Cl  Cl66  1  0.81336079  0.12110843  0.60440711  1
  Cl  Cl67  1  0.81336079  0.87889157  0.10440711  1
  Cl  Cl68  1  0.61167604  0.67655287  0.59105056  1
  Cl  Cl69  1  0.61167604  0.32344713  0.09105056  1
  Cl  Cl70  1  0.49129610  0.13374140  0.61344351  1
  Cl  Cl71  1  0.49129610  0.86625860  0.11344351  1
  Cl  Cl72  1  0.69161783  0.97483716  0.94150395  1
  Cl  Cl73  1  0.69161783  0.02516284  0.44150395  1
  Cl  Cl74  1  0.81402365  0.04866556  0.88206387  1
  Cl  Cl75  1  0.81402365  0.95133444  0.38206387  1
  Cl  Cl76  1  0.58837129  0.74886441  0.85440201  1
  Cl  Cl77  1  0.58837129  0.25113559  0.35440201  1
  Cl  Cl78  1  0.52908222  0.21153320  0.86320297  1
  Cl  Cl79  1  0.52908222  0.78846680  0.36320297  1
  Cl  Cl80  1  0.71356792  0.49328790  0.92530776  1
  Cl  Cl81  1  0.71356792  0.50671210  0.42530776  1
  Cl  Cl82  1  0.60559930  0.55343021  0.98875964  1
  Cl  Cl83  1  0.60559930  0.44656979  0.48875964  1
  Cl  Cl84  1  0.89073602  0.71432956  0.00372098  1
  Cl  Cl85  1  0.89073602  0.28567044  0.50372098  1
  Cl  Cl86  1  0.82582578  0.25481697  0.01581111  1
  Cl  Cl87  1  0.82582578  0.74518303  0.51581111  1
  Cl  Cl88  1  0.74622523  0.51583789  0.68279014  1
  Cl  Cl89  1  0.74622523  0.48416211  0.18279014  1
  Cl  Cl90  1  0.60997520  0.40901470  0.77242809  1
  Cl  Cl91  1  0.60997520  0.59098530  0.27242809  1
  Cl  Cl92  1  0.86113072  0.73318217  0.80662376  1
  Cl  Cl93  1  0.86113072  0.26681783  0.30662376  1
  Cl  Cl94  1  0.92079749  0.29788692  0.76762092  1
  Cl  Cl95  1  0.92079749  0.70211308  0.26762092  1
  Cl  Cl96  1  0.18863976  0.49751477  0.80523292  1
  Cl  Cl97  1  0.18863976  0.50248523  0.30523292  1
  Cl  Cl98  1  0.30546553  0.55260955  0.86922131  1
  Cl  Cl99  1  0.30546553  0.44739045  0.36922131  1
  Cl  Cl100  1  0.08858187  0.25868893  0.89188646  1
  Cl  Cl101  1  0.08858187  0.74131107  0.39188646  1
  Cl  Cl102  1  0.03219876  0.72280272  0.89015939  1
  Cl  Cl103  1  0.03219876  0.27719728  0.39015939  1
  Cl  Cl104  1  0.11423272  0.42004875  0.56502966  1
  Cl  Cl105  1  0.11423272  0.57995125  0.06502966  1
  Cl  Cl106  1  0.32177357  0.58529975  0.64346554  1
  Cl  Cl107  1  0.32177357  0.41470025  0.14346554  1
  Cl  Cl108  1  0.05723841  0.32512648  0.66679087  1
  Cl  Cl109  1  0.05723841  0.67487352  0.16679087  1
  Cl  Cl110  1  0.05353517  0.81455863  0.61659761  1
  Cl  Cl111  1  0.05353517  0.18544137  0.11659761  1
