# generated using pymatgen
data_Lu7Sb3
_symmetry_space_group_name_H-M   'P 1'
_cell_length_a   11.97555520
_cell_length_b   11.97555520
_cell_length_c   11.97555520
_cell_angle_alpha   97.87834323
_cell_angle_beta   97.87834323
_cell_angle_gamma   136.54041321
_symmetry_Int_Tables_number   1
_chemical_formula_structural   Lu7Sb3
_chemical_formula_sum   'Lu28 Sb12'
_cell_volume   1097.39731520
_cell_formula_units_Z   4
loop_
 _symmetry_equiv_pos_site_id
 _symmetry_equiv_pos_as_xyz
  1  'x, y, z'
loop_
 _atom_site_type_symbol
 _atom_site_label
 _atom_site_symmetry_multiplicity
 _atom_site_fract_x
 _atom_site_fract_y
 _atom_site_fract_z
 _atom_site_occupancy
  Lu  Lu0  1  0.14117300  0.64117300  0.17048100  1
  Lu  Lu1  1  0.25000000  0.25000000  0.00000000  1
  Lu  Lu2  1  0.98262100  0.33576300  0.31838300  1
  Lu  Lu3  1  0.12341300  0.88337700  0.00679100  1
  Lu  Lu4  1  0.52930700  0.02930700  0.17048100  1
  Lu  Lu5  1  0.62341300  0.61662300  0.24003600  1
  Lu  Lu6  1  0.33576300  0.01737900  0.35314200  1
  Lu  Lu7  1  0.48262100  0.16423700  0.64685800  1
  Lu  Lu8  1  0.97069300  0.14117300  0.50000000  1
  Lu  Lu9  1  0.38337700  0.62341300  0.00679100  1
  Lu  Lu10  1  0.35882700  0.52930700  0.50000000  1
  Lu  Lu11  1  0.61662300  0.37658700  0.99320900  1
  Lu  Lu12  1  0.01737900  0.66423700  0.68161700  1
  Lu  Lu13  1  0.11662300  0.12341300  0.24003600  1
  Lu  Lu14  1  0.64117300  0.47069300  0.50000000  1
  Lu  Lu15  1  0.83576300  0.48262100  0.31838300  1
  Lu  Lu16  1  0.47069300  0.97069300  0.82951900  1
  Lu  Lu17  1  0.02930700  0.85882700  0.50000000  1
  Lu  Lu18  1  0.87658700  0.11662300  0.99320900  1
  Lu  Lu19  1  0.75000000  0.75000000  0.00000000  1
  Lu  Lu20  1  0.51737900  0.83576300  0.35314200  1
  Lu  Lu21  1  0.37658700  0.38337700  0.75996400  1
  Lu  Lu22  1  0.85882700  0.35882700  0.82951900  1
  Lu  Lu23  1  0.66423700  0.98262100  0.64685800  1
  Lu  Lu24  1  0.75000000  0.25000000  0.50000000  1
  Lu  Lu25  1  0.88337700  0.87658700  0.75996400  1
  Lu  Lu26  1  0.16423700  0.51737900  0.68161700  1
  Lu  Lu27  1  0.25000000  0.75000000  0.50000000  1
  Sb  Sb28  1  0.05285000  0.25000000  0.80285000  1
  Sb  Sb29  1  0.71968100  0.78031900  0.50000000  1
  Sb  Sb30  1  0.94715000  0.75000000  0.19715000  1
  Sb  Sb31  1  0.28031900  0.21968100  0.50000000  1
  Sb  Sb32  1  0.21968100  0.71968100  0.93936200  1
  Sb  Sb33  1  0.25000000  0.44715000  0.19715000  1
  Sb  Sb34  1  0.78031900  0.28031900  0.06063800  1
  Sb  Sb35  1  0.75000000  0.94715000  0.19715000  1
  Sb  Sb36  1  0.55285000  0.75000000  0.80285000  1
  Sb  Sb37  1  0.25000000  0.05285000  0.80285000  1
  Sb  Sb38  1  0.44715000  0.25000000  0.19715000  1
  Sb  Sb39  1  0.75000000  0.55285000  0.80285000  1
