# generated using pymatgen
data_ZrCuH8C2NCl6
_symmetry_space_group_name_H-M   'P 1'
_cell_length_a   9.80709000
_cell_length_b   10.66930200
_cell_length_c   12.64673105
_cell_angle_alpha   70.25158296
_cell_angle_beta   90.00000000
_cell_angle_gamma   90.00000000
_symmetry_Int_Tables_number   1
_chemical_formula_structural   ZrCuH8C2NCl6
_chemical_formula_sum   'Zr4 Cu4 H32 C8 N4 Cl24'
_cell_volume   1245.45950328
_cell_formula_units_Z   4
loop_
 _symmetry_equiv_pos_site_id
 _symmetry_equiv_pos_as_xyz
  1  'x, y, z'
loop_
 _atom_site_type_symbol
 _atom_site_label
 _atom_site_symmetry_multiplicity
 _atom_site_fract_x
 _atom_site_fract_y
 _atom_site_fract_z
 _atom_site_occupancy
  Zr  Zr0  1  0.75285600  0.25053000  0.50066200  1
  Zr  Zr1  1  0.24714400  0.74947000  0.49933800  1
  Zr  Zr2  1  0.74714400  0.25053000  0.00066200  1
  Zr  Zr3  1  0.25285600  0.74947000  0.99933800  1
  Cu  Cu4  1  0.29960900  0.74433000  0.26075000  1
  Cu  Cu5  1  0.20039100  0.74433000  0.76075000  1
  Cu  Cu6  1  0.79960900  0.25567000  0.23925000  1
  Cu  Cu7  1  0.70039100  0.25567000  0.73925000  1
  H  H8  1  0.60706500  0.61602300  0.70292000  1
  H  H9  1  0.84283000  0.67367300  0.36283200  1
  H  H10  1  0.62584800  0.82556900  0.55660700  1
  H  H11  1  0.71326300  0.78785800  0.28534100  1
  H  H12  1  0.15717000  0.32632700  0.63716800  1
  H  H13  1  0.34283000  0.32632700  0.13716800  1
  H  H14  1  0.78673700  0.78785800  0.78534100  1
  H  H15  1  0.89293500  0.61602300  0.20292000  1
  H  H16  1  0.72622800  0.60199700  0.22368600  1
  H  H17  1  0.37415200  0.17443100  0.44339300  1
  H  H18  1  0.27377200  0.39800300  0.77631400  1
  H  H19  1  0.39293500  0.38397700  0.29708000  1
  H  H20  1  0.65717000  0.67367300  0.86283200  1
  H  H21  1  0.28673700  0.21214200  0.71465900  1
  H  H22  1  0.69239300  0.81979500  0.07554900  1
  H  H23  1  0.10706500  0.38397700  0.79708000  1
  H  H24  1  0.77674600  0.69883600  0.02738600  1
  H  H25  1  0.10967200  0.17740700  0.74861900  1
  H  H26  1  0.22622800  0.39800300  0.27631400  1
  H  H27  1  0.12584800  0.17443100  0.94339300  1
  H  H28  1  0.72325400  0.69883600  0.52738600  1
  H  H29  1  0.30760700  0.18020500  0.92445100  1
  H  H30  1  0.80760700  0.81979500  0.57554900  1
  H  H31  1  0.77377200  0.60199700  0.72368600  1
  H  H32  1  0.27674600  0.30116400  0.47261400  1
  H  H33  1  0.39032800  0.17740700  0.24861900  1
  H  H34  1  0.19239300  0.18020500  0.42445100  1
  H  H35  1  0.21326300  0.21214200  0.21465900  1
  H  H36  1  0.89032800  0.82259300  0.25138100  1
  H  H37  1  0.22325400  0.30116400  0.97261400  1
  H  H38  1  0.60967200  0.82259300  0.75138100  1
  H  H39  1  0.87415200  0.82556900  0.05660700  1
  C  C40  1  0.31330100  0.25578000  0.21911400  1
  C  C41  1  0.18669900  0.25578000  0.71911400  1
  C  C42  1  0.81330100  0.74422000  0.28088600  1
  C  C43  1  0.71512100  0.76054900  0.58076300  1
  C  C44  1  0.68669900  0.74422000  0.78088600  1
  C  C45  1  0.28487900  0.23945100  0.41923700  1
  C  C46  1  0.21512100  0.23945100  0.91923700  1
  C  C47  1  0.78487900  0.76054900  0.08076300  1
  N  N48  1  0.19539900  0.32917000  0.80075000  1
  N  N49  1  0.69539900  0.67083000  0.69925000  1
  N  N50  1  0.30460100  0.32917000  0.30075000  1
  N  N51  1  0.80460100  0.67083000  0.19925000  1
  Cl  Cl52  1  0.08084100  0.91728600  0.40648000  1
  Cl  Cl53  1  0.16131200  0.59832400  0.39547700  1
  Cl  Cl54  1  0.57311400  0.14822100  0.64536400  1
  Cl  Cl55  1  0.42688600  0.85177900  0.35463600  1
  Cl  Cl56  1  0.42793000  0.64518000  0.15552400  1
  Cl  Cl57  1  0.07311400  0.85177900  0.85463600  1
  Cl  Cl58  1  0.66305300  0.11516200  0.38652800  1
  Cl  Cl59  1  0.83868800  0.40167600  0.60452300  1
  Cl  Cl60  1  0.83694700  0.11516200  0.88652800  1
  Cl  Cl61  1  0.33694700  0.88483800  0.61347200  1
  Cl  Cl62  1  0.92793000  0.35482000  0.34447600  1
  Cl  Cl63  1  0.16305300  0.88483800  0.11347200  1
  Cl  Cl64  1  0.58084100  0.08271400  0.09352000  1
  Cl  Cl65  1  0.07207000  0.64518000  0.65552400  1
  Cl  Cl66  1  0.41915900  0.91728600  0.90648000  1
  Cl  Cl67  1  0.09625100  0.56378200  0.10533000  1
  Cl  Cl68  1  0.91915900  0.08271400  0.59352000  1
  Cl  Cl69  1  0.90374900  0.43621800  0.89467000  1
  Cl  Cl70  1  0.57207000  0.35482000  0.84447600  1
  Cl  Cl71  1  0.33868800  0.59832400  0.89547700  1
  Cl  Cl72  1  0.59625100  0.43621800  0.39467000  1
  Cl  Cl73  1  0.66131200  0.40167600  0.10452300  1
  Cl  Cl74  1  0.92688600  0.14822100  0.14536400  1
  Cl  Cl75  1  0.40374900  0.56378200  0.60533000  1
