# generated using pymatgen
data_S2NO9
_symmetry_space_group_name_H-M   'P 1'
_cell_length_a   6.01894500
_cell_length_b   9.34658081
_cell_length_c   9.83944599
_cell_angle_alpha   79.61991419
_cell_angle_beta   80.68047469
_cell_angle_gamma   81.58998510
_symmetry_Int_Tables_number   1
_chemical_formula_structural   S2NO9
_chemical_formula_sum   'S4 N2 O18'
_cell_volume   533.36481802
_cell_formula_units_Z   2
loop_
 _symmetry_equiv_pos_site_id
 _symmetry_equiv_pos_as_xyz
  1  'x, y, z'
loop_
 _atom_site_type_symbol
 _atom_site_label
 _atom_site_symmetry_multiplicity
 _atom_site_fract_x
 _atom_site_fract_y
 _atom_site_fract_z
 _atom_site_occupancy
  S  S0  1  0.35161700  0.67067600  0.81370200  1
  S  S1  1  0.64838300  0.32932400  0.18629800  1
  S  S2  1  0.84936100  0.70414900  0.50629100  1
  S  S3  1  0.15063900  0.29585100  0.49370900  1
  N  N4  1  0.53222500  0.21292800  0.79495100  1
  N  N5  1  0.46777500  0.78707200  0.20504900  1
  O  O6  1  0.20646400  0.64304400  0.94397900  1
  O  O7  1  0.79353600  0.35695600  0.05602100  1
  O  O8  1  0.57673000  0.59350900  0.79632500  1
  O  O9  1  0.42327000  0.40649100  0.20367500  1
  O  O10  1  0.73337400  0.61852000  0.43673700  1
  O  O11  1  0.26662600  0.38148000  0.56326300  1
  O  O12  1  0.56843900  0.00398600  0.84494900  1
  O  O13  1  0.43156100  0.99601400  0.15505100  1
  O  O14  1  0.76321400  0.95791500  0.79264100  1
  O  O15  1  0.23678600  0.04208500  0.20735900  1
  O  O16  1  0.27538100  0.77628800  0.70029600  1
  O  O17  1  0.72461900  0.22371200  0.29970400  1
  O  O18  1  0.78190800  0.86043300  0.49246700  1
  O  O19  1  0.21809200  0.13956700  0.50753300  1
  O  O20  1  0.36498500  0.27442600  0.85413400  1
  O  O21  1  0.63501500  0.72557400  0.14586600  1
  O  O22  1  0.69140500  0.24752300  0.71158300  1
  O  O23  1  0.30859500  0.75247700  0.28841700  1
