# generated using pymatgen
data_Mg21Zn25
_symmetry_space_group_name_H-M   'P 1'
_cell_length_a   15.04242845
_cell_length_b   15.04242845
_cell_length_c   15.04242864
_cell_angle_alpha   116.40747555
_cell_angle_beta   116.40747555
_cell_angle_gamma   116.40747396
_symmetry_Int_Tables_number   1
_chemical_formula_structural   Mg21Zn25
_chemical_formula_sum   'Mg42 Zn50'
_cell_volume   1634.63325841
_cell_formula_units_Z   2
loop_
 _symmetry_equiv_pos_site_id
 _symmetry_equiv_pos_as_xyz
  1  'x, y, z'
loop_
 _atom_site_type_symbol
 _atom_site_label
 _atom_site_symmetry_multiplicity
 _atom_site_fract_x
 _atom_site_fract_y
 _atom_site_fract_z
 _atom_site_occupancy
  Mg  Mg0  1  0.75000000  0.05719700  0.44280300  1
  Mg  Mg1  1  0.45494500  0.93686400  0.35876600  1
  Mg  Mg2  1  0.64123400  0.54505500  0.06313600  1
  Mg  Mg3  1  0.18133200  0.06529100  0.94786600  1
  Mg  Mg4  1  0.44280300  0.75000000  0.05719700  1
  Mg  Mg5  1  0.04505500  0.14123400  0.56313600  1
  Mg  Mg6  1  0.25000000  0.94280300  0.55719700  1
  Mg  Mg7  1  0.68382300  0.22359900  0.45173200  1
  Mg  Mg8  1  0.77640100  0.54826800  0.31617700  1
  Mg  Mg9  1  0.94786600  0.18133200  0.06529100  1
  Mg  Mg10  1  0.93686400  0.35876600  0.45494500  1
  Mg  Mg11  1  0.85876600  0.43686400  0.95494500  1
  Mg  Mg12  1  0.68133200  0.44786600  0.56529100  1
  Mg  Mg13  1  0.31617700  0.77640100  0.54826800  1
  Mg  Mg14  1  0.55719700  0.25000000  0.94280300  1
  Mg  Mg15  1  0.95494500  0.85876600  0.43686400  1
  Mg  Mg16  1  0.14123400  0.56313600  0.04505500  1
  Mg  Mg17  1  0.43686400  0.95494500  0.85876600  1
  Mg  Mg18  1  0.95173200  0.72359900  0.18382300  1
  Mg  Mg19  1  0.31866800  0.55213400  0.43470900  1
  Mg  Mg20  1  0.45173200  0.68382300  0.22359900  1
  Mg  Mg21  1  0.35876600  0.45494500  0.93686400  1
  Mg  Mg22  1  0.05213400  0.81866800  0.93470900  1
  Mg  Mg23  1  0.93470900  0.05213400  0.81866800  1
  Mg  Mg24  1  0.72359900  0.18382300  0.95173200  1
  Mg  Mg25  1  0.94280300  0.55719700  0.25000000  1
  Mg  Mg26  1  0.27640100  0.81617700  0.04826800  1
  Mg  Mg27  1  0.22359900  0.45173200  0.68382300  1
  Mg  Mg28  1  0.05719700  0.44280300  0.75000000  1
  Mg  Mg29  1  0.18382300  0.95173200  0.72359900  1
  Mg  Mg30  1  0.43470900  0.31866800  0.55213400  1
  Mg  Mg31  1  0.06313600  0.64123400  0.54505500  1
  Mg  Mg32  1  0.55213400  0.43470900  0.31866800  1
  Mg  Mg33  1  0.56529100  0.68133200  0.44786600  1
  Mg  Mg34  1  0.54505500  0.06313600  0.64123400  1
  Mg  Mg35  1  0.44786600  0.56529100  0.68133200  1
  Mg  Mg36  1  0.54826800  0.31617700  0.77640100  1
  Mg  Mg37  1  0.81617700  0.04826800  0.27640100  1
  Mg  Mg38  1  0.04826800  0.27640100  0.81617700  1
  Mg  Mg39  1  0.56313600  0.04505500  0.14123400  1
  Mg  Mg40  1  0.06529100  0.94786600  0.18133200  1
  Mg  Mg41  1  0.81866800  0.93470900  0.05213400  1
  Zn  Zn42  1  0.31091900  0.01915100  0.42771500  1
  Zn  Zn43  1  0.25000000  0.69191700  0.80808300  1
  Zn  Zn44  1  0.11925200  0.76398000  0.11897700  1
  Zn  Zn45  1  0.73602000  0.38074800  0.38102300  1
  Zn  Zn46  1  0.98084900  0.57228500  0.68908100  1
  Zn  Zn47  1  0.30859700  0.37287900  0.07146700  1
  Zn  Zn48  1  0.68920900  0.81079100  0.75000000  1
  Zn  Zn49  1  0.81091900  0.92771500  0.51915100  1
  Zn  Zn50  1  0.88102300  0.88074800  0.23602000  1
  Zn  Zn51  1  0.48084900  0.18908100  0.07228500  1
  Zn  Zn52  1  0.07228500  0.48084900  0.18908100  1
  Zn  Zn53  1  0.75000000  0.68920900  0.81079100  1
  Zn  Zn54  1  0.37287900  0.07146700  0.30859700  1
  Zn  Zn55  1  0.23602000  0.88102300  0.88074800  1
  Zn  Zn56  1  0.11897700  0.11925200  0.76398000  1
  Zn  Zn57  1  0.75000000  0.30808300  0.19191700  1
  Zn  Zn58  1  0.69191700  0.80808300  0.25000000  1
  Zn  Zn59  1  0.51915100  0.81091900  0.92771500  1
  Zn  Zn60  1  0.19140300  0.42853300  0.12712100  1
  Zn  Zn61  1  0.92771500  0.51915100  0.81091900  1
  Zn  Zn62  1  0.31079100  0.18920900  0.25000000  1
  Zn  Zn63  1  0.12712100  0.19140300  0.42853300  1
  Zn  Zn64  1  0.57228500  0.68908100  0.98084900  1
  Zn  Zn65  1  0.38102300  0.73602000  0.38074800  1
  Zn  Zn66  1  0.81079100  0.75000000  0.68920900  1
  Zn  Zn67  1  0.50000000  0.50000000  0.50000000  1
  Zn  Zn68  1  0.80808300  0.25000000  0.69191700  1
  Zn  Zn69  1  0.57146700  0.87287900  0.80859700  1
  Zn  Zn70  1  0.87287900  0.80859700  0.57146700  1
  Zn  Zn71  1  0.42853300  0.12712100  0.19140300  1
  Zn  Zn72  1  0.25000000  0.31079100  0.18920900  1
  Zn  Zn73  1  0.92853300  0.69140300  0.62712100  1
  Zn  Zn74  1  0.76398000  0.11897700  0.11925200  1
  Zn  Zn75  1  0.30808300  0.19191700  0.75000000  1
  Zn  Zn76  1  0.18920900  0.25000000  0.31079100  1
  Zn  Zn77  1  0.42771500  0.31091900  0.01915100  1
  Zn  Zn78  1  0.00000000  0.00000000  0.00000000  1
  Zn  Zn79  1  0.88074800  0.23602000  0.88102300  1
  Zn  Zn80  1  0.26398000  0.61925200  0.61897700  1
  Zn  Zn81  1  0.62712100  0.92853300  0.69140300  1
  Zn  Zn82  1  0.01915100  0.42771500  0.31091900  1
  Zn  Zn83  1  0.38074800  0.38102300  0.73602000  1
  Zn  Zn84  1  0.69140300  0.62712100  0.92853300  1
  Zn  Zn85  1  0.68908100  0.98084900  0.57228500  1
  Zn  Zn86  1  0.19191700  0.75000000  0.30808300  1
  Zn  Zn87  1  0.18908100  0.07228500  0.48084900  1
  Zn  Zn88  1  0.80859700  0.57146700  0.87287900  1
  Zn  Zn89  1  0.61897700  0.26398000  0.61925200  1
  Zn  Zn90  1  0.61925200  0.61897700  0.26398000  1
  Zn  Zn91  1  0.07146700  0.30859700  0.37287900  1
