# generated using pymatgen
data_U2(P2O7)3
_symmetry_space_group_name_H-M   'P 1'
_cell_length_a   7.04417498
_cell_length_b   7.04417498
_cell_length_c   19.24305244
_cell_angle_alpha   89.49446594
_cell_angle_beta   89.49446594
_cell_angle_gamma   97.13154893
_symmetry_Int_Tables_number   1
_chemical_formula_structural   U2(P2O7)3
_chemical_formula_sum   'U4 P12 O42'
_cell_volume   947.37680155
_cell_formula_units_Z   2
loop_
 _symmetry_equiv_pos_site_id
 _symmetry_equiv_pos_as_xyz
  1  'x, y, z'
loop_
 _atom_site_type_symbol
 _atom_site_label
 _atom_site_symmetry_multiplicity
 _atom_site_fract_x
 _atom_site_fract_y
 _atom_site_fract_z
 _atom_site_occupancy
  U  U0  1  0.82616100  0.23950500  0.50576100  1
  U  U1  1  0.23950500  0.82616100  0.00576100  1
  U  U2  1  0.64512700  0.77634200  0.78493500  1
  U  U3  1  0.77634200  0.64512700  0.28493500  1
  P  P4  1  0.76468900  0.96613900  0.01784600  1
  P  P5  1  0.37070500  0.19436900  0.31598200  1
  P  P6  1  0.96613900  0.76468900  0.51784600  1
  P  P7  1  0.12559800  0.99096600  0.76082000  1
  P  P8  1  0.40001700  0.45240200  0.19207700  1
  P  P9  1  0.99096600  0.12559800  0.26082000  1
  P  P10  1  0.11671100  0.54844900  0.14802300  1
  P  P11  1  0.45240200  0.40001700  0.69207700  1
  P  P12  1  0.30590800  0.34376200  0.96984300  1
  P  P13  1  0.19436900  0.37070500  0.81598200  1
  P  P14  1  0.54844900  0.11671100  0.64802300  1
  P  P15  1  0.34376200  0.30590800  0.46984300  1
  O  O16  1  0.17155700  0.80489500  0.48257400  1
  O  O17  1  0.14547800  0.24352400  0.50662600  1
  O  O18  1  0.92456600  0.67895500  0.36188000  1
  O  O19  1  0.76145800  0.21297200  0.60775000  1
  O  O20  1  0.27544500  0.84938800  0.91258700  1
  O  O21  1  0.01040700  0.24677600  0.19602000  1
  O  O22  1  0.53779100  0.71838300  0.34708900  1
  O  O23  1  0.62478100  0.01392000  0.71382500  1
  O  O24  1  0.36486700  0.74792200  0.35452600  1
  O  O25  1  0.57565800  0.62087000  0.20453300  1
  O  O26  1  0.21297200  0.76145800  0.10775000  1
  O  O27  1  0.45366000  0.29440900  0.14924200  1
  O  O28  1  0.05344400  0.19947700  0.78235000  1
  O  O29  1  0.91271500  0.83051100  0.00739300  1
  O  O30  1  0.41245400  0.51235000  0.46719800  1
  O  O31  1  0.39586400  0.35687400  0.77636200  1
  O  O32  1  0.93824500  0.85468400  0.75392700  1
  O  O33  1  0.51235000  0.41245400  0.96719800  1
  O  O34  1  0.85468400  0.93824500  0.25392700  1
  O  O35  1  0.35687400  0.39586400  0.27636200  1
  O  O36  1  0.80489500  0.17155700  0.98257400  1
  O  O37  1  0.24677600  0.01040700  0.69602000  1
  O  O38  1  0.19947700  0.05344400  0.28235000  1
  O  O39  1  0.28847400  0.22237000  0.39053100  1
  O  O40  1  0.71838300  0.53779100  0.84708900  1
  O  O41  1  0.13517200  0.56293600  0.80964900  1
  O  O42  1  0.82160300  0.14509800  0.06687800  1
  O  O43  1  0.56193600  0.86928100  0.02324500  1
  O  O44  1  0.67895500  0.92456600  0.86188000  1
  O  O45  1  0.84938800  0.27544500  0.41258700  1
  O  O46  1  0.83051100  0.91271500  0.50739300  1
  O  O47  1  0.24352400  0.14547800  0.00662600  1
  O  O48  1  0.74792200  0.36486700  0.85452600  1
  O  O49  1  0.62087000  0.57565800  0.70453300  1
  O  O50  1  0.50460900  0.18577100  0.49553000  1
  O  O51  1  0.22237000  0.28847400  0.89053100  1
  O  O52  1  0.18577100  0.50460900  0.99553000  1
  O  O53  1  0.56293600  0.13517200  0.30964900  1
  O  O54  1  0.29440900  0.45366000  0.64924200  1
  O  O55  1  0.14509800  0.82160300  0.56687800  1
  O  O56  1  0.86928000  0.56193600  0.52324500  1
  O  O57  1  0.01392000  0.62478100  0.21382500  1
