# generated using pymatgen
data_V2H15(NO4)3
_symmetry_space_group_name_H-M   'P 1'
_cell_length_a   7.23191300
_cell_length_b   10.22135300
_cell_length_c   16.35148997
_cell_angle_alpha   90.00000000
_cell_angle_beta   97.32068173
_cell_angle_gamma   90.00000000
_symmetry_Int_Tables_number   1
_chemical_formula_structural   V2H15(NO4)3
_chemical_formula_sum   'V8 H60 N12 O48'
_cell_volume   1198.84837409
_cell_formula_units_Z   4
loop_
 _symmetry_equiv_pos_site_id
 _symmetry_equiv_pos_as_xyz
  1  'x, y, z'
loop_
 _atom_site_type_symbol
 _atom_site_label
 _atom_site_symmetry_multiplicity
 _atom_site_fract_x
 _atom_site_fract_y
 _atom_site_fract_z
 _atom_site_occupancy
  V  V0  1  0.23530100  0.80354300  0.96140500  1
  V  V1  1  0.76469900  0.30354300  0.53859500  1
  V  V2  1  0.76469900  0.19645700  0.03859500  1
  V  V3  1  0.23530100  0.69645700  0.46140500  1
  V  V4  1  0.26494200  0.62289800  0.81183600  1
  V  V5  1  0.73505800  0.12289800  0.68816400  1
  V  V6  1  0.73505800  0.37710200  0.18816400  1
  V  V7  1  0.26494200  0.87710200  0.31183600  1
  H  H8  1  0.59747100  0.69541300  0.65445500  1
  H  H9  1  0.40252900  0.19541300  0.84554500  1
  H  H10  1  0.40252900  0.30458700  0.34554500  1
  H  H11  1  0.59747100  0.80458700  0.15445500  1
  H  H12  1  0.72312700  0.76413200  0.58579200  1
  H  H13  1  0.27687300  0.26413200  0.91420800  1
  H  H14  1  0.27687300  0.23586800  0.41420800  1
  H  H15  1  0.72312700  0.73586800  0.08579200  1
  H  H16  1  0.75942700  0.60376400  0.61487100  1
  H  H17  1  0.24057300  0.10376400  0.88512900  1
  H  H18  1  0.24057300  0.39623600  0.38512900  1
  H  H19  1  0.75942700  0.89623600  0.11487100  1
  H  H20  1  0.82718500  0.72526300  0.68186600  1
  H  H21  1  0.17281500  0.22526300  0.81813400  1
  H  H22  1  0.17281500  0.27473700  0.31813400  1
  H  H23  1  0.82718500  0.77473700  0.18186600  1
  H  H24  1  0.21605700  0.41889900  0.68050100  1
  H  H25  1  0.78394300  0.91889900  0.81949900  1
  H  H26  1  0.78394300  0.58110100  0.31949900  1
  H  H27  1  0.21605700  0.08110100  0.18050100  1
  H  H28  1  0.31896900  0.48599100  0.60290500  1
  H  H29  1  0.68103100  0.98599100  0.89709500  1
  H  H30  1  0.68103100  0.51400900  0.39709500  1
  H  H31  1  0.31896900  0.01400900  0.10290500  1
  H  H32  1  0.15348800  0.36937400  0.58014600  1
  H  H33  1  0.84651200  0.86937400  0.91985400  1
  H  H34  1  0.84651200  0.63062600  0.41985400  1
  H  H35  1  0.15348800  0.13062600  0.08014600  1
  H  H36  1  0.36531400  0.33049400  0.63336100  1
  H  H37  1  0.63468600  0.83049400  0.86663900  1
  H  H38  1  0.63468600  0.66950600  0.36663900  1
  H  H39  1  0.36531400  0.16950600  0.13336100  1
  H  H40  1  0.08812800  0.98841600  0.68431500  1
  H  H41  1  0.91187200  0.48841600  0.81568500  1
  H  H42  1  0.91187200  0.01158400  0.31568500  1
  H  H43  1  0.08812800  0.51158400  0.18431500  1
  H  H44  1  0.19452100  0.88286800  0.62738400  1
  H  H45  1  0.80547900  0.38286800  0.87261600  1
  H  H46  1  0.80547900  0.11713200  0.37261600  1
  H  H47  1  0.19452100  0.61713200  0.12738400  1
  H  H48  1  0.23167600  0.87226800  0.73105400  1
  H  H49  1  0.76832400  0.37226800  0.76894600  1
  H  H50  1  0.76832400  0.12773200  0.26894600  1
  H  H51  1  0.23167600  0.62773200  0.23105400  1
  H  H52  1  0.31966300  0.00334700  0.68448200  1
  H  H53  1  0.68033700  0.50334700  0.81551800  1
  H  H54  1  0.68033700  0.99665300  0.31551800  1
  H  H55  1  0.31966300  0.49665300  0.18448200  1
  H  H56  1  0.48907400  0.62676000  0.94821300  1
  H  H57  1  0.51092600  0.12676000  0.55178700  1
  H  H58  1  0.51092600  0.37324000  0.05178700  1
  H  H59  1  0.48907400  0.87324000  0.44821300  1
  H  H60  1  0.85479200  0.63001700  0.99145300  1
  H  H61  1  0.14520800  0.13001700  0.50854700  1
  H  H62  1  0.14520800  0.36998300  0.00854700  1
  H  H63  1  0.85479200  0.86998300  0.49145300  1
  H  H64  1  0.71702700  0.52065300  0.02004300  1
  H  H65  1  0.28297300  0.02065300  0.47995700  1
  H  H66  1  0.28297300  0.47934700  0.97995700  1
  H  H67  1  0.71702700  0.97934700  0.52004300  1
  N  N68  1  0.72698100  0.69819800  0.63408000  1
  N  N69  1  0.27301900  0.19819800  0.86592000  1
  N  N70  1  0.27301900  0.30180200  0.36592000  1
  N  N71  1  0.72698100  0.80180200  0.13408000  1
  N  N72  1  0.26288300  0.40105400  0.62404600  1
  N  N73  1  0.73711700  0.90105400  0.87595400  1
  N  N74  1  0.73711700  0.59894600  0.37595400  1
  N  N75  1  0.26288300  0.09894600  0.12404600  1
  N  N76  1  0.20972300  0.93631900  0.68169000  1
  N  N77  1  0.79027700  0.43631900  0.81831000  1
  N  N78  1  0.79027700  0.06368100  0.31831000  1
  N  N79  1  0.20972300  0.56368100  0.18169000  1
  O  O80  1  0.39563800  0.86312600  0.03179600  1
  O  O81  1  0.60436200  0.36312600  0.46820400  1
  O  O82  1  0.60436200  0.13687400  0.96820400  1
  O  O83  1  0.39563800  0.63687400  0.53179600  1
  O  O84  1  0.22727400  0.46493000  0.79263300  1
  O  O85  1  0.77272600  0.96493000  0.70736700  1
  O  O86  1  0.77272600  0.53507000  0.20736700  1
  O  O87  1  0.22727400  0.03507000  0.29263300  1
  O  O88  1  0.72134300  0.60680500  0.99173800  1
  O  O89  1  0.27865700  0.10680500  0.50826200  1
  O  O90  1  0.27865700  0.39319500  0.00826200  1
  O  O91  1  0.72134300  0.89319500  0.49173800  1
  O  O92  1  0.35042500  0.62668900  0.93550800  1
  O  O93  1  0.64957500  0.12668900  0.56449200  1
  O  O94  1  0.64957500  0.37331100  0.06449200  1
  O  O95  1  0.35042500  0.87331100  0.43550800  1
  O  O96  1  0.17192800  0.93976700  0.88383700  1
  O  O97  1  0.82807200  0.43976700  0.61616300  1
  O  O98  1  0.82807200  0.06023300  0.11616300  1
  O  O99  1  0.17192800  0.56023300  0.38383700  1
  O  O100  1  0.31882400  0.85668700  0.85838300  1
  O  O101  1  0.68117600  0.35668700  0.64161700  1
  O  O102  1  0.68117600  0.14331300  0.14161700  1
  O  O103  1  0.31882400  0.64331300  0.35838300  1
  O  O104  1  0.01246600  0.83775200  0.00909500  1
  O  O105  1  0.98753400  0.33775200  0.49090500  1
  O  O106  1  0.98753400  0.16224800  0.99090500  1
  O  O107  1  0.01246600  0.66224800  0.50909500  1
  O  O108  1  0.07238600  0.70124400  0.02193000  1
  O  O109  1  0.92761400  0.20124400  0.47807000  1
  O  O110  1  0.92761400  0.29875600  0.97807000  1
  O  O111  1  0.07238600  0.79875600  0.52193000  1
  O  O112  1  0.40060900  0.67889600  0.72530200  1
  O  O113  1  0.59939100  0.17889600  0.77469800  1
  O  O114  1  0.59939100  0.32110400  0.27469800  1
  O  O115  1  0.40060900  0.82110400  0.22530200  1
  O  O116  1  0.52345800  0.65430800  0.80236000  1
  O  O117  1  0.47654200  0.15430800  0.69764000  1
  O  O118  1  0.47654200  0.34569200  0.19764000  1
  O  O119  1  0.52345800  0.84569200  0.30236000  1
  O  O120  1  0.04300500  0.70639300  0.76269300  1
  O  O121  1  0.95699500  0.20639300  0.73730700  1
  O  O122  1  0.95699500  0.29360700  0.23730700  1
  O  O123  1  0.04300500  0.79360700  0.26269300  1
  O  O124  1  0.03323700  0.67620700  0.84936100  1
  O  O125  1  0.96676300  0.17620700  0.65063900  1
  O  O126  1  0.96676300  0.32379300  0.15063900  1
  O  O127  1  0.03323700  0.82379300  0.34936100  1
