# generated using pymatgen
data_U2W2C3
_symmetry_space_group_name_H-M   'P 1'
_cell_length_a   5.97508832
_cell_length_b   5.97508832
_cell_length_c   5.56140778
_cell_angle_alpha   75.57808058
_cell_angle_beta   75.57808058
_cell_angle_gamma   30.56471368
_symmetry_Int_Tables_number   1
_chemical_formula_structural   U2W2C3
_chemical_formula_sum   'U2 W2 C3'
_cell_volume   97.54238029
_cell_formula_units_Z   1
loop_
 _symmetry_equiv_pos_site_id
 _symmetry_equiv_pos_as_xyz
  1  'x, y, z'
loop_
 _atom_site_type_symbol
 _atom_site_label
 _atom_site_symmetry_multiplicity
 _atom_site_fract_x
 _atom_site_fract_y
 _atom_site_fract_z
 _atom_site_occupancy
  U  U0  1  0.39751500  0.39751500  0.33460100  1
  U  U1  1  0.60248500  0.60248500  0.66539900  1
  W  W2  1  0.15395900  0.15395900  0.13310800  1
  W  W3  1  0.84604100  0.84604100  0.86689200  1
  C  C4  1  0.74900700  0.74900700  0.26101300  1
  C  C5  1  0.25099300  0.25099300  0.73898700  1
  C  C6  1  0.00000000  0.00000000  0.00000000  1
