# generated using pymatgen
data_TaNi3
_symmetry_space_group_name_H-M   'P 1'
_cell_length_a   5.11739600
_cell_length_b   4.53954900
_cell_length_c   8.63239354
_cell_angle_alpha   79.17922324
_cell_angle_beta   90.00000000
_cell_angle_gamma   90.00000000
_symmetry_Int_Tables_number   1
_chemical_formula_structural   TaNi3
_chemical_formula_sum   'Ta4 Ni12'
_cell_volume   196.97059666
_cell_formula_units_Z   4
loop_
 _symmetry_equiv_pos_site_id
 _symmetry_equiv_pos_as_xyz
  1  'x, y, z'
loop_
 _atom_site_type_symbol
 _atom_site_label
 _atom_site_symmetry_multiplicity
 _atom_site_fract_x
 _atom_site_fract_y
 _atom_site_fract_z
 _atom_site_occupancy
  Ta  Ta0  1  0.25000000  0.61184500  0.62184600  1
  Ta  Ta1  1  0.75000000  0.38815500  0.37815400  1
  Ta  Ta2  1  0.25000000  0.79028400  0.12759900  1
  Ta  Ta3  1  0.75000000  0.20971600  0.87240100  1
  Ni  Ni4  1  0.00130300  0.70471700  0.87662800  1
  Ni  Ni5  1  0.00250200  0.11359600  0.62659000  1
  Ni  Ni6  1  0.25000000  0.20092700  0.87357000  1
  Ni  Ni7  1  0.50250200  0.88640400  0.37341000  1
  Ni  Ni8  1  0.25000000  0.36790600  0.37607400  1
  Ni  Ni9  1  0.49869700  0.70471700  0.87662800  1
  Ni  Ni10  1  0.75000000  0.63209400  0.62392600  1
  Ni  Ni11  1  0.99869700  0.29528300  0.12337200  1
  Ni  Ni12  1  0.50130300  0.29528300  0.12337200  1
  Ni  Ni13  1  0.99749800  0.88640400  0.37341000  1
  Ni  Ni14  1  0.75000000  0.79907300  0.12643000  1
  Ni  Ni15  1  0.49749800  0.11359600  0.62659000  1
