# generated using pymatgen
data_SnC2(SN)2
_symmetry_space_group_name_H-M   'P 1'
_cell_length_a   8.06609646
_cell_length_b   5.69017443
_cell_length_c   38.90449787
_cell_angle_alpha   109.52031612
_cell_angle_beta   143.65870641
_cell_angle_gamma   91.28063057
_symmetry_Int_Tables_number   1
_chemical_formula_structural   SnC2(SN)2
_chemical_formula_sum   'Sn2 C4 S4 N4'
_cell_volume   850.72524163
_cell_formula_units_Z   2
loop_
 _symmetry_equiv_pos_site_id
 _symmetry_equiv_pos_as_xyz
  1  'x, y, z'
loop_
 _atom_site_type_symbol
 _atom_site_label
 _atom_site_symmetry_multiplicity
 _atom_site_fract_x
 _atom_site_fract_y
 _atom_site_fract_z
 _atom_site_occupancy
  Sn  Sn0  1  0.02733300  0.30299100  0.81793900  1
  Sn  Sn1  1  0.97266700  0.69700900  0.18206100  1
  C  C2  1  0.16933800  0.58975300  0.90269000  1
  C  C3  1  0.83066200  0.41024700  0.09731000  1
  C  C4  1  0.83445400  0.91862700  0.89064500  1
  C  C5  1  0.16554600  0.08137300  0.10935500  1
  S  S6  1  0.99536700  0.78773600  0.88587100  1
  S  S7  1  0.92517300  0.85894700  0.80063000  1
  S  S8  1  0.07482700  0.14105300  0.19937000  1
  S  S9  1  0.00463300  0.21226400  0.11412900  1
  N  N10  1  0.11853500  0.65663700  0.32479800  1
  N  N11  1  0.02444900  0.65661800  0.28287500  1
  N  N12  1  0.97555100  0.34338200  0.71712500  1
  N  N13  1  0.88146500  0.34336300  0.67520200  1
