# generated using pymatgen
data_ErB4
_symmetry_space_group_name_H-M   'P 1'
_cell_length_a   8.40141300
_cell_length_b   8.40141300
_cell_length_c   4.18280900
_cell_angle_alpha   90.00000000
_cell_angle_beta   90.00000000
_cell_angle_gamma   90.00000000
_symmetry_Int_Tables_number   1
_chemical_formula_structural   ErB4
_chemical_formula_sum   'Er4 B16'
_cell_volume   295.23830458
_cell_formula_units_Z   4
loop_
 _symmetry_equiv_pos_site_id
 _symmetry_equiv_pos_as_xyz
  1  'x, y, z'
loop_
 _atom_site_type_symbol
 _atom_site_label
 _atom_site_symmetry_multiplicity
 _atom_site_fract_x
 _atom_site_fract_y
 _atom_site_fract_z
 _atom_site_occupancy
  Er  Er0  1  0.13745700  0.63745700  0.00000000  1
  Er  Er1  1  0.86254300  0.36254300  0.00000000  1
  Er  Er2  1  0.36254300  0.13745700  0.00000000  1
  Er  Er3  1  0.63745700  0.86254300  0.00000000  1
  B  B4  1  0.94354700  0.86991500  0.00000000  1
  B  B5  1  0.05645300  0.13008500  0.00000000  1
  B  B6  1  0.43470800  0.93470800  0.50000000  1
  B  B7  1  0.00000000  0.00000000  0.69214400  1
  B  B8  1  0.93470800  0.56529200  0.50000000  1
  B  B9  1  0.63008500  0.55645300  0.00000000  1
  B  B10  1  0.06529200  0.43470800  0.50000000  1
  B  B11  1  0.50000000  0.50000000  0.30785600  1
  B  B12  1  0.86991500  0.05645300  0.00000000  1
  B  B13  1  0.00000000  0.00000000  0.30785600  1
  B  B14  1  0.36991500  0.44354700  0.00000000  1
  B  B15  1  0.13008500  0.94354700  0.00000000  1
  B  B16  1  0.50000000  0.50000000  0.69214400  1
  B  B17  1  0.56529200  0.06529200  0.50000000  1
  B  B18  1  0.55645300  0.36991500  0.00000000  1
  B  B19  1  0.44354700  0.63008500  0.00000000  1
