# generated using pymatgen
data_Sr2Cu3O5
_symmetry_space_group_name_H-M   'P 1'
_cell_length_a   9.71127652
_cell_length_b   9.71127652
_cell_length_c   9.71127652
_cell_angle_alpha   159.47831921
_cell_angle_beta   156.52183076
_cell_angle_gamma   31.37791700
_symmetry_Int_Tables_number   1
_chemical_formula_structural   Sr2Cu3O5
_chemical_formula_sum   'Sr2 Cu3 O5'
_cell_volume   127.82181197
_cell_formula_units_Z   1
loop_
 _symmetry_equiv_pos_site_id
 _symmetry_equiv_pos_as_xyz
  1  'x, y, z'
loop_
 _atom_site_type_symbol
 _atom_site_label
 _atom_site_symmetry_multiplicity
 _atom_site_fract_x
 _atom_site_fract_y
 _atom_site_fract_z
 _atom_site_occupancy
  Sr  Sr0  1  0.39422500  0.39422500  0.00000000  1
  Sr  Sr1  1  0.60577500  0.60577500  0.00000000  1
  Cu  Cu2  1  0.00000000  0.00000000  0.00000000  1
  Cu  Cu3  1  0.78793800  0.78793800  0.00000000  1
  Cu  Cu4  1  0.21206200  0.21206200  0.00000000  1
  O  O5  1  0.10383300  0.10383300  0.00000000  1
  O  O6  1  0.89616700  0.89616700  0.00000000  1
  O  O7  1  0.50000000  0.00000000  0.50000000  1
  O  O8  1  0.28082400  0.78082400  0.50000000  1
  O  O9  1  0.71917600  0.21917600  0.50000000  1
