# generated using pymatgen
data_Nb3H12C4NCl9
_symmetry_space_group_name_H-M   'P 1'
_cell_length_a   11.14832331
_cell_length_b   11.14832331
_cell_length_c   8.91287300
_cell_angle_alpha   90.00000000
_cell_angle_beta   90.00000000
_cell_angle_gamma   119.99999592
_symmetry_Int_Tables_number   1
_chemical_formula_structural   Nb3H12C4NCl9
_chemical_formula_sum   'Nb6 H24 C8 N2 Cl18'
_cell_volume   959.32879033
_cell_formula_units_Z   2
loop_
 _symmetry_equiv_pos_site_id
 _symmetry_equiv_pos_as_xyz
  1  'x, y, z'
loop_
 _atom_site_type_symbol
 _atom_site_label
 _atom_site_symmetry_multiplicity
 _atom_site_fract_x
 _atom_site_fract_y
 _atom_site_fract_z
 _atom_site_occupancy
  Nb  Nb0  1  0.90850900  0.09149100  0.85961600  1
  Nb  Nb1  1  0.09149100  0.18298200  0.14038400  1
  Nb  Nb2  1  0.18298200  0.09149100  0.85961600  1
  Nb  Nb3  1  0.90850900  0.81701800  0.85961600  1
  Nb  Nb4  1  0.81701800  0.90850900  0.14038400  1
  Nb  Nb5  1  0.09149100  0.90850900  0.14038400  1
  H  H6  1  0.59396300  0.18792600  0.47137800  1
  H  H7  1  0.40603700  0.81207400  0.52862200  1
  H  H8  1  0.44054600  0.72027300  0.91681400  1
  H  H9  1  0.72027300  0.27972700  0.08318600  1
  H  H10  1  0.27972700  0.72027300  0.91681400  1
  H  H11  1  0.51360900  0.64741600  0.69299300  1
  H  H12  1  0.18792600  0.59396300  0.52862200  1
  H  H13  1  0.27972700  0.55945400  0.91681400  1
  H  H14  1  0.86619400  0.35258400  0.30700700  1
  H  H15  1  0.48639100  0.35258400  0.30700700  1
  H  H16  1  0.48639100  0.13380600  0.30700700  1
  H  H17  1  0.64741600  0.51360900  0.30700700  1
  H  H18  1  0.72027300  0.44054600  0.08318600  1
  H  H19  1  0.59396300  0.40603700  0.47137800  1
  H  H20  1  0.13380600  0.64741600  0.69299300  1
  H  H21  1  0.86619400  0.51360900  0.30700700  1
  H  H22  1  0.35258400  0.48639100  0.69299300  1
  H  H23  1  0.51360900  0.86619400  0.69299300  1
  H  H24  1  0.55945400  0.27972700  0.08318600  1
  H  H25  1  0.81207400  0.40603700  0.47137800  1
  H  H26  1  0.64741600  0.13380600  0.30700700  1
  H  H27  1  0.40603700  0.59396300  0.52862200  1
  H  H28  1  0.35258400  0.86619400  0.69299300  1
  H  H29  1  0.13380600  0.48639100  0.69299300  1
  C  C30  1  0.81362900  0.40681500  0.34849300  1
  C  C31  1  0.66666700  0.33333300  0.12332500  1
  C  C32  1  0.59318500  0.40681500  0.34849300  1
  C  C33  1  0.59318500  0.18637100  0.34849300  1
  C  C34  1  0.40681500  0.59318500  0.65150700  1
  C  C35  1  0.33333300  0.66666700  0.87667500  1
  C  C36  1  0.18637100  0.59318500  0.65150700  1
  C  C37  1  0.40681500  0.81362900  0.65150700  1
  N  N38  1  0.66666700  0.33333300  0.29193100  1
  N  N39  1  0.33333300  0.66666700  0.70806900  1
  Cl  Cl40  1  0.20535100  0.10267600  0.31642800  1
  Cl  Cl41  1  0.00000000  0.68949400  0.00000000  1
  Cl  Cl42  1  0.10267600  0.89732400  0.68357200  1
  Cl  Cl43  1  0.80211400  0.19788600  0.70007400  1
  Cl  Cl44  1  0.89732400  0.10267600  0.31642800  1
  Cl  Cl45  1  0.19788600  0.80211400  0.29992600  1
  Cl  Cl46  1  0.31050600  0.00000000  0.00000000  1
  Cl  Cl47  1  0.31050600  0.31050600  0.00000000  1
  Cl  Cl48  1  0.39577200  0.19788600  0.70007400  1
  Cl  Cl49  1  0.19788600  0.39577200  0.29992600  1
  Cl  Cl50  1  0.80211400  0.60422800  0.70007400  1
  Cl  Cl51  1  0.68949400  0.00000000  0.00000000  1
  Cl  Cl52  1  0.60422800  0.80211400  0.29992600  1
  Cl  Cl53  1  0.00000000  0.31050600  0.00000000  1
  Cl  Cl54  1  0.79464900  0.89732400  0.68357200  1
  Cl  Cl55  1  0.89732400  0.79464900  0.31642800  1
  Cl  Cl56  1  0.10267600  0.20535100  0.68357200  1
  Cl  Cl57  1  0.68949400  0.68949400  0.00000000  1
