# generated using pymatgen
data_Sb2Se3
_symmetry_space_group_name_H-M   'P 1'
_cell_length_a   3.96423600
_cell_length_b   14.31091700
_cell_length_c   13.05021500
_cell_angle_alpha   90.00000000
_cell_angle_beta   90.00000000
_cell_angle_gamma   90.00000000
_symmetry_Int_Tables_number   1
_chemical_formula_structural   Sb2Se3
_chemical_formula_sum   'Sb8 Se12'
_cell_volume   740.36287070
_cell_formula_units_Z   4
loop_
 _symmetry_equiv_pos_site_id
 _symmetry_equiv_pos_as_xyz
  1  'x, y, z'
loop_
 _atom_site_type_symbol
 _atom_site_label
 _atom_site_symmetry_multiplicity
 _atom_site_fract_x
 _atom_site_fract_y
 _atom_site_fract_z
 _atom_site_occupancy
  Sb  Sb0  1  0.75000000  0.73705200  0.10641400  1
  Sb  Sb1  1  0.75000000  0.76294800  0.60641400  1
  Sb  Sb2  1  0.25000000  0.26294800  0.89358600  1
  Sb  Sb3  1  0.25000000  0.23705200  0.39358600  1
  Sb  Sb4  1  0.75000000  0.61484600  0.34572300  1
  Sb  Sb5  1  0.25000000  0.38515400  0.65427700  1
  Sb  Sb6  1  0.25000000  0.11484600  0.15427700  1
  Sb  Sb7  1  0.75000000  0.88515400  0.84572300  1
  Se  Se8  1  0.75000000  0.43215900  0.78560200  1
  Se  Se9  1  0.75000000  0.70786700  0.79468800  1
  Se  Se10  1  0.25000000  0.29213300  0.20531200  1
  Se  Se11  1  0.25000000  0.56784100  0.21439800  1
  Se  Se12  1  0.75000000  0.79213300  0.29468800  1
  Se  Se13  1  0.25000000  0.20786700  0.70531200  1
  Se  Se14  1  0.75000000  0.14719800  0.95983100  1
  Se  Se15  1  0.25000000  0.93215900  0.71439800  1
  Se  Se16  1  0.75000000  0.35280200  0.45983100  1
  Se  Se17  1  0.75000000  0.06784100  0.28560200  1
  Se  Se18  1  0.25000000  0.64719800  0.54016900  1
  Se  Se19  1  0.25000000  0.85280200  0.04016900  1
