# generated using pymatgen
data_Dy2Zn17
_symmetry_space_group_name_H-M   'P 1'
_cell_length_a   8.97653581
_cell_length_b   8.97653581
_cell_length_c   8.78207200
_cell_angle_alpha   90.00000000
_cell_angle_beta   90.00000000
_cell_angle_gamma   119.99999863
_symmetry_Int_Tables_number   1
_chemical_formula_structural   Dy2Zn17
_chemical_formula_sum   'Dy4 Zn34'
_cell_volume   612.83726679
_cell_formula_units_Z   2
loop_
 _symmetry_equiv_pos_site_id
 _symmetry_equiv_pos_as_xyz
  1  'x, y, z'
loop_
 _atom_site_type_symbol
 _atom_site_label
 _atom_site_symmetry_multiplicity
 _atom_site_fract_x
 _atom_site_fract_y
 _atom_site_fract_z
 _atom_site_occupancy
  Dy  Dy0  1  0.00000000  0.00000000  0.25000000  1
  Dy  Dy1  1  0.00000000  0.00000000  0.75000000  1
  Dy  Dy2  1  0.66666700  0.33333300  0.25000000  1
  Dy  Dy3  1  0.33333300  0.66666700  0.75000000  1
  Zn  Zn4  1  0.03739500  0.67088600  0.25000000  1
  Zn  Zn5  1  0.96260500  0.63349100  0.75000000  1
  Zn  Zn6  1  0.50000000  0.00000000  0.50000000  1
  Zn  Zn7  1  0.50000000  0.50000000  0.50000000  1
  Zn  Zn8  1  0.63349100  0.67088600  0.25000000  1
  Zn  Zn9  1  0.32323400  0.16161700  0.02023000  1
  Zn  Zn10  1  0.16161700  0.32323400  0.52023000  1
  Zn  Zn11  1  0.03739500  0.36650900  0.25000000  1
  Zn  Zn12  1  0.83838300  0.16161700  0.02023000  1
  Zn  Zn13  1  0.33333300  0.66666700  0.39864600  1
  Zn  Zn14  1  0.67088600  0.03739500  0.75000000  1
  Zn  Zn15  1  0.66666700  0.33333300  0.89864600  1
  Zn  Zn16  1  0.32911400  0.36650900  0.25000000  1
  Zn  Zn17  1  0.67676600  0.83838300  0.97977000  1
  Zn  Zn18  1  0.36650900  0.03739500  0.75000000  1
  Zn  Zn19  1  0.83838300  0.16161700  0.47977000  1
  Zn  Zn20  1  0.32323400  0.16161700  0.47977000  1
  Zn  Zn21  1  0.36650900  0.32911400  0.75000000  1
  Zn  Zn22  1  0.96260500  0.32911400  0.75000000  1
  Zn  Zn23  1  0.67088600  0.63349100  0.75000000  1
  Zn  Zn24  1  0.83838300  0.67676600  0.47977000  1
  Zn  Zn25  1  0.16161700  0.32323400  0.97977000  1
  Zn  Zn26  1  0.83838300  0.67676600  0.02023000  1
  Zn  Zn27  1  0.66666700  0.33333300  0.60135400  1
  Zn  Zn28  1  0.67676600  0.83838300  0.52023000  1
  Zn  Zn29  1  0.00000000  0.50000000  0.00000000  1
  Zn  Zn30  1  0.33333300  0.66666700  0.10135400  1
  Zn  Zn31  1  0.63349100  0.96260500  0.25000000  1
  Zn  Zn32  1  0.16161700  0.83838300  0.97977000  1
  Zn  Zn33  1  0.32911400  0.96260500  0.25000000  1
  Zn  Zn34  1  0.50000000  0.50000000  0.00000000  1
  Zn  Zn35  1  0.16161700  0.83838300  0.52023000  1
  Zn  Zn36  1  0.00000000  0.50000000  0.50000000  1
  Zn  Zn37  1  0.50000000  0.00000000  0.00000000  1
