# generated using pymatgen
data_Rh2O3
_symmetry_space_group_name_H-M   'P 1'
_cell_length_a   10.54314605
_cell_length_b   5.23514067
_cell_length_c   6.88835688
_cell_angle_alpha   120.60603336
_cell_angle_beta   139.93256756
_cell_angle_gamma   48.29602879
_symmetry_Int_Tables_number   1
_chemical_formula_structural   Rh2O3
_chemical_formula_sum   'Rh4 O6'
_cell_volume   182.71470554
_cell_formula_units_Z   2
loop_
 _symmetry_equiv_pos_site_id
 _symmetry_equiv_pos_as_xyz
  1  'x, y, z'
loop_
 _atom_site_type_symbol
 _atom_site_label
 _atom_site_symmetry_multiplicity
 _atom_site_fract_x
 _atom_site_fract_y
 _atom_site_fract_z
 _atom_site_occupancy
  Rh  Rh0  1  0.19548800  0.25411800  0.98845800  1
  Rh  Rh1  1  0.80451200  0.74588200  0.01154200  1
  Rh  Rh2  1  0.20703000  0.75411800  0.01154200  1
  Rh  Rh3  1  0.79297000  0.24588200  0.98845800  1
  O  O4  1  0.42907100  0.83839100  0.19316000  1
  O  O5  1  0.06372200  0.25000000  0.12744400  1
  O  O6  1  0.76409000  0.66160900  0.19316000  1
  O  O7  1  0.57092900  0.16160900  0.80684000  1
  O  O8  1  0.93627800  0.75000000  0.87255600  1
  O  O9  1  0.23591000  0.33839100  0.80684000  1
