# generated using pymatgen
data_YbGa5
_symmetry_space_group_name_H-M   'P 1'
_cell_length_a   13.40896066
_cell_length_b   13.40896066
_cell_length_c   13.40896066
_cell_angle_alpha   161.45682520
_cell_angle_beta   161.45682520
_cell_angle_gamma   26.34107474
_symmetry_Int_Tables_number   1
_chemical_formula_structural   YbGa5
_chemical_formula_sum   'Yb2 Ga10'
_cell_volume   243.74609782
_cell_formula_units_Z   2
loop_
 _symmetry_equiv_pos_site_id
 _symmetry_equiv_pos_as_xyz
  1  'x, y, z'
loop_
 _atom_site_type_symbol
 _atom_site_label
 _atom_site_symmetry_multiplicity
 _atom_site_fract_x
 _atom_site_fract_y
 _atom_site_fract_z
 _atom_site_occupancy
  Yb  Yb0  1  0.14995300  0.14995300  0.00000000  1
  Yb  Yb1  1  0.85004700  0.85004700  0.00000000  1
  Ga  Ga2  1  0.39912800  0.39912800  0.00000000  1
  Ga  Ga3  1  0.95243300  0.45243300  0.50000000  1
  Ga  Ga4  1  0.04756700  0.54756700  0.50000000  1
  Ga  Ga5  1  0.45243300  0.95243300  0.50000000  1
  Ga  Ga6  1  0.60087200  0.60087200  0.00000000  1
  Ga  Ga7  1  0.30534700  0.30534700  0.00000000  1
  Ga  Ga8  1  0.69465300  0.69465300  0.00000000  1
  Ga  Ga9  1  0.75000000  0.25000000  0.50000000  1
  Ga  Ga10  1  0.54756700  0.04756700  0.50000000  1
  Ga  Ga11  1  0.25000000  0.75000000  0.50000000  1
