# generated using pymatgen
data_CdI2
_symmetry_space_group_name_H-M   'P 1'
_cell_length_a   4.33596625
_cell_length_b   4.33596625
_cell_length_c   68.61868800
_cell_angle_alpha   90.00000000
_cell_angle_beta   90.00000000
_cell_angle_gamma   120.00000389
_symmetry_Int_Tables_number   1
_chemical_formula_structural   CdI2
_chemical_formula_sum   'Cd9 I18'
_cell_volume   1117.23571860
_cell_formula_units_Z   9
loop_
 _symmetry_equiv_pos_site_id
 _symmetry_equiv_pos_as_xyz
  1  'x, y, z'
loop_
 _atom_site_type_symbol
 _atom_site_label
 _atom_site_symmetry_multiplicity
 _atom_site_fract_x
 _atom_site_fract_y
 _atom_site_fract_z
 _atom_site_occupancy
  Cd  Cd0  1  0.00000000  0.00000000  0.13619600  1
  Cd  Cd1  1  0.00000000  0.00000000  0.36012800  1
  Cd  Cd2  1  0.33333300  0.66666700  0.80198600  1
  Cd  Cd3  1  0.66666700  0.33333300  0.69147900  1
  Cd  Cd4  1  0.66666700  0.33333300  0.91269800  1
  Cd  Cd5  1  0.66666700  0.33333300  0.02582200  1
  Cd  Cd6  1  0.66666700  0.33333300  0.47076500  1
  Cd  Cd7  1  0.66666700  0.33333300  0.24656400  1
  Cd  Cd8  1  0.33333300  0.66666700  0.58111600  1
  I  I9  1  0.33333300  0.66666700  0.11122000  1
  I  I10  1  0.00000000  0.00000000  0.82707800  1
  I  I11  1  0.66666700  0.33333300  0.16113400  1
  I  I12  1  0.66666700  0.33333300  0.38518700  1
  I  I13  1  0.00000000  0.00000000  0.27154000  1
  I  I14  1  0.00000000  0.00000000  0.71658500  1
  I  I15  1  0.00000000  0.00000000  0.05078700  1
  I  I16  1  0.33333300  0.66666700  0.33489900  1
  I  I17  1  0.00000000  0.00000000  0.60619200  1
  I  I18  1  0.66666700  0.33333300  0.55593600  1
  I  I19  1  0.00000000  0.00000000  0.93780100  1
  I  I20  1  0.33333300  0.66666700  0.00077900  1
  I  I21  1  0.33333300  0.66666700  0.66627100  1
  I  I22  1  0.33333300  0.66666700  0.44555900  1
  I  I23  1  0.66666700  0.33333300  0.77681400  1
  I  I24  1  0.33333300  0.66666700  0.88753100  1
  I  I25  1  0.00000000  0.00000000  0.49585800  1
  I  I26  1  0.33333300  0.66666700  0.22157400  1
