# generated using pymatgen
data_AuBr
_symmetry_space_group_name_H-M   'P 1'
_cell_length_a   7.03073818
_cell_length_b   7.03073818
_cell_length_c   7.03073818
_cell_angle_alpha   115.63331064
_cell_angle_beta   115.63331064
_cell_angle_gamma   97.74590047
_symmetry_Int_Tables_number   1
_chemical_formula_structural   AuBr
_chemical_formula_sum   'Au4 Br4'
_cell_volume   259.39567497
_cell_formula_units_Z   4
loop_
 _symmetry_equiv_pos_site_id
 _symmetry_equiv_pos_as_xyz
  1  'x, y, z'
loop_
 _atom_site_type_symbol
 _atom_site_label
 _atom_site_symmetry_multiplicity
 _atom_site_fract_x
 _atom_site_fract_y
 _atom_site_fract_z
 _atom_site_occupancy
  Au  Au0  1  0.37500000  0.12500000  0.75000000  1
  Au  Au1  1  0.37500000  0.62500000  0.75000000  1
  Au  Au2  1  0.87500000  0.62500000  0.25000000  1
  Au  Au3  1  0.37500000  0.62500000  0.25000000  1
  Br  Br4  1  0.95399000  0.45399000  0.50000000  1
  Br  Br5  1  0.20399000  0.20399000  0.00000000  1
  Br  Br6  1  0.79601000  0.79601000  0.00000000  1
  Br  Br7  1  0.54601000  0.04601000  0.50000000  1
