# generated using pymatgen
data_RhN5Cl3
_symmetry_space_group_name_H-M   'P 1'
_cell_length_a   16.92400500
_cell_length_b   5.88443700
_cell_length_c   7.88662400
_cell_angle_alpha   90.00000000
_cell_angle_beta   90.00000000
_cell_angle_gamma   90.00000000
_symmetry_Int_Tables_number   1
_chemical_formula_structural   RhN5Cl3
_chemical_formula_sum   'Rh4 N20 Cl12'
_cell_volume   785.41501325
_cell_formula_units_Z   4
loop_
 _symmetry_equiv_pos_site_id
 _symmetry_equiv_pos_as_xyz
  1  'x, y, z'
loop_
 _atom_site_type_symbol
 _atom_site_label
 _atom_site_symmetry_multiplicity
 _atom_site_fract_x
 _atom_site_fract_y
 _atom_site_fract_z
 _atom_site_occupancy
  Rh  Rh0  1  0.64611100  0.25000000  0.28977000  1
  Rh  Rh1  1  0.14611100  0.25000000  0.21023000  1
  Rh  Rh2  1  0.35388900  0.75000000  0.71023000  1
  Rh  Rh3  1  0.85388900  0.75000000  0.78977000  1
  N  N4  1  0.57538700  0.51661700  0.29910100  1
  N  N5  1  0.07538700  0.98338300  0.20089900  1
  N  N6  1  0.42461300  0.01661700  0.70089900  1
  N  N7  1  0.92461300  0.48338300  0.79910100  1
  N  N8  1  0.42461300  0.48338300  0.70089900  1
  N  N9  1  0.92461300  0.01661700  0.79910100  1
  N  N10  1  0.57538700  0.98338300  0.29910100  1
  N  N11  1  0.07538700  0.51661700  0.20089900  1
  N  N12  1  0.43323100  0.25000000  0.14623300  1
  N  N13  1  0.93323100  0.25000000  0.35376700  1
  N  N14  1  0.56676900  0.75000000  0.85376700  1
  N  N15  1  0.06676900  0.75000000  0.64623300  1
  N  N16  1  0.69629700  0.25000000  0.09951600  1
  N  N17  1  0.19629700  0.25000000  0.40048400  1
  N  N18  1  0.30370300  0.75000000  0.90048400  1
  N  N19  1  0.80370300  0.75000000  0.59951600  1
  N  N20  1  0.70756600  0.25000000  0.46274200  1
  N  N21  1  0.20756600  0.25000000  0.03725800  1
  N  N22  1  0.29243400  0.75000000  0.53725800  1
  N  N23  1  0.79243400  0.75000000  0.96274200  1
  Cl  Cl24  1  0.41418700  0.25000000  0.60058500  1
  Cl  Cl25  1  0.91418700  0.25000000  0.89941500  1
  Cl  Cl26  1  0.58581300  0.75000000  0.39941500  1
  Cl  Cl27  1  0.08581300  0.75000000  0.10058500  1
  Cl  Cl28  1  0.62268700  0.51409700  0.85182800  1
  Cl  Cl29  1  0.12268700  0.98590300  0.64817200  1
  Cl  Cl30  1  0.37731300  0.01409700  0.14817200  1
  Cl  Cl31  1  0.87731300  0.48590300  0.35182800  1
  Cl  Cl32  1  0.37731300  0.48590300  0.14817200  1
  Cl  Cl33  1  0.87731300  0.01409700  0.35182800  1
  Cl  Cl34  1  0.62268700  0.98590300  0.85182800  1
  Cl  Cl35  1  0.12268700  0.51409700  0.64817200  1
