# generated using pymatgen
data_Rb2V(OF2)2
_symmetry_space_group_name_H-M   'P 1'
_cell_length_a   6.37033201
_cell_length_b   6.37033201
_cell_length_c   8.69167700
_cell_angle_alpha   90.00000000
_cell_angle_beta   90.00000000
_cell_angle_gamma   95.64936009
_symmetry_Int_Tables_number   1
_chemical_formula_structural   Rb2V(OF2)2
_chemical_formula_sum   'Rb4 V2 O4 F8'
_cell_volume   351.00490871
_cell_formula_units_Z   2
loop_
 _symmetry_equiv_pos_site_id
 _symmetry_equiv_pos_as_xyz
  1  'x, y, z'
loop_
 _atom_site_type_symbol
 _atom_site_label
 _atom_site_symmetry_multiplicity
 _atom_site_fract_x
 _atom_site_fract_y
 _atom_site_fract_z
 _atom_site_occupancy
  Rb  Rb0  1  0.24011200  0.75988800  0.50000000  1
  Rb  Rb1  1  0.24011200  0.75988800  0.00000000  1
  Rb  Rb2  1  0.75988800  0.24011200  0.50000000  1
  Rb  Rb3  1  0.75988800  0.24011200  0.00000000  1
  V  V4  1  0.25861300  0.25861300  0.25000000  1
  V  V5  1  0.74138700  0.74138700  0.75000000  1
  O  O6  1  0.06220100  0.06220100  0.25000000  1
  O  O7  1  0.93779900  0.93779900  0.75000000  1
  O  O8  1  0.48929400  0.48929400  0.25000000  1
  O  O9  1  0.51070600  0.51070600  0.75000000  1
  F  F10  1  0.29252200  0.29252200  0.46220100  1
  F  F11  1  0.70747800  0.70747800  0.53779900  1
  F  F12  1  0.29252200  0.29252200  0.03779900  1
  F  F13  1  0.70747800  0.70747800  0.96220100  1
  F  F14  1  0.46800800  0.06564700  0.25000000  1
  F  F15  1  0.93435300  0.53199200  0.75000000  1
  F  F16  1  0.53199200  0.93435300  0.75000000  1
  F  F17  1  0.06564700  0.46800800  0.25000000  1
