# generated using pymatgen
data_TaPNCl7
_symmetry_space_group_name_H-M   'P 1'
_cell_length_a   11.72491100
_cell_length_b   6.90363800
_cell_length_c   15.52502798
_cell_angle_alpha   74.34589986
_cell_angle_beta   90.00000000
_cell_angle_gamma   90.00000000
_symmetry_Int_Tables_number   1
_chemical_formula_structural   TaPNCl7
_chemical_formula_sum   'Ta4 P4 N4 Cl28'
_cell_volume   1210.05427248
_cell_formula_units_Z   4
loop_
 _symmetry_equiv_pos_site_id
 _symmetry_equiv_pos_as_xyz
  1  'x, y, z'
loop_
 _atom_site_type_symbol
 _atom_site_label
 _atom_site_symmetry_multiplicity
 _atom_site_fract_x
 _atom_site_fract_y
 _atom_site_fract_z
 _atom_site_occupancy
  Ta  Ta0  1  0.91990400  0.02033100  0.38031700  1
  Ta  Ta1  1  0.58009600  0.02033100  0.88031700  1
  Ta  Ta2  1  0.41990400  0.97966900  0.11968300  1
  Ta  Ta3  1  0.08009600  0.97966900  0.61968300  1
  P  P4  1  0.07046400  0.63063700  0.81769300  1
  P  P5  1  0.92953600  0.36936300  0.18230700  1
  P  P6  1  0.57046400  0.36936300  0.68230700  1
  P  P7  1  0.42953600  0.63063700  0.31769300  1
  N  N8  1  0.60481700  0.22669500  0.77433200  1
  N  N9  1  0.10481700  0.77330500  0.72566800  1
  N  N10  1  0.39518300  0.77330500  0.22566800  1
  N  N11  1  0.89518300  0.22669500  0.27433200  1
  Cl  Cl12  1  0.90050800  0.07098200  0.66302500  1
  Cl  Cl13  1  0.47793900  0.24007800  0.95878100  1
  Cl  Cl14  1  0.02206100  0.24007800  0.45878100  1
  Cl  Cl15  1  0.97793900  0.75992200  0.54121900  1
  Cl  Cl16  1  0.83533000  0.74473100  0.34769000  1
  Cl  Cl17  1  0.00844100  0.77738100  0.90241600  1
  Cl  Cl18  1  0.09949200  0.92901800  0.33697500  1
  Cl  Cl19  1  0.16467000  0.25526900  0.65231000  1
  Cl  Cl20  1  0.74545500  0.07577900  0.95622300  1
  Cl  Cl21  1  0.75454500  0.07577900  0.45622300  1
  Cl  Cl22  1  0.33533000  0.25526900  0.15231000  1
  Cl  Cl23  1  0.19927000  0.46618100  0.88214100  1
  Cl  Cl24  1  0.99155900  0.22261900  0.09758400  1
  Cl  Cl25  1  0.49155900  0.77738100  0.40241600  1
  Cl  Cl26  1  0.52206100  0.75992200  0.04121900  1
  Cl  Cl27  1  0.24545500  0.92422100  0.54377700  1
  Cl  Cl28  1  0.40050800  0.92901800  0.83697500  1
  Cl  Cl29  1  0.50844100  0.22261900  0.59758400  1
  Cl  Cl30  1  0.30073000  0.46618100  0.38214100  1
  Cl  Cl31  1  0.66467000  0.74473100  0.84769000  1
  Cl  Cl32  1  0.04997300  0.56761600  0.19048800  1
  Cl  Cl33  1  0.59949200  0.07098200  0.16302500  1
  Cl  Cl34  1  0.69927000  0.53381900  0.61785900  1
  Cl  Cl35  1  0.54997300  0.43238400  0.30951200  1
  Cl  Cl36  1  0.25454500  0.92422100  0.04377700  1
  Cl  Cl37  1  0.95002700  0.43238400  0.80951200  1
  Cl  Cl38  1  0.80073000  0.53381900  0.11785900  1
  Cl  Cl39  1  0.45002700  0.56761600  0.69048800  1
