# generated using pymatgen
data_VCl4
_symmetry_space_group_name_H-M   'P 1'
_cell_length_a   6.59860800
_cell_length_b   12.86445300
_cell_length_c   13.46843234
_cell_angle_alpha   61.54162887
_cell_angle_beta   90.00000000
_cell_angle_gamma   90.00000000
_symmetry_Int_Tables_number   1
_chemical_formula_structural   VCl4
_chemical_formula_sum   'V4 Cl16'
_cell_volume   1005.14886013
_cell_formula_units_Z   4
loop_
 _symmetry_equiv_pos_site_id
 _symmetry_equiv_pos_as_xyz
  1  'x, y, z'
loop_
 _atom_site_type_symbol
 _atom_site_label
 _atom_site_symmetry_multiplicity
 _atom_site_fract_x
 _atom_site_fract_y
 _atom_site_fract_z
 _atom_site_occupancy
  V  V0  1  0.92683800  0.13854600  0.25733100  1
  V  V1  1  0.07316200  0.86145400  0.74266900  1
  V  V2  1  0.07316200  0.63854600  0.25733100  1
  V  V3  1  0.92683800  0.36145400  0.74266900  1
  Cl  Cl4  1  0.07999000  0.33731900  0.61459100  1
  Cl  Cl5  1  0.91693500  0.51066700  0.22623600  1
  Cl  Cl6  1  0.92492800  0.30363900  0.10404000  1
  Cl  Cl7  1  0.92001000  0.66268100  0.38540900  1
  Cl  Cl8  1  0.91693500  0.98933300  0.77376400  1
  Cl  Cl9  1  0.37701700  0.57932700  0.31068800  1
  Cl  Cl10  1  0.62298300  0.42067300  0.68931200  1
  Cl  Cl11  1  0.92001000  0.83731900  0.61459100  1
  Cl  Cl12  1  0.37701700  0.92067300  0.68931200  1
  Cl  Cl13  1  0.07507200  0.69636100  0.89596000  1
  Cl  Cl14  1  0.62298300  0.07932700  0.31068800  1
  Cl  Cl15  1  0.08306500  0.01066700  0.22623600  1
  Cl  Cl16  1  0.07999000  0.16268100  0.38540900  1
  Cl  Cl17  1  0.07507200  0.80363900  0.10404000  1
  Cl  Cl18  1  0.92492800  0.19636100  0.89596000  1
  Cl  Cl19  1  0.08306500  0.48933300  0.77376400  1
