# generated using pymatgen
data_RbHgC2N2ClO
_symmetry_space_group_name_H-M   'P 1'
_cell_length_a   9.31975948
_cell_length_b   9.31975948
_cell_length_c   11.00948900
_cell_angle_alpha   90.00000000
_cell_angle_beta   90.00000000
_cell_angle_gamma   149.30094595
_symmetry_Int_Tables_number   1
_chemical_formula_structural   RbHgC2N2ClO
_chemical_formula_sum   'Rb2 Hg2 C4 N4 Cl2 O2'
_cell_volume   488.19884830
_cell_formula_units_Z   2
loop_
 _symmetry_equiv_pos_site_id
 _symmetry_equiv_pos_as_xyz
  1  'x, y, z'
loop_
 _atom_site_type_symbol
 _atom_site_label
 _atom_site_symmetry_multiplicity
 _atom_site_fract_x
 _atom_site_fract_y
 _atom_site_fract_z
 _atom_site_occupancy
  Rb  Rb0  1  0.27636500  0.72363500  0.25000000  1
  Rb  Rb1  1  0.72363500  0.27636500  0.75000000  1
  Hg  Hg2  1  0.00000000  0.00000000  0.50000000  1
  Hg  Hg3  1  0.00000000  0.00000000  0.00000000  1
  C  C4  1  0.88730300  0.11269700  0.52592200  1
  C  C5  1  0.11269700  0.88730300  0.47407800  1
  C  C6  1  0.88730300  0.11269700  0.97407800  1
  C  C7  1  0.11269700  0.88730300  0.02592200  1
  N  N8  1  0.82254100  0.17745900  0.53507900  1
  N  N9  1  0.17745900  0.82254100  0.46492200  1
  N  N10  1  0.82254100  0.17745900  0.96492200  1
  N  N11  1  0.17745900  0.82254100  0.03507900  1
  Cl  Cl12  1  0.94695300  0.05304700  0.25000000  1
  Cl  Cl13  1  0.05304700  0.94695300  0.75000000  1
  O  O14  1  0.67441400  0.32558600  0.25000000  1
  O  O15  1  0.32558600  0.67441400  0.75000000  1
