# generated using pymatgen
data_CdI2
_symmetry_space_group_name_H-M   'P 1'
_cell_length_a   4.33473644
_cell_length_b   4.33473644
_cell_length_c   45.13488800
_cell_angle_alpha   90.00000000
_cell_angle_beta   90.00000000
_cell_angle_gamma   120.00000668
_symmetry_Int_Tables_number   1
_chemical_formula_structural   CdI2
_chemical_formula_sum   'Cd6 I12'
_cell_volume   734.46036562
_cell_formula_units_Z   6
loop_
 _symmetry_equiv_pos_site_id
 _symmetry_equiv_pos_as_xyz
  1  'x, y, z'
loop_
 _atom_site_type_symbol
 _atom_site_label
 _atom_site_symmetry_multiplicity
 _atom_site_fract_x
 _atom_site_fract_y
 _atom_site_fract_z
 _atom_site_occupancy
  Cd  Cd0  1  0.00000000  0.00000000  0.54299900  1
  Cd  Cd1  1  0.66666700  0.33333300  0.04169100  1
  Cd  Cd2  1  0.00000000  0.00000000  0.70861300  1
  Cd  Cd3  1  0.66666700  0.33333300  0.37502600  1
  Cd  Cd4  1  0.00000000  0.00000000  0.20828500  1
  Cd  Cd5  1  0.00000000  0.00000000  0.87501200  1
  I  I6  1  0.33333300  0.66666700  0.07987400  1
  I  I7  1  0.33333300  0.66666700  0.41320500  1
  I  I8  1  0.66666700  0.33333300  0.67046900  1
  I  I9  1  0.33333300  0.66666700  0.74679100  1
  I  I10  1  0.33333300  0.66666700  0.91318000  1
  I  I11  1  0.00000000  0.00000000  0.33685200  1
  I  I12  1  0.00000000  0.00000000  0.00353500  1
  I  I13  1  0.66666700  0.33333300  0.83688100  1
  I  I14  1  0.66666700  0.33333300  0.50478800  1
  I  I15  1  0.33333300  0.66666700  0.58120200  1
  I  I16  1  0.33333300  0.66666700  0.24645400  1
  I  I17  1  0.66666700  0.33333300  0.17014200  1
