# generated using pymatgen
data_CeSmI4
_symmetry_space_group_name_H-M   'P 1'
_cell_length_a   8.85202844
_cell_length_b   8.85202844
_cell_length_c   7.63020116
_cell_angle_alpha   69.29370440
_cell_angle_beta   69.29370440
_cell_angle_gamma   110.27842025
_symmetry_Int_Tables_number   1
_chemical_formula_structural   CeSmI4
_chemical_formula_sum   'Ce2 Sm2 I8'
_cell_volume   440.65330459
_cell_formula_units_Z   2
loop_
 _symmetry_equiv_pos_site_id
 _symmetry_equiv_pos_as_xyz
  1  'x, y, z'
loop_
 _atom_site_type_symbol
 _atom_site_label
 _atom_site_symmetry_multiplicity
 _atom_site_fract_x
 _atom_site_fract_y
 _atom_site_fract_z
 _atom_site_occupancy
  Ce  Ce0  1  0.49488100  0.50511900  0.75000000  1
  Ce  Ce1  1  0.50511900  0.49488100  0.25000000  1
  Sm  Sm2  1  0.86693700  0.13306300  0.25000000  1
  Sm  Sm3  1  0.13306300  0.86693700  0.75000000  1
  I  I4  1  0.87553700  0.75612700  0.25178700  1
  I  I5  1  0.24387300  0.12446300  0.24821300  1
  I  I6  1  0.18904000  0.55685000  0.09149800  1
  I  I7  1  0.55685000  0.18904000  0.59149800  1
  I  I8  1  0.44315000  0.81096000  0.40850200  1
  I  I9  1  0.75612700  0.87553700  0.75178700  1
  I  I10  1  0.81096000  0.44315000  0.90850200  1
  I  I11  1  0.12446300  0.24387300  0.74821300  1
