# generated using pymatgen
data_H12W3C4NCl9
_symmetry_space_group_name_H-M   'P 1'
_cell_length_a   11.11935260
_cell_length_b   11.11935260
_cell_length_c   8.77731400
_cell_angle_alpha   90.00000000
_cell_angle_beta   90.00000000
_cell_angle_gamma   120.00000358
_symmetry_Int_Tables_number   1
_chemical_formula_structural   H12W3C4NCl9
_chemical_formula_sum   'H24 W6 C8 N2 Cl18'
_cell_volume   939.83422343
_cell_formula_units_Z   2
loop_
 _symmetry_equiv_pos_site_id
 _symmetry_equiv_pos_as_xyz
  1  'x, y, z'
loop_
 _atom_site_type_symbol
 _atom_site_label
 _atom_site_symmetry_multiplicity
 _atom_site_fract_x
 _atom_site_fract_y
 _atom_site_fract_z
 _atom_site_occupancy
  H  H0  1  0.86646700  0.35237800  0.67909100  1
  H  H1  1  0.86646700  0.51408900  0.67909100  1
  H  H2  1  0.72049400  0.27950600  0.90679500  1
  H  H3  1  0.40576600  0.81153200  0.48752000  1
  H  H4  1  0.64762200  0.51408900  0.67909100  1
  H  H5  1  0.40576600  0.59423400  0.48752000  1
  H  H6  1  0.72049400  0.44098800  0.90679500  1
  H  H7  1  0.59423400  0.40576600  0.51248000  1
  H  H8  1  0.35237800  0.86646700  0.32090900  1
  H  H9  1  0.51408900  0.86646700  0.32090900  1
  H  H10  1  0.55901200  0.27950600  0.90679500  1
  H  H11  1  0.13353300  0.48591100  0.32090900  1
  H  H12  1  0.48591100  0.35237800  0.67909100  1
  H  H13  1  0.18846800  0.59423400  0.48752000  1
  H  H14  1  0.27950600  0.72049400  0.09320500  1
  H  H15  1  0.13353300  0.64762200  0.32090900  1
  H  H16  1  0.44098800  0.72049400  0.09320500  1
  H  H17  1  0.59423400  0.18846800  0.51248000  1
  H  H18  1  0.35237800  0.48591100  0.32090900  1
  H  H19  1  0.81153200  0.40576600  0.51248000  1
  H  H20  1  0.64762200  0.13353300  0.67909100  1
  H  H21  1  0.51408900  0.64762200  0.32090900  1
  H  H22  1  0.27950600  0.55901200  0.09320500  1
  H  H23  1  0.48591100  0.13353300  0.67909100  1
  W  W24  1  0.91137000  0.08863000  0.13109300  1
  W  W25  1  0.91137000  0.82274100  0.13109300  1
  W  W26  1  0.17725900  0.08863000  0.13109300  1
  W  W27  1  0.08863000  0.17725900  0.86890700  1
  W  W28  1  0.08863000  0.91137000  0.86890700  1
  W  W29  1  0.82274100  0.91137000  0.86890700  1
  C  C30  1  0.40690900  0.81381800  0.36269900  1
  C  C31  1  0.40690900  0.59309100  0.36269900  1
  C  C32  1  0.33333300  0.66666700  0.13349800  1
  C  C33  1  0.81381800  0.40690900  0.63730100  1
  C  C34  1  0.18618200  0.59309100  0.36269900  1
  C  C35  1  0.59309100  0.18618200  0.63730100  1
  C  C36  1  0.66666700  0.33333300  0.86650200  1
  C  C37  1  0.59309100  0.40690900  0.63730100  1
  N  N38  1  0.66666700  0.33333300  0.69499100  1
  N  N39  1  0.33333300  0.66666700  0.30500900  1
  Cl  Cl40  1  0.61569400  0.80784700  0.70551500  1
  Cl  Cl41  1  0.69086900  0.00000000  0.00000000  1
  Cl  Cl42  1  0.19215300  0.38430600  0.70551500  1
  Cl  Cl43  1  0.00000000  0.69086900  0.00000000  1
  Cl  Cl44  1  0.79837300  0.89918600  0.30823200  1
  Cl  Cl45  1  0.80784700  0.61569400  0.29448500  1
  Cl  Cl46  1  0.80784700  0.19215300  0.29448500  1
  Cl  Cl47  1  0.38430600  0.19215300  0.29448500  1
  Cl  Cl48  1  0.19215300  0.80784700  0.70551500  1
  Cl  Cl49  1  0.89918600  0.79837300  0.69176800  1
  Cl  Cl50  1  0.10081400  0.89918600  0.30823200  1
  Cl  Cl51  1  0.00000000  0.30913100  0.00000000  1
  Cl  Cl52  1  0.69086900  0.69086900  0.00000000  1
  Cl  Cl53  1  0.20162700  0.10081400  0.69176800  1
  Cl  Cl54  1  0.10081400  0.20162700  0.30823200  1
  Cl  Cl55  1  0.30913100  0.00000000  0.00000000  1
  Cl  Cl56  1  0.30913100  0.30913100  0.00000000  1
  Cl  Cl57  1  0.89918600  0.10081400  0.69176800  1
