# generated using pymatgen
data_Nd2Ni17
_symmetry_space_group_name_H-M   'P 1'
_cell_length_a   8.32334010
_cell_length_b   8.32334010
_cell_length_c   8.06667200
_cell_angle_alpha   90.00000000
_cell_angle_beta   90.00000000
_cell_angle_gamma   120.00000080
_symmetry_Int_Tables_number   1
_chemical_formula_structural   Nd2Ni17
_chemical_formula_sum   'Nd4 Ni34'
_cell_volume   483.97207978
_cell_formula_units_Z   2
loop_
 _symmetry_equiv_pos_site_id
 _symmetry_equiv_pos_as_xyz
  1  'x, y, z'
loop_
 _atom_site_type_symbol
 _atom_site_label
 _atom_site_symmetry_multiplicity
 _atom_site_fract_x
 _atom_site_fract_y
 _atom_site_fract_z
 _atom_site_occupancy
  Nd  Nd0  1  0.00000000  0.00000000  0.25000000  1
  Nd  Nd1  1  0.00000000  0.00000000  0.75000000  1
  Nd  Nd2  1  0.66666700  0.33333300  0.25000000  1
  Nd  Nd3  1  0.33333300  0.66666700  0.75000000  1
  Ni  Ni4  1  0.50000000  0.00000000  0.50000000  1
  Ni  Ni5  1  0.50000000  0.50000000  0.50000000  1
  Ni  Ni6  1  0.83388000  0.16612000  0.48118400  1
  Ni  Ni7  1  0.33224000  0.16612000  0.01881600  1
  Ni  Ni8  1  0.16612000  0.33224000  0.51881600  1
  Ni  Ni9  1  0.67114200  0.62553600  0.75000000  1
  Ni  Ni10  1  0.66666700  0.33333300  0.89571600  1
  Ni  Ni11  1  0.33333300  0.66666700  0.39571600  1
  Ni  Ni12  1  0.66776000  0.83388000  0.98118400  1
  Ni  Ni13  1  0.37446400  0.32885800  0.75000000  1
  Ni  Ni14  1  0.04560500  0.37446400  0.25000000  1
  Ni  Ni15  1  0.83388000  0.16612000  0.01881600  1
  Ni  Ni16  1  0.62553600  0.95439500  0.25000000  1
  Ni  Ni17  1  0.95439500  0.62553600  0.75000000  1
  Ni  Ni18  1  0.33224000  0.16612000  0.48118400  1
  Ni  Ni19  1  0.83388000  0.66776000  0.48118400  1
  Ni  Ni20  1  0.16612000  0.33224000  0.98118400  1
  Ni  Ni21  1  0.83388000  0.66776000  0.01881600  1
  Ni  Ni22  1  0.66666700  0.33333300  0.60428400  1
  Ni  Ni23  1  0.66776000  0.83388000  0.51881600  1
  Ni  Ni24  1  0.00000000  0.50000000  0.00000000  1
  Ni  Ni25  1  0.32885800  0.95439500  0.25000000  1
  Ni  Ni26  1  0.32885800  0.37446400  0.25000000  1
  Ni  Ni27  1  0.33333300  0.66666700  0.10428400  1
  Ni  Ni28  1  0.16612000  0.83388000  0.51881600  1
  Ni  Ni29  1  0.04560500  0.67114200  0.25000000  1
  Ni  Ni30  1  0.67114200  0.04560500  0.75000000  1
  Ni  Ni31  1  0.16612000  0.83388000  0.98118400  1
  Ni  Ni32  1  0.62553600  0.67114200  0.25000000  1
  Ni  Ni33  1  0.50000000  0.50000000  0.00000000  1
  Ni  Ni34  1  0.95439500  0.32885800  0.75000000  1
  Ni  Ni35  1  0.37446400  0.04560500  0.75000000  1
  Ni  Ni36  1  0.00000000  0.50000000  0.50000000  1
  Ni  Ni37  1  0.50000000  0.00000000  0.00000000  1
