# generated using pymatgen
data_EuI2
_symmetry_space_group_name_H-M   'P 1'
_cell_length_a   7.92581100
_cell_length_b   8.26041700
_cell_length_c   15.31075400
_cell_angle_alpha   90.00000000
_cell_angle_beta   90.00000000
_cell_angle_gamma   90.00000000
_symmetry_Int_Tables_number   1
_chemical_formula_structural   EuI2
_chemical_formula_sum   'Eu8 I16'
_cell_volume   1002.40277982
_cell_formula_units_Z   8
loop_
 _symmetry_equiv_pos_site_id
 _symmetry_equiv_pos_as_xyz
  1  'x, y, z'
loop_
 _atom_site_type_symbol
 _atom_site_label
 _atom_site_symmetry_multiplicity
 _atom_site_fract_x
 _atom_site_fract_y
 _atom_site_fract_z
 _atom_site_occupancy
  Eu  Eu0  1  0.22281500  0.44802000  0.39022900  1
  Eu  Eu1  1  0.27718500  0.94802000  0.60977100  1
  Eu  Eu2  1  0.77718500  0.55198000  0.60977100  1
  Eu  Eu3  1  0.22281500  0.94802000  0.10977100  1
  Eu  Eu4  1  0.72281500  0.05198000  0.39022900  1
  Eu  Eu5  1  0.72281500  0.55198000  0.10977100  1
  Eu  Eu6  1  0.27718500  0.44802000  0.89022900  1
  Eu  Eu7  1  0.77718500  0.05198000  0.89022900  1
  I  I8  1  0.66265100  0.39304600  0.79756900  1
  I  I9  1  0.99376200  0.23147100  0.53362900  1
  I  I10  1  0.50623800  0.23147100  0.03362900  1
  I  I11  1  0.50623800  0.73147100  0.46637100  1
  I  I12  1  0.16265100  0.10695400  0.79756900  1
  I  I13  1  0.16265100  0.60695400  0.70243100  1
  I  I14  1  0.83734900  0.39304600  0.29756900  1
  I  I15  1  0.99376200  0.73147100  0.96637100  1
  I  I16  1  0.49376200  0.26852900  0.53362900  1
  I  I17  1  0.49376200  0.76852900  0.96637100  1
  I  I18  1  0.33734900  0.10695400  0.29756900  1
  I  I19  1  0.66265100  0.89304600  0.70243100  1
  I  I20  1  0.00623800  0.76852900  0.46637100  1
  I  I21  1  0.00623800  0.26852900  0.03362900  1
  I  I22  1  0.33734900  0.60695400  0.20243100  1
  I  I23  1  0.83734900  0.89304600  0.20243100  1
