# generated using pymatgen
data_RbZn2P3O14
_symmetry_space_group_name_H-M   'P 1'
_cell_length_a   8.56288600
_cell_length_b   10.28765700
_cell_length_c   16.19894700
_cell_angle_alpha   90.00000000
_cell_angle_beta   90.00000000
_cell_angle_gamma   90.00000000
_symmetry_Int_Tables_number   1
_chemical_formula_structural   RbZn2P3O14
_chemical_formula_sum   'Rb4 Zn8 P12 O56'
_cell_volume   1426.99819148
_cell_formula_units_Z   4
loop_
 _symmetry_equiv_pos_site_id
 _symmetry_equiv_pos_as_xyz
  1  'x, y, z'
loop_
 _atom_site_type_symbol
 _atom_site_label
 _atom_site_symmetry_multiplicity
 _atom_site_fract_x
 _atom_site_fract_y
 _atom_site_fract_z
 _atom_site_occupancy
  Rb  Rb0  1  0.70175900  0.58042700  0.49696700  1
  Rb  Rb1  1  0.79824100  0.41957300  0.99696700  1
  Rb  Rb2  1  0.20175900  0.91957300  0.50303300  1
  Rb  Rb3  1  0.29824100  0.08042700  0.00303300  1
  Zn  Zn4  1  0.58614200  0.84027200  0.83489800  1
  Zn  Zn5  1  0.91385800  0.15972800  0.33489800  1
  Zn  Zn6  1  0.08614200  0.65972800  0.16510200  1
  Zn  Zn7  1  0.41385800  0.34027200  0.66510200  1
  Zn  Zn8  1  0.12423500  0.61043300  0.80379500  1
  Zn  Zn9  1  0.37576500  0.38956700  0.30379500  1
  Zn  Zn10  1  0.62423500  0.88956700  0.19620500  1
  Zn  Zn11  1  0.87576500  0.11043300  0.69620500  1
  P  P12  1  0.33664900  0.63472800  0.63539300  1
  P  P13  1  0.16335100  0.36527200  0.13539300  1
  P  P14  1  0.83664900  0.86527200  0.36460700  1
  P  P15  1  0.66335100  0.13472800  0.86460700  1
  P  P16  1  0.14120000  0.29526900  0.79036800  1
  P  P17  1  0.35880000  0.70473100  0.29036800  1
  P  P18  1  0.64120000  0.20473100  0.20963200  1
  P  P19  1  0.85880000  0.79526900  0.70963200  1
  P  P20  1  0.34698200  0.66973300  0.95533700  1
  P  P21  1  0.15301800  0.33026700  0.45533700  1
  P  P22  1  0.84698200  0.83026700  0.04466300  1
  P  P23  1  0.65301800  0.16973300  0.54466300  1
  O  O24  1  0.68627500  0.81570800  0.73362300  1
  O  O25  1  0.81372500  0.18429200  0.23362300  1
  O  O26  1  0.18627500  0.68429200  0.26637700  1
  O  O27  1  0.31372500  0.31570800  0.76637700  1
  O  O28  1  0.29060200  0.65265000  0.72592700  1
  O  O29  1  0.20939800  0.34735000  0.22592700  1
  O  O30  1  0.79060200  0.84735000  0.27407300  1
  O  O31  1  0.70939800  0.15265000  0.77407300  1
  O  O32  1  0.45043600  0.72435700  0.88629000  1
  O  O33  1  0.04956400  0.27564300  0.38629000  1
  O  O34  1  0.95043600  0.77564300  0.11371000  1
  O  O35  1  0.54956400  0.22435700  0.61371000  1
  O  O36  1  0.56356800  0.01146700  0.87847500  1
  O  O37  1  0.93643200  0.98853300  0.37847500  1
  O  O38  1  0.06356800  0.48853300  0.12152500  1
  O  O39  1  0.43643200  0.51146700  0.62152500  1
  O  O40  1  0.29722000  0.96165300  0.74655000  1
  O  O41  1  0.20278000  0.03834700  0.24655000  1
  O  O42  1  0.79722000  0.53834700  0.25345000  1
  O  O43  1  0.70278000  0.46165300  0.75345000  1
  O  O44  1  0.21433800  0.94840100  0.80816700  1
  O  O45  1  0.28566200  0.05159900  0.30816700  1
  O  O46  1  0.71433800  0.55159900  0.19183300  1
  O  O47  1  0.78566200  0.44840100  0.69183300  1
  O  O48  1  0.05376500  0.42679800  0.79827100  1
  O  O49  1  0.44623500  0.57320200  0.29827100  1
  O  O50  1  0.55376500  0.07320200  0.20172900  1
  O  O51  1  0.94623500  0.92679800  0.70172900  1
  O  O52  1  0.93826700  0.70680300  0.77388500  1
  O  O53  1  0.56173300  0.29319700  0.27388500  1
  O  O54  1  0.43826700  0.79319700  0.22611500  1
  O  O55  1  0.06173300  0.20680300  0.72611500  1
  O  O56  1  0.19149900  0.62289700  0.91801300  1
  O  O57  1  0.30850100  0.37710300  0.41801300  1
  O  O58  1  0.69149900  0.87710300  0.08198700  1
  O  O59  1  0.80850100  0.12289700  0.58198700  1
  O  O60  1  0.18780400  0.63618200  0.57913000  1
  O  O61  1  0.31219600  0.36381800  0.07913000  1
  O  O62  1  0.68780400  0.86381800  0.42087000  1
  O  O63  1  0.81219600  0.13618200  0.92087000  1
  O  O64  1  0.42070000  0.75379600  0.59811700  1
  O  O65  1  0.07930000  0.24620400  0.09811700  1
  O  O66  1  0.92070000  0.74620400  0.40188300  1
  O  O67  1  0.57930000  0.25379600  0.90188300  1
  O  O68  1  0.13134700  0.23193800  0.87679200  1
  O  O69  1  0.36865300  0.76806200  0.37679200  1
  O  O70  1  0.63134700  0.26806200  0.12320800  1
  O  O71  1  0.86865300  0.73193800  0.62320800  1
  O  O72  1  0.31351500  0.76517600  0.02677400  1
  O  O73  1  0.18648500  0.23482400  0.52677400  1
  O  O74  1  0.81351500  0.73482400  0.97322600  1
  O  O75  1  0.68648500  0.26517600  0.47322600  1
  O  O76  1  0.43982300  0.56010000  0.99988900  1
  O  O77  1  0.06017700  0.43990000  0.49988900  1
  O  O78  1  0.93982300  0.93990000  0.00011100  1
  O  O79  1  0.56017700  0.06010000  0.50011100  1
