# generated using pymatgen
data_Ba4Ag3Ge20
_symmetry_space_group_name_H-M   'P 1'
_cell_length_a   11.01999400
_cell_length_b   11.01999400
_cell_length_c   11.01999400
_cell_angle_alpha   90.00000000
_cell_angle_beta   90.00000000
_cell_angle_gamma   90.00000000
_symmetry_Int_Tables_number   1
_chemical_formula_structural   Ba4Ag3Ge20
_chemical_formula_sum   'Ba8 Ag6 Ge40'
_cell_volume   1338.27102207
_cell_formula_units_Z   2
loop_
 _symmetry_equiv_pos_site_id
 _symmetry_equiv_pos_as_xyz
  1  'x, y, z'
loop_
 _atom_site_type_symbol
 _atom_site_label
 _atom_site_symmetry_multiplicity
 _atom_site_fract_x
 _atom_site_fract_y
 _atom_site_fract_z
 _atom_site_occupancy
  Ba  Ba0  1  0.75000000  0.50000000  0.00000000  1
  Ba  Ba1  1  0.50000000  0.50000000  0.50000000  1
  Ba  Ba2  1  0.00000000  0.00000000  0.00000000  1
  Ba  Ba3  1  0.25000000  0.50000000  0.00000000  1
  Ba  Ba4  1  0.50000000  0.00000000  0.25000000  1
  Ba  Ba5  1  0.00000000  0.75000000  0.50000000  1
  Ba  Ba6  1  0.50000000  0.00000000  0.75000000  1
  Ba  Ba7  1  0.00000000  0.25000000  0.50000000  1
  Ag  Ag8  1  0.00000000  0.50000000  0.25000000  1
  Ag  Ag9  1  0.25000000  0.00000000  0.50000000  1
  Ag  Ag10  1  0.50000000  0.75000000  0.00000000  1
  Ag  Ag11  1  0.50000000  0.25000000  0.00000000  1
  Ag  Ag12  1  0.00000000  0.50000000  0.75000000  1
  Ag  Ag13  1  0.75000000  0.00000000  0.50000000  1
  Ge  Ge14  1  0.30726300  0.11522900  0.00000000  1
  Ge  Ge15  1  0.38477100  0.80726300  0.50000000  1
  Ge  Ge16  1  0.81709500  0.18290500  0.18290500  1
  Ge  Ge17  1  0.18290500  0.81709500  0.18290500  1
  Ge  Ge18  1  0.00000000  0.69273700  0.11522900  1
  Ge  Ge19  1  0.61522900  0.80726300  0.50000000  1
  Ge  Ge20  1  0.88477100  0.00000000  0.30726300  1
  Ge  Ge21  1  0.81709500  0.81709500  0.18290500  1
  Ge  Ge22  1  0.00000000  0.30726300  0.11522900  1
  Ge  Ge23  1  0.81709500  0.18290500  0.81709500  1
  Ge  Ge24  1  0.68290500  0.31709500  0.68290500  1
  Ge  Ge25  1  0.19273700  0.50000000  0.61522900  1
  Ge  Ge26  1  0.00000000  0.30726300  0.88477100  1
  Ge  Ge27  1  0.11522900  0.00000000  0.30726300  1
  Ge  Ge28  1  0.31709500  0.68290500  0.31709500  1
  Ge  Ge29  1  0.88477100  0.00000000  0.69273700  1
  Ge  Ge30  1  0.80726300  0.50000000  0.38477100  1
  Ge  Ge31  1  0.68290500  0.68290500  0.31709500  1
  Ge  Ge32  1  0.00000000  0.69273700  0.88477100  1
  Ge  Ge33  1  0.61522900  0.19273700  0.50000000  1
  Ge  Ge34  1  0.18290500  0.18290500  0.18290500  1
  Ge  Ge35  1  0.81709500  0.81709500  0.81709500  1
  Ge  Ge36  1  0.50000000  0.38477100  0.19273700  1
  Ge  Ge37  1  0.69273700  0.88477100  0.00000000  1
  Ge  Ge38  1  0.80726300  0.50000000  0.61522900  1
  Ge  Ge39  1  0.11522900  0.00000000  0.69273700  1
  Ge  Ge40  1  0.30726300  0.88477100  0.00000000  1
  Ge  Ge41  1  0.50000000  0.61522900  0.80726300  1
  Ge  Ge42  1  0.19273700  0.50000000  0.38477100  1
  Ge  Ge43  1  0.68290500  0.68290500  0.68290500  1
  Ge  Ge44  1  0.18290500  0.18290500  0.81709500  1
  Ge  Ge45  1  0.18290500  0.81709500  0.81709500  1
  Ge  Ge46  1  0.31709500  0.31709500  0.31709500  1
  Ge  Ge47  1  0.31709500  0.31709500  0.68290500  1
  Ge  Ge48  1  0.38477100  0.19273700  0.50000000  1
  Ge  Ge49  1  0.68290500  0.31709500  0.31709500  1
  Ge  Ge50  1  0.50000000  0.38477100  0.80726300  1
  Ge  Ge51  1  0.50000000  0.61522900  0.19273700  1
  Ge  Ge52  1  0.31709500  0.68290500  0.68290500  1
  Ge  Ge53  1  0.69273700  0.11522900  0.00000000  1
