# generated using pymatgen
data_CdH8C2NCl3
_symmetry_space_group_name_H-M   'P 1'
_cell_length_a   13.50355200
_cell_length_b   6.82098100
_cell_length_c   8.89500581
_cell_angle_alpha   81.05283753
_cell_angle_beta   90.00000000
_cell_angle_gamma   90.00000000
_symmetry_Int_Tables_number   1
_chemical_formula_structural   CdH8C2NCl3
_chemical_formula_sum   'Cd4 H32 C8 N4 Cl12'
_cell_volume   809.32744477
_cell_formula_units_Z   4
loop_
 _symmetry_equiv_pos_site_id
 _symmetry_equiv_pos_as_xyz
  1  'x, y, z'
loop_
 _atom_site_type_symbol
 _atom_site_label
 _atom_site_symmetry_multiplicity
 _atom_site_fract_x
 _atom_site_fract_y
 _atom_site_fract_z
 _atom_site_occupancy
  Cd  Cd0  1  0.75705000  0.48336900  0.70077500  1
  Cd  Cd1  1  0.74295000  0.98336900  0.70077500  1
  Cd  Cd2  1  0.24295000  0.51663100  0.29922500  1
  Cd  Cd3  1  0.25705000  0.01663100  0.29922500  1
  H  H4  1  0.18828000  0.87819800  0.84542100  1
  H  H5  1  0.93862900  0.48340600  0.17861400  1
  H  H6  1  0.07899300  0.91140800  0.62690800  1
  H  H7  1  0.54021900  0.93443900  0.38021200  1
  H  H8  1  0.66170700  0.90273100  0.30706700  1
  H  H9  1  0.42100700  0.41140800  0.62690800  1
  H  H10  1  0.48247100  0.66756600  0.26235900  1
  H  H11  1  0.95978100  0.43443900  0.38021200  1
  H  H12  1  0.81172000  0.12180200  0.15457900  1
  H  H13  1  0.51752900  0.33243400  0.73764100  1
  H  H14  1  0.04021900  0.56556100  0.61978800  1
  H  H15  1  0.91215600  0.95203600  0.14408900  1
  H  H16  1  0.58345800  0.69793000  0.03695500  1
  H  H17  1  0.33829300  0.09726900  0.69293300  1
  H  H18  1  0.31172000  0.37819800  0.84542100  1
  H  H19  1  0.01752900  0.16756600  0.26235900  1
  H  H20  1  0.08784400  0.04796400  0.85591100  1
  H  H21  1  0.91654200  0.19793000  0.03695500  1
  H  H22  1  0.58784400  0.45203600  0.14408900  1
  H  H23  1  0.98247100  0.83243400  0.73764100  1
  H  H24  1  0.08345800  0.80207000  0.96304500  1
  H  H25  1  0.41215600  0.54796400  0.85591100  1
  H  H26  1  0.68828000  0.62180200  0.15457900  1
  H  H27  1  0.06137100  0.51659400  0.82138600  1
  H  H28  1  0.57899300  0.58859200  0.37309200  1
  H  H29  1  0.41654200  0.30207000  0.96304500  1
  H  H30  1  0.92100700  0.08859200  0.37309200  1
  H  H31  1  0.83829300  0.40273100  0.30706700  1
  H  H32  1  0.56137100  0.98340600  0.17861400  1
  H  H33  1  0.45978100  0.06556100  0.61978800  1
  H  H34  1  0.16170700  0.59726900  0.69293300  1
  H  H35  1  0.43862900  0.01659400  0.82138600  1
  C  C36  1  0.10804400  0.89241700  0.85703600  1
  C  C37  1  0.41774100  0.10900800  0.71428900  1
  C  C38  1  0.89195600  0.10758300  0.14296400  1
  C  C39  1  0.91774100  0.39099200  0.28571100  1
  C  C40  1  0.39195600  0.39241700  0.85703600  1
  C  C41  1  0.58225900  0.89099200  0.28571100  1
  C  C42  1  0.60804400  0.60758300  0.14296400  1
  C  C43  1  0.08225900  0.60900800  0.71428900  1
  N  N44  1  0.55855200  0.68035600  0.27381100  1
  N  N45  1  0.94144800  0.18035600  0.27381100  1
  N  N46  1  0.05855200  0.81964400  0.72618900  1
  N  N47  1  0.44144800  0.31964400  0.72618900  1
  Cl  Cl48  1  0.66871400  0.29136700  0.49415300  1
  Cl  Cl49  1  0.83128600  0.79136700  0.49415300  1
  Cl  Cl50  1  0.16200000  0.30500900  0.10517700  1
  Cl  Cl51  1  0.10093700  0.77876800  0.30219900  1
  Cl  Cl52  1  0.66200000  0.19499100  0.89482300  1
  Cl  Cl53  1  0.89906300  0.22123200  0.69780100  1
  Cl  Cl54  1  0.39906300  0.27876800  0.30219900  1
  Cl  Cl55  1  0.33128600  0.70863300  0.50584700  1
  Cl  Cl56  1  0.60093700  0.72123200  0.69780100  1
  Cl  Cl57  1  0.83800000  0.69499100  0.89482300  1
  Cl  Cl58  1  0.16871400  0.20863300  0.50584700  1
  Cl  Cl59  1  0.33800000  0.80500900  0.10517700  1
