# generated using pymatgen
data_SbCl5
_symmetry_space_group_name_H-M   'P 1'
_cell_length_a   12.93487200
_cell_length_b   10.13838100
_cell_length_c   13.44428295
_cell_angle_alpha   70.82894328
_cell_angle_beta   90.00000000
_cell_angle_gamma   90.00000000
_symmetry_Int_Tables_number   1
_chemical_formula_structural   SbCl5
_chemical_formula_sum   'Sb8 Cl40'
_cell_volume   1665.28985268
_cell_formula_units_Z   8
loop_
 _symmetry_equiv_pos_site_id
 _symmetry_equiv_pos_as_xyz
  1  'x, y, z'
loop_
 _atom_site_type_symbol
 _atom_site_label
 _atom_site_symmetry_multiplicity
 _atom_site_fract_x
 _atom_site_fract_y
 _atom_site_fract_z
 _atom_site_occupancy
  Sb  Sb0  1  0.87281200  0.80606400  0.70454400  1
  Sb  Sb1  1  0.13081600  0.61608600  0.18902800  1
  Sb  Sb2  1  0.37281200  0.19393600  0.79545600  1
  Sb  Sb3  1  0.63081600  0.38391400  0.31097200  1
  Sb  Sb4  1  0.86918400  0.38391400  0.81097200  1
  Sb  Sb5  1  0.62718800  0.80606400  0.20454400  1
  Sb  Sb6  1  0.36918400  0.61608600  0.68902800  1
  Sb  Sb7  1  0.12718800  0.19393600  0.29545600  1
  Cl  Cl8  1  0.00907600  0.04296000  0.25624100  1
  Cl  Cl9  1  0.52605400  0.40147200  0.16363400  1
  Cl  Cl10  1  0.47394600  0.59852800  0.83636600  1
  Cl  Cl11  1  0.47519300  0.21919600  0.93271200  1
  Cl  Cl12  1  0.51735300  0.22709600  0.42757500  1
  Cl  Cl13  1  0.24706900  0.76906100  0.22815700  1
  Cl  Cl14  1  0.73441800  0.40616300  0.44881500  1
  Cl  Cl15  1  0.23980300  0.03604900  0.41170200  1
  Cl  Cl16  1  0.52275100  0.59257600  0.32986900  1
  Cl  Cl17  1  0.02275100  0.40742400  0.17013100  1
  Cl  Cl18  1  0.02605400  0.59852800  0.33636600  1
  Cl  Cl19  1  0.52480700  0.78080400  0.06728800  1
  Cl  Cl20  1  0.75293100  0.23093900  0.77184300  1
  Cl  Cl21  1  0.25293100  0.76906100  0.72815700  1
  Cl  Cl22  1  0.97519300  0.78080400  0.56728800  1
  Cl  Cl23  1  0.26019700  0.03604900  0.91170200  1
  Cl  Cl24  1  0.74706900  0.23093900  0.27184300  1
  Cl  Cl25  1  0.76874600  0.78845600  0.85214400  1
  Cl  Cl26  1  0.23610500  0.40439900  0.31323200  1
  Cl  Cl27  1  0.99092400  0.95704000  0.74375900  1
  Cl  Cl28  1  0.02480700  0.21919600  0.43271200  1
  Cl  Cl29  1  0.26874600  0.21154400  0.64785600  1
  Cl  Cl30  1  0.73980300  0.96395100  0.08829800  1
  Cl  Cl31  1  0.50907600  0.95704000  0.24375900  1
  Cl  Cl32  1  0.73610500  0.59560100  0.18676800  1
  Cl  Cl33  1  0.98264700  0.22709600  0.92757500  1
  Cl  Cl34  1  0.97394600  0.40147200  0.66363400  1
  Cl  Cl35  1  0.23441800  0.59383700  0.05118500  1
  Cl  Cl36  1  0.76019700  0.96395100  0.58829800  1
  Cl  Cl37  1  0.26389500  0.40439900  0.81323200  1
  Cl  Cl38  1  0.47724900  0.40742400  0.67013100  1
  Cl  Cl39  1  0.48264700  0.77290400  0.57242500  1
  Cl  Cl40  1  0.76389500  0.59560100  0.68676800  1
  Cl  Cl41  1  0.97724900  0.59257600  0.82986900  1
  Cl  Cl42  1  0.76558200  0.40616300  0.94881500  1
  Cl  Cl43  1  0.49092400  0.04296000  0.75624100  1
  Cl  Cl44  1  0.23125400  0.21154400  0.14785600  1
  Cl  Cl45  1  0.73125400  0.78845600  0.35214400  1
  Cl  Cl46  1  0.01735300  0.77290400  0.07242500  1
  Cl  Cl47  1  0.26558200  0.59383700  0.55118500  1
