# generated using pymatgen
data_RbPO3
_symmetry_space_group_name_H-M   'P 1'
_cell_length_a   18.85795400
_cell_length_b   7.53471800
_cell_length_c   9.14706901
_cell_angle_alpha   84.37676580
_cell_angle_beta   90.00000000
_cell_angle_gamma   90.00000000
_symmetry_Int_Tables_number   1
_chemical_formula_structural   RbPO3
_chemical_formula_sum   'Rb12 P12 O36'
_cell_volume   1293.44674022
_cell_formula_units_Z   12
loop_
 _symmetry_equiv_pos_site_id
 _symmetry_equiv_pos_as_xyz
  1  'x, y, z'
loop_
 _atom_site_type_symbol
 _atom_site_label
 _atom_site_symmetry_multiplicity
 _atom_site_fract_x
 _atom_site_fract_y
 _atom_site_fract_z
 _atom_site_occupancy
  Rb  Rb0  1  0.96550500  0.82233500  0.37383800  1
  Rb  Rb1  1  0.46550500  0.17766500  0.12616200  1
  Rb  Rb2  1  0.03449500  0.17766500  0.62616200  1
  Rb  Rb3  1  0.53449500  0.82233500  0.87383800  1
  Rb  Rb4  1  0.87317100  0.00140100  0.92816000  1
  Rb  Rb5  1  0.37317100  0.99859900  0.57184000  1
  Rb  Rb6  1  0.12682900  0.99859900  0.07184000  1
  Rb  Rb7  1  0.62682900  0.00140100  0.42816000  1
  Rb  Rb8  1  0.17777100  0.62163900  0.48596900  1
  Rb  Rb9  1  0.67777100  0.37836100  0.01403100  1
  Rb  Rb10  1  0.82222900  0.37836100  0.51403100  1
  Rb  Rb11  1  0.32222900  0.62163900  0.98596900  1
  P  P12  1  0.08476900  0.47682500  0.16689300  1
  P  P13  1  0.58476900  0.52317500  0.33310700  1
  P  P14  1  0.91523100  0.52317500  0.83310700  1
  P  P15  1  0.41523100  0.47682500  0.66689300  1
  P  P16  1  0.11036600  0.51106200  0.91913100  1
  P  P17  1  0.61036600  0.48893800  0.58086900  1
  P  P18  1  0.88963400  0.48893800  0.08086900  1
  P  P19  1  0.38963400  0.51106200  0.41913100  1
  P  P20  1  0.02186000  0.67903700  0.79559600  1
  P  P21  1  0.52186000  0.32096300  0.70440400  1
  P  P22  1  0.97814000  0.32096300  0.20440400  1
  P  P23  1  0.47814000  0.67903700  0.29559600  1
  O  O24  1  0.13912800  0.34538800  0.23001100  1
  O  O25  1  0.63912800  0.65461200  0.26998900  1
  O  O26  1  0.86087200  0.65461200  0.76998900  1
  O  O27  1  0.36087200  0.34538800  0.73001100  1
  O  O28  1  0.07784600  0.65897700  0.22007800  1
  O  O29  1  0.57784600  0.34102300  0.27992200  1
  O  O30  1  0.92215400  0.34102300  0.77992200  1
  O  O31  1  0.42215400  0.65897700  0.72007800  1
  O  O32  1  0.17331000  0.63468800  0.90652900  1
  O  O33  1  0.67331000  0.36531200  0.59347100  1
  O  O34  1  0.82669000  0.36531200  0.09347100  1
  O  O35  1  0.32669000  0.63468800  0.40652900  1
  O  O36  1  0.11045200  0.32903100  0.86560400  1
  O  O37  1  0.61045200  0.67096900  0.63439600  1
  O  O38  1  0.88954800  0.67096900  0.13439600  1
  O  O39  1  0.38954800  0.32903100  0.36560400  1
  O  O40  1  0.01626400  0.85922300  0.85236800  1
  O  O41  1  0.51626400  0.14077700  0.64763200  1
  O  O42  1  0.98373600  0.14077700  0.14763200  1
  O  O43  1  0.48373600  0.85922300  0.35236800  1
  O  O44  1  0.03869800  0.65773400  0.63727500  1
  O  O45  1  0.53869800  0.34226600  0.86272500  1
  O  O46  1  0.96130200  0.34226600  0.36272500  1
  O  O47  1  0.46130200  0.65773400  0.13727500  1
  O  O48  1  0.78795300  0.83514200  0.34823800  1
  O  O49  1  0.28795300  0.16485800  0.15176200  1
  O  O50  1  0.21204700  0.16485800  0.65176200  1
  O  O51  1  0.71204700  0.83514200  0.84823800  1
  O  O52  1  0.88121900  0.03349800  0.57164500  1
  O  O53  1  0.38121900  0.96650200  0.92835500  1
  O  O54  1  0.11878100  0.96650200  0.42835500  1
  O  O55  1  0.61878100  0.03349800  0.07164500  1
  O  O56  1  0.20832900  0.00103400  0.63625200  1
  O  O57  1  0.70832900  0.99896600  0.86374800  1
  O  O58  1  0.79167100  0.99896600  0.36374800  1
  O  O59  1  0.29167100  0.00103400  0.13625200  1
