# generated using pymatgen
data_UCl5
_symmetry_space_group_name_H-M   'P 1'
_cell_length_a   11.21773200
_cell_length_b   8.43125300
_cell_length_c   12.13970626
_cell_angle_alpha   47.05144259
_cell_angle_beta   90.00000000
_cell_angle_gamma   90.00000000
_symmetry_Int_Tables_number   1
_chemical_formula_structural   UCl5
_chemical_formula_sum   'U4 Cl20'
_cell_volume   840.41948052
_cell_formula_units_Z   4
loop_
 _symmetry_equiv_pos_site_id
 _symmetry_equiv_pos_as_xyz
  1  'x, y, z'
loop_
 _atom_site_type_symbol
 _atom_site_label
 _atom_site_symmetry_multiplicity
 _atom_site_fract_x
 _atom_site_fract_y
 _atom_site_fract_z
 _atom_site_occupancy
  U  U0  1  0.63446400  0.21236200  0.33857000  1
  U  U1  1  0.13446400  0.78763800  0.16143000  1
  U  U2  1  0.36553600  0.78763800  0.66143000  1
  U  U3  1  0.86553600  0.21236200  0.83857000  1
  Cl  Cl4  1  0.89268800  0.83103300  0.13066300  1
  Cl  Cl5  1  0.62723400  0.56148200  0.07339900  1
  Cl  Cl6  1  0.35541500  0.80774200  0.14625300  1
  Cl  Cl7  1  0.60731200  0.83103300  0.63066300  1
  Cl  Cl8  1  0.12741600  0.59645200  0.07300700  1
  Cl  Cl9  1  0.37150000  0.99440400  0.73903600  1
  Cl  Cl10  1  0.62741600  0.40354800  0.42699300  1
  Cl  Cl11  1  0.62850000  0.00559600  0.26096400  1
  Cl  Cl12  1  0.87276600  0.56148200  0.57339900  1
  Cl  Cl13  1  0.64458500  0.19225800  0.85374700  1
  Cl  Cl14  1  0.10731200  0.16896700  0.86933700  1
  Cl  Cl15  1  0.37276600  0.43851800  0.92660100  1
  Cl  Cl16  1  0.85541500  0.19225800  0.35374700  1
  Cl  Cl17  1  0.12850000  0.99440400  0.23903600  1
  Cl  Cl18  1  0.12723400  0.43851800  0.42660100  1
  Cl  Cl19  1  0.87150000  0.00559600  0.76096400  1
  Cl  Cl20  1  0.39268800  0.16896700  0.36933700  1
  Cl  Cl21  1  0.87258400  0.40354800  0.92699300  1
  Cl  Cl22  1  0.37258400  0.59645200  0.57300700  1
  Cl  Cl23  1  0.14458500  0.80774200  0.64625300  1
