# generated using pymatgen
data_CuTe4H12C4N
_symmetry_space_group_name_H-M   'P 1'
_cell_length_a   11.34348100
_cell_length_b   9.74199400
_cell_length_c   12.00951390
_cell_angle_alpha   76.83124231
_cell_angle_beta   90.00000000
_cell_angle_gamma   90.00000000
_symmetry_Int_Tables_number   1
_chemical_formula_structural   CuTe4H12C4N
_chemical_formula_sum   'Cu4 Te16 H48 C16 N4'
_cell_volume   1292.24917929
_cell_formula_units_Z   4
loop_
 _symmetry_equiv_pos_site_id
 _symmetry_equiv_pos_as_xyz
  1  'x, y, z'
loop_
 _atom_site_type_symbol
 _atom_site_label
 _atom_site_symmetry_multiplicity
 _atom_site_fract_x
 _atom_site_fract_y
 _atom_site_fract_z
 _atom_site_occupancy
  Cu  Cu0  1  0.96673500  0.53006700  0.88935800  1
  Cu  Cu1  1  0.53326500  0.53006700  0.38935800  1
  Cu  Cu2  1  0.46673500  0.46993300  0.61064200  1
  Cu  Cu3  1  0.03326500  0.46993300  0.11064200  1
  Te  Te4  1  0.93255900  0.36798700  0.30590500  1
  Te  Te5  1  0.95171000  0.71745000  0.01625800  1
  Te  Te6  1  0.06744100  0.63201300  0.69409500  1
  Te  Te7  1  0.45171000  0.28255000  0.48374200  1
  Te  Te8  1  0.56744100  0.36798700  0.80590500  1
  Te  Te9  1  0.71528800  0.66953400  0.08988700  1
  Te  Te10  1  0.04829000  0.28255000  0.98374200  1
  Te  Te11  1  0.76102000  0.57162400  0.33225200  1
  Te  Te12  1  0.28471200  0.33046600  0.91011300  1
  Te  Te13  1  0.73898000  0.57162400  0.83225200  1
  Te  Te14  1  0.78471200  0.66953400  0.58988700  1
  Te  Te15  1  0.23898000  0.42837600  0.66774800  1
  Te  Te16  1  0.54829000  0.71745000  0.51625800  1
  Te  Te17  1  0.21528800  0.33046600  0.41011300  1
  Te  Te18  1  0.43255900  0.63201300  0.19409500  1
  Te  Te19  1  0.26102000  0.42837600  0.16774800  1
  H  H20  1  0.81140000  0.94682400  0.79623800  1
  H  H21  1  0.03956200  0.70766400  0.27342300  1
  H  H22  1  0.75090700  0.00543800  0.59630100  1
  H  H23  1  0.54392500  0.92712200  0.79818900  1
  H  H24  1  0.31236400  0.83317700  0.37981400  1
  H  H25  1  0.20756100  0.82573400  0.49317700  1
  H  H26  1  0.74909300  0.00543800  0.09630100  1
  H  H27  1  0.45600700  0.05017000  0.85384800  1
  H  H28  1  0.45607500  0.07287800  0.20181100  1
  H  H29  1  0.53956200  0.29233600  0.22657700  1
  H  H30  1  0.49959600  0.88326900  0.94526400  1
  H  H31  1  0.95600700  0.94983000  0.64615200  1
  H  H32  1  0.18860000  0.05317600  0.20376200  1
  H  H33  1  0.90124400  0.06775800  0.85153800  1
  H  H34  1  0.40124400  0.93224200  0.64846200  1
  H  H35  1  0.18763600  0.83317700  0.87981400  1
  H  H36  1  0.19165700  0.66833600  0.30920500  1
  H  H37  1  0.96043800  0.29233600  0.72657700  1
  H  H38  1  0.25090700  0.99456200  0.90369900  1
  H  H39  1  0.70756100  0.17426600  0.00682300  1
  H  H40  1  0.81236400  0.16682300  0.12018600  1
  H  H41  1  0.91448600  0.33304800  0.57894300  1
  H  H42  1  0.08551400  0.66695200  0.42105700  1
  H  H43  1  0.24992600  0.88794200  0.68551700  1
  H  H44  1  0.29243900  0.82573400  0.99317700  1
  H  H45  1  0.46043800  0.70766400  0.77342300  1
  H  H46  1  0.79243900  0.17426600  0.50682300  1
  H  H47  1  0.99959600  0.11673100  0.55473600  1
  H  H48  1  0.30834300  0.66833600  0.80920500  1
  H  H49  1  0.59875600  0.06775800  0.35153800  1
  H  H50  1  0.31140000  0.05317600  0.70376200  1
  H  H51  1  0.04399300  0.05017000  0.35384800  1
  H  H52  1  0.50040400  0.11673100  0.05473600  1
  H  H53  1  0.74992600  0.11205800  0.81448300  1
  H  H54  1  0.58551400  0.33304800  0.07894300  1
  H  H55  1  0.75007400  0.11205800  0.31448300  1
  H  H56  1  0.25007400  0.88794200  0.18551700  1
  H  H57  1  0.69165700  0.33166400  0.19079500  1
  H  H58  1  0.09875600  0.93224200  0.14846200  1
  H  H59  1  0.80834300  0.33166400  0.69079500  1
  H  H60  1  0.00040400  0.88326900  0.44526400  1
  H  H61  1  0.95607500  0.92712200  0.29818900  1
  H  H62  1  0.68763600  0.16682300  0.62018600  1
  H  H63  1  0.41448600  0.66695200  0.92105700  1
  H  H64  1  0.04392500  0.07287800  0.70181100  1
  H  H65  1  0.54399300  0.94983000  0.14615200  1
  H  H66  1  0.68860000  0.94682400  0.29623800  1
  H  H67  1  0.24909300  0.99456200  0.40369900  1
  C  C68  1  0.47403500  0.93831600  0.85846500  1
  C  C69  1  0.26633700  0.88241900  0.90689000  1
  C  C70  1  0.67096300  0.05838500  0.29303400  1
  C  C71  1  0.11090200  0.71659400  0.33295700  1
  C  C72  1  0.61090200  0.28340600  0.16704300  1
  C  C73  1  0.02596500  0.93831600  0.35846500  1
  C  C74  1  0.76633700  0.11758100  0.59311000  1
  C  C75  1  0.82903700  0.05838500  0.79303400  1
  C  C76  1  0.23366300  0.88241900  0.40689000  1
  C  C77  1  0.73366300  0.11758100  0.09311000  1
  C  C78  1  0.97403500  0.06168400  0.64153500  1
  C  C79  1  0.88909800  0.28340600  0.66704300  1
  C  C80  1  0.32903700  0.94161500  0.70696600  1
  C  C81  1  0.17096300  0.94161500  0.20696600  1
  C  C82  1  0.52596500  0.06168400  0.14153500  1
  C  C83  1  0.38909800  0.71659400  0.83295700  1
  N  N84  1  0.86483500  0.12990100  0.67373500  1
  N  N85  1  0.13516500  0.87009900  0.32626500  1
  N  N86  1  0.36483500  0.87009900  0.82626500  1
  N  N87  1  0.63516500  0.12990100  0.17373500  1
