# generated using pymatgen
data_RbCr(SO10)2
_symmetry_space_group_name_H-M   'P 1'
_cell_length_a   11.71405700
_cell_length_b   11.71405700
_cell_length_c   11.71405700
_cell_angle_alpha   90.00000000
_cell_angle_beta   90.00000000
_cell_angle_gamma   90.00000000
_symmetry_Int_Tables_number   1
_chemical_formula_structural   RbCr(SO10)2
_chemical_formula_sum   'Rb4 Cr4 S8 O80'
_cell_volume   1607.39272670
_cell_formula_units_Z   4
loop_
 _symmetry_equiv_pos_site_id
 _symmetry_equiv_pos_as_xyz
  1  'x, y, z'
loop_
 _atom_site_type_symbol
 _atom_site_label
 _atom_site_symmetry_multiplicity
 _atom_site_fract_x
 _atom_site_fract_y
 _atom_site_fract_z
 _atom_site_occupancy
  Rb  Rb0  1  0.50000000  0.00000000  0.00000000  1
  Rb  Rb1  1  0.50000000  0.50000000  0.50000000  1
  Rb  Rb2  1  0.00000000  0.00000000  0.50000000  1
  Rb  Rb3  1  0.00000000  0.50000000  0.00000000  1
  Cr  Cr4  1  0.50000000  0.50000000  0.00000000  1
  Cr  Cr5  1  0.50000000  0.00000000  0.50000000  1
  Cr  Cr6  1  0.00000000  0.50000000  0.50000000  1
  Cr  Cr7  1  0.00000000  0.00000000  0.00000000  1
  S  S8  1  0.19633600  0.80366400  0.30366400  1
  S  S9  1  0.80366400  0.30366400  0.19633600  1
  S  S10  1  0.30366400  0.19633600  0.80366400  1
  S  S11  1  0.69633600  0.69633600  0.69633600  1
  S  S12  1  0.80366400  0.19633600  0.69633600  1
  S  S13  1  0.19633600  0.69633600  0.80366400  1
  S  S14  1  0.69633600  0.80366400  0.19633600  1
  S  S15  1  0.30366400  0.30366400  0.30366400  1
  O  O16  1  0.26773200  0.73226800  0.23226800  1
  O  O17  1  0.73226800  0.23226800  0.26773200  1
  O  O18  1  0.23226800  0.26773200  0.73226800  1
  O  O19  1  0.76773200  0.76773200  0.76773200  1
  O  O20  1  0.73226800  0.26773200  0.76773200  1
  O  O21  1  0.26773200  0.76773200  0.73226800  1
  O  O22  1  0.76773200  0.73226800  0.26773200  1
  O  O23  1  0.23226800  0.23226800  0.23226800  1
  O  O24  1  0.57535500  0.81279800  0.23837600  1
  O  O25  1  0.42464500  0.31279800  0.26162400  1
  O  O26  1  0.92464500  0.18720200  0.73837600  1
  O  O27  1  0.07535500  0.68720200  0.76162400  1
  O  O28  1  0.23837600  0.57535500  0.81279800  1
  O  O29  1  0.26162400  0.42464500  0.31279800  1
  O  O30  1  0.73837600  0.92464500  0.18720200  1
  O  O31  1  0.76162400  0.07535500  0.68720200  1
  O  O32  1  0.81279800  0.23837600  0.57535500  1
  O  O33  1  0.31279800  0.26162400  0.42464500  1
  O  O34  1  0.18720200  0.73837600  0.92464500  1
  O  O35  1  0.68720200  0.76162400  0.07535500  1
  O  O36  1  0.42464500  0.18720200  0.76162400  1
  O  O37  1  0.57535500  0.68720200  0.73837600  1
  O  O38  1  0.07535500  0.81279800  0.26162400  1
  O  O39  1  0.92464500  0.31279800  0.23837600  1
  O  O40  1  0.76162400  0.42464500  0.18720200  1
  O  O41  1  0.73837600  0.57535500  0.68720200  1
  O  O42  1  0.26162400  0.07535500  0.81279800  1
  O  O43  1  0.23837600  0.92464500  0.31279800  1
  O  O44  1  0.18720200  0.76162400  0.42464500  1
  O  O45  1  0.68720200  0.73837600  0.57535500  1
  O  O46  1  0.81279800  0.26162400  0.07535500  1
  O  O47  1  0.31279800  0.23837600  0.92464500  1
  O  O48  1  0.47560800  0.67561500  0.97999100  1
  O  O49  1  0.52439200  0.17561500  0.52000900  1
  O  O50  1  0.02439200  0.32438500  0.47999100  1
  O  O51  1  0.97560800  0.82438500  0.02000900  1
  O  O52  1  0.97999100  0.47560800  0.67561500  1
  O  O53  1  0.52000900  0.52439200  0.17561500  1
  O  O54  1  0.47999100  0.02439200  0.32438500  1
  O  O55  1  0.02000900  0.97560800  0.82438500  1
  O  O56  1  0.67561500  0.97999100  0.47560800  1
  O  O57  1  0.17561500  0.52000900  0.52439200  1
  O  O58  1  0.32438500  0.47999100  0.02439200  1
  O  O59  1  0.82438500  0.02000900  0.97560800  1
  O  O60  1  0.52439200  0.32438500  0.02000900  1
  O  O61  1  0.47560800  0.82438500  0.47999100  1
  O  O62  1  0.97560800  0.67561500  0.52000900  1
  O  O63  1  0.02439200  0.17561500  0.97999100  1
  O  O64  1  0.02000900  0.52439200  0.32438500  1
  O  O65  1  0.47999100  0.47560800  0.82438500  1
  O  O66  1  0.52000900  0.97560800  0.67561500  1
  O  O67  1  0.97999100  0.02439200  0.17561500  1
  O  O68  1  0.32438500  0.02000900  0.52439200  1
  O  O69  1  0.82438500  0.47999100  0.47560800  1
  O  O70  1  0.67561500  0.52000900  0.97560800  1
  O  O71  1  0.17561500  0.97999100  0.02439200  1
  O  O72  1  0.25876700  0.52152200  0.09760600  1
  O  O73  1  0.74123200  0.02152200  0.40239400  1
  O  O74  1  0.24123300  0.47847800  0.59760600  1
  O  O75  1  0.75876800  0.97847800  0.90239400  1
  O  O76  1  0.09760600  0.25876700  0.52152200  1
  O  O77  1  0.40239400  0.74123200  0.02152200  1
  O  O78  1  0.59760600  0.24123300  0.47847800  1
  O  O79  1  0.90239400  0.75876800  0.97847800  1
  O  O80  1  0.52152200  0.09760600  0.25876700  1
  O  O81  1  0.02152200  0.40239400  0.74123200  1
  O  O82  1  0.47847800  0.59760600  0.24123300  1
  O  O83  1  0.97847800  0.90239400  0.75876800  1
  O  O84  1  0.74123200  0.47847800  0.90239400  1
  O  O85  1  0.25876700  0.97847800  0.59760600  1
  O  O86  1  0.75876800  0.52152200  0.40239400  1
  O  O87  1  0.24123300  0.02152200  0.09760600  1
  O  O88  1  0.90239400  0.74123200  0.47847800  1
  O  O89  1  0.59760600  0.25876700  0.97847800  1
  O  O90  1  0.40239400  0.75876800  0.52152200  1
  O  O91  1  0.09760600  0.24123300  0.02152200  1
  O  O92  1  0.47847800  0.90239400  0.74123200  1
  O  O93  1  0.97847800  0.59760600  0.25876700  1
  O  O94  1  0.52152200  0.40239400  0.75876800  1
  O  O95  1  0.02152200  0.09760600  0.24123300  1
