# generated using pymatgen
data_CdBiSe2I
_symmetry_space_group_name_H-M   'P 1'
_cell_length_a   7.28324275
_cell_length_b   7.28324275
_cell_length_c   10.37369797
_cell_angle_alpha   88.36623402
_cell_angle_beta   88.36623402
_cell_angle_gamma   33.90460256
_symmetry_Int_Tables_number   1
_chemical_formula_structural   CdBiSe2I
_chemical_formula_sum   'Cd2 Bi2 Se4 I2'
_cell_volume   306.81589504
_cell_formula_units_Z   2
loop_
 _symmetry_equiv_pos_site_id
 _symmetry_equiv_pos_as_xyz
  1  'x, y, z'
loop_
 _atom_site_type_symbol
 _atom_site_label
 _atom_site_symmetry_multiplicity
 _atom_site_fract_x
 _atom_site_fract_y
 _atom_site_fract_z
 _atom_site_occupancy
  Cd  Cd0  1  0.00000000  0.00000000  0.50000000  1
  Cd  Cd1  1  0.00000000  0.00000000  0.00000000  1
  Bi  Bi2  1  0.71439600  0.71439600  0.68446600  1
  Bi  Bi3  1  0.28560400  0.28560400  0.31553400  1
  Se  Se4  1  0.64300700  0.64300700  0.44162500  1
  Se  Se5  1  0.35699300  0.35699300  0.55837500  1
  Se  Se6  1  0.08056600  0.08056600  0.74023600  1
  Se  Se7  1  0.91943400  0.91943400  0.25976400  1
  I  I8  1  0.36159800  0.36159800  0.92443300  1
  I  I9  1  0.63840200  0.63840200  0.07556700  1
