# generated using pymatgen
data_NaC64
_symmetry_space_group_name_H-M   'P 1'
_cell_length_a   4.93741627
_cell_length_b   4.93741627
_cell_length_c   67.30314200
_cell_angle_alpha   90.00000000
_cell_angle_beta   90.00000000
_cell_angle_gamma   120.00000365
_symmetry_Int_Tables_number   1
_chemical_formula_structural   NaC64
_chemical_formula_sum   'Na2 C128'
_cell_volume   1420.90631119
_cell_formula_units_Z   2
loop_
 _symmetry_equiv_pos_site_id
 _symmetry_equiv_pos_as_xyz
  1  'x, y, z'
loop_
 _atom_site_type_symbol
 _atom_site_label
 _atom_site_symmetry_multiplicity
 _atom_site_fract_x
 _atom_site_fract_y
 _atom_site_fract_z
 _atom_site_occupancy
  Na  Na0  1  0.33333300  0.66666700  0.25000000  1
  Na  Na1  1  0.66666700  0.33333300  0.75000000  1
  C  C2  1  0.83337100  0.16662900  0.47135000  1
  C  C3  1  0.33333300  0.16666600  0.58575700  1
  C  C4  1  0.33325800  0.16662900  0.47135000  1
  C  C5  1  0.16662900  0.83337100  0.97135000  1
  C  C6  1  0.16655200  0.83344800  0.29819200  1
  C  C7  1  0.50007700  0.00015500  0.29819400  1
  C  C8  1  0.49998100  0.99996300  0.91424300  1
  C  C9  1  0.00000000  0.00000000  0.70176000  1
  C  C10  1  0.16663200  0.33326400  0.85692600  1
  C  C11  1  0.66666700  0.33333300  0.52865000  1
  C  C12  1  0.16663200  0.83336800  0.64307400  1
  C  C13  1  0.83333400  0.66666700  0.91424300  1
  C  C14  1  0.83344800  0.66689500  0.79819200  1
  C  C15  1  0.33310500  0.16655200  0.70180800  1
  C  C16  1  0.66674200  0.83337100  0.52865000  1
  C  C17  1  0.00015500  0.50007700  0.79819400  1
  C  C18  1  0.33325800  0.16662900  0.02865000  1
  C  C19  1  0.99994700  0.49997400  0.52865300  1
  C  C20  1  0.83333400  0.16666600  0.58575700  1
  C  C21  1  0.66666700  0.33333300  0.20176600  1
  C  C22  1  0.83333400  0.16666600  0.91424300  1
  C  C23  1  0.50003600  0.49996400  0.85692700  1
  C  C24  1  0.00000000  0.00000000  0.08575700  1
  C  C25  1  0.50002600  0.00005300  0.52865300  1
  C  C26  1  0.00000000  0.00000000  0.20176000  1
  C  C27  1  0.50001900  0.49998100  0.08575700  1
  C  C28  1  0.49996400  0.99992900  0.35692700  1
  C  C29  1  0.99992900  0.49996400  0.85692700  1
  C  C30  1  0.99992900  0.49996400  0.64307300  1
  C  C31  1  0.50007700  0.49992300  0.29819400  1
  C  C32  1  0.66666700  0.33333300  0.41424300  1
  C  C33  1  0.99984500  0.49992300  0.20180600  1
  C  C34  1  0.50002600  0.00005300  0.97134700  1
  C  C35  1  0.50002600  0.49997400  0.52865300  1
  C  C36  1  0.83336800  0.16663200  0.35692600  1
  C  C37  1  0.49992300  0.99984500  0.70180600  1
  C  C38  1  0.16666600  0.33333300  0.08575700  1
  C  C39  1  0.49992300  0.99984500  0.79819400  1
  C  C40  1  0.50003600  0.49996400  0.64307300  1
  C  C41  1  0.33326400  0.16663200  0.35692600  1
  C  C42  1  0.49998100  0.99996300  0.58575700  1
  C  C43  1  0.66674200  0.83337100  0.97135000  1
  C  C44  1  0.16655200  0.33310500  0.20180800  1
  C  C45  1  0.49992300  0.50007700  0.79819400  1
  C  C46  1  0.49997400  0.99994700  0.47134700  1
  C  C47  1  0.99994700  0.49997400  0.97134700  1
  C  C48  1  0.83337100  0.66674200  0.47135000  1
  C  C49  1  0.66689500  0.83344800  0.29819200  1
  C  C50  1  0.83336800  0.66673600  0.14307400  1
  C  C51  1  0.66666700  0.83333400  0.41424300  1
  C  C52  1  0.00000000  0.00000000  0.29824000  1
  C  C53  1  0.33310500  0.16655200  0.79819200  1
  C  C54  1  0.83344800  0.66689500  0.70180800  1
  C  C55  1  0.00005300  0.50002600  0.47134700  1
  C  C56  1  0.66666700  0.33333300  0.29823400  1
  C  C57  1  0.16663200  0.83336800  0.85692600  1
  C  C58  1  0.66666700  0.33333300  0.97135000  1
  C  C59  1  0.16663200  0.33326400  0.64307400  1
  C  C60  1  0.49997400  0.50002600  0.02865300  1
  C  C61  1  0.50003600  0.00007100  0.85692700  1
  C  C62  1  0.00000000  0.00000000  0.85692700  1
  C  C63  1  0.83333400  0.66666700  0.58575700  1
  C  C64  1  0.16662900  0.83337100  0.52865000  1
  C  C65  1  0.83337100  0.66674200  0.02865000  1
  C  C66  1  0.00000000  0.00000000  0.35692700  1
  C  C67  1  0.33333300  0.16666600  0.91424300  1
  C  C68  1  0.99996300  0.49998100  0.41424300  1
  C  C69  1  0.16666600  0.83333400  0.08575700  1
  C  C70  1  0.50003600  0.00007100  0.64307300  1
  C  C71  1  0.50001900  0.49998100  0.41424300  1
  C  C72  1  0.00000000  0.00000000  0.79824000  1
  C  C73  1  0.00003700  0.50001900  0.58575700  1
  C  C74  1  0.16655200  0.83344800  0.20180800  1
  C  C75  1  0.83344800  0.16655200  0.70180800  1
  C  C76  1  0.33333300  0.66666700  0.47135000  1
  C  C77  1  0.66666700  0.83333400  0.08575700  1
  C  C78  1  0.83344800  0.16655200  0.79819200  1
  C  C79  1  0.16666600  0.83333400  0.41424300  1
  C  C80  1  0.33333300  0.66666700  0.70176600  1
  C  C81  1  0.00007100  0.50003600  0.14307300  1
  C  C82  1  0.00003700  0.50001900  0.91424300  1
  C  C83  1  0.00000000  0.00000000  0.91424300  1
  C  C84  1  0.50001900  0.00003700  0.08575700  1
  C  C85  1  0.83336800  0.66673600  0.35692600  1
  C  C86  1  0.16662900  0.33325800  0.97135000  1
  C  C87  1  0.66666700  0.33333300  0.64307500  1
  C  C88  1  0.33326400  0.16663200  0.14307400  1
  C  C89  1  0.00000000  0.00000000  0.52865300  1
  C  C90  1  0.33333300  0.66666700  0.14307500  1
  C  C91  1  0.49996400  0.99992900  0.14307300  1
  C  C92  1  0.66673600  0.83336800  0.64307400  1
  C  C93  1  0.16655200  0.33310500  0.29819200  1
  C  C94  1  0.00007100  0.50003600  0.35692700  1
  C  C95  1  0.33333300  0.66666700  0.58575700  1
  C  C96  1  0.49996400  0.50003600  0.35692700  1
  C  C97  1  0.49997400  0.99994700  0.02865300  1
  C  C98  1  0.33333300  0.66666700  0.91424300  1
  C  C99  1  0.83336800  0.16663200  0.14307400  1
  C  C100  1  0.66673600  0.83336800  0.85692600  1
  C  C101  1  0.50007700  0.49992300  0.20180600  1
  C  C102  1  0.00000000  0.00000000  0.41424300  1
  C  C103  1  0.50001900  0.00003700  0.41424300  1
  C  C104  1  0.00000000  0.00000000  0.97134700  1
  C  C105  1  0.50002600  0.49997400  0.97134700  1
  C  C106  1  0.49996400  0.50003600  0.14307300  1
  C  C107  1  0.66666700  0.33333300  0.85692500  1
  C  C108  1  0.00000000  0.00000000  0.64307300  1
  C  C109  1  0.49998100  0.50001900  0.58575700  1
  C  C110  1  0.49998100  0.50001900  0.91424300  1
  C  C111  1  0.99984500  0.49992300  0.29819400  1
  C  C112  1  0.00000000  0.00000000  0.14307300  1
  C  C113  1  0.33333300  0.66666700  0.35692500  1
  C  C114  1  0.00015500  0.50007700  0.70180600  1
  C  C115  1  0.00000000  0.00000000  0.58575700  1
  C  C116  1  0.00000000  0.00000000  0.47134700  1
  C  C117  1  0.33333300  0.66666700  0.79823400  1
  C  C118  1  0.16662900  0.33325800  0.52865000  1
  C  C119  1  0.16666600  0.33333300  0.41424300  1
  C  C120  1  0.99996300  0.49998100  0.08575700  1
  C  C121  1  0.49997400  0.50002600  0.47134700  1
  C  C122  1  0.00005300  0.50002600  0.02865300  1
  C  C123  1  0.83337100  0.16662900  0.02865000  1
  C  C124  1  0.66666700  0.33333300  0.08575700  1
  C  C125  1  0.33333300  0.66666700  0.02865000  1
  C  C126  1  0.49992300  0.50007700  0.70180600  1
  C  C127  1  0.66689500  0.83344800  0.20180800  1
  C  C128  1  0.00000000  0.00000000  0.02865300  1
  C  C129  1  0.50007700  0.00015500  0.20180600  1
