# generated using pymatgen
data_PN2O4F
_symmetry_space_group_name_H-M   'P 1'
_cell_length_a   8.94632000
_cell_length_b   6.69783900
_cell_length_c   10.83304112
_cell_angle_alpha   75.98392933
_cell_angle_beta   90.00000000
_cell_angle_gamma   90.00000000
_symmetry_Int_Tables_number   1
_chemical_formula_structural   PN2O4F
_chemical_formula_sum   'P4 N8 O16 F4'
_cell_volume   629.80086472
_cell_formula_units_Z   4
loop_
 _symmetry_equiv_pos_site_id
 _symmetry_equiv_pos_as_xyz
  1  'x, y, z'
loop_
 _atom_site_type_symbol
 _atom_site_label
 _atom_site_symmetry_multiplicity
 _atom_site_fract_x
 _atom_site_fract_y
 _atom_site_fract_z
 _atom_site_occupancy
  P  P0  1  0.94318500  0.17468100  0.66398600  1
  P  P1  1  0.44318500  0.82531900  0.83601400  1
  P  P2  1  0.05681500  0.82531900  0.33601400  1
  P  P3  1  0.55681500  0.17468100  0.16398600  1
  N  N4  1  0.67587900  0.32620900  0.90433600  1
  N  N5  1  0.17587900  0.67379100  0.59566400  1
  N  N6  1  0.32412100  0.67379100  0.09566400  1
  N  N7  1  0.82412100  0.32620900  0.40433600  1
  N  N8  1  0.62486500  0.72273900  0.57568900  1
  N  N9  1  0.12486500  0.27726100  0.92431100  1
  N  N10  1  0.37513500  0.27726100  0.42431100  1
  N  N11  1  0.87513500  0.72273900  0.07568900  1
  O  O12  1  0.94151000  0.33020700  0.73985000  1
  O  O13  1  0.44151000  0.66979300  0.76015000  1
  O  O14  1  0.05849000  0.66979300  0.26015000  1
  O  O15  1  0.55849000  0.33020700  0.23985000  1
  O  O16  1  0.79055600  0.31649200  0.51212400  1
  O  O17  1  0.29055600  0.68350800  0.98787600  1
  O  O18  1  0.20944400  0.68350800  0.48787600  1
  O  O19  1  0.70944400  0.31649200  0.01212400  1
  O  O20  1  0.88883000  0.96121700  0.69217900  1
  O  O21  1  0.38883000  0.03878300  0.80782100  1
  O  O22  1  0.11117000  0.03878300  0.30782100  1
  O  O23  1  0.61117000  0.96121700  0.19217900  1
  O  O24  1  0.94389400  0.81035700  0.98980000  1
  O  O25  1  0.44389400  0.18964300  0.51020000  1
  O  O26  1  0.05610600  0.18964300  0.01020000  1
  O  O27  1  0.55610600  0.81035700  0.48980000  1
  F  F28  1  0.57898000  0.78790000  0.93233300  1
  F  F29  1  0.07898000  0.21210000  0.56766700  1
  F  F30  1  0.42102000  0.21210000  0.06766700  1
  F  F31  1  0.92102000  0.78790000  0.43233300  1
