# generated using pymatgen
data_LaFe5H7
_symmetry_space_group_name_H-M   'P 1'
_cell_length_a   5.63714854
_cell_length_b   5.63714854
_cell_length_c   8.29588300
_cell_angle_alpha   90.00000000
_cell_angle_beta   90.00000000
_cell_angle_gamma   120.00000637
_symmetry_Int_Tables_number   1
_chemical_formula_structural   LaFe5H7
_chemical_formula_sum   'La2 Fe10 H14'
_cell_volume   228.30329532
_cell_formula_units_Z   2
loop_
 _symmetry_equiv_pos_site_id
 _symmetry_equiv_pos_as_xyz
  1  'x, y, z'
loop_
 _atom_site_type_symbol
 _atom_site_label
 _atom_site_symmetry_multiplicity
 _atom_site_fract_x
 _atom_site_fract_y
 _atom_site_fract_z
 _atom_site_occupancy
  La  La0  1  0.00000000  0.00000000  0.02216300  1
  La  La1  1  0.00000000  0.00000000  0.52216300  1
  Fe  Fe2  1  0.97647000  0.48823500  0.77198300  1
  Fe  Fe3  1  0.33333300  0.66666700  0.51340400  1
  Fe  Fe4  1  0.66666700  0.33333300  0.48932300  1
  Fe  Fe5  1  0.51176500  0.48823500  0.77198300  1
  Fe  Fe6  1  0.66666700  0.33333300  0.01340400  1
  Fe  Fe7  1  0.48823500  0.97647000  0.27198300  1
  Fe  Fe8  1  0.02353000  0.51176500  0.27198300  1
  Fe  Fe9  1  0.33333300  0.66666700  0.98932300  1
  Fe  Fe10  1  0.51176500  0.02353000  0.77198300  1
  Fe  Fe11  1  0.48823500  0.51176500  0.27198300  1
  H  H12  1  0.85955300  0.71910700  0.77294700  1
  H  H13  1  0.85955300  0.14044700  0.77294700  1
  H  H14  1  0.14044700  0.85955300  0.27294700  1
  H  H15  1  0.33333300  0.66666700  0.76888500  1
  H  H16  1  0.00611900  0.50306000  0.06281200  1
  H  H17  1  0.71910700  0.85955300  0.27294700  1
  H  H18  1  0.50306000  0.00611900  0.56281200  1
  H  H19  1  0.99388100  0.49694000  0.56281200  1
  H  H20  1  0.14044700  0.28089300  0.27294700  1
  H  H21  1  0.66666700  0.33333300  0.26888500  1
  H  H22  1  0.49694000  0.50306000  0.06281200  1
  H  H23  1  0.49694000  0.99388100  0.06281200  1
  H  H24  1  0.50306000  0.49694000  0.56281200  1
  H  H25  1  0.28089300  0.14044700  0.77294700  1
