# generated using pymatgen
data_Rb2Co3S4
_symmetry_space_group_name_H-M   'P 1'
_cell_length_a   8.83904046
_cell_length_b   8.83904046
_cell_length_c   8.83904046
_cell_angle_alpha   144.56998564
_cell_angle_beta   104.75345280
_cell_angle_gamma   86.01562359
_symmetry_Int_Tables_number   1
_chemical_formula_structural   Rb2Co3S4
_chemical_formula_sum   'Rb4 Co6 S8'
_cell_volume   375.22073661
_cell_formula_units_Z   2
loop_
 _symmetry_equiv_pos_site_id
 _symmetry_equiv_pos_as_xyz
  1  'x, y, z'
loop_
 _atom_site_type_symbol
 _atom_site_label
 _atom_site_symmetry_multiplicity
 _atom_site_fract_x
 _atom_site_fract_y
 _atom_site_fract_z
 _atom_site_occupancy
  Rb  Rb0  1  0.62371500  0.25860500  0.88232100  1
  Rb  Rb1  1  0.37628500  0.74139500  0.11767900  1
  Rb  Rb2  1  0.12371500  0.24139500  0.36511000  1
  Rb  Rb3  1  0.87628500  0.75860500  0.63489000  1
  Co  Co4  1  0.75000000  0.25000000  0.50000000  1
  Co  Co5  1  0.25000000  0.75000000  0.50000000  1
  Co  Co6  1  0.00315800  0.75000000  0.25315800  1
  Co  Co7  1  0.49684200  0.75000000  0.74684200  1
  Co  Co8  1  0.99684200  0.25000000  0.74684200  1
  Co  Co9  1  0.50315800  0.25000000  0.25315800  1
  S  S10  1  0.03938600  0.41474100  0.12458300  1
  S  S11  1  0.29015700  0.91480300  0.87541700  1
  S  S12  1  0.20984300  0.08525900  0.62464600  1
  S  S13  1  0.46061400  0.58519700  0.37535400  1
  S  S14  1  0.96061400  0.58525900  0.87541700  1
  S  S15  1  0.70984300  0.08519700  0.12458300  1
  S  S16  1  0.79015700  0.91474100  0.37535400  1
  S  S17  1  0.53938600  0.41480300  0.62464600  1
