# generated using pymatgen
data_CdI2
_symmetry_space_group_name_H-M   'P 1'
_cell_length_a   4.33268141
_cell_length_b   4.33268141
_cell_length_c   51.86658300
_cell_angle_alpha   90.00000000
_cell_angle_beta   90.00000000
_cell_angle_gamma   119.99999103
_symmetry_Int_Tables_number   1
_chemical_formula_structural   CdI2
_chemical_formula_sum   'Cd7 I14'
_cell_volume   843.20237338
_cell_formula_units_Z   7
loop_
 _symmetry_equiv_pos_site_id
 _symmetry_equiv_pos_as_xyz
  1  'x, y, z'
loop_
 _atom_site_type_symbol
 _atom_site_label
 _atom_site_symmetry_multiplicity
 _atom_site_fract_x
 _atom_site_fract_y
 _atom_site_fract_z
 _atom_site_occupancy
  Cd  Cd0  1  0.00000000  0.00000000  0.03572300  1
  Cd  Cd1  1  0.66666700  0.33333300  0.60711800  1
  Cd  Cd2  1  0.66666700  0.33333300  0.89284400  1
  Cd  Cd3  1  0.66666700  0.33333300  0.74998400  1
  Cd  Cd4  1  0.66666700  0.33333300  0.17862900  1
  Cd  Cd5  1  0.66666700  0.33333300  0.46430000  1
  Cd  Cd6  1  0.66666700  0.33333300  0.32141400  1
  I  I7  1  0.33333300  0.66666700  0.14535200  1
  I  I8  1  0.00000000  0.00000000  0.21191500  1
  I  I9  1  0.00000000  0.00000000  0.35470800  1
  I  I10  1  0.66666700  0.33333300  0.06901000  1
  I  I11  1  0.00000000  0.00000000  0.92611300  1
  I  I12  1  0.33333300  0.66666700  0.43099200  1
  I  I13  1  0.00000000  0.00000000  0.64040900  1
  I  I14  1  0.33333300  0.66666700  0.00246700  1
  I  I15  1  0.00000000  0.00000000  0.49760500  1
  I  I16  1  0.00000000  0.00000000  0.78325200  1
  I  I17  1  0.33333300  0.66666700  0.57379700  1
  I  I18  1  0.33333300  0.66666700  0.71670300  1
  I  I19  1  0.33333300  0.66666700  0.85955000  1
  I  I20  1  0.33333300  0.66666700  0.28811500  1
