# generated using pymatgen
data_Pr(ClO2)3
_symmetry_space_group_name_H-M   'P 1'
_cell_length_a   5.90272200
_cell_length_b   6.96299700
_cell_length_c   8.56384855
_cell_angle_alpha   70.02156232
_cell_angle_beta   90.00000000
_cell_angle_gamma   90.00000000
_symmetry_Int_Tables_number   1
_chemical_formula_structural   Pr(ClO2)3
_chemical_formula_sum   'Pr2 Cl6 O12'
_cell_volume   330.79793114
_cell_formula_units_Z   2
loop_
 _symmetry_equiv_pos_site_id
 _symmetry_equiv_pos_as_xyz
  1  'x, y, z'
loop_
 _atom_site_type_symbol
 _atom_site_label
 _atom_site_symmetry_multiplicity
 _atom_site_fract_x
 _atom_site_fract_y
 _atom_site_fract_z
 _atom_site_occupancy
  Pr  Pr0  1  0.12042500  0.50000000  0.25000000  1
  Pr  Pr1  1  0.87957500  0.50000000  0.75000000  1
  Cl  Cl2  1  0.62924400  0.24204000  0.50501700  1
  Cl  Cl3  1  0.37075600  0.75796000  0.49498300  1
  Cl  Cl4  1  0.62924400  0.75796000  0.99498300  1
  Cl  Cl5  1  0.37075600  0.24204000  0.00501700  1
  Cl  Cl6  1  0.13947500  0.00000000  0.75000000  1
  Cl  Cl7  1  0.86052500  0.00000000  0.25000000  1
  O  O8  1  0.01608600  0.85163200  0.19362900  1
  O  O9  1  0.98391400  0.14836800  0.80637100  1
  O  O10  1  0.01608600  0.14836800  0.30637100  1
  O  O11  1  0.98391400  0.85163200  0.69362900  1
  O  O12  1  0.45823400  0.72023700  0.14171600  1
  O  O13  1  0.54176600  0.27976300  0.85828400  1
  O  O14  1  0.45823400  0.27976300  0.35828400  1
  O  O15  1  0.54176600  0.72023700  0.64171600  1
  O  O16  1  0.19502000  0.43151700  0.97196600  1
  O  O17  1  0.80498000  0.56848300  0.02803400  1
  O  O18  1  0.19502000  0.56848300  0.52803400  1
  O  O19  1  0.80498000  0.43151700  0.47196600  1
