# generated using pymatgen
data_Sr14Al8Ge3
_symmetry_space_group_name_H-M   'P 1'
_cell_length_a   15.07449188
_cell_length_b   15.07449188
_cell_length_c   15.07449159
_cell_angle_alpha   46.93146709
_cell_angle_beta   46.93146709
_cell_angle_gamma   46.93146887
_symmetry_Int_Tables_number   1
_chemical_formula_structural   Sr14Al8Ge3
_chemical_formula_sum   'Sr28 Al16 Ge6'
_cell_volume   1670.88178306
_cell_formula_units_Z   2
loop_
 _symmetry_equiv_pos_site_id
 _symmetry_equiv_pos_as_xyz
  1  'x, y, z'
loop_
 _atom_site_type_symbol
 _atom_site_label
 _atom_site_symmetry_multiplicity
 _atom_site_fract_x
 _atom_site_fract_y
 _atom_site_fract_z
 _atom_site_occupancy
  Sr  Sr0  1  0.69389100  0.19124900  0.20499900  1
  Sr  Sr1  1  0.92675500  0.61645900  0.58694900  1
  Sr  Sr2  1  0.79399400  0.41566300  0.14655200  1
  Sr  Sr3  1  0.19124900  0.20499900  0.69389100  1
  Sr  Sr4  1  0.41305100  0.07324500  0.38354100  1
  Sr  Sr5  1  0.14655200  0.79399400  0.41566300  1
  Sr  Sr6  1  0.38354100  0.41305100  0.07324500  1
  Sr  Sr7  1  0.79500100  0.30610900  0.80875100  1
  Sr  Sr8  1  0.41566300  0.14655200  0.79399400  1
  Sr  Sr9  1  0.50732000  0.19358800  0.94594100  1
  Sr  Sr10  1  0.80641200  0.05405900  0.49268000  1
  Sr  Sr11  1  0.90944600  0.90944600  0.90944600  1
  Sr  Sr12  1  0.09055400  0.09055400  0.09055400  1
  Sr  Sr13  1  0.85344800  0.20600600  0.58433700  1
  Sr  Sr14  1  0.80875100  0.79500100  0.30610900  1
  Sr  Sr15  1  0.20600600  0.58433700  0.85344800  1
  Sr  Sr16  1  0.58433700  0.85344800  0.20600600  1
  Sr  Sr17  1  0.05405900  0.49268000  0.80641200  1
  Sr  Sr18  1  0.49268000  0.80641200  0.05405900  1
  Sr  Sr19  1  0.19358800  0.94594100  0.50732000  1
  Sr  Sr20  1  0.07324500  0.38354100  0.41305100  1
  Sr  Sr21  1  0.50000000  0.50000000  0.50000000  1
  Sr  Sr22  1  0.61645900  0.58694900  0.92675500  1
  Sr  Sr23  1  0.58694900  0.92675500  0.61645900  1
  Sr  Sr24  1  0.00000000  0.00000000  0.00000000  1
  Sr  Sr25  1  0.94594100  0.50732000  0.19358800  1
  Sr  Sr26  1  0.30610900  0.80875100  0.79500100  1
  Sr  Sr27  1  0.20499900  0.69389100  0.19124900  1
  Al  Al28  1  0.52873000  0.49197100  0.73297700  1
  Al  Al29  1  0.03097900  0.18298700  0.28938000  1
  Al  Al30  1  0.50802900  0.26702300  0.47127000  1
  Al  Al31  1  0.28938000  0.03097900  0.18298700  1
  Al  Al32  1  0.26702300  0.47127000  0.50802900  1
  Al  Al33  1  0.64044900  0.64044900  0.64044900  1
  Al  Al34  1  0.73297700  0.52873000  0.49197100  1
  Al  Al35  1  0.18298700  0.28938000  0.03097900  1
  Al  Al36  1  0.35955100  0.35955100  0.35955100  1
  Al  Al37  1  0.77655300  0.77655300  0.77655300  1
  Al  Al38  1  0.47127000  0.50802900  0.26702300  1
  Al  Al39  1  0.81701300  0.71062000  0.96902100  1
  Al  Al40  1  0.96902100  0.81701300  0.71062000  1
  Al  Al41  1  0.49197100  0.73297700  0.52873000  1
  Al  Al42  1  0.71062000  0.96902100  0.81701300  1
  Al  Al43  1  0.22344700  0.22344700  0.22344700  1
  Ge  Ge44  1  0.67039500  0.08232700  0.09580800  1
  Ge  Ge45  1  0.08232700  0.09580800  0.67039500  1
  Ge  Ge46  1  0.32960500  0.91767300  0.90419200  1
  Ge  Ge47  1  0.90419200  0.32960500  0.91767300  1
  Ge  Ge48  1  0.91767300  0.90419200  0.32960500  1
  Ge  Ge49  1  0.09580800  0.67039500  0.08232700  1
