# generated using pymatgen
data_Pb3ClO3
_symmetry_space_group_name_H-M   'P 1'
_cell_length_a   5.89801400
_cell_length_b   6.87833400
_cell_length_c   16.49947000
_cell_angle_alpha   90.00000000
_cell_angle_beta   90.00000000
_cell_angle_gamma   90.00000000
_symmetry_Int_Tables_number   1
_chemical_formula_structural   Pb3ClO3
_chemical_formula_sum   'Pb12 Cl4 O12'
_cell_volume   669.35891746
_cell_formula_units_Z   4
loop_
 _symmetry_equiv_pos_site_id
 _symmetry_equiv_pos_as_xyz
  1  'x, y, z'
loop_
 _atom_site_type_symbol
 _atom_site_label
 _atom_site_symmetry_multiplicity
 _atom_site_fract_x
 _atom_site_fract_y
 _atom_site_fract_z
 _atom_site_occupancy
  Pb  Pb0  1  0.50000000  0.31152800  0.17696800  1
  Pb  Pb1  1  0.50000000  0.68847200  0.67696800  1
  Pb  Pb2  1  0.50000000  0.81604100  0.10881000  1
  Pb  Pb3  1  0.50000000  0.18395900  0.60881000  1
  Pb  Pb4  1  0.50000000  0.52956400  0.43245700  1
  Pb  Pb5  1  0.50000000  0.47043600  0.93245700  1
  Pb  Pb6  1  0.00000000  0.52331800  0.07942400  1
  Pb  Pb7  1  0.00000000  0.47668200  0.57942400  1
  Pb  Pb8  1  0.00000000  0.70698200  0.28044100  1
  Pb  Pb9  1  0.00000000  0.29301800  0.78044100  1
  Pb  Pb10  1  0.00000000  0.83216100  0.91096000  1
  Pb  Pb11  1  0.00000000  0.16783900  0.41096000  1
  Cl  Cl12  1  0.00000000  0.15117900  0.10742400  1
  Cl  Cl13  1  0.00000000  0.84882100  0.60742400  1
  Cl  Cl14  1  0.50000000  0.06521800  0.82985300  1
  Cl  Cl15  1  0.50000000  0.93478200  0.32985300  1
  O  O16  1  0.24224600  0.30853600  0.50805000  1
  O  O17  1  0.75775400  0.30853600  0.50805000  1
  O  O18  1  0.75775400  0.69146400  0.00805000  1
  O  O19  1  0.24224600  0.69146400  0.00805000  1
  O  O20  1  0.24595700  0.58476200  0.17486000  1
  O  O21  1  0.75404300  0.58476200  0.17486000  1
  O  O22  1  0.75404300  0.41523800  0.67486000  1
  O  O23  1  0.24595700  0.41523800  0.67486000  1
  O  O24  1  0.00000000  0.46272300  0.36237500  1
  O  O25  1  0.00000000  0.53727700  0.86237500  1
  O  O26  1  0.50000000  0.31517000  0.04556800  1
  O  O27  1  0.50000000  0.68483000  0.54556800  1
