# generated using pymatgen
data_CdI2
_symmetry_space_group_name_H-M   'P 1'
_cell_length_a   4.33070068
_cell_length_b   4.33070068
_cell_length_c   59.40096400
_cell_angle_alpha   90.00000000
_cell_angle_beta   90.00000000
_cell_angle_gamma   120.00001037
_symmetry_Int_Tables_number   1
_chemical_formula_structural   CdI2
_chemical_formula_sum   'Cd8 I16'
_cell_volume   964.80693261
_cell_formula_units_Z   8
loop_
 _symmetry_equiv_pos_site_id
 _symmetry_equiv_pos_as_xyz
  1  'x, y, z'
loop_
 _atom_site_type_symbol
 _atom_site_label
 _atom_site_symmetry_multiplicity
 _atom_site_fract_x
 _atom_site_fract_y
 _atom_site_fract_z
 _atom_site_occupancy
  Cd  Cd0  1  0.00000000  0.00000000  0.78124900  1
  Cd  Cd1  1  0.00000000  0.00000000  0.40623000  1
  Cd  Cd2  1  0.00000000  0.00000000  0.90622600  1
  Cd  Cd3  1  0.66666700  0.33333300  0.03128600  1
  Cd  Cd4  1  0.00000000  0.00000000  0.15622900  1
  Cd  Cd5  1  0.00000000  0.00000000  0.65622800  1
  Cd  Cd6  1  0.66666700  0.33333300  0.28128800  1
  Cd  Cd7  1  0.00000000  0.00000000  0.53125100  1
  I  I8  1  0.33333300  0.66666700  0.81032700  1
  I  I9  1  0.33333300  0.66666700  0.56032700  1
  I  I10  1  0.66666700  0.33333300  0.12715000  1
  I  I11  1  0.00000000  0.00000000  0.25223300  1
  I  I12  1  0.33333300  0.66666700  0.06035000  1
  I  I13  1  0.66666700  0.33333300  0.87714700  1
  I  I14  1  0.33333300  0.66666700  0.43531300  1
  I  I15  1  0.66666700  0.33333300  0.75217700  1
  I  I16  1  0.33333300  0.66666700  0.18531000  1
  I  I17  1  0.66666700  0.33333300  0.50217800  1
  I  I18  1  0.66666700  0.33333300  0.62714800  1
  I  I19  1  0.33333300  0.66666700  0.31035100  1
  I  I20  1  0.33333300  0.66666700  0.93530800  1
  I  I21  1  0.66666700  0.33333300  0.37714800  1
  I  I22  1  0.00000000  0.00000000  0.00223200  1
  I  I23  1  0.33333300  0.66666700  0.68531100  1
