# generated using pymatgen
data_CdI2
_symmetry_space_group_name_H-M   'P 1'
_cell_length_a   4.33298964
_cell_length_b   4.33298964
_cell_length_c   60.15454700
_cell_angle_alpha   90.00000000
_cell_angle_beta   90.00000000
_cell_angle_gamma   119.99999452
_symmetry_Int_Tables_number   1
_chemical_formula_structural   CdI2
_chemical_formula_sum   'Cd8 I16'
_cell_volume   978.08008877
_cell_formula_units_Z   8
loop_
 _symmetry_equiv_pos_site_id
 _symmetry_equiv_pos_as_xyz
  1  'x, y, z'
loop_
 _atom_site_type_symbol
 _atom_site_label
 _atom_site_symmetry_multiplicity
 _atom_site_fract_x
 _atom_site_fract_y
 _atom_site_fract_z
 _atom_site_occupancy
  Cd  Cd0  1  0.00000000  0.00000000  0.90622300  1
  Cd  Cd1  1  0.00000000  0.00000000  0.78128900  1
  Cd  Cd2  1  0.00000000  0.00000000  0.53128100  1
  Cd  Cd3  1  0.00000000  0.00000000  0.28129000  1
  Cd  Cd4  1  0.33333300  0.66666700  0.15620400  1
  Cd  Cd5  1  0.00000000  0.00000000  0.03128000  1
  Cd  Cd6  1  0.00000000  0.00000000  0.65622400  1
  Cd  Cd7  1  0.00000000  0.00000000  0.40624000  1
  I  I8  1  0.66666700  0.33333300  0.80997300  1
  I  I9  1  0.33333300  0.66666700  0.00258400  1
  I  I10  1  0.66666700  0.33333300  0.55996500  1
  I  I11  1  0.33333300  0.66666700  0.25259300  1
  I  I12  1  0.33333300  0.66666700  0.37754600  1
  I  I13  1  0.66666700  0.33333300  0.05996200  1
  I  I14  1  0.00000000  0.00000000  0.12751700  1
  I  I15  1  0.66666700  0.33333300  0.43492300  1
  I  I16  1  0.66666700  0.33333300  0.18489200  1
  I  I17  1  0.33333300  0.66666700  0.62752500  1
  I  I18  1  0.66666700  0.33333300  0.30997400  1
  I  I19  1  0.66666700  0.33333300  0.93490700  1
  I  I20  1  0.33333300  0.66666700  0.75259200  1
  I  I21  1  0.33333300  0.66666700  0.87752500  1
  I  I22  1  0.66666700  0.33333300  0.68490800  1
  I  I23  1  0.33333300  0.66666700  0.50258500  1
