# generated using pymatgen
data_CdI2
_symmetry_space_group_name_H-M   'P 1'
_cell_length_a   4.33754821
_cell_length_b   4.33754821
_cell_length_c   88.92714800
_cell_angle_alpha   90.00000000
_cell_angle_beta   90.00000000
_cell_angle_gamma   120.00000319
_symmetry_Int_Tables_number   1
_chemical_formula_structural   CdI2
_chemical_formula_sum   'Cd12 I24'
_cell_volume   1448.95070812
_cell_formula_units_Z   12
loop_
 _symmetry_equiv_pos_site_id
 _symmetry_equiv_pos_as_xyz
  1  'x, y, z'
loop_
 _atom_site_type_symbol
 _atom_site_label
 _atom_site_symmetry_multiplicity
 _atom_site_fract_x
 _atom_site_fract_y
 _atom_site_fract_z
 _atom_site_occupancy
  Cd  Cd0  1  0.33333300  0.66666700  0.68750900  1
  Cd  Cd1  1  0.66666700  0.33333300  0.02084700  1
  Cd  Cd2  1  0.66666700  0.33333300  0.77081700  1
  Cd  Cd3  1  0.33333300  0.66666700  0.27081500  1
  Cd  Cd4  1  0.33333300  0.66666700  0.60414200  1
  Cd  Cd5  1  0.33333300  0.66666700  0.35418300  1
  Cd  Cd6  1  0.33333300  0.66666700  0.10415200  1
  Cd  Cd7  1  0.33333300  0.66666700  0.85418300  1
  Cd  Cd8  1  0.33333300  0.66666700  0.93747300  1
  Cd  Cd9  1  0.33333300  0.66666700  0.43748100  1
  Cd  Cd10  1  0.33333300  0.66666700  0.52084200  1
  Cd  Cd11  1  0.33333300  0.66666700  0.18750800  1
  I  I12  1  0.00000000  0.00000000  0.16814500  1
  I  I13  1  0.66666700  0.33333300  0.70688500  1
  I  I14  1  0.33333300  0.66666700  0.79020100  1
  I  I15  1  0.66666700  0.33333300  0.45686600  1
  I  I16  1  0.00000000  0.00000000  0.41811500  1
  I  I17  1  0.66666700  0.33333300  0.12353400  1
  I  I18  1  0.00000000  0.00000000  0.25144300  1
  I  I19  1  0.00000000  0.00000000  0.58477200  1
  I  I20  1  0.00000000  0.00000000  0.66814500  1
  I  I21  1  0.66666700  0.33333300  0.62353100  1
  I  I22  1  0.66666700  0.33333300  0.20688500  1
  I  I23  1  0.66666700  0.33333300  0.87355500  1
  I  I24  1  0.00000000  0.00000000  0.91810000  1
  I  I25  1  0.00000000  0.00000000  0.83481500  1
  I  I26  1  0.33333300  0.66666700  0.04022300  1
  I  I27  1  0.00000000  0.00000000  0.50147800  1
  I  I28  1  0.00000000  0.00000000  0.08478300  1
  I  I29  1  0.66666700  0.33333300  0.95686200  1
  I  I30  1  0.00000000  0.00000000  0.33481200  1
  I  I31  1  0.66666700  0.33333300  0.29019900  1
  I  I32  1  0.00000000  0.00000000  0.75144600  1
  I  I33  1  0.66666700  0.33333300  0.54021800  1
  I  I34  1  0.66666700  0.33333300  0.37355500  1
  I  I35  1  0.00000000  0.00000000  0.00147900  1
