# generated using pymatgen
data_MoCl5
_symmetry_space_group_name_H-M   'P 1'
_cell_length_a   12.85953056
_cell_length_b   12.85953056
_cell_length_c   6.34028017
_cell_angle_alpha   85.92639919
_cell_angle_beta   85.92639919
_cell_angle_gamma   90.09707390
_symmetry_Int_Tables_number   1
_chemical_formula_structural   MoCl5
_chemical_formula_sum   'Mo6 Cl30'
_cell_volume   1043.16149817
_cell_formula_units_Z   6
loop_
 _symmetry_equiv_pos_site_id
 _symmetry_equiv_pos_as_xyz
  1  'x, y, z'
loop_
 _atom_site_type_symbol
 _atom_site_label
 _atom_site_symmetry_multiplicity
 _atom_site_fract_x
 _atom_site_fract_y
 _atom_site_fract_z
 _atom_site_occupancy
  Mo  Mo0  1  0.89275900  0.10724100  0.00000000  1
  Mo  Mo1  1  0.10724100  0.89275900  0.00000000  1
  Mo  Mo2  1  0.77356600  0.55955200  0.43369800  1
  Mo  Mo3  1  0.22643400  0.44044800  0.56630200  1
  Mo  Mo4  1  0.44044800  0.22643400  0.56630200  1
  Mo  Mo5  1  0.55955200  0.77356600  0.43369800  1
  Cl  Cl6  1  0.50693800  0.31744000  0.82388000  1
  Cl  Cl7  1  0.26292500  0.26292500  0.74942100  1
  Cl  Cl8  1  0.16802400  0.97899500  0.68696300  1
  Cl  Cl9  1  0.59574900  0.59574900  0.61640200  1
  Cl  Cl10  1  0.21611200  0.59626200  0.37577400  1
  Cl  Cl11  1  0.73707500  0.73707500  0.25057900  1
  Cl  Cl12  1  0.16048700  0.34870500  0.30903300  1
  Cl  Cl13  1  0.07311900  0.07311900  0.12831200  1
  Cl  Cl14  1  0.65129500  0.83951300  0.69096700  1
  Cl  Cl15  1  0.59626200  0.21611200  0.37577400  1
  Cl  Cl16  1  0.11298000  0.73384000  0.86276300  1
  Cl  Cl17  1  0.02100500  0.83197600  0.31303700  1
  Cl  Cl18  1  0.92995100  0.55078500  0.24407700  1
  Cl  Cl19  1  0.83197600  0.02100500  0.31303700  1
  Cl  Cl20  1  0.40373800  0.78388800  0.62422600  1
  Cl  Cl21  1  0.78388800  0.40373800  0.62422600  1
  Cl  Cl22  1  0.55078500  0.92995100  0.24407700  1
  Cl  Cl23  1  0.97899500  0.16802400  0.68696300  1
  Cl  Cl24  1  0.83951300  0.65129500  0.69096700  1
  Cl  Cl25  1  0.88702000  0.26616000  0.13723700  1
  Cl  Cl26  1  0.49306200  0.68256000  0.17612000  1
  Cl  Cl27  1  0.34870500  0.16048700  0.30903300  1
  Cl  Cl28  1  0.07004900  0.44921500  0.75592300  1
  Cl  Cl29  1  0.73384000  0.11298000  0.86276300  1
  Cl  Cl30  1  0.44921500  0.07004900  0.75592300  1
  Cl  Cl31  1  0.40425100  0.40425100  0.38359800  1
  Cl  Cl32  1  0.31744000  0.50693800  0.82388000  1
  Cl  Cl33  1  0.26616000  0.88702000  0.13723700  1
  Cl  Cl34  1  0.92688100  0.92688100  0.87168800  1
  Cl  Cl35  1  0.68256000  0.49306200  0.17612000  1
