# generated using pymatgen
data_Tb2AlGe3
_symmetry_space_group_name_H-M   'P 1'
_cell_length_a   4.23477400
_cell_length_b   6.80907000
_cell_length_c   17.82672700
_cell_angle_alpha   90.00000000
_cell_angle_beta   90.00000000
_cell_angle_gamma   90.00000000
_symmetry_Int_Tables_number   1
_chemical_formula_structural   Tb2AlGe3
_chemical_formula_sum   'Tb8 Al4 Ge12'
_cell_volume   514.03140192
_cell_formula_units_Z   4
loop_
 _symmetry_equiv_pos_site_id
 _symmetry_equiv_pos_as_xyz
  1  'x, y, z'
loop_
 _atom_site_type_symbol
 _atom_site_label
 _atom_site_symmetry_multiplicity
 _atom_site_fract_x
 _atom_site_fract_y
 _atom_site_fract_z
 _atom_site_occupancy
  Tb  Tb0  1  0.75000000  0.33080600  0.29580400  1
  Tb  Tb1  1  0.75000000  0.32836500  0.08523900  1
  Tb  Tb2  1  0.25000000  0.67163500  0.91476100  1
  Tb  Tb3  1  0.25000000  0.16919400  0.79580400  1
  Tb  Tb4  1  0.75000000  0.82836500  0.41476100  1
  Tb  Tb5  1  0.75000000  0.83080600  0.20419600  1
  Tb  Tb6  1  0.25000000  0.17163500  0.58523900  1
  Tb  Tb7  1  0.25000000  0.66919400  0.70419600  1
  Al  Al8  1  0.75000000  0.55032400  0.56460600  1
  Al  Al9  1  0.25000000  0.94967600  0.06460600  1
  Al  Al10  1  0.75000000  0.05032400  0.93539400  1
  Al  Al11  1  0.25000000  0.44967600  0.43539400  1
  Ge  Ge12  1  0.75000000  0.25159700  0.46543300  1
  Ge  Ge13  1  0.25000000  0.14466400  0.18831800  1
  Ge  Ge14  1  0.75000000  0.85533600  0.81168200  1
  Ge  Ge15  1  0.75000000  0.35533600  0.68831800  1
  Ge  Ge16  1  0.75000000  0.46674100  0.82717600  1
  Ge  Ge17  1  0.25000000  0.03325900  0.32717600  1
  Ge  Ge18  1  0.75000000  0.96674100  0.67282400  1
  Ge  Ge19  1  0.25000000  0.64466400  0.31168200  1
  Ge  Ge20  1  0.25000000  0.74840300  0.53456700  1
  Ge  Ge21  1  0.25000000  0.53325900  0.17282400  1
  Ge  Ge22  1  0.75000000  0.75159700  0.03456700  1
  Ge  Ge23  1  0.25000000  0.24840300  0.96543300  1
