# generated using pymatgen
data_Cs4V2S4O3
_symmetry_space_group_name_H-M   'P 1'
_cell_length_a   8.98696500
_cell_length_b   12.66180100
_cell_length_c   13.58315500
_cell_angle_alpha   90.00000000
_cell_angle_beta   90.00000000
_cell_angle_gamma   90.00000000
_symmetry_Int_Tables_number   1
_chemical_formula_structural   Cs4V2S4O3
_chemical_formula_sum   'Cs16 V8 S16 O12'
_cell_volume   1545.64299683
_cell_formula_units_Z   4
loop_
 _symmetry_equiv_pos_site_id
 _symmetry_equiv_pos_as_xyz
  1  'x, y, z'
loop_
 _atom_site_type_symbol
 _atom_site_label
 _atom_site_symmetry_multiplicity
 _atom_site_fract_x
 _atom_site_fract_y
 _atom_site_fract_z
 _atom_site_occupancy
  Cs  Cs0  1  0.75000000  0.14230000  0.44206900  1
  Cs  Cs1  1  0.75000000  0.85014500  0.58719500  1
  Cs  Cs2  1  0.75000000  0.49042800  0.66519400  1
  Cs  Cs3  1  0.75000000  0.64985500  0.08719500  1
  Cs  Cs4  1  0.25000000  0.35014500  0.91280500  1
  Cs  Cs5  1  0.25000000  0.99042800  0.83480600  1
  Cs  Cs6  1  0.75000000  0.35770000  0.94206900  1
  Cs  Cs7  1  0.25000000  0.50957200  0.33480600  1
  Cs  Cs8  1  0.75000000  0.06497300  0.83631800  1
  Cs  Cs9  1  0.25000000  0.93502700  0.16368200  1
  Cs  Cs10  1  0.25000000  0.64230000  0.05793100  1
  Cs  Cs11  1  0.75000000  0.00957200  0.16519400  1
  Cs  Cs12  1  0.25000000  0.14985500  0.41280500  1
  Cs  Cs13  1  0.75000000  0.43502700  0.33631800  1
  Cs  Cs14  1  0.25000000  0.56497300  0.66368200  1
  Cs  Cs15  1  0.25000000  0.85770000  0.55793100  1
  V  V16  1  0.44563800  0.25164600  0.16630400  1
  V  V17  1  0.94563800  0.75164600  0.33369600  1
  V  V18  1  0.44563800  0.24835400  0.66630400  1
  V  V19  1  0.05436200  0.25164600  0.16630400  1
  V  V20  1  0.05436200  0.24835400  0.66630400  1
  V  V21  1  0.55436200  0.75164600  0.33369600  1
  V  V22  1  0.94563800  0.74835400  0.83369600  1
  V  V23  1  0.55436200  0.74835400  0.83369600  1
  S  S24  1  0.50678200  0.91766700  0.36342100  1
  S  S25  1  0.00678200  0.08233300  0.63657900  1
  S  S26  1  0.49321800  0.41766700  0.13657900  1
  S  S27  1  0.48624900  0.15696100  0.03498400  1
  S  S28  1  0.98624900  0.65696100  0.46501600  1
  S  S29  1  0.48624900  0.34303900  0.53498400  1
  S  S30  1  0.00678200  0.41766700  0.13657900  1
  S  S31  1  0.51375100  0.65696100  0.46501600  1
  S  S32  1  0.99321800  0.91766700  0.36342100  1
  S  S33  1  0.98624900  0.84303900  0.96501600  1
  S  S34  1  0.49321800  0.08233300  0.63657900  1
  S  S35  1  0.99321800  0.58233300  0.86342100  1
  S  S36  1  0.01375100  0.15696100  0.03498400  1
  S  S37  1  0.51375100  0.84303900  0.96501600  1
  S  S38  1  0.01375100  0.34303900  0.53498400  1
  S  S39  1  0.50678200  0.58233300  0.86342100  1
  O  O40  1  0.25000000  0.23704300  0.20217500  1
  O  O41  1  0.04994000  0.79188300  0.73985500  1
  O  O42  1  0.45006000  0.70811700  0.23985500  1
  O  O43  1  0.54994000  0.20811700  0.26014500  1
  O  O44  1  0.45006000  0.79188300  0.73985500  1
  O  O45  1  0.04994000  0.70811700  0.23985500  1
  O  O46  1  0.75000000  0.76295700  0.79782500  1
  O  O47  1  0.95006000  0.20811700  0.26014500  1
  O  O48  1  0.25000000  0.26295700  0.70217500  1
  O  O49  1  0.75000000  0.73704300  0.29782500  1
  O  O50  1  0.54994000  0.29188300  0.76014500  1
  O  O51  1  0.95006000  0.29188300  0.76014500  1
