# generated using pymatgen
data_Cs2MnV2(ClO3)2
_symmetry_space_group_name_H-M   'P 1'
_cell_length_a   5.67211426
_cell_length_b   9.43422931
_cell_length_c   11.63278100
_cell_angle_alpha   90.00000000
_cell_angle_beta   90.00000000
_cell_angle_gamma   107.49445372
_symmetry_Int_Tables_number   1
_chemical_formula_structural   Cs2MnV2(ClO3)2
_chemical_formula_sum   'Cs4 Mn2 V4 Cl4 O12'
_cell_volume   593.70089761
_cell_formula_units_Z   2
loop_
 _symmetry_equiv_pos_site_id
 _symmetry_equiv_pos_as_xyz
  1  'x, y, z'
loop_
 _atom_site_type_symbol
 _atom_site_label
 _atom_site_symmetry_multiplicity
 _atom_site_fract_x
 _atom_site_fract_y
 _atom_site_fract_z
 _atom_site_occupancy
  Cs  Cs0  1  0.62748400  0.25496800  0.07374700  1
  Cs  Cs1  1  0.62748400  0.25496800  0.57374700  1
  Cs  Cs2  1  0.37251600  0.74503200  0.07374700  1
  Cs  Cs3  1  0.37251600  0.74503200  0.57374700  1
  Mn  Mn4  1  0.00000000  0.00000000  0.82028500  1
  Mn  Mn5  1  0.00000000  0.00000000  0.32028500  1
  V  V6  1  0.80151100  0.60302200  0.31939400  1
  V  V7  1  0.19848900  0.39697800  0.31939400  1
  V  V8  1  0.80151100  0.60302200  0.81939400  1
  V  V9  1  0.19848900  0.39697800  0.81939400  1
  Cl  Cl10  1  0.00000000  0.00000000  0.02878000  1
  Cl  Cl11  1  0.00000000  0.00000000  0.52878000  1
  Cl  Cl12  1  0.50000000  0.00000000  0.31066700  1
  Cl  Cl13  1  0.50000000  0.00000000  0.81066700  1
  O  O14  1  0.79948900  0.59897800  0.46131700  1
  O  O15  1  0.79948900  0.59897800  0.96131700  1
  O  O16  1  0.20051100  0.40102200  0.46131700  1
  O  O17  1  0.20051100  0.40102200  0.96131700  1
  O  O18  1  0.00000000  0.50000000  0.26285900  1
  O  O19  1  0.00000000  0.50000000  0.76285900  1
  O  O20  1  0.50000000  0.50000000  0.26285900  1
  O  O21  1  0.50000000  0.50000000  0.76285900  1
  O  O22  1  0.10924200  0.21848400  0.26959200  1
  O  O23  1  0.10924200  0.21848400  0.76959200  1
  O  O24  1  0.89075800  0.78151600  0.26959200  1
  O  O25  1  0.89075800  0.78151600  0.76959200  1
