# generated using pymatgen
data_NaFe(SO)2
_symmetry_space_group_name_H-M   'P 1'
_cell_length_a   6.83216824
_cell_length_b   6.83216824
_cell_length_c   6.13575265
_cell_angle_alpha   67.38788363
_cell_angle_beta   67.38788363
_cell_angle_gamma   84.63364029
_symmetry_Int_Tables_number   1
_chemical_formula_structural   NaFe(SO)2
_chemical_formula_sum   'Na2 Fe2 S4 O4'
_cell_volume   243.57118476
_cell_formula_units_Z   2
loop_
 _symmetry_equiv_pos_site_id
 _symmetry_equiv_pos_as_xyz
  1  'x, y, z'
loop_
 _atom_site_type_symbol
 _atom_site_label
 _atom_site_symmetry_multiplicity
 _atom_site_fract_x
 _atom_site_fract_y
 _atom_site_fract_z
 _atom_site_occupancy
  Na  Na0  1  0.58095200  0.41904800  0.75000000  1
  Na  Na1  1  0.41904800  0.58095200  0.25000000  1
  Fe  Fe2  1  0.00593300  0.99406700  0.75000000  1
  Fe  Fe3  1  0.99406700  0.00593300  0.25000000  1
  S  S4  1  0.28386200  0.04769400  0.35519600  1
  S  S5  1  0.95230600  0.71613800  0.14480400  1
  S  S6  1  0.71613800  0.95230600  0.64480400  1
  S  S7  1  0.04769400  0.28386200  0.85519600  1
  O  O8  1  0.74071200  0.57473800  0.30454900  1
  O  O9  1  0.42526200  0.25928800  0.19545100  1
  O  O10  1  0.25928800  0.42526200  0.69545100  1
  O  O11  1  0.57473800  0.74071200  0.80454900  1
