# generated using pymatgen
data_WSCl4
_symmetry_space_group_name_H-M   'P 1'
_cell_length_a   13.63797700
_cell_length_b   9.60594700
_cell_length_c   13.45179515
_cell_angle_alpha   68.21468376
_cell_angle_beta   90.00000000
_cell_angle_gamma   90.00000000
_symmetry_Int_Tables_number   1
_chemical_formula_structural   WSCl4
_chemical_formula_sum   'W8 S8 Cl32'
_cell_volume   1636.40261342
_cell_formula_units_Z   8
loop_
 _symmetry_equiv_pos_site_id
 _symmetry_equiv_pos_as_xyz
  1  'x, y, z'
loop_
 _atom_site_type_symbol
 _atom_site_label
 _atom_site_symmetry_multiplicity
 _atom_site_fract_x
 _atom_site_fract_y
 _atom_site_fract_z
 _atom_site_occupancy
  W  W0  1  0.91330100  0.62928600  0.66243400  1
  W  W1  1  0.41330100  0.37071400  0.83756600  1
  W  W2  1  0.36023700  0.95563100  0.41578900  1
  W  W3  1  0.63976300  0.04436900  0.58421100  1
  W  W4  1  0.08669900  0.37071400  0.33756600  1
  W  W5  1  0.13976300  0.95563100  0.91578900  1
  W  W6  1  0.58669900  0.62928600  0.16243400  1
  W  W7  1  0.86023700  0.04436900  0.08421100  1
  S  S8  1  0.53943000  0.49415600  0.76770900  1
  S  S9  1  0.78629300  0.01077900  0.22824400  1
  S  S10  1  0.03943000  0.50584400  0.73229100  1
  S  S11  1  0.21370700  0.98922100  0.77175600  1
  S  S12  1  0.46057000  0.50584400  0.23229100  1
  S  S13  1  0.28629300  0.98922100  0.27175600  1
  S  S14  1  0.71370700  0.01077900  0.72824400  1
  S  S15  1  0.96057000  0.49415600  0.26770900  1
  Cl  Cl16  1  0.04830800  0.12997800  0.35377500  1
  Cl  Cl17  1  0.05821500  0.29331300  0.51895700  1
  Cl  Cl18  1  0.55574200  0.26397200  0.54994600  1
  Cl  Cl19  1  0.95169200  0.87002200  0.64622500  1
  Cl  Cl20  1  0.94425800  0.26397200  0.04994600  1
  Cl  Cl21  1  0.30899800  0.54718700  0.85811100  1
  Cl  Cl22  1  0.44178500  0.29331300  0.01895700  1
  Cl  Cl23  1  0.50799400  0.08010500  0.35479300  1
  Cl  Cl24  1  0.55821500  0.70668700  0.98104300  1
  Cl  Cl25  1  0.81828200  0.61589900  0.80748700  1
  Cl  Cl26  1  0.74926200  0.17723700  0.95576700  1
  Cl  Cl27  1  0.31828200  0.38410100  0.69251300  1
  Cl  Cl28  1  0.19100200  0.54718700  0.35811100  1
  Cl  Cl29  1  0.68386200  0.83666700  0.54623200  1
  Cl  Cl30  1  0.68171800  0.61589900  0.30748700  1
  Cl  Cl31  1  0.44425800  0.73602800  0.45005400  1
  Cl  Cl32  1  0.25073800  0.82276300  0.04423300  1
  Cl  Cl33  1  0.24926200  0.82276300  0.54423300  1
  Cl  Cl34  1  0.81613800  0.83666700  0.04623200  1
  Cl  Cl35  1  0.45169200  0.12997800  0.85377500  1
  Cl  Cl36  1  0.05574200  0.73602800  0.95005400  1
  Cl  Cl37  1  0.99200600  0.08010500  0.85479300  1
  Cl  Cl38  1  0.69100200  0.45281300  0.14188900  1
  Cl  Cl39  1  0.49200600  0.91989500  0.64520700  1
  Cl  Cl40  1  0.54830800  0.87002200  0.14622500  1
  Cl  Cl41  1  0.75073800  0.17723700  0.45576700  1
  Cl  Cl42  1  0.18386200  0.16333300  0.95376800  1
  Cl  Cl43  1  0.31613800  0.16333300  0.45376800  1
  Cl  Cl44  1  0.18171800  0.38410100  0.19251300  1
  Cl  Cl45  1  0.94178500  0.70668700  0.48104300  1
  Cl  Cl46  1  0.00799400  0.91989500  0.14520700  1
  Cl  Cl47  1  0.80899800  0.45281300  0.64188900  1
