# generated using pymatgen
data_Y8Co5
_symmetry_space_group_name_H-M   'P 1'
_cell_length_a   7.18487300
_cell_length_b   7.04000800
_cell_length_c   24.13915523
_cell_angle_alpha   77.73693667
_cell_angle_beta   90.00000000
_cell_angle_gamma   90.00000000
_symmetry_Int_Tables_number   1
_chemical_formula_structural   Y8Co5
_chemical_formula_sum   'Y32 Co20'
_cell_volume   1193.13637973
_cell_formula_units_Z   4
loop_
 _symmetry_equiv_pos_site_id
 _symmetry_equiv_pos_as_xyz
  1  'x, y, z'
loop_
 _atom_site_type_symbol
 _atom_site_label
 _atom_site_symmetry_multiplicity
 _atom_site_fract_x
 _atom_site_fract_y
 _atom_site_fract_z
 _atom_site_occupancy
  Y  Y0  1  0.18284500  0.64440800  0.96285500  1
  Y  Y1  1  0.68284500  0.35559200  0.53714500  1
  Y  Y2  1  0.81715500  0.35559200  0.03714500  1
  Y  Y3  1  0.31715500  0.64440800  0.46285500  1
  Y  Y4  1  0.16670800  0.53042500  0.82272000  1
  Y  Y5  1  0.66670800  0.46957500  0.67728000  1
  Y  Y6  1  0.83329200  0.46957500  0.17728000  1
  Y  Y7  1  0.33329200  0.53042500  0.32272000  1
  Y  Y8  1  0.81572500  0.68819700  0.29761000  1
  Y  Y9  1  0.31572500  0.31180300  0.20239000  1
  Y  Y10  1  0.18427500  0.31180300  0.70239000  1
  Y  Y11  1  0.68427500  0.68819700  0.79761000  1
  Y  Y12  1  0.83515100  0.78649400  0.44129200  1
  Y  Y13  1  0.33515100  0.21350600  0.05870800  1
  Y  Y14  1  0.16484900  0.21350600  0.55870800  1
  Y  Y15  1  0.66484900  0.78649400  0.94129200  1
  Y  Y16  1  0.18644000  0.00083200  0.33455600  1
  Y  Y17  1  0.68644000  0.99916800  0.16544400  1
  Y  Y18  1  0.81356000  0.99916800  0.66544400  1
  Y  Y19  1  0.31356000  0.00083200  0.83455600  1
  Y  Y20  1  0.18781200  0.81791800  0.19627200  1
  Y  Y21  1  0.68781200  0.18208200  0.30372800  1
  Y  Y22  1  0.81218800  0.18208200  0.80372800  1
  Y  Y23  1  0.31218800  0.81791800  0.69627200  1
  Y  Y24  1  0.95967400  0.31561500  0.41510600  1
  Y  Y25  1  0.45967400  0.68438500  0.08489400  1
  Y  Y26  1  0.04032600  0.68438500  0.58489400  1
  Y  Y27  1  0.54032600  0.31561500  0.91510600  1
  Y  Y28  1  0.97781300  0.85937400  0.06457900  1
  Y  Y29  1  0.47781300  0.14062600  0.43542100  1
  Y  Y30  1  0.02218700  0.14062600  0.93542100  1
  Y  Y31  1  0.52218700  0.85937400  0.56457900  1
  Co  Co32  1  0.14611400  0.97404000  0.48321000  1
  Co  Co33  1  0.64611400  0.02596000  0.01679000  1
  Co  Co34  1  0.85388600  0.02596000  0.51679000  1
  Co  Co35  1  0.35388600  0.97404000  0.98321000  1
  Co  Co36  1  0.03280600  0.16726400  0.13213700  1
  Co  Co37  1  0.53280600  0.83273600  0.36786300  1
  Co  Co38  1  0.96719400  0.83273600  0.86786300  1
  Co  Co39  1  0.46719400  0.16726400  0.63213700  1
  Co  Co40  1  0.03084300  0.36018300  0.28226100  1
  Co  Co41  1  0.53084300  0.63981700  0.21773900  1
  Co  Co42  1  0.96915700  0.63981700  0.71773900  1
  Co  Co43  1  0.46915700  0.36018300  0.78226100  1
  Co  Co44  1  0.02754900  0.90547400  0.76543000  1
  Co  Co45  1  0.52754900  0.09452600  0.73457000  1
  Co  Co46  1  0.97245100  0.09452600  0.23457000  1
  Co  Co47  1  0.47245100  0.90547400  0.26543000  1
  Co  Co48  1  0.88218500  0.50945600  0.90434100  1
  Co  Co49  1  0.38218500  0.49054400  0.59565900  1
  Co  Co50  1  0.11781500  0.49054400  0.09565900  1
  Co  Co51  1  0.61781500  0.50945600  0.40434100  1
