# generated using pymatgen
data_GeS2
_symmetry_space_group_name_H-M   'P 1'
_cell_length_a   16.42733200
_cell_length_b   6.85610000
_cell_length_c   12.56647674
_cell_angle_alpha   88.91581590
_cell_angle_beta   90.00000000
_cell_angle_gamma   90.00000000
_symmetry_Int_Tables_number   1
_chemical_formula_structural   GeS2
_chemical_formula_sum   'Ge16 S32'
_cell_volume   1415.07660857
_cell_formula_units_Z   16
loop_
 _symmetry_equiv_pos_site_id
 _symmetry_equiv_pos_as_xyz
  1  'x, y, z'
loop_
 _atom_site_type_symbol
 _atom_site_label
 _atom_site_symmetry_multiplicity
 _atom_site_fract_x
 _atom_site_fract_y
 _atom_site_fract_z
 _atom_site_occupancy
  Ge  Ge0  1  0.99746100  0.83457100  0.28948900  1
  Ge  Ge1  1  0.49746100  0.16542900  0.21051100  1
  Ge  Ge2  1  0.50253900  0.83457100  0.78948900  1
  Ge  Ge3  1  0.84600200  0.33707400  0.77561100  1
  Ge  Ge4  1  0.00253900  0.16542900  0.71051100  1
  Ge  Ge5  1  0.34737300  0.83718900  0.27768900  1
  Ge  Ge6  1  0.69120100  0.66388200  0.72185400  1
  Ge  Ge7  1  0.65262700  0.16281100  0.72231100  1
  Ge  Ge8  1  0.80879900  0.66388200  0.22185400  1
  Ge  Ge9  1  0.15399800  0.66292600  0.22438900  1
  Ge  Ge10  1  0.19120100  0.33611800  0.77814600  1
  Ge  Ge11  1  0.84737300  0.16281100  0.22231100  1
  Ge  Ge12  1  0.15262700  0.83718900  0.77768900  1
  Ge  Ge13  1  0.34600200  0.66292600  0.72438900  1
  Ge  Ge14  1  0.30879900  0.33611800  0.27814600  1
  Ge  Ge15  1  0.65399800  0.33707400  0.27561100  1
  S  S16  1  0.10783700  0.33215500  0.63724400  1
  S  S17  1  0.31981700  0.34161700  0.71819900  1
  S  S18  1  0.83160200  0.41704500  0.10938000  1
  S  S19  1  0.60783700  0.66784500  0.86275600  1
  S  S20  1  0.52790700  0.15637500  0.79549300  1
  S  S21  1  0.75578200  0.16577300  0.35398700  1
  S  S22  1  0.74421800  0.16577300  0.85398700  1
  S  S23  1  0.83092500  0.91542800  0.10870200  1
  S  S24  1  0.03958000  0.72160900  0.13123400  1
  S  S25  1  0.88862600  0.22678900  0.61688600  1
  S  S26  1  0.53958000  0.27839100  0.36876600  1
  S  S27  1  0.96042000  0.27839100  0.86876600  1
  S  S28  1  0.68018300  0.65838300  0.28180100  1
  S  S29  1  0.24421800  0.83422700  0.64601300  1
  S  S30  1  0.66907500  0.91542800  0.60870200  1
  S  S31  1  0.16907500  0.08457200  0.89129800  1
  S  S32  1  0.47209300  0.84362500  0.20450700  1
  S  S33  1  0.89216300  0.66784500  0.36275600  1
  S  S34  1  0.18018300  0.34161700  0.21819900  1
  S  S35  1  0.33092500  0.08457200  0.39129800  1
  S  S36  1  0.97209300  0.15637500  0.29549300  1
  S  S37  1  0.11137400  0.77321100  0.38311400  1
  S  S38  1  0.46042000  0.72160900  0.63123400  1
  S  S39  1  0.66839800  0.41704500  0.60938000  1
  S  S40  1  0.61137400  0.22678900  0.11688600  1
  S  S41  1  0.16839800  0.58295500  0.89062000  1
  S  S42  1  0.02790700  0.84362500  0.70450700  1
  S  S43  1  0.81981700  0.65838300  0.78180100  1
  S  S44  1  0.38862600  0.77321100  0.88311400  1
  S  S45  1  0.39216300  0.33215500  0.13724400  1
  S  S46  1  0.25578200  0.83422700  0.14601300  1
  S  S47  1  0.33160200  0.58295500  0.39062000  1
