# generated using pymatgen
data_Cs3SrCu2C7(SN)7
_symmetry_space_group_name_H-M   'P 1'
_cell_length_a   12.76589401
_cell_length_b   12.76589401
_cell_length_c   12.76589401
_cell_angle_alpha   128.99318776
_cell_angle_beta   128.99318776
_cell_angle_gamma   75.02153518
_symmetry_Int_Tables_number   1
_chemical_formula_structural   Cs3SrCu2C7(SN)7
_chemical_formula_sum   'Cs6 Sr2 Cu4 C14 S14 N14'
_cell_volume   1223.75550630
_cell_formula_units_Z   2
loop_
 _symmetry_equiv_pos_site_id
 _symmetry_equiv_pos_as_xyz
  1  'x, y, z'
loop_
 _atom_site_type_symbol
 _atom_site_label
 _atom_site_symmetry_multiplicity
 _atom_site_fract_x
 _atom_site_fract_y
 _atom_site_fract_z
 _atom_site_occupancy
  Cs  Cs0  1  0.96169900  0.43718500  0.00000000  1
  Cs  Cs1  1  0.43718500  0.96169900  0.00000000  1
  Cs  Cs2  1  0.50000000  0.00000000  0.50000000  1
  Cs  Cs3  1  0.03830100  0.03830100  0.47548600  1
  Cs  Cs4  1  0.00000000  0.50000000  0.50000000  1
  Cs  Cs5  1  0.56281500  0.56281500  0.52451400  1
  Sr  Sr6  1  0.40398000  0.40398000  0.00000000  1
  Sr  Sr7  1  0.59602000  0.59602000  0.00000000  1
  Cu  Cu8  1  0.95145600  0.95145600  0.70479100  1
  Cu  Cu9  1  0.04854400  0.75333500  0.00000000  1
  Cu  Cu10  1  0.24666500  0.24666500  0.29520900  1
  Cu  Cu11  1  0.75333500  0.04854400  0.00000000  1
  C  C12  1  0.42987000  0.03908900  0.76063300  1
  C  C13  1  0.79336400  0.79336400  0.00000000  1
  C  C14  1  0.70595800  0.70595800  0.42007200  1
  C  C15  1  0.72154400  0.96091100  0.39078100  1
  C  C16  1  0.03908900  0.42987000  0.76063300  1
  C  C17  1  0.57013000  0.33076300  0.60921900  1
  C  C18  1  0.71411400  0.29404200  0.00000000  1
  C  C19  1  0.66923700  0.27845600  0.23936700  1
  C  C20  1  0.28588600  0.28588600  0.57992800  1
  C  C21  1  0.27845600  0.66923700  0.23936700  1
  C  C22  1  0.20663600  0.20663600  0.00000000  1
  C  C23  1  0.96091100  0.72154400  0.39078100  1
  C  C24  1  0.33076300  0.57013000  0.60921900  1
  C  C25  1  0.29404200  0.71411400  0.00000000  1
  S  S26  1  0.82911800  0.07794300  0.60070300  1
  S  S27  1  0.22841400  0.47724000  0.39929700  1
  S  S28  1  0.80348300  0.80348300  0.63104000  1
  S  S29  1  0.07794300  0.82911800  0.60070300  1
  S  S30  1  0.87544300  0.87544300  0.00000000  1
  S  S31  1  0.82755700  0.19651700  0.00000000  1
  S  S32  1  0.17088200  0.77158600  0.24882500  1
  S  S33  1  0.77158600  0.17088200  0.24882500  1
  S  S34  1  0.47724000  0.22841400  0.39929700  1
  S  S35  1  0.52276000  0.92205700  0.75117500  1
  S  S36  1  0.12455700  0.12455700  0.00000000  1
  S  S37  1  0.17244300  0.17244300  0.36896000  1
  S  S38  1  0.92205700  0.52276000  0.75117500  1
  S  S39  1  0.19651700  0.82755700  0.00000000  1
  N  N40  1  0.63467000  0.36671600  0.00000000  1
  N  N41  1  0.36671600  0.63467000  0.00000000  1
  N  N42  1  0.73500800  0.73500800  0.00000000  1
  N  N43  1  0.59558900  0.35667900  0.23259400  1
  N  N44  1  0.64332100  0.87591500  0.23891000  1
  N  N45  1  0.63328400  0.63328400  0.26795400  1
  N  N46  1  0.36299500  0.12408500  0.76740600  1
  N  N47  1  0.40441100  0.63700500  0.76109000  1
  N  N48  1  0.12408500  0.36299500  0.76740600  1
  N  N49  1  0.36533000  0.36533000  0.73204600  1
  N  N50  1  0.63700500  0.40441100  0.76109000  1
  N  N51  1  0.26499200  0.26499200  0.00000000  1
  N  N52  1  0.87591500  0.64332100  0.23891000  1
  N  N53  1  0.35667900  0.59558900  0.23259400  1
