# generated using pymatgen
data_SbS8Cl5O
_symmetry_space_group_name_H-M   'P 1'
_cell_length_a   9.47358400
_cell_length_b   11.05111100
_cell_length_c   17.60945500
_cell_angle_alpha   90.00000000
_cell_angle_beta   90.00000000
_cell_angle_gamma   90.00000000
_symmetry_Int_Tables_number   1
_chemical_formula_structural   SbS8Cl5O
_chemical_formula_sum   'Sb4 S32 Cl20 O4'
_cell_volume   1843.59773725
_cell_formula_units_Z   4
loop_
 _symmetry_equiv_pos_site_id
 _symmetry_equiv_pos_as_xyz
  1  'x, y, z'
loop_
 _atom_site_type_symbol
 _atom_site_label
 _atom_site_symmetry_multiplicity
 _atom_site_fract_x
 _atom_site_fract_y
 _atom_site_fract_z
 _atom_site_occupancy
  Sb  Sb0  1  0.75000000  0.69870800  0.97428200  1
  Sb  Sb1  1  0.25000000  0.30129200  0.02571800  1
  Sb  Sb2  1  0.25000000  0.19870800  0.52571800  1
  Sb  Sb3  1  0.75000000  0.80129200  0.47428200  1
  S  S4  1  0.92519900  0.27220700  0.78097400  1
  S  S5  1  0.25000000  0.77648900  0.78779900  1
  S  S6  1  0.75000000  0.27648900  0.71220100  1
  S  S7  1  0.07480100  0.77220700  0.71902600  1
  S  S8  1  0.50341100  0.90454600  0.21775100  1
  S  S9  1  0.99658900  0.90454600  0.21775100  1
  S  S10  1  0.49658900  0.40454600  0.28224900  1
  S  S11  1  0.43141200  0.51359100  0.62233900  1
  S  S12  1  0.07480100  0.72779300  0.21902600  1
  S  S13  1  0.00341100  0.40454600  0.28224900  1
  S  S14  1  0.75000000  0.92025300  0.83019300  1
  S  S15  1  0.57480100  0.22779300  0.28097400  1
  S  S16  1  0.50341100  0.59545400  0.71775100  1
  S  S17  1  0.42519900  0.72779300  0.21902600  1
  S  S18  1  0.00341100  0.09545400  0.78224900  1
  S  S19  1  0.92519900  0.22779300  0.28097400  1
  S  S20  1  0.06858800  0.98640900  0.12233900  1
  S  S21  1  0.43141200  0.98640900  0.12233900  1
  S  S22  1  0.75000000  0.22351100  0.21220100  1
  S  S23  1  0.49658900  0.09545400  0.78224900  1
  S  S24  1  0.75000000  0.57974700  0.33019300  1
  S  S25  1  0.57480100  0.27220700  0.78097400  1
  S  S26  1  0.06858800  0.51359100  0.62233900  1
  S  S27  1  0.56858800  0.01359100  0.87766100  1
  S  S28  1  0.56858800  0.48640900  0.37766100  1
  S  S29  1  0.93141200  0.48640900  0.37766100  1
  S  S30  1  0.42519900  0.77220700  0.71902600  1
  S  S31  1  0.25000000  0.72351100  0.28779900  1
  S  S32  1  0.99658900  0.59545400  0.71775100  1
  S  S33  1  0.93141200  0.01359100  0.87766100  1
  S  S34  1  0.25000000  0.07974700  0.16980700  1
  S  S35  1  0.25000000  0.42025300  0.66980700  1
  Cl  Cl36  1  0.25000000  0.10432400  0.40529900  1
  Cl  Cl37  1  0.75000000  0.60432400  0.09470100  1
  Cl  Cl38  1  0.75000000  0.51947700  0.90048000  1
  Cl  Cl39  1  0.99938800  0.20847900  0.53325700  1
  Cl  Cl40  1  0.25000000  0.09714200  0.97453000  1
  Cl  Cl41  1  0.25000000  0.40285800  0.47453000  1
  Cl  Cl42  1  0.49938800  0.70847900  0.96674300  1
  Cl  Cl43  1  0.75000000  0.98052300  0.40048000  1
  Cl  Cl44  1  0.50061200  0.20847900  0.53325700  1
  Cl  Cl45  1  0.99938800  0.29152100  0.03325700  1
  Cl  Cl46  1  0.25000000  0.39567600  0.90529900  1
  Cl  Cl47  1  0.75000000  0.89567600  0.59470100  1
  Cl  Cl48  1  0.00061200  0.70847900  0.96674300  1
  Cl  Cl49  1  0.75000000  0.59714200  0.52547000  1
  Cl  Cl50  1  0.75000000  0.90285800  0.02547000  1
  Cl  Cl51  1  0.50061200  0.29152100  0.03325700  1
  Cl  Cl52  1  0.49938800  0.79152100  0.46674300  1
  Cl  Cl53  1  0.00061200  0.79152100  0.46674300  1
  Cl  Cl54  1  0.25000000  0.48052300  0.09952000  1
  Cl  Cl55  1  0.25000000  0.01947700  0.59952000  1
  O  O56  1  0.25000000  0.28965800  0.64034200  1
  O  O57  1  0.75000000  0.78965800  0.85965800  1
  O  O58  1  0.25000000  0.21034200  0.14034300  1
  O  O59  1  0.75000000  0.71034200  0.35965800  1
