# generated using pymatgen
data_NaMg3Al6Si6B3O31
_symmetry_space_group_name_H-M   'P 1'
_cell_length_a   9.62996822
_cell_length_b   9.62996822
_cell_length_c   9.62996812
_cell_angle_alpha   113.86089646
_cell_angle_beta   113.86089646
_cell_angle_gamma   113.86089217
_symmetry_Int_Tables_number   1
_chemical_formula_structural   NaMg3Al6Si6B3O31
_chemical_formula_sum   'Na1 Mg3 Al6 Si6 B3 O31'
_cell_volume   548.12371345
_cell_formula_units_Z   1
loop_
 _symmetry_equiv_pos_site_id
 _symmetry_equiv_pos_as_xyz
  1  'x, y, z'
loop_
 _atom_site_type_symbol
 _atom_site_label
 _atom_site_symmetry_multiplicity
 _atom_site_fract_x
 _atom_site_fract_y
 _atom_site_fract_z
 _atom_site_occupancy
  Na  Na0  1  0.76842800  0.76842800  0.76842800  1
  Mg  Mg1  1  0.28102500  0.09029300  0.09029300  1
  Mg  Mg2  1  0.09029300  0.28102500  0.09029300  1
  Mg  Mg3  1  0.09029300  0.09029300  0.28102500  1
  Al  Al4  1  0.88193900  0.10687900  0.44405300  1
  Al  Al5  1  0.44405300  0.88193900  0.10687900  1
  Al  Al6  1  0.10687900  0.44405300  0.88193900  1
  Al  Al7  1  0.44405300  0.10687900  0.88193900  1
  Al  Al8  1  0.88193900  0.44405300  0.10687900  1
  Al  Al9  1  0.10687900  0.88193900  0.44405300  1
  Si  Si10  1  0.72176000  0.52800800  0.33904500  1
  Si  Si11  1  0.33904500  0.72176000  0.52800800  1
  Si  Si12  1  0.52800800  0.33904500  0.72176000  1
  Si  Si13  1  0.33904500  0.52800800  0.72176000  1
  Si  Si14  1  0.72176000  0.33904500  0.52800800  1
  Si  Si15  1  0.52800800  0.72176000  0.33904500  1
  B  B16  1  0.09575500  0.09575500  0.76611700  1
  B  B17  1  0.76611700  0.09575500  0.09575500  1
  B  B18  1  0.09575500  0.76611700  0.09575500  1
  O  O19  1  0.29375800  0.29375800  0.29375800  1
  O  O20  1  0.06681800  0.06681800  0.88292900  1
  O  O21  1  0.88292900  0.06681800  0.06681800  1
  O  O22  1  0.06681800  0.88292900  0.06681800  1
  O  O23  1  0.34198000  0.93562700  0.93562700  1
  O  O24  1  0.93562700  0.34198000  0.93562700  1
  O  O25  1  0.93562700  0.93562700  0.34198000  1
  O  O26  1  0.69168000  0.69168000  0.41034700  1
  O  O27  1  0.41034700  0.69168000  0.69168000  1
  O  O28  1  0.69168000  0.41034700  0.69168000  1
  O  O29  1  0.79607500  0.52181600  0.52181600  1
  O  O30  1  0.52181600  0.79607500  0.52181600  1
  O  O31  1  0.52181600  0.52181600  0.79607500  1
  O  O32  1  0.50574300  0.29937900  0.11642400  1
  O  O33  1  0.11642400  0.50574300  0.29937900  1
  O  O34  1  0.29937900  0.11642400  0.50574300  1
  O  O35  1  0.11642400  0.29937900  0.50574300  1
  O  O36  1  0.50574300  0.11642400  0.29937900  1
  O  O37  1  0.29937900  0.50574300  0.11642400  1
  O  O38  1  0.89845000  0.61398300  0.32807000  1
  O  O39  1  0.32807000  0.89845000  0.61398300  1
  O  O40  1  0.61398300  0.32807000  0.89845000  1
  O  O41  1  0.32807000  0.61398300  0.89845000  1
  O  O42  1  0.89845000  0.32807000  0.61398300  1
  O  O43  1  0.61398300  0.89845000  0.32807000  1
  O  O44  1  0.03663100  0.18684800  0.70651200  1
  O  O45  1  0.70651200  0.03663100  0.18684800  1
  O  O46  1  0.18684800  0.70651200  0.03663100  1
  O  O47  1  0.70651200  0.18684800  0.03663100  1
  O  O48  1  0.03663100  0.70651200  0.18684800  1
  O  O49  1  0.18684800  0.03663100  0.70651200  1
