# generated using pymatgen
data_CdI2
_symmetry_space_group_name_H-M   'P 1'
_cell_length_a   4.33779504
_cell_length_b   4.33779504
_cell_length_c   89.52674200
_cell_angle_alpha   90.00000000
_cell_angle_beta   90.00000000
_cell_angle_gamma   120.00001585
_symmetry_Int_Tables_number   1
_chemical_formula_structural   CdI2
_chemical_formula_sum   'Cd12 I24'
_cell_volume   1458.88613889
_cell_formula_units_Z   12
loop_
 _symmetry_equiv_pos_site_id
 _symmetry_equiv_pos_as_xyz
  1  'x, y, z'
loop_
 _atom_site_type_symbol
 _atom_site_label
 _atom_site_symmetry_multiplicity
 _atom_site_fract_x
 _atom_site_fract_y
 _atom_site_fract_z
 _atom_site_occupancy
  Cd  Cd0  1  0.00000000  0.00000000  0.02086400  1
  Cd  Cd1  1  0.33333300  0.66666700  0.35417600  1
  Cd  Cd2  1  0.33333300  0.66666700  0.43748300  1
  Cd  Cd3  1  0.33333300  0.66666700  0.10415200  1
  Cd  Cd4  1  0.33333300  0.66666700  0.52083800  1
  Cd  Cd5  1  0.33333300  0.66666700  0.77081700  1
  Cd  Cd6  1  0.33333300  0.66666700  0.85417700  1
  Cd  Cd7  1  0.00000000  0.00000000  0.27082200  1
  Cd  Cd8  1  0.33333300  0.66666700  0.93747900  1
  Cd  Cd9  1  0.00000000  0.00000000  0.60416200  1
  Cd  Cd10  1  0.33333300  0.66666700  0.68751500  1
  Cd  Cd11  1  0.33333300  0.66666700  0.18750800  1
  I  I12  1  0.00000000  0.00000000  0.83494400  1
  I  I13  1  0.66666700  0.33333300  0.79005200  1
  I  I14  1  0.00000000  0.00000000  0.33494300  1
  I  I15  1  0.00000000  0.00000000  0.08491300  1
  I  I16  1  0.66666700  0.33333300  0.45671800  1
  I  I17  1  0.66666700  0.33333300  0.20675100  1
  I  I18  1  0.66666700  0.33333300  0.95671300  1
  I  I19  1  0.00000000  0.00000000  0.91823800  1
  I  I20  1  0.00000000  0.00000000  0.75157800  1
  I  I21  1  0.33333300  0.66666700  0.58492600  1
  I  I22  1  0.66666700  0.33333300  0.54008200  1
  I  I23  1  0.66666700  0.33333300  0.12338700  1
  I  I24  1  0.66666700  0.33333300  0.04010100  1
  I  I25  1  0.33333300  0.66666700  0.00163300  1
  I  I26  1  0.66666700  0.33333300  0.29005500  1
  I  I27  1  0.66666700  0.33333300  0.37341400  1
  I  I28  1  0.66666700  0.33333300  0.62339500  1
  I  I29  1  0.00000000  0.00000000  0.41824300  1
  I  I30  1  0.66666700  0.33333300  0.70675500  1
  I  I31  1  0.33333300  0.66666700  0.25158600  1
  I  I32  1  0.00000000  0.00000000  0.66828100  1
  I  I33  1  0.00000000  0.00000000  0.50160900  1
  I  I34  1  0.00000000  0.00000000  0.16827700  1
  I  I35  1  0.66666700  0.33333300  0.87341500  1
