# generated using pymatgen
data_Cs2U2Mo3O16
_symmetry_space_group_name_H-M   'P 1'
_cell_length_a   10.34783800
_cell_length_b   10.34783800
_cell_length_c   16.98591400
_cell_angle_alpha   90.00000000
_cell_angle_beta   90.00000000
_cell_angle_gamma   90.00000000
_symmetry_Int_Tables_number   1
_chemical_formula_structural   Cs2U2Mo3O16
_chemical_formula_sum   'Cs8 U8 Mo12 O64'
_cell_volume   1818.81347446
_cell_formula_units_Z   4
loop_
 _symmetry_equiv_pos_site_id
 _symmetry_equiv_pos_as_xyz
  1  'x, y, z'
loop_
 _atom_site_type_symbol
 _atom_site_label
 _atom_site_symmetry_multiplicity
 _atom_site_fract_x
 _atom_site_fract_y
 _atom_site_fract_z
 _atom_site_occupancy
  Cs  Cs0  1  0.50000000  0.00000000  0.84719000  1
  Cs  Cs1  1  0.50000000  0.00000000  0.34719000  1
  Cs  Cs2  1  0.00000000  0.50000000  0.15281000  1
  Cs  Cs3  1  0.50000000  0.50000000  0.24663900  1
  Cs  Cs4  1  0.00000000  0.00000000  0.25336100  1
  Cs  Cs5  1  0.50000000  0.50000000  0.75336100  1
  Cs  Cs6  1  0.00000000  0.00000000  0.74663900  1
  Cs  Cs7  1  0.00000000  0.50000000  0.65281000  1
  U  U8  1  0.29243700  0.19442100  0.08394600  1
  U  U9  1  0.70756300  0.80557900  0.08394600  1
  U  U10  1  0.79243700  0.69442100  0.41605400  1
  U  U11  1  0.69442100  0.20756300  0.58394600  1
  U  U12  1  0.20756300  0.30557900  0.41605400  1
  U  U13  1  0.80557900  0.29243700  0.91605400  1
  U  U14  1  0.30557900  0.79243700  0.58394600  1
  U  U15  1  0.19442100  0.70756300  0.91605400  1
  Mo  Mo16  1  0.84284900  0.33164400  0.38151900  1
  Mo  Mo17  1  0.65715100  0.16835600  0.11848100  1
  Mo  Mo18  1  0.15715100  0.66835600  0.38151900  1
  Mo  Mo19  1  0.33164400  0.15715100  0.61848100  1
  Mo  Mo20  1  0.34284900  0.83164400  0.11848100  1
  Mo  Mo21  1  0.83164400  0.65715100  0.88151900  1
  Mo  Mo22  1  0.50000000  0.50000000  0.50000000  1
  Mo  Mo23  1  0.50000000  0.50000000  0.00000000  1
  Mo  Mo24  1  0.16835600  0.34284900  0.88151900  1
  Mo  Mo25  1  0.00000000  0.00000000  0.50000000  1
  Mo  Mo26  1  0.66835600  0.84284900  0.61848100  1
  Mo  Mo27  1  0.00000000  0.00000000  0.00000000  1
  O  O28  1  0.23406400  0.79651900  0.33360500  1
  O  O29  1  0.48420700  0.23358600  0.64554600  1
  O  O30  1  0.20348100  0.23406400  0.66639500  1
  O  O31  1  0.89269800  0.36202900  0.99845300  1
  O  O32  1  0.69544500  0.82621300  0.51369200  1
  O  O33  1  0.98420700  0.73358600  0.85445400  1
  O  O34  1  0.61932000  0.42901700  0.93693100  1
  O  O35  1  0.66477300  0.01178500  0.65035500  1
  O  O36  1  0.77921900  0.71537400  0.16484900  1
  O  O37  1  0.72078100  0.78462600  0.33515100  1
  O  O38  1  0.26641400  0.98420700  0.14554600  1
  O  O39  1  0.23358600  0.51579300  0.35445400  1
  O  O40  1  0.32621300  0.80455500  0.01369200  1
  O  O41  1  0.36202900  0.10730200  0.00154700  1
  O  O42  1  0.57098300  0.61932000  0.06306900  1
  O  O43  1  0.86202900  0.60730200  0.49845300  1
  O  O44  1  0.76593600  0.20348100  0.33360500  1
  O  O45  1  0.38068000  0.57098300  0.93693100  1
  O  O46  1  0.83522700  0.48821500  0.84964500  1
  O  O47  1  0.70348100  0.73406400  0.83360500  1
  O  O48  1  0.38333700  0.57773600  0.56205000  1
  O  O49  1  0.11666300  0.92226400  0.93795000  1
  O  O50  1  0.98821500  0.66477300  0.34964500  1
  O  O51  1  0.21537400  0.72078100  0.66484900  1
  O  O52  1  0.29651900  0.26593600  0.83360500  1
  O  O53  1  0.60730200  0.13797100  0.50154700  1
  O  O54  1  0.82621300  0.30455500  0.48630800  1
  O  O55  1  0.22078100  0.28462600  0.16484900  1
  O  O56  1  0.67378700  0.19544500  0.01369200  1
  O  O57  1  0.07773600  0.11666300  0.06205000  1
  O  O58  1  0.42226400  0.38333700  0.43795000  1
  O  O59  1  0.27921900  0.21537400  0.33515100  1
  O  O60  1  0.42901700  0.38068000  0.06306900  1
  O  O61  1  0.63797100  0.89269800  0.00154700  1
  O  O62  1  0.39269800  0.86202900  0.50154700  1
  O  O63  1  0.07098300  0.11932000  0.43693100  1
  O  O64  1  0.88068000  0.07098300  0.56306900  1
  O  O65  1  0.16477300  0.51178500  0.84964500  1
  O  O66  1  0.79651900  0.76593600  0.66639500  1
  O  O67  1  0.01579300  0.26641400  0.85445400  1
  O  O68  1  0.80455500  0.67378700  0.98630800  1
  O  O69  1  0.01178500  0.33522700  0.34964500  1
  O  O70  1  0.11932000  0.92901700  0.56306900  1
  O  O71  1  0.48821500  0.16477300  0.15035500  1
  O  O72  1  0.73406400  0.29651900  0.16639500  1
  O  O73  1  0.88333700  0.07773600  0.93795000  1
  O  O74  1  0.26593600  0.70348100  0.16639500  1
  O  O75  1  0.51178500  0.83522700  0.15035500  1
  O  O76  1  0.33522700  0.98821500  0.65035500  1
  O  O77  1  0.19544500  0.32621300  0.98630800  1
  O  O78  1  0.51579300  0.76641400  0.64554600  1
  O  O79  1  0.78462600  0.27921900  0.66484900  1
  O  O80  1  0.76641400  0.48420700  0.35445400  1
  O  O81  1  0.92226400  0.88333700  0.06205000  1
  O  O82  1  0.92901700  0.88068000  0.43693100  1
  O  O83  1  0.30455500  0.17378700  0.51369200  1
  O  O84  1  0.28462600  0.77921900  0.83515100  1
  O  O85  1  0.57773600  0.61666300  0.43795000  1
  O  O86  1  0.10730200  0.63797100  0.99845300  1
  O  O87  1  0.71537400  0.22078100  0.83515100  1
  O  O88  1  0.73358600  0.01579300  0.14554600  1
  O  O89  1  0.17378700  0.69544500  0.48630800  1
  O  O90  1  0.61666300  0.42226400  0.56205000  1
  O  O91  1  0.13797100  0.39269800  0.49845300  1
