# generated using pymatgen
data_NaH2BrO5
_symmetry_space_group_name_H-M   'P 1'
_cell_length_a   9.22554138
_cell_length_b   9.22554138
_cell_length_c   12.35626372
_cell_angle_alpha   80.86737384
_cell_angle_beta   80.86737384
_cell_angle_gamma   37.42752068
_symmetry_Int_Tables_number   1
_chemical_formula_structural   NaH2BrO5
_chemical_formula_sum   'Na4 H8 Br4 O20'
_cell_volume   630.10903744
_cell_formula_units_Z   4
loop_
 _symmetry_equiv_pos_site_id
 _symmetry_equiv_pos_as_xyz
  1  'x, y, z'
loop_
 _atom_site_type_symbol
 _atom_site_label
 _atom_site_symmetry_multiplicity
 _atom_site_fract_x
 _atom_site_fract_y
 _atom_site_fract_z
 _atom_site_occupancy
  Na  Na0  1  0.00000000  0.50000000  0.50000000  1
  Na  Na1  1  0.50000000  0.00000000  0.00000000  1
  Na  Na2  1  0.39512500  0.60487500  0.25000000  1
  Na  Na3  1  0.60487500  0.39512500  0.75000000  1
  H  H4  1  0.48817200  0.65587400  0.91762900  1
  H  H5  1  0.34412600  0.51182800  0.58237100  1
  H  H6  1  0.51182800  0.34412600  0.08237100  1
  H  H7  1  0.65587400  0.48817200  0.41762900  1
  H  H8  1  0.06435200  0.19026900  0.04585000  1
  H  H9  1  0.80973100  0.93564800  0.45415000  1
  H  H10  1  0.93564800  0.80973100  0.95415000  1
  H  H11  1  0.19026900  0.06435200  0.54585000  1
  Br  Br12  1  0.82451900  0.96501100  0.20344600  1
  Br  Br13  1  0.03498900  0.17548100  0.29655400  1
  Br  Br14  1  0.17548100  0.03498900  0.79655400  1
  Br  Br15  1  0.96501100  0.82451900  0.70344600  1
  O  O16  1  0.78194300  0.87426100  0.41598600  1
  O  O17  1  0.12573900  0.21805700  0.08401400  1
  O  O18  1  0.21805700  0.12573900  0.58401400  1
  O  O19  1  0.87426100  0.78194300  0.91598600  1
  O  O20  1  0.72776700  0.90797200  0.14249600  1
  O  O21  1  0.09202800  0.27223300  0.35750400  1
  O  O22  1  0.27223300  0.09202800  0.85750400  1
  O  O23  1  0.90797200  0.72776700  0.64249600  1
  O  O24  1  0.07727000  0.82700700  0.13532900  1
  O  O25  1  0.17299300  0.92273000  0.36467100  1
  O  O26  1  0.92273000  0.17299300  0.86467100  1
  O  O27  1  0.82700700  0.07727000  0.63532900  1
  O  O28  1  0.61248600  0.30094800  0.13404400  1
  O  O29  1  0.69905200  0.38751400  0.36595600  1
  O  O30  1  0.38751400  0.69905200  0.86595600  1
  O  O31  1  0.30094800  0.61248600  0.63404400  1
  O  O32  1  0.29287700  0.00593300  0.15916700  1
  O  O33  1  0.99406700  0.70712300  0.34083300  1
  O  O34  1  0.70712300  0.99406700  0.84083300  1
  O  O35  1  0.00593300  0.29287700  0.65916700  1
