# generated using pymatgen
data_Rb2UO3F4
_symmetry_space_group_name_H-M   'P 1'
_cell_length_a   10.69587900
_cell_length_b   12.74238200
_cell_length_c   13.33637900
_cell_angle_alpha   90.00000000
_cell_angle_beta   90.00000000
_cell_angle_gamma   90.00000000
_symmetry_Int_Tables_number   1
_chemical_formula_structural   Rb2UO3F4
_chemical_formula_sum   'Rb16 U8 O24 F32'
_cell_volume   1817.62811080
_cell_formula_units_Z   8
loop_
 _symmetry_equiv_pos_site_id
 _symmetry_equiv_pos_as_xyz
  1  'x, y, z'
loop_
 _atom_site_type_symbol
 _atom_site_label
 _atom_site_symmetry_multiplicity
 _atom_site_fract_x
 _atom_site_fract_y
 _atom_site_fract_z
 _atom_site_occupancy
  Rb  Rb0  1  0.46381100  0.12770200  0.07105200  1
  Rb  Rb1  1  0.96381100  0.87229800  0.42894800  1
  Rb  Rb2  1  0.53618900  0.37229800  0.57105200  1
  Rb  Rb3  1  0.03618900  0.62770200  0.92894800  1
  Rb  Rb4  1  0.53618900  0.87229800  0.92894800  1
  Rb  Rb5  1  0.03618900  0.12770200  0.57105200  1
  Rb  Rb6  1  0.46381100  0.62770200  0.42894800  1
  Rb  Rb7  1  0.96381100  0.37229800  0.07105200  1
  Rb  Rb8  1  0.72125300  0.29649300  0.81773100  1
  Rb  Rb9  1  0.22125300  0.70350700  0.68226900  1
  Rb  Rb10  1  0.27874700  0.20350700  0.31773100  1
  Rb  Rb11  1  0.77874700  0.79649300  0.18226900  1
  Rb  Rb12  1  0.27874700  0.70350700  0.18226900  1
  Rb  Rb13  1  0.77874700  0.29649300  0.31773100  1
  Rb  Rb14  1  0.72125300  0.79649300  0.68226900  1
  Rb  Rb15  1  0.22125300  0.20350700  0.81773100  1
  U  U16  1  0.67984500  0.56076000  0.00466800  1
  U  U17  1  0.17984500  0.43924000  0.49533200  1
  U  U18  1  0.32015500  0.93924000  0.50466800  1
  U  U19  1  0.82015500  0.06076000  0.99533200  1
  U  U20  1  0.32015500  0.43924000  0.99533200  1
  U  U21  1  0.82015500  0.56076000  0.50466800  1
  U  U22  1  0.67984500  0.06076000  0.49533200  1
  U  U23  1  0.17984500  0.93924000  0.00466800  1
  O  O24  1  0.29516500  0.35704800  0.15238200  1
  O  O25  1  0.79516500  0.64295200  0.34761800  1
  O  O26  1  0.70483500  0.14295200  0.65238200  1
  O  O27  1  0.20483500  0.85704800  0.84761800  1
  O  O28  1  0.70483500  0.64295200  0.84761800  1
  O  O29  1  0.20483500  0.35704800  0.65238200  1
  O  O30  1  0.29516500  0.85704800  0.34761800  1
  O  O31  1  0.79516500  0.14295200  0.15238200  1
  O  O32  1  0.83137500  0.61056800  0.06273500  1
  O  O33  1  0.33137500  0.38943200  0.43726500  1
  O  O34  1  0.16862500  0.88943200  0.56273500  1
  O  O35  1  0.66862500  0.11056800  0.93726500  1
  O  O36  1  0.16862500  0.38943200  0.93726500  1
  O  O37  1  0.66862500  0.61056800  0.56273500  1
  O  O38  1  0.83137500  0.11056800  0.43726500  1
  O  O39  1  0.33137500  0.88943200  0.06273500  1
  O  O40  1  0.60389900  0.18871000  0.45313000  1
  O  O41  1  0.10389900  0.81129000  0.04687000  1
  O  O42  1  0.39610100  0.31129000  0.95313000  1
  O  O43  1  0.89610100  0.68871000  0.54687000  1
  O  O44  1  0.39610100  0.81129000  0.54687000  1
  O  O45  1  0.89610100  0.18871000  0.95313000  1
  O  O46  1  0.60389900  0.68871000  0.04687000  1
  O  O47  1  0.10389900  0.31129000  0.45313000  1
  F  F48  1  0.68350600  0.46652800  0.41828000  1
  F  F49  1  0.18350600  0.53347200  0.08172000  1
  F  F50  1  0.31649400  0.03347200  0.91828000  1
  F  F51  1  0.81649400  0.96652800  0.58172000  1
  F  F52  1  0.31649400  0.53347200  0.58172000  1
  F  F53  1  0.81649400  0.46652800  0.91828000  1
  F  F54  1  0.68350600  0.96652800  0.08172000  1
  F  F55  1  0.18350600  0.03347200  0.41828000  1
  F  F56  1  0.70355300  0.42533400  0.10552400  1
  F  F57  1  0.20355300  0.57466600  0.39447600  1
  F  F58  1  0.29644700  0.07466600  0.60552400  1
  F  F59  1  0.79644700  0.92533400  0.89447600  1
  F  F60  1  0.29644700  0.57466600  0.89447600  1
  F  F61  1  0.79644700  0.42533400  0.60552400  1
  F  F62  1  0.70355300  0.92533400  0.39447600  1
  F  F63  1  0.20355300  0.07466600  0.10552400  1
  F  F64  1  0.54521000  0.47280900  0.91390600  1
  F  F65  1  0.04521000  0.52719100  0.58609400  1
  F  F66  1  0.45479000  0.02719100  0.41390600  1
  F  F67  1  0.95479000  0.97280900  0.08609400  1
  F  F68  1  0.45479000  0.52719100  0.08609400  1
  F  F69  1  0.95479000  0.47280900  0.41390600  1
  F  F70  1  0.54521000  0.97280900  0.58609400  1
  F  F71  1  0.04521000  0.02719100  0.91390600  1
  F  F72  1  0.42506200  0.32296300  0.17499200  1
  F  F73  1  0.92506200  0.67703700  0.32500800  1
  F  F74  1  0.57493800  0.17703700  0.67499200  1
  F  F75  1  0.07493800  0.82296300  0.82500800  1
  F  F76  1  0.57493800  0.67703700  0.82500800  1
  F  F77  1  0.07493800  0.32296300  0.67499200  1
  F  F78  1  0.42506200  0.82296300  0.32500800  1
  F  F79  1  0.92506200  0.17703700  0.17499200  1
