# generated using pymatgen
data_Dy5Sn13
_symmetry_space_group_name_H-M   'P 1'
_cell_length_a   24.47762204
_cell_length_b   24.47762204
_cell_length_c   24.47762204
_cell_angle_alpha   169.69999698
_cell_angle_beta   169.50845291
_cell_angle_gamma   14.72277434
_symmetry_Int_Tables_number   1
_chemical_formula_structural   Dy5Sn13
_chemical_formula_sum   'Dy5 Sn13'
_cell_volume   477.47762469
_cell_formula_units_Z   1
loop_
 _symmetry_equiv_pos_site_id
 _symmetry_equiv_pos_as_xyz
  1  'x, y, z'
loop_
 _atom_site_type_symbol
 _atom_site_label
 _atom_site_symmetry_multiplicity
 _atom_site_fract_x
 _atom_site_fract_y
 _atom_site_fract_z
 _atom_site_occupancy
  Dy  Dy0  1  0.67124600  0.67124600  0.00000000  1
  Dy  Dy1  1  0.39674800  0.89674800  0.50000000  1
  Dy  Dy2  1  0.32875400  0.32875400  0.00000000  1
  Dy  Dy3  1  0.60325200  0.10325200  0.50000000  1
  Dy  Dy4  1  0.00000000  0.50000000  0.50000000  1
  Sn  Sn5  1  0.27968700  0.77968700  0.50000000  1
  Sn  Sn6  1  0.15738500  0.15738500  0.00000000  1
  Sn  Sn7  1  0.88473400  0.38473400  0.50000000  1
  Sn  Sn8  1  0.78041300  0.28041300  0.50000000  1
  Sn  Sn9  1  0.11526600  0.61526600  0.50000000  1
  Sn  Sn10  1  0.05312800  0.05312800  0.00000000  1
  Sn  Sn11  1  0.21958700  0.71958700  0.50000000  1
  Sn  Sn12  1  0.72031300  0.22031300  0.50000000  1
  Sn  Sn13  1  0.44759200  0.44759200  0.00000000  1
  Sn  Sn14  1  0.55240800  0.55240800  0.00000000  1
  Sn  Sn15  1  0.84261500  0.84261500  0.00000000  1
  Sn  Sn16  1  0.50000000  0.00000000  0.50000000  1
  Sn  Sn17  1  0.94687200  0.94687200  0.00000000  1
