# generated using pymatgen
data_Na7Sr2Fe7F32
_symmetry_space_group_name_H-M   'P 1'
_cell_length_a   23.42938498
_cell_length_b   23.37800978
_cell_length_c   7.63009195
_cell_angle_alpha   80.99916394
_cell_angle_beta   80.23790628
_cell_angle_gamma   18.76292978
_symmetry_Int_Tables_number   1
_chemical_formula_structural   Na7Sr2Fe7F32
_chemical_formula_sum   'Na14 Sr4 Fe14 F64'
_cell_volume   1324.69312062
_cell_formula_units_Z   2
loop_
 _symmetry_equiv_pos_site_id
 _symmetry_equiv_pos_as_xyz
  1  'x, y, z'
loop_
 _atom_site_type_symbol
 _atom_site_label
 _atom_site_symmetry_multiplicity
 _atom_site_fract_x
 _atom_site_fract_y
 _atom_site_fract_z
 _atom_site_occupancy
  Na  Na0  1  0.00000000  0.00000000  0.00000000  1
  Na  Na1  1  0.25000000  0.25000000  0.25000000  1
  Na  Na2  1  0.74566600  0.74566600  0.25433400  1
  Na  Na3  1  0.25433400  0.25433400  0.74566600  1
  Na  Na4  1  0.50433400  0.50433400  0.99566600  1
  Na  Na5  1  0.99566600  0.99566600  0.50433400  1
  Na  Na6  1  0.06268900  0.55459600  0.44010800  1
  Na  Na7  1  0.94260700  0.44010800  0.55459600  1
  Na  Na8  1  0.44010800  0.94260700  0.06268900  1
  Na  Na9  1  0.55459600  0.06268900  0.94260700  1
  Na  Na10  1  0.18731100  0.69540400  0.80989200  1
  Na  Na11  1  0.30739300  0.80989200  0.69540400  1
  Na  Na12  1  0.80989200  0.30739300  0.18731100  1
  Na  Na13  1  0.69540400  0.18731100  0.30739300  1
  Sr  Sr14  1  0.86783300  0.86783300  0.13216700  1
  Sr  Sr15  1  0.13216700  0.13216700  0.86783300  1
  Sr  Sr16  1  0.38216700  0.38216700  0.11783300  1
  Sr  Sr17  1  0.11783300  0.11783300  0.38216700  1
  Fe  Fe18  1  0.50000000  0.50000000  0.50000000  1
  Fe  Fe19  1  0.75000000  0.75000000  0.75000000  1
  Fe  Fe20  1  0.62500000  0.62500000  0.12500000  1
  Fe  Fe21  1  0.62500000  0.12500000  0.62500000  1
  Fe  Fe22  1  0.12500000  0.62500000  0.62500000  1
  Fe  Fe23  1  0.62500000  0.62500000  0.62500000  1
  Fe  Fe24  1  0.19291900  0.69257900  0.27956600  1
  Fe  Fe25  1  0.83493600  0.27956600  0.69257900  1
  Fe  Fe26  1  0.27956600  0.83493600  0.19291900  1
  Fe  Fe27  1  0.69257900  0.19291900  0.83493600  1
  Fe  Fe28  1  0.05708100  0.55742100  0.97043400  1
  Fe  Fe29  1  0.41506400  0.97043400  0.55742100  1
  Fe  Fe30  1  0.97043400  0.41506400  0.05708100  1
  Fe  Fe31  1  0.55742100  0.05708100  0.41506400  1
  F  F32  1  0.24534100  0.69519400  0.05920600  1
  F  F33  1  0.00025900  0.05920600  0.69519400  1
  F  F34  1  0.05920600  0.00025900  0.24534100  1
  F  F35  1  0.69519400  0.24534100  0.00025900  1
  F  F36  1  0.00465900  0.55480600  0.19079400  1
  F  F37  1  0.24974100  0.19079400  0.55480600  1
  F  F38  1  0.19079400  0.24974100  0.00465900  1
  F  F39  1  0.55480600  0.00465900  0.24974100  1
  F  F40  1  0.02490100  0.15040400  0.73468200  1
  F  F41  1  0.09001400  0.73468200  0.15040400  1
  F  F42  1  0.73468200  0.09001400  0.02490100  1
  F  F43  1  0.15040400  0.02490100  0.09001400  1
  F  F44  1  0.22509900  0.09959600  0.51531800  1
  F  F45  1  0.15998600  0.51531800  0.09959600  1
  F  F46  1  0.51531800  0.15998600  0.22509900  1
  F  F47  1  0.09959600  0.22509900  0.15998600  1
  F  F48  1  0.14141300  0.58603800  0.39056600  1
  F  F49  1  0.88198300  0.39056600  0.58603800  1
  F  F50  1  0.39056600  0.88198300  0.14141300  1
  F  F51  1  0.58603800  0.14141300  0.88198300  1
  F  F52  1  0.10858700  0.66396200  0.85943400  1
  F  F53  1  0.36801700  0.85943400  0.66396200  1
  F  F54  1  0.85943400  0.36801700  0.10858700  1
  F  F55  1  0.66396200  0.10858700  0.36801700  1
  F  F56  1  0.84060000  0.80731400  0.98406600  1
  F  F57  1  0.36802100  0.98406600  0.80731400  1
  F  F58  1  0.98406600  0.36802100  0.84060000  1
  F  F59  1  0.80731400  0.84060000  0.36802100  1
  F  F60  1  0.40940000  0.44268600  0.26593400  1
  F  F61  1  0.88197900  0.26593400  0.44268600  1
  F  F62  1  0.26593400  0.88197900  0.40940000  1
  F  F63  1  0.44268600  0.40940000  0.88197900  1
  F  F64  1  0.51988400  0.64708600  0.12606800  1
  F  F65  1  0.70696100  0.12606800  0.64708600  1
  F  F66  1  0.12606800  0.70696100  0.51988400  1
  F  F67  1  0.64708600  0.51988400  0.70696100  1
  F  F68  1  0.73011600  0.60291400  0.12393200  1
  F  F69  1  0.54303900  0.12393200  0.60291400  1
  F  F70  1  0.12393200  0.54303900  0.73011600  1
  F  F71  1  0.60291400  0.73011600  0.54303900  1
  F  F72  1  0.31235500  0.26759400  0.48511200  1
  F  F73  1  0.93493800  0.48511200  0.26759400  1
  F  F74  1  0.48511200  0.93493800  0.31235500  1
  F  F75  1  0.26759400  0.31235500  0.93493800  1
  F  F76  1  0.93764500  0.98240600  0.76488800  1
  F  F77  1  0.31506200  0.76488800  0.98240600  1
  F  F78  1  0.76488800  0.31506200  0.93764500  1
  F  F79  1  0.98240600  0.93764500  0.31506200  1
  F  F80  1  0.41885100  0.64044400  0.32388700  1
  F  F81  1  0.61681800  0.32388700  0.64044400  1
  F  F82  1  0.32388700  0.61681800  0.41885100  1
  F  F83  1  0.64044400  0.41885100  0.61681800  1
  F  F84  1  0.83114900  0.60955600  0.92611300  1
  F  F85  1  0.63318200  0.92611300  0.60955600  1
  F  F86  1  0.92611300  0.63318200  0.83114900  1
  F  F87  1  0.60955600  0.83114900  0.63318200  1
  F  F88  1  0.61690000  0.61690000  0.38310000  1
  F  F89  1  0.38310000  0.38310000  0.61690000  1
  F  F90  1  0.63310000  0.63310000  0.86690000  1
  F  F91  1  0.86690000  0.86690000  0.63310000  1
  F  F92  1  0.68128600  0.31871400  0.31871400  1
  F  F93  1  0.31871400  0.68128600  0.68128600  1
  F  F94  1  0.56871400  0.93128600  0.93128600  1
  F  F95  1  0.93128600  0.56871400  0.56871400  1
