# generated using pymatgen
data_Rb3Mo4(P2O11)2
_symmetry_space_group_name_H-M   'P 1'
_cell_length_a   10.27448649
_cell_length_b   10.27448649
_cell_length_c   19.60316300
_cell_angle_alpha   90.00000000
_cell_angle_beta   90.00000000
_cell_angle_gamma   90.27597612
_symmetry_Int_Tables_number   1
_chemical_formula_structural   Rb3Mo4(P2O11)2
_chemical_formula_sum   'Rb12 Mo16 P16 O88'
_cell_volume   2069.38531980
_cell_formula_units_Z   4
loop_
 _symmetry_equiv_pos_site_id
 _symmetry_equiv_pos_as_xyz
  1  'x, y, z'
loop_
 _atom_site_type_symbol
 _atom_site_label
 _atom_site_symmetry_multiplicity
 _atom_site_fract_x
 _atom_site_fract_y
 _atom_site_fract_z
 _atom_site_occupancy
  Rb  Rb0  1  0.79193800  0.79193800  0.00000000  1
  Rb  Rb1  1  0.01326100  0.11288700  0.87537300  1
  Rb  Rb2  1  0.38798700  0.51336100  0.62948600  1
  Rb  Rb3  1  0.11288700  0.01326100  0.12462700  1
  Rb  Rb4  1  0.61201300  0.48663900  0.12948600  1
  Rb  Rb5  1  0.88711300  0.98673900  0.62462700  1
  Rb  Rb6  1  0.71078500  0.28921500  0.75000000  1
  Rb  Rb7  1  0.48663900  0.61201300  0.87051400  1
  Rb  Rb8  1  0.98673900  0.88711300  0.37537300  1
  Rb  Rb9  1  0.28921500  0.71078500  0.25000000  1
  Rb  Rb10  1  0.20806200  0.20806200  0.50000000  1
  Rb  Rb11  1  0.51336100  0.38798700  0.37051400  1
  Mo  Mo12  1  0.01737300  0.63347400  0.56070400  1
  Mo  Mo13  1  0.98262700  0.36652600  0.06070400  1
  Mo  Mo14  1  0.39166500  0.75577000  0.43468400  1
  Mo  Mo15  1  0.89619600  0.74482300  0.81430600  1
  Mo  Mo16  1  0.25517700  0.10380400  0.68569400  1
  Mo  Mo17  1  0.51651300  0.86217000  0.68953500  1
  Mo  Mo18  1  0.75577000  0.39166500  0.56531600  1
  Mo  Mo19  1  0.74482300  0.89619600  0.18569400  1
  Mo  Mo20  1  0.13783000  0.48348700  0.81046500  1
  Mo  Mo21  1  0.60833500  0.24423000  0.93468400  1
  Mo  Mo22  1  0.63347400  0.01737300  0.43929600  1
  Mo  Mo23  1  0.10380400  0.25517700  0.31430600  1
  Mo  Mo24  1  0.48348700  0.13783000  0.18953500  1
  Mo  Mo25  1  0.36652600  0.98262700  0.93929600  1
  Mo  Mo26  1  0.24423000  0.60833500  0.06531600  1
  Mo  Mo27  1  0.86217000  0.51651300  0.31046500  1
  P  P28  1  0.73858200  0.15632900  0.08009700  1
  P  P29  1  0.45332600  0.85782700  0.09044300  1
  P  P30  1  0.64432300  0.95271200  0.84087100  1
  P  P31  1  0.76406900  0.65649200  0.66915100  1
  P  P32  1  0.35567700  0.04728800  0.34087100  1
  P  P33  1  0.84367100  0.26141800  0.41990300  1
  P  P34  1  0.85782700  0.45332600  0.90955700  1
  P  P35  1  0.34350800  0.23593100  0.83084900  1
  P  P36  1  0.26141800  0.84367100  0.58009700  1
  P  P37  1  0.14217300  0.54667400  0.40955700  1
  P  P38  1  0.54667400  0.14217300  0.59044300  1
  P  P39  1  0.65649200  0.76406900  0.33084900  1
  P  P40  1  0.23593100  0.34350800  0.16915100  1
  P  P41  1  0.15632900  0.73858200  0.91990300  1
  P  P42  1  0.04728800  0.35567700  0.65912900  1
  P  P43  1  0.95271200  0.64432300  0.15912900  1
  O  O44  1  0.81428200  0.39916300  0.39340600  1
  O  O45  1  0.76658300  0.67771500  0.35819200  1
  O  O46  1  0.97706900  0.20726000  0.39611400  1
  O  O47  1  0.88582600  0.52309600  0.53593100  1
  O  O48  1  0.63766700  0.95006300  0.76170200  1
  O  O49  1  0.23067500  0.02183800  0.98696700  1
  O  O50  1  0.68330400  0.90503700  0.35847300  1
  O  O51  1  0.48092400  0.72154000  0.73456100  1
  O  O52  1  0.73035100  0.17062100  0.39501400  1
  O  O53  1  0.47690400  0.11417400  0.96406900  1
  O  O54  1  0.13593800  0.55457500  0.49022500  1
  O  O55  1  0.67771500  0.76658300  0.64180800  1
  O  O56  1  0.73804700  0.15587800  0.00066200  1
  O  O57  1  0.02183800  0.23067500  0.01303300  1
  O  O58  1  0.35508200  0.74965500  0.11402300  1
  O  O59  1  0.31805200  0.90746500  0.36403000  1
  O  O60  1  0.28661900  0.48038100  0.14582600  1
  O  O61  1  0.17062200  0.73035100  0.60498600  1
  O  O62  1  0.26964900  0.82937800  0.89501400  1
  O  O63  1  0.65615500  0.76496200  0.25186500  1
  O  O64  1  0.40709400  0.18120200  0.60978200  1
  O  O65  1  0.09496300  0.31669600  0.14152700  1
  O  O66  1  0.51961900  0.71338100  0.35417400  1
  O  O67  1  0.86406200  0.44542500  0.99022500  1
  O  O68  1  0.90503700  0.68330400  0.64152700  1
  O  O69  1  0.48545100  0.09174400  0.37407600  1
  O  O70  1  0.48038100  0.28661900  0.85417400  1
  O  O71  1  0.79274000  0.02293100  0.10388600  1
  O  O72  1  0.36233300  0.04993700  0.26170200  1
  O  O73  1  0.02293200  0.79274000  0.89611400  1
  O  O74  1  0.18120200  0.40709400  0.39021800  1
  O  O75  1  0.39916300  0.81428200  0.60659400  1
  O  O76  1  0.68194800  0.09253500  0.86403000  1
  O  O77  1  0.34384500  0.23503800  0.75186500  1
  O  O78  1  0.32228500  0.23341700  0.14180800  1
  O  O79  1  0.93093800  0.87899200  0.76481600  1
  O  O80  1  0.74939200  0.85401500  0.86522000  1
  O  O81  1  0.44542500  0.86406200  0.00977500  1
  O  O82  1  0.14598500  0.25060800  0.63478000  1
  O  O83  1  0.61291800  0.01366500  0.21582100  1
  O  O84  1  0.56658800  0.37225200  0.98639400  1
  O  O85  1  0.97816200  0.76932500  0.51303300  1
  O  O86  1  0.37225200  0.56658800  0.01360600  1
  O  O87  1  0.27846000  0.51907600  0.76543900  1
  O  O88  1  0.98633500  0.38708200  0.28417900  1
  O  O89  1  0.11417400  0.47690400  0.03593100  1
  O  O90  1  0.62774800  0.43341200  0.51360600  1
  O  O91  1  0.98595900  0.40745000  0.87816800  1
  O  O92  1  0.04993700  0.36233300  0.73829800  1
  O  O93  1  0.72154000  0.48092400  0.26543900  1
  O  O94  1  0.74965500  0.35508200  0.88597700  1
  O  O95  1  0.90825600  0.51454900  0.12592400  1
  O  O96  1  0.90746500  0.31805200  0.63597000  1
  O  O97  1  0.64491800  0.25034500  0.61402300  1
  O  O98  1  0.09174400  0.48545100  0.62592400  1
  O  O99  1  0.01366500  0.61291800  0.78417900  1
  O  O100  1  0.84412200  0.26195300  0.49933800  1
  O  O101  1  0.95006300  0.63766700  0.23829800  1
  O  O102  1  0.18571800  0.60083700  0.89340600  1
  O  O103  1  0.55457500  0.13593800  0.50977500  1
  O  O104  1  0.59290600  0.81879800  0.10978200  1
  O  O105  1  0.71338100  0.51961900  0.64582600  1
  O  O106  1  0.40745000  0.98595900  0.12183200  1
  O  O107  1  0.43341200  0.62774800  0.48639400  1
  O  O108  1  0.85401500  0.74939200  0.13478000  1
  O  O109  1  0.81879800  0.59290600  0.89021800  1
  O  O110  1  0.59255000  0.01404100  0.62183200  1
  O  O111  1  0.51907600  0.27846000  0.23456100  1
  O  O112  1  0.82937800  0.26964900  0.10498600  1
  O  O113  1  0.38708200  0.98633500  0.71582100  1
  O  O114  1  0.76932500  0.97816200  0.48696700  1
  O  O115  1  0.26195300  0.84412200  0.50066200  1
  O  O116  1  0.51454900  0.90825600  0.87407600  1
  O  O117  1  0.23341700  0.32228500  0.85819200  1
  O  O118  1  0.31669600  0.09496300  0.85847300  1
  O  O119  1  0.20726000  0.97706800  0.60388600  1
  O  O120  1  0.09253500  0.68194800  0.13597000  1
  O  O121  1  0.12100800  0.06906200  0.73518400  1
  O  O122  1  0.25034500  0.64491800  0.38597700  1
  O  O123  1  0.25060800  0.14598500  0.36522000  1
  O  O124  1  0.23503800  0.34384500  0.24813500  1
  O  O125  1  0.01404100  0.59255000  0.37816800  1
  O  O126  1  0.60083700  0.18571800  0.10659400  1
  O  O127  1  0.06906200  0.12100800  0.26481600  1
  O  O128  1  0.87899200  0.93093800  0.23518400  1
  O  O129  1  0.52309600  0.88582600  0.46406900  1
  O  O130  1  0.76496200  0.65615500  0.74813500  1
  O  O131  1  0.15587800  0.73804700  0.99933800  1
