# generated using pymatgen
data_PbI2
_symmetry_space_group_name_H-M   'P 1'
_cell_length_a   4.66878935
_cell_length_b   4.66878935
_cell_length_c   75.08176200
_cell_angle_alpha   90.00000000
_cell_angle_beta   90.00000000
_cell_angle_gamma   119.99999086
_symmetry_Int_Tables_number   1
_chemical_formula_structural   PbI2
_chemical_formula_sum   'Pb10 I20'
_cell_volume   1417.33883744
_cell_formula_units_Z   10
loop_
 _symmetry_equiv_pos_site_id
 _symmetry_equiv_pos_as_xyz
  1  'x, y, z'
loop_
 _atom_site_type_symbol
 _atom_site_label
 _atom_site_symmetry_multiplicity
 _atom_site_fract_x
 _atom_site_fract_y
 _atom_site_fract_z
 _atom_site_occupancy
  Pb  Pb0  1  0.00000000  0.00000000  0.82681300  1
  Pb  Pb1  1  0.33333300  0.66666700  0.32677300  1
  Pb  Pb2  1  0.33333300  0.66666700  0.52674900  1
  Pb  Pb3  1  0.33333300  0.66666700  0.12651800  1
  Pb  Pb4  1  0.00000000  0.00000000  0.92663300  1
  Pb  Pb5  1  0.33333300  0.66666700  0.42665800  1
  Pb  Pb6  1  0.33333300  0.66666700  0.72675100  1
  Pb  Pb7  1  0.33333300  0.66666700  0.22661300  1
  Pb  Pb8  1  0.33333300  0.66666700  0.02667600  1
  Pb  Pb9  1  0.33333300  0.66666700  0.62650300  1
  I  I10  1  0.00000000  0.00000000  0.10162800  1
  I  I11  1  0.33333300  0.66666700  0.90174300  1
  I  I12  1  0.00000000  0.00000000  0.60160500  1
  I  I13  1  0.66666700  0.33333300  0.85168300  1
  I  I14  1  0.00000000  0.00000000  0.30189000  1
  I  I15  1  0.00000000  0.00000000  0.20171700  1
  I  I16  1  0.00000000  0.00000000  0.40177400  1
  I  I17  1  0.66666700  0.33333300  0.15139600  1
  I  I18  1  0.66666700  0.33333300  0.35163500  1
  I  I19  1  0.33333300  0.66666700  0.80193500  1
  I  I20  1  0.00000000  0.00000000  0.00181900  1
  I  I21  1  0.66666700  0.33333300  0.55162400  1
  I  I22  1  0.66666700  0.33333300  0.05155600  1
  I  I23  1  0.66666700  0.33333300  0.65138900  1
  I  I24  1  0.66666700  0.33333300  0.75162400  1
  I  I25  1  0.66666700  0.33333300  0.95149700  1
  I  I26  1  0.66666700  0.33333300  0.25150400  1
  I  I27  1  0.00000000  0.00000000  0.50187700  1
  I  I28  1  0.00000000  0.00000000  0.70187700  1
  I  I29  1  0.66666700  0.33333300  0.45154000  1
