# generated using pymatgen
data_Mg(FeO2)2
_symmetry_space_group_name_H-M   'P 1'
_cell_length_a   5.91218200
_cell_length_b   5.91218200
_cell_length_c   8.36623700
_cell_angle_alpha   90.00000000
_cell_angle_beta   90.00000000
_cell_angle_gamma   90.00000000
_symmetry_Int_Tables_number   1
_chemical_formula_structural   Mg(FeO2)2
_chemical_formula_sum   'Mg4 Fe8 O16'
_cell_volume   292.43257802
_cell_formula_units_Z   4
loop_
 _symmetry_equiv_pos_site_id
 _symmetry_equiv_pos_as_xyz
  1  'x, y, z'
loop_
 _atom_site_type_symbol
 _atom_site_label
 _atom_site_symmetry_multiplicity
 _atom_site_fract_x
 _atom_site_fract_y
 _atom_site_fract_z
 _atom_site_occupancy
  Mg  Mg0  1  0.24764800  0.50000000  0.75000000  1
  Mg  Mg1  1  0.50000000  0.75235200  0.50000000  1
  Mg  Mg2  1  0.75235200  0.50000000  0.25000000  1
  Mg  Mg3  1  0.50000000  0.24764800  0.00000000  1
  Fe  Fe4  1  0.24765600  0.00000000  0.75000000  1
  Fe  Fe5  1  0.75147400  0.24852600  0.62500000  1
  Fe  Fe6  1  0.75234400  0.00000000  0.25000000  1
  Fe  Fe7  1  0.24852600  0.75147400  0.12500000  1
  Fe  Fe8  1  0.75147400  0.75147400  0.87500000  1
  Fe  Fe9  1  0.00000000  0.75234400  0.50000000  1
  Fe  Fe10  1  0.24852600  0.24852600  0.37500000  1
  Fe  Fe11  1  0.00000000  0.24765600  0.00000000  1
  O  O12  1  0.51909700  0.23839300  0.24962800  1
  O  O13  1  0.76159700  0.01359500  0.01333600  1
  O  O14  1  0.98640500  0.23840300  0.23666400  1
  O  O15  1  0.23840300  0.01359500  0.98666400  1
  O  O16  1  0.48090300  0.23839300  0.75037200  1
  O  O17  1  0.01359500  0.23840300  0.76333600  1
  O  O18  1  0.98640500  0.76159700  0.26333600  1
  O  O19  1  0.01359500  0.76159700  0.73666400  1
  O  O20  1  0.48090300  0.76160700  0.74962800  1
  O  O21  1  0.76160700  0.51909700  0.49962800  1
  O  O22  1  0.76160700  0.48090300  0.00037200  1
  O  O23  1  0.51909700  0.76160700  0.25037200  1
  O  O24  1  0.76159700  0.98640500  0.48666400  1
  O  O25  1  0.23839300  0.48090300  0.99962800  1
  O  O26  1  0.23839300  0.51909700  0.50037200  1
  O  O27  1  0.23840300  0.98640500  0.51333600  1
