# generated using pymatgen
data_CsYbZnSe3
_symmetry_space_group_name_H-M   'P 1'
_cell_length_a   8.50875639
_cell_length_b   8.50875639
_cell_length_c   11.13381900
_cell_angle_alpha   90.00000000
_cell_angle_beta   90.00000000
_cell_angle_gamma   152.20156622
_symmetry_Int_Tables_number   1
_chemical_formula_structural   CsYbZnSe3
_chemical_formula_sum   'Cs2 Yb2 Zn2 Se6'
_cell_volume   375.92388489
_cell_formula_units_Z   2
loop_
 _symmetry_equiv_pos_site_id
 _symmetry_equiv_pos_as_xyz
  1  'x, y, z'
loop_
 _atom_site_type_symbol
 _atom_site_label
 _atom_site_symmetry_multiplicity
 _atom_site_fract_x
 _atom_site_fract_y
 _atom_site_fract_z
 _atom_site_occupancy
  Cs  Cs0  1  0.73949300  0.26050700  0.25000000  1
  Cs  Cs1  1  0.26050700  0.73949300  0.75000000  1
  Yb  Yb2  1  0.00000000  0.00000000  0.00000000  1
  Yb  Yb3  1  0.00000000  0.00000000  0.50000000  1
  Zn  Zn4  1  0.53904500  0.46095500  0.75000000  1
  Zn  Zn5  1  0.46095500  0.53904500  0.25000000  1
  Se  Se6  1  0.94725700  0.05274300  0.75000000  1
  Se  Se7  1  0.05274300  0.94725700  0.25000000  1
  Se  Se8  1  0.61914100  0.38085900  0.56412200  1
  Se  Se9  1  0.38085900  0.61914100  0.06412200  1
  Se  Se10  1  0.38085900  0.61914100  0.43587800  1
  Se  Se11  1  0.61914100  0.38085900  0.93587800  1
