# generated using pymatgen
data_P4S9
_symmetry_space_group_name_H-M   'P 1'
_cell_length_a   16.31311268
_cell_length_b   16.31311268
_cell_length_c   16.31311268
_cell_angle_alpha   109.47122063
_cell_angle_beta   109.47122063
_cell_angle_gamma   109.47122063
_symmetry_Int_Tables_number   1
_chemical_formula_structural   P4S9
_chemical_formula_sum   'P32 S72'
_cell_volume   3341.86281303
_cell_formula_units_Z   8
loop_
 _symmetry_equiv_pos_site_id
 _symmetry_equiv_pos_as_xyz
  1  'x, y, z'
loop_
 _atom_site_type_symbol
 _atom_site_label
 _atom_site_symmetry_multiplicity
 _atom_site_fract_x
 _atom_site_fract_y
 _atom_site_fract_z
 _atom_site_occupancy
  P  P0  1  0.75534600  0.39655200  0.85361200  1
  P  P1  1  0.85361200  0.75534600  0.39655200  1
  P  P2  1  0.14120600  0.54293900  0.89655200  1
  P  P3  1  0.24465400  0.60344800  0.14638800  1
  P  P4  1  0.04293900  0.90173400  0.64638800  1
  P  P5  1  0.66259700  0.50000000  0.00000000  1
  P  P6  1  0.85879400  0.45706100  0.10344800  1
  P  P7  1  0.90173400  0.64638800  0.04293900  1
  P  P8  1  0.00000000  0.66259700  0.50000000  1
  P  P9  1  0.00000000  0.33740300  0.50000000  1
  P  P10  1  0.64120600  0.74465400  0.59826600  1
  P  P11  1  0.16259700  0.16259700  0.16259700  1
  P  P12  1  0.10344800  0.85879400  0.45706100  1
  P  P13  1  0.60344800  0.14638800  0.24465400  1
  P  P14  1  0.33740300  0.50000000  0.00000000  1
  P  P15  1  0.64638800  0.04293900  0.90173400  1
  P  P16  1  0.40173400  0.35879400  0.25534600  1
  P  P17  1  0.39655200  0.85361200  0.75534600  1
  P  P18  1  0.35879400  0.25534600  0.40173400  1
  P  P19  1  0.74465400  0.59826600  0.64120600  1
  P  P20  1  0.83740300  0.83740300  0.83740300  1
  P  P21  1  0.54293900  0.89655200  0.14120600  1
  P  P22  1  0.25534600  0.40173400  0.35879400  1
  P  P23  1  0.35361200  0.95706100  0.09826600  1
  P  P24  1  0.45706100  0.10344800  0.85879400  1
  P  P25  1  0.50000000  0.00000000  0.66259700  1
  P  P26  1  0.14638800  0.24465400  0.60344800  1
  P  P27  1  0.89655200  0.14120600  0.54293900  1
  P  P28  1  0.50000000  0.00000000  0.33740300  1
  P  P29  1  0.95706100  0.09826600  0.35361200  1
  P  P30  1  0.59826600  0.64120600  0.74465400  1
  P  P31  1  0.09826600  0.35361200  0.95706100  1
  S  S32  1  0.72213200  0.72174000  0.30342500  1
  S  S33  1  0.58129300  0.80342500  0.08168500  1
  S  S34  1  0.14556000  0.96479600  0.60278600  1
  S  S35  1  0.46479600  0.31923600  0.36201000  1
  S  S36  1  0.30342500  0.72213200  0.72174000  1
  S  S37  1  0.22749100  0.35464300  0.95647200  1
  S  S38  1  0.85464300  0.62715200  0.39817100  1
  S  S39  1  0.77101900  0.87284800  0.72749100  1
  S  S40  1  0.89817100  0.27101900  0.54352800  1
  S  S41  1  0.89721400  0.86201000  0.54277400  1
  S  S42  1  0.91870700  0.00039200  0.22213200  1
  S  S43  1  0.95722600  0.81923600  0.35444000  1
  S  S44  1  0.87284800  0.72749100  0.77101900  1
  S  S45  1  0.39817100  0.85464300  0.62715200  1
  S  S46  1  0.27786800  0.27826000  0.69657500  1
  S  S47  1  0.22174000  0.49960800  0.41831500  1
  S  S48  1  0.62715200  0.39817100  0.85464300  1
  S  S49  1  0.27101900  0.54352800  0.89817100  1
  S  S50  1  0.85444000  0.03520400  0.39721400  1
  S  S51  1  0.80342500  0.08168500  0.58129300  1
  S  S52  1  0.35444000  0.95722600  0.81923600  1
  S  S53  1  0.72749100  0.77101900  0.87284800  1
  S  S54  1  0.10182900  0.72898100  0.45647200  1
  S  S55  1  0.08129300  0.99960800  0.77786800  1
  S  S56  1  0.08168500  0.58129300  0.80342500  1
  S  S57  1  0.86201000  0.54277400  0.89721400  1
  S  S58  1  0.72174000  0.30342500  0.72213200  1
  S  S59  1  0.22898100  0.12715200  0.27250900  1
  S  S60  1  0.63799000  0.53520400  0.68076400  1
  S  S61  1  0.54277400  0.89721400  0.86201000  1
  S  S62  1  0.13799000  0.45722600  0.10278600  1
  S  S63  1  0.53520400  0.68076400  0.63799000  1
  S  S64  1  0.18076400  0.64556000  0.04277400  1
  S  S65  1  0.69657500  0.27786800  0.27826000  1
  S  S66  1  0.14535700  0.37284800  0.60182900  1
  S  S67  1  0.77250900  0.64535700  0.04352800  1
  S  S68  1  0.81923600  0.35444000  0.95722600  1
  S  S69  1  0.58168500  0.77826000  0.50039200  1
  S  S70  1  0.60182900  0.14535700  0.37284800  1
  S  S71  1  0.22213200  0.91870700  0.00039200  1
  S  S72  1  0.03520400  0.39721400  0.85444000  1
  S  S73  1  0.19657500  0.91831500  0.41870700  1
  S  S74  1  0.64556000  0.04277400  0.18076400  1
  S  S75  1  0.95647200  0.22749100  0.35464300  1
  S  S76  1  0.50039200  0.58168500  0.77826000  1
  S  S77  1  0.27250900  0.22898100  0.12715200  1
  S  S78  1  0.49960800  0.41831500  0.22174000  1
  S  S79  1  0.37284800  0.60182900  0.14535700  1
  S  S80  1  0.35464300  0.95647200  0.22749100  1
  S  S81  1  0.12715200  0.27250900  0.22898100  1
  S  S82  1  0.99960800  0.77786800  0.08129300  1
  S  S83  1  0.72898100  0.45647200  0.10182900  1
  S  S84  1  0.41870700  0.19657500  0.91831500  1
  S  S85  1  0.41831500  0.22174000  0.49960800  1
  S  S86  1  0.60278600  0.14556000  0.96479600  1
  S  S87  1  0.68076400  0.63799000  0.53520400  1
  S  S88  1  0.39721400  0.85444000  0.03520400  1
  S  S89  1  0.36201000  0.46479600  0.31923600  1
  S  S90  1  0.96479600  0.60278600  0.14556000  1
  S  S91  1  0.10278600  0.13799000  0.45722600  1
  S  S92  1  0.64535700  0.04352800  0.77250900  1
  S  S93  1  0.45647200  0.10182900  0.72898100  1
  S  S94  1  0.27826000  0.69657500  0.27786800  1
  S  S95  1  0.00039200  0.22213200  0.91870700  1
  S  S96  1  0.54352800  0.89817100  0.27101900  1
  S  S97  1  0.77826000  0.50039200  0.58168500  1
  S  S98  1  0.77786800  0.08129300  0.99960800  1
  S  S99  1  0.04277400  0.18076400  0.64556000  1
  S  S100  1  0.31923600  0.36201000  0.46479600  1
  S  S101  1  0.04352800  0.77250900  0.64535700  1
  S  S102  1  0.91831500  0.41870700  0.19657500  1
  S  S103  1  0.45722600  0.10278600  0.13799000  1
