# generated using pymatgen
data_Pd5(N9Cl5)2
_symmetry_space_group_name_H-M   'P 1'
_cell_length_a   7.93315800
_cell_length_b   7.93315800
_cell_length_c   24.34247800
_cell_angle_alpha   90.00000000
_cell_angle_beta   90.00000000
_cell_angle_gamma   90.00000000
_symmetry_Int_Tables_number   1
_chemical_formula_structural   Pd5(N9Cl5)2
_chemical_formula_sum   'Pd10 N36 Cl20'
_cell_volume   1531.99375198
_cell_formula_units_Z   2
loop_
 _symmetry_equiv_pos_site_id
 _symmetry_equiv_pos_as_xyz
  1  'x, y, z'
loop_
 _atom_site_type_symbol
 _atom_site_label
 _atom_site_symmetry_multiplicity
 _atom_site_fract_x
 _atom_site_fract_y
 _atom_site_fract_z
 _atom_site_occupancy
  Pd  Pd0  1  0.00000000  0.00000000  0.50000000  1
  Pd  Pd1  1  0.50000000  0.50000000  0.00000000  1
  Pd  Pd2  1  0.00000000  0.00000000  0.70196100  1
  Pd  Pd3  1  0.50000000  0.50000000  0.20196100  1
  Pd  Pd4  1  0.50000000  0.50000000  0.79803900  1
  Pd  Pd5  1  0.00000000  0.00000000  0.29803900  1
  Pd  Pd6  1  0.00000000  0.50000000  0.02351900  1
  Pd  Pd7  1  0.00000000  0.50000000  0.52351900  1
  Pd  Pd8  1  0.50000000  0.00000000  0.47648100  1
  Pd  Pd9  1  0.50000000  0.00000000  0.97648100  1
  N  N10  1  0.00000000  0.23735500  0.52272800  1
  N  N11  1  0.00000000  0.76264500  0.52272800  1
  N  N12  1  0.73735500  0.50000000  0.02272800  1
  N  N13  1  0.26264500  0.50000000  0.02272800  1
  N  N14  1  0.50000000  0.26264500  0.97727200  1
  N  N15  1  0.50000000  0.73735500  0.97727200  1
  N  N16  1  0.76264500  0.00000000  0.47727200  1
  N  N17  1  0.23735500  0.00000000  0.47727200  1
  N  N18  1  0.00000000  0.17032300  0.75664100  1
  N  N19  1  0.00000000  0.82967700  0.75664100  1
  N  N20  1  0.67032300  0.50000000  0.25664100  1
  N  N21  1  0.32967700  0.50000000  0.25664100  1
  N  N22  1  0.50000000  0.32967700  0.74335900  1
  N  N23  1  0.50000000  0.67032300  0.74335900  1
  N  N24  1  0.82967700  0.00000000  0.24335900  1
  N  N25  1  0.17032300  0.00000000  0.24335900  1
  N  N26  1  0.73671200  0.00000000  0.68450700  1
  N  N27  1  0.26328800  0.00000000  0.68450700  1
  N  N28  1  0.50000000  0.23671200  0.18450700  1
  N  N29  1  0.50000000  0.76328800  0.18450700  1
  N  N30  1  0.76328800  0.50000000  0.81549300  1
  N  N31  1  0.23671200  0.50000000  0.81549300  1
  N  N32  1  0.00000000  0.26328800  0.31549300  1
  N  N33  1  0.00000000  0.73671200  0.31549300  1
  N  N34  1  0.00000000  0.26153800  0.04825400  1
  N  N35  1  0.00000000  0.73846200  0.04825400  1
  N  N36  1  0.76153800  0.50000000  0.54825400  1
  N  N37  1  0.23846200  0.50000000  0.54825400  1
  N  N38  1  0.50000000  0.23846200  0.45174600  1
  N  N39  1  0.50000000  0.76153800  0.45174600  1
  N  N40  1  0.73846200  0.00000000  0.95174600  1
  N  N41  1  0.26153800  0.00000000  0.95174600  1
  N  N42  1  0.00000000  0.50000000  0.94793700  1
  N  N43  1  0.00000000  0.50000000  0.44793700  1
  N  N44  1  0.50000000  0.00000000  0.55206300  1
  N  N45  1  0.50000000  0.00000000  0.05206300  1
  Cl  Cl46  1  0.00000000  0.50000000  0.12700500  1
  Cl  Cl47  1  0.00000000  0.50000000  0.62700500  1
  Cl  Cl48  1  0.50000000  0.00000000  0.37299500  1
  Cl  Cl49  1  0.50000000  0.00000000  0.87299500  1
  Cl  Cl50  1  0.18017800  0.25780700  0.35719900  1
  Cl  Cl51  1  0.81982200  0.25780700  0.35719900  1
  Cl  Cl52  1  0.18017800  0.74219300  0.35719900  1
  Cl  Cl53  1  0.81982200  0.74219300  0.35719900  1
  Cl  Cl54  1  0.75780700  0.68017800  0.85719900  1
  Cl  Cl55  1  0.24219300  0.68017800  0.85719900  1
  Cl  Cl56  1  0.75780700  0.31982200  0.85719900  1
  Cl  Cl57  1  0.24219300  0.31982200  0.85719900  1
  Cl  Cl58  1  0.31982200  0.24219300  0.14280100  1
  Cl  Cl59  1  0.68017800  0.24219300  0.14280100  1
  Cl  Cl60  1  0.31982200  0.75780700  0.14280100  1
  Cl  Cl61  1  0.68017800  0.75780700  0.14280100  1
  Cl  Cl62  1  0.74219300  0.81982200  0.64280100  1
  Cl  Cl63  1  0.25780700  0.81982200  0.64280100  1
  Cl  Cl64  1  0.74219300  0.18017800  0.64280100  1
  Cl  Cl65  1  0.25780700  0.18017800  0.64280100  1
