# generated using pymatgen
data_Pb10SO13F2
_symmetry_space_group_name_H-M   'P 1'
_cell_length_a   9.70494700
_cell_length_b   10.58359664
_cell_length_c   11.17605858
_cell_angle_alpha   109.88366069
_cell_angle_beta   90.69485801
_cell_angle_gamma   107.41409218
_symmetry_Int_Tables_number   1
_chemical_formula_structural   Pb10SO13F2
_chemical_formula_sum   'Pb20 S2 O26 F4'
_cell_volume   1021.68446834
_cell_formula_units_Z   2
loop_
 _symmetry_equiv_pos_site_id
 _symmetry_equiv_pos_as_xyz
  1  'x, y, z'
loop_
 _atom_site_type_symbol
 _atom_site_label
 _atom_site_symmetry_multiplicity
 _atom_site_fract_x
 _atom_site_fract_y
 _atom_site_fract_z
 _atom_site_occupancy
  Pb  Pb0  1  0.53563300  0.55405000  0.81635200  1
  Pb  Pb1  1  0.46436700  0.44595000  0.18364800  1
  Pb  Pb2  1  0.65513900  0.95394500  0.90678400  1
  Pb  Pb3  1  0.34486100  0.04605500  0.09321600  1
  Pb  Pb4  1  0.56211100  0.69624300  0.55115300  1
  Pb  Pb5  1  0.43788900  0.30375700  0.44884700  1
  Pb  Pb6  1  0.17178800  0.50342900  0.41386800  1
  Pb  Pb7  1  0.82821200  0.49657100  0.58613200  1
  Pb  Pb8  1  0.58859200  0.83028900  0.17317100  1
  Pb  Pb9  1  0.41140800  0.16971100  0.82682900  1
  Pb  Pb10  1  0.18395200  0.65278900  0.16064100  1
  Pb  Pb11  1  0.81604800  0.34721100  0.83935900  1
  Pb  Pb12  1  0.91910200  0.76150700  0.96311800  1
  Pb  Pb13  1  0.08089800  0.23849300  0.03688200  1
  Pb  Pb14  1  0.27365800  0.75192700  0.75682100  1
  Pb  Pb15  1  0.72634200  0.24807300  0.24317900  1
  Pb  Pb16  1  0.27865800  0.89578500  0.47350800  1
  Pb  Pb17  1  0.72134200  0.10421500  0.52649200  1
  Pb  Pb18  1  0.89483200  0.72840300  0.31258000  1
  Pb  Pb19  1  0.10516800  0.27159700  0.68742000  1
  S  S20  1  0.97243600  0.92515600  0.70577500  1
  S  S21  1  0.02756400  0.07484400  0.29422500  1
  O  O22  1  0.50095300  0.73751600  0.76488000  1
  O  O23  1  0.49904700  0.26248400  0.23512000  1
  O  O24  1  0.40149200  0.48866000  0.39584900  1
  O  O25  1  0.59850800  0.51134000  0.60415100  1
  O  O26  1  0.57583800  0.00766700  0.11735700  1
  O  O27  1  0.42416200  0.99233300  0.88264300  1
  O  O28  1  0.32325400  0.73590200  0.55369300  1
  O  O29  1  0.67674600  0.26409800  0.44630700  1
  O  O30  1  0.68571400  0.75835500  0.97562400  1
  O  O31  1  0.31428600  0.24164500  0.02437600  1
  O  O32  1  0.10166200  0.69462700  0.35372100  1
  O  O33  1  0.89833800  0.30537300  0.64627900  1
  O  O34  1  0.20408700  0.46657500  0.18133000  1
  O  O35  1  0.79591300  0.53342500  0.81867000  1
  O  O36  1  0.85911200  0.81726000  0.74221700  1
  O  O37  1  0.14088800  0.18274000  0.25778300  1
  O  O38  1  0.90038100  0.00079600  0.19070600  1
  O  O39  1  0.09961900  0.99920400  0.80929400  1
  O  O40  1  0.02068500  0.85195500  0.58251400  1
  O  O41  1  0.97931500  0.14804500  0.41748600  1
  O  O42  1  0.90780700  0.03211800  0.69073800  1
  O  O43  1  0.09219300  0.96788200  0.30926200  1
  O  O44  1  0.36302000  0.82791800  0.27504800  1
  O  O45  1  0.63698000  0.17208200  0.72495200  1
  O  O46  1  0.97129500  0.64434600  0.10246100  1
  O  O47  1  0.02870500  0.35565400  0.89753900  1
  F  F48  1  0.34901000  0.66383900  0.01865000  1
  F  F49  1  0.65099000  0.33616100  0.98135000  1
  F  F50  1  0.77200800  0.52006800  0.35221600  1
  F  F51  1  0.22799200  0.47993200  0.64778400  1
