# generated using pymatgen
data_Ho4Ga21Ni10
_symmetry_space_group_name_H-M   'P 1'
_cell_length_a   10.65149510
_cell_length_b   10.65149510
_cell_length_c   15.43431294
_cell_angle_alpha   55.86225132
_cell_angle_beta   55.86225132
_cell_angle_gamma   22.01871847
_symmetry_Int_Tables_number   1
_chemical_formula_structural   Ho4Ga21Ni10
_chemical_formula_sum   'Ho4 Ga21 Ni10'
_cell_volume   538.63116945
_cell_formula_units_Z   1
loop_
 _symmetry_equiv_pos_site_id
 _symmetry_equiv_pos_as_xyz
  1  'x, y, z'
loop_
 _atom_site_type_symbol
 _atom_site_label
 _atom_site_symmetry_multiplicity
 _atom_site_fract_x
 _atom_site_fract_y
 _atom_site_fract_z
 _atom_site_occupancy
  Ho  Ho0  1  0.23242300  0.23242300  0.67743500  1
  Ho  Ho1  1  0.88198700  0.88198700  0.83303500  1
  Ho  Ho2  1  0.11801300  0.11801300  0.16696500  1
  Ho  Ho3  1  0.76757700  0.76757700  0.32256500  1
  Ga  Ga4  1  0.88324300  0.88324300  0.05225900  1
  Ga  Ga5  1  0.99492600  0.99492600  0.59105900  1
  Ga  Ga6  1  0.38424500  0.38424500  0.20437400  1
  Ga  Ga7  1  0.70284200  0.70284200  0.99823500  1
  Ga  Ga8  1  0.79771600  0.79771600  0.50394800  1
  Ga  Ga9  1  0.37669200  0.37669200  0.69410200  1
  Ga  Ga10  1  0.61575500  0.61575500  0.79562600  1
  Ga  Ga11  1  0.39855400  0.39855400  0.49635200  1
  Ga  Ga12  1  0.62330800  0.62330800  0.30589800  1
  Ga  Ga13  1  0.75428900  0.75428900  0.79467800  1
  Ga  Ga14  1  0.00507400  0.00507400  0.40894100  1
  Ga  Ga15  1  0.93258200  0.93258200  0.29551400  1
  Ga  Ga16  1  0.20228400  0.20228400  0.49605200  1
  Ga  Ga17  1  0.06741800  0.06741800  0.70448600  1
  Ga  Ga18  1  0.50000000  0.50000000  0.00000000  1
  Ga  Ga19  1  0.54029000  0.54029000  0.12924400  1
  Ga  Ga20  1  0.11675700  0.11675700  0.94774100  1
  Ga  Ga21  1  0.29715800  0.29715800  0.00176500  1
  Ga  Ga22  1  0.45971000  0.45971000  0.87075600  1
  Ga  Ga23  1  0.60144600  0.60144600  0.50364800  1
  Ga  Ga24  1  0.24571100  0.24571100  0.20532200  1
  Ni  Ni25  1  0.49945100  0.49945100  0.68759600  1
  Ni  Ni26  1  0.02467600  0.02467600  0.89336700  1
  Ni  Ni27  1  0.97532400  0.97532400  0.10663300  1
  Ni  Ni28  1  0.34514800  0.34514800  0.38922500  1
  Ni  Ni29  1  0.86950700  0.86950700  0.60337900  1
  Ni  Ni30  1  0.24983700  0.24983700  0.88636300  1
  Ni  Ni31  1  0.75016300  0.75016300  0.11363700  1
  Ni  Ni32  1  0.13049300  0.13049300  0.39662100  1
  Ni  Ni33  1  0.65485200  0.65485200  0.61077500  1
  Ni  Ni34  1  0.50054900  0.50054900  0.31240400  1
