# generated using pymatgen
data_SnH14C4(Br2N)2
_symmetry_space_group_name_H-M   'P 1'
_cell_length_a   12.51559200
_cell_length_b   6.73121200
_cell_length_c   8.63605083
_cell_angle_alpha   83.26952049
_cell_angle_beta   90.00000000
_cell_angle_gamma   90.00000000
_symmetry_Int_Tables_number   1
_chemical_formula_structural   SnH14C4(Br2N)2
_chemical_formula_sum   'Sn2 H28 C8 Br8 N4'
_cell_volume   722.53107495
_cell_formula_units_Z   2
loop_
 _symmetry_equiv_pos_site_id
 _symmetry_equiv_pos_as_xyz
  1  'x, y, z'
loop_
 _atom_site_type_symbol
 _atom_site_label
 _atom_site_symmetry_multiplicity
 _atom_site_fract_x
 _atom_site_fract_y
 _atom_site_fract_z
 _atom_site_occupancy
  Sn  Sn0  1  0.00000000  0.00000000  0.00000000  1
  Sn  Sn1  1  0.50000000  0.00000000  0.50000000  1
  H  H2  1  0.40527400  0.89367200  0.87498600  1
  H  H3  1  0.80315400  0.33245000  0.97473200  1
  H  H4  1  0.69684600  0.33245000  0.47473200  1
  H  H5  1  0.76277800  0.17362000  0.83248000  1
  H  H6  1  0.21182000  0.56604500  0.22485900  1
  H  H7  1  0.26277800  0.82638000  0.66752000  1
  H  H8  1  0.02881600  0.62562300  0.14477600  1
  H  H9  1  0.97118400  0.37437700  0.85522400  1
  H  H10  1  0.19684600  0.66755000  0.02526800  1
  H  H11  1  0.28818000  0.56604500  0.72485900  1
  H  H12  1  0.91790100  0.37244000  0.58722800  1
  H  H13  1  0.30315400  0.66755000  0.52526800  1
  H  H14  1  0.09472600  0.89367200  0.37498600  1
  H  H15  1  0.78818000  0.43395500  0.77514100  1
  H  H16  1  0.41790100  0.62756000  0.91277200  1
  H  H17  1  0.73722200  0.17362000  0.33248000  1
  H  H18  1  0.96685000  0.77869800  0.35952300  1
  H  H19  1  0.90527400  0.10632800  0.62501400  1
  H  H20  1  0.23722200  0.82638000  0.16752000  1
  H  H21  1  0.58209900  0.37244000  0.08722800  1
  H  H22  1  0.46685000  0.22130200  0.14047700  1
  H  H23  1  0.52881600  0.37437700  0.35522400  1
  H  H24  1  0.53315000  0.77869800  0.85952300  1
  H  H25  1  0.03315000  0.22130200  0.64047700  1
  H  H26  1  0.59472600  0.10632800  0.12501400  1
  H  H27  1  0.71182000  0.43395500  0.27514100  1
  H  H28  1  0.47118400  0.62562300  0.64477600  1
  H  H29  1  0.08209900  0.62756000  0.41277200  1
  C  C30  1  0.18733000  0.69875800  0.14618800  1
  C  C31  1  0.94709800  0.23742700  0.65894000  1
  C  C32  1  0.05290200  0.76257300  0.34106000  1
  C  C33  1  0.31267000  0.69875800  0.64618800  1
  C  C34  1  0.44709800  0.76257300  0.84106000  1
  C  C35  1  0.68733000  0.30124200  0.35381200  1
  C  C36  1  0.81267000  0.30124200  0.85381200  1
  C  C37  1  0.55290200  0.23742700  0.15894000  1
  Br  Br38  1  0.81516000  0.84167900  0.08351800  1
  Br  Br39  1  0.51891000  0.25043900  0.71296000  1
  Br  Br40  1  0.48109000  0.74956100  0.28704000  1
  Br  Br41  1  0.68484000  0.84167900  0.58351800  1
  Br  Br42  1  0.31516000  0.15832100  0.41648200  1
  Br  Br43  1  0.18484000  0.15832100  0.91648200  1
  Br  Br44  1  0.98109000  0.25043900  0.21296000  1
  Br  Br45  1  0.01891000  0.74956100  0.78704000  1
  N  N46  1  0.42628100  0.74417300  0.67452100  1
  N  N47  1  0.07371900  0.74417300  0.17452100  1
  N  N48  1  0.92628100  0.25582700  0.82547900  1
  N  N49  1  0.57371900  0.25582700  0.32547900  1
