# generated using pymatgen
data_Yb2In
_symmetry_space_group_name_H-M   'P 1'
_cell_length_a   5.32323800
_cell_length_b   7.19752500
_cell_length_c   9.91495700
_cell_angle_alpha   90.00000000
_cell_angle_beta   90.00000000
_cell_angle_gamma   90.00000000
_symmetry_Int_Tables_number   1
_chemical_formula_structural   Yb2In
_chemical_formula_sum   'Yb8 In4'
_cell_volume   379.88303657
_cell_formula_units_Z   4
loop_
 _symmetry_equiv_pos_site_id
 _symmetry_equiv_pos_as_xyz
  1  'x, y, z'
loop_
 _atom_site_type_symbol
 _atom_site_label
 _atom_site_symmetry_multiplicity
 _atom_site_fract_x
 _atom_site_fract_y
 _atom_site_fract_z
 _atom_site_occupancy
  Yb  Yb0  1  0.25000000  0.47185300  0.20176800  1
  Yb  Yb1  1  0.75000000  0.52814700  0.79823200  1
  Yb  Yb2  1  0.75000000  0.17183900  0.06846600  1
  Yb  Yb3  1  0.25000000  0.32816100  0.56846600  1
  Yb  Yb4  1  0.25000000  0.97185300  0.29823200  1
  Yb  Yb5  1  0.75000000  0.67183900  0.43153400  1
  Yb  Yb6  1  0.25000000  0.82816100  0.93153400  1
  Yb  Yb7  1  0.75000000  0.02814700  0.70176800  1
  In  In8  1  0.75000000  0.72590200  0.10900100  1
  In  In9  1  0.25000000  0.27409800  0.89099900  1
  In  In10  1  0.75000000  0.22590200  0.39099900  1
  In  In11  1  0.25000000  0.77409800  0.60900100  1
