# generated using pymatgen
data_Ba2VI5O17
_symmetry_space_group_name_H-M   'P 1'
_cell_length_a   33.69774500
_cell_length_b   7.26160200
_cell_length_c   7.68588119
_cell_angle_alpha   63.80415015
_cell_angle_beta   90.00000000
_cell_angle_gamma   90.00000000
_symmetry_Int_Tables_number   1
_chemical_formula_structural   Ba2VI5O17
_chemical_formula_sum   'Ba8 V4 I20 O68'
_cell_volume   1687.56280243
_cell_formula_units_Z   4
loop_
 _symmetry_equiv_pos_site_id
 _symmetry_equiv_pos_as_xyz
  1  'x, y, z'
loop_
 _atom_site_type_symbol
 _atom_site_label
 _atom_site_symmetry_multiplicity
 _atom_site_fract_x
 _atom_site_fract_y
 _atom_site_fract_z
 _atom_site_occupancy
  Ba  Ba0  1  0.99784500  0.82805800  0.81529500  1
  Ba  Ba1  1  0.81302900  0.51909900  0.37795900  1
  Ba  Ba2  1  0.18697100  0.48090100  0.62204100  1
  Ba  Ba3  1  0.00215500  0.17194200  0.18470500  1
  Ba  Ba4  1  0.31302900  0.98090100  0.62204100  1
  Ba  Ba5  1  0.68697100  0.01909900  0.37795900  1
  Ba  Ba6  1  0.50215500  0.32805800  0.81529500  1
  Ba  Ba7  1  0.49784500  0.67194200  0.18470500  1
  V  V8  1  0.90352800  0.97973900  0.02734500  1
  V  V9  1  0.59647200  0.47973900  0.02734500  1
  V  V10  1  0.40352800  0.52026100  0.97265500  1
  V  V11  1  0.09647200  0.02026100  0.97265500  1
  I  I12  1  0.04785300  0.44352600  0.60187600  1
  I  I13  1  0.11411100  0.50790200  0.12543600  1
  I  I14  1  0.78487000  0.86606900  0.72328600  1
  I  I15  1  0.38588900  0.00790200  0.12543600  1
  I  I16  1  0.80073500  0.10141000  0.09868700  1
  I  I17  1  0.19926500  0.89859000  0.90131300  1
  I  I18  1  0.30073500  0.39859000  0.90131300  1
  I  I19  1  0.71513000  0.36606900  0.72328600  1
  I  I20  1  0.95214700  0.55647400  0.39812400  1
  I  I21  1  0.39618200  0.41828200  0.56080700  1
  I  I22  1  0.88588900  0.49209800  0.87456400  1
  I  I23  1  0.10381800  0.91828200  0.56080700  1
  I  I24  1  0.69926500  0.60141000  0.09868700  1
  I  I25  1  0.21513000  0.13393100  0.27671400  1
  I  I26  1  0.45214700  0.94352600  0.60187600  1
  I  I27  1  0.60381800  0.58171800  0.43919300  1
  I  I28  1  0.89618200  0.08171800  0.43919300  1
  I  I29  1  0.54785300  0.05647400  0.39812400  1
  I  I30  1  0.28487000  0.63393100  0.27671400  1
  I  I31  1  0.61411100  0.99209800  0.87456400  1
  O  O32  1  0.53193800  0.03622400  0.17965000  1
  O  O33  1  0.38619000  0.16163200  0.58529200  1
  O  O34  1  0.05363700  0.95122700  0.46629500  1
  O  O35  1  0.61381000  0.83836800  0.41470800  1
  O  O36  1  0.38861600  0.65738300  0.08862200  1
  O  O37  1  0.91168100  0.75433800  0.29356500  1
  O  O38  1  0.91310200  0.16596300  0.18595100  1
  O  O39  1  0.41310200  0.33403700  0.81404900  1
  O  O40  1  0.06485700  0.44348700  0.23399400  1
  O  O41  1  0.45198800  0.47351600  0.02965800  1
  O  O42  1  0.73005400  0.45567800  0.31147200  1
  O  O43  1  0.43514300  0.94348700  0.23399400  1
  O  O44  1  0.56485700  0.05651300  0.76600600  1
  O  O45  1  0.84469600  0.93186100  0.19274400  1
  O  O46  1  0.76994600  0.95567800  0.31147200  1
  O  O47  1  0.23464900  0.52621300  0.32190900  1
  O  O48  1  0.15530400  0.06813900  0.80725600  1
  O  O49  1  0.73464900  0.97378700  0.67809100  1
  O  O50  1  0.44636300  0.45122700  0.46629500  1
  O  O51  1  0.64621500  0.13745200  0.66885900  1
  O  O52  1  0.50859500  0.22560700  0.41073700  1
  O  O53  1  0.54801200  0.52648400  0.97034200  1
  O  O54  1  0.62172600  0.74098800  0.85496200  1
  O  O55  1  0.93514300  0.55651300  0.76600600  1
  O  O56  1  0.94636300  0.04877300  0.53370500  1
  O  O57  1  0.96806200  0.53622400  0.17965000  1
  O  O58  1  0.12172600  0.75901200  0.14503800  1
  O  O59  1  0.08689800  0.83403700  0.81404900  1
  O  O60  1  0.18503900  0.90215600  0.36983500  1
  O  O61  1  0.34469600  0.56813900  0.80725600  1
  O  O62  1  0.28487300  0.71085000  0.01308200  1
  O  O63  1  0.11381000  0.66163200  0.58529200  1
  O  O64  1  0.26994600  0.54432200  0.68852800  1
  O  O65  1  0.81849000  0.31735000  0.13937400  1
  O  O66  1  0.58831900  0.25433800  0.29356500  1
  O  O67  1  0.08831900  0.24566200  0.70643500  1
  O  O68  1  0.18151000  0.68265000  0.86062600  1
  O  O69  1  0.03193800  0.46377600  0.82035000  1
  O  O70  1  0.65530400  0.43186100  0.19274400  1
  O  O71  1  0.00859500  0.27439300  0.58926300  1
  O  O72  1  0.11138400  0.15738300  0.08862200  1
  O  O73  1  0.23005400  0.04432200  0.68852800  1
  O  O74  1  0.04801200  0.97351600  0.02965800  1
  O  O75  1  0.71512700  0.28915000  0.98691800  1
  O  O76  1  0.99140500  0.72560700  0.41073700  1
  O  O77  1  0.49140500  0.77439300  0.58926300  1
  O  O78  1  0.21512700  0.21085000  0.01308200  1
  O  O79  1  0.55363700  0.54877300  0.53370500  1
  O  O80  1  0.87827400  0.24098800  0.85496200  1
  O  O81  1  0.68151000  0.81735000  0.13937400  1
  O  O82  1  0.95198800  0.02648400  0.97034200  1
  O  O83  1  0.85378500  0.63745200  0.66885900  1
  O  O84  1  0.37827400  0.25901200  0.14503800  1
  O  O85  1  0.78487300  0.78915000  0.98691800  1
  O  O86  1  0.81496100  0.09784400  0.63016500  1
  O  O87  1  0.26535100  0.02621300  0.32190900  1
  O  O88  1  0.41168100  0.74566200  0.70643500  1
  O  O89  1  0.46806200  0.96377600  0.82035000  1
  O  O90  1  0.31849000  0.18265000  0.86062600  1
  O  O91  1  0.68503900  0.59784400  0.63016500  1
  O  O92  1  0.58689800  0.66596300  0.18595100  1
  O  O93  1  0.88619000  0.33836800  0.41470800  1
  O  O94  1  0.76535100  0.47378700  0.67809100  1
  O  O95  1  0.31496100  0.40215600  0.36983500  1
  O  O96  1  0.88861600  0.84261700  0.91137800  1
  O  O97  1  0.35378500  0.86254800  0.33114100  1
  O  O98  1  0.14621500  0.36254800  0.33114100  1
  O  O99  1  0.61138400  0.34261700  0.91137800  1
