# generated using pymatgen
data_Rb6U5V2O23
_symmetry_space_group_name_H-M   'P 1'
_cell_length_a   13.11040492
_cell_length_b   13.11040492
_cell_length_c   14.82861876
_cell_angle_alpha   75.77433041
_cell_angle_beta   75.77433041
_cell_angle_gamma   31.80542308
_symmetry_Int_Tables_number   1
_chemical_formula_structural   Rb6U5V2O23
_chemical_formula_sum   'Rb12 U10 V4 O46'
_cell_volume   1298.70829506
_cell_formula_units_Z   2
loop_
 _symmetry_equiv_pos_site_id
 _symmetry_equiv_pos_as_xyz
  1  'x, y, z'
loop_
 _atom_site_type_symbol
 _atom_site_label
 _atom_site_symmetry_multiplicity
 _atom_site_fract_x
 _atom_site_fract_y
 _atom_site_fract_z
 _atom_site_occupancy
  Rb  Rb0  1  0.78768000  0.28572400  0.45156800  1
  Rb  Rb1  1  0.62305800  0.11678400  0.61361600  1
  Rb  Rb2  1  0.93240100  0.48648200  0.32662200  1
  Rb  Rb3  1  0.06759900  0.51351800  0.67337800  1
  Rb  Rb4  1  0.71427600  0.21232000  0.04843200  1
  Rb  Rb5  1  0.37694200  0.88321600  0.38638400  1
  Rb  Rb6  1  0.88321600  0.37694200  0.88638400  1
  Rb  Rb7  1  0.11678400  0.62305800  0.11361600  1
  Rb  Rb8  1  0.48648200  0.93240100  0.82662200  1
  Rb  Rb9  1  0.51351800  0.06759900  0.17337800  1
  Rb  Rb10  1  0.28572400  0.78768000  0.95156800  1
  Rb  Rb11  1  0.21232000  0.71427600  0.54843200  1
  U  U12  1  0.81368700  0.89349600  0.88350200  1
  U  U13  1  0.52748100  0.63825800  0.67184600  1
  U  U14  1  0.10650400  0.18631300  0.61649800  1
  U  U15  1  0.18631300  0.10650400  0.11649800  1
  U  U16  1  0.36174200  0.47251900  0.82815400  1
  U  U17  1  0.47251900  0.36174200  0.32815400  1
  U  U18  1  0.08390800  0.91609200  0.25000000  1
  U  U19  1  0.91609200  0.08390800  0.75000000  1
  U  U20  1  0.63825800  0.52748100  0.17184600  1
  U  U21  1  0.89349600  0.81368700  0.38350200  1
  V  V22  1  0.32967100  0.23461500  0.42997300  1
  V  V23  1  0.67032900  0.76538500  0.57002700  1
  V  V24  1  0.23461500  0.32967100  0.92997300  1
  V  V25  1  0.76538500  0.67032900  0.07002700  1
  O  O26  1  0.15524300  0.17754200  0.72735500  1
  O  O27  1  0.80281200  0.06566200  0.31688300  1
  O  O28  1  0.46015200  0.32397900  0.21900000  1
  O  O29  1  0.68624700  0.15925600  0.81956200  1
  O  O30  1  0.24733000  0.23619300  0.54254600  1
  O  O31  1  0.51006000  0.48994000  0.25000000  1
  O  O32  1  0.15925600  0.68624700  0.31956200  1
  O  O33  1  0.75267000  0.76380700  0.45745400  1
  O  O34  1  0.06935300  0.88504200  0.13869700  1
  O  O35  1  0.32397900  0.46015200  0.71900000  1
  O  O36  1  0.85524400  0.65919900  0.14257600  1
  O  O37  1  0.11495800  0.93064700  0.36130300  1
  O  O38  1  0.76380700  0.75267000  0.95745400  1
  O  O39  1  0.65919900  0.85524400  0.64257600  1
  O  O40  1  0.79862300  0.94035300  0.99864900  1
  O  O41  1  0.51495800  0.61071700  0.55792400  1
  O  O42  1  0.84475700  0.82245800  0.27264500  1
  O  O43  1  0.23619300  0.24733000  0.04254600  1
  O  O44  1  0.34080100  0.14475600  0.35742400  1
  O  O45  1  0.83256400  0.52644500  0.61056000  1
  O  O46  1  0.67602100  0.53984800  0.28100000  1
  O  O47  1  0.12531900  0.55022200  0.91851100  1
  O  O48  1  0.93433800  0.19718800  0.18311700  1
  O  O49  1  0.31375300  0.84074400  0.18043800  1
  O  O50  1  0.14475600  0.34080100  0.85742400  1
  O  O51  1  0.88504200  0.06935300  0.63869700  1
  O  O52  1  0.52644500  0.83256400  0.11056000  1
  O  O53  1  0.55022200  0.12531900  0.41851100  1
  O  O54  1  0.48994000  0.51006000  0.75000000  1
  O  O55  1  0.06566200  0.80281200  0.81688300  1
  O  O56  1  0.19718800  0.93433800  0.68311700  1
  O  O57  1  0.93064700  0.11495800  0.86130300  1
  O  O58  1  0.16743600  0.47355500  0.38944000  1
  O  O59  1  0.38928300  0.48504200  0.94207600  1
  O  O60  1  0.47355500  0.16743600  0.88944000  1
  O  O61  1  0.20137700  0.05964700  0.00135100  1
  O  O62  1  0.05964700  0.20137700  0.50135100  1
  O  O63  1  0.44977800  0.87468100  0.58148900  1
  O  O64  1  0.48504200  0.38928300  0.44207600  1
  O  O65  1  0.82245800  0.84475700  0.77264500  1
  O  O66  1  0.61071700  0.51495800  0.05792400  1
  O  O67  1  0.94035300  0.79862300  0.49864900  1
  O  O68  1  0.84074400  0.31375300  0.68043800  1
  O  O69  1  0.53984800  0.67602100  0.78100000  1
  O  O70  1  0.87468100  0.44977800  0.08148900  1
  O  O71  1  0.17754200  0.15524300  0.22735500  1
