# generated using pymatgen
data_ZnS
_symmetry_space_group_name_H-M   'P 1'
_cell_length_a   37.82863160
_cell_length_b   37.82863158
_cell_length_c   37.82863220
_cell_angle_alpha   5.84871469
_cell_angle_beta   5.84871498
_cell_angle_gamma   5.84871460
_symmetry_Int_Tables_number   1
_chemical_formula_structural   ZnS
_chemical_formula_sum   'Zn12 S12'
_cell_volume   487.23233702
_cell_formula_units_Z   12
loop_
 _symmetry_equiv_pos_site_id
 _symmetry_equiv_pos_as_xyz
  1  'x, y, z'
loop_
 _atom_site_type_symbol
 _atom_site_label
 _atom_site_symmetry_multiplicity
 _atom_site_fract_x
 _atom_site_fract_y
 _atom_site_fract_z
 _atom_site_occupancy
  Zn  Zn0  1  0.08333575  0.08333575  0.08333575  1
  Zn  Zn1  1  0.86111355  0.86111355  0.86111355  1
  Zn  Zn2  1  0.16666889  0.16666889  0.16666889  1
  Zn  Zn3  1  0.38888900  0.38888900  0.38888900  1
  Zn  Zn4  1  0.91667901  0.91667901  0.91667901  1
  Zn  Zn5  1  0.77778297  0.77778297  0.77778297  1
  Zn  Zn6  1  0.27778667  0.27778667  0.27778667  1
  Zn  Zn7  1  0.00000433  0.00000433  0.00000433  1
  Zn  Zn8  1  0.69445933  0.69445933  0.69445933  1
  Zn  Zn9  1  0.55555180  0.55555180  0.55555180  1
  Zn  Zn10  1  0.63888955  0.63888955  0.63888955  1
  Zn  Zn11  1  0.47222124  0.47222124  0.47222124  1
  S  S12  1  0.29860929  0.29860929  0.29860929  1
  S  S13  1  0.40971551  0.40971551  0.40971551  1
  S  S14  1  0.93749817  0.93749817  0.93749817  1
  S  S15  1  0.79860648  0.79860648  0.79860648  1
  S  S16  1  0.65969989  0.65969989  0.65969989  1
  S  S17  1  0.02084788  0.02084788  0.02084788  1
  S  S18  1  0.49304743  0.49304743  0.49304743  1
  S  S19  1  0.10416402  0.10416402  0.10416402  1
  S  S20  1  0.18749605  0.18749605  0.18749605  1
  S  S21  1  0.71527483  0.71527483  0.71527483  1
  S  S22  1  0.57639648  0.57639648  0.57639648  1
  S  S23  1  0.88192188  0.88192188  0.88192188  1
