# generated using pymatgen
data_SrCu2(PO4)2
_symmetry_space_group_name_H-M   'P 1'
_cell_length_a   8.05597000
_cell_length_b   10.54893100
_cell_length_c   15.55133700
_cell_angle_alpha   90.00000000
_cell_angle_beta   90.00000000
_cell_angle_gamma   90.00000000
_symmetry_Int_Tables_number   1
_chemical_formula_structural   SrCu2(PO4)2
_chemical_formula_sum   'Sr8 Cu16 P16 O64'
_cell_volume   1321.58172520
_cell_formula_units_Z   8
loop_
 _symmetry_equiv_pos_site_id
 _symmetry_equiv_pos_as_xyz
  1  'x, y, z'
loop_
 _atom_site_type_symbol
 _atom_site_label
 _atom_site_symmetry_multiplicity
 _atom_site_fract_x
 _atom_site_fract_y
 _atom_site_fract_z
 _atom_site_occupancy
  Sr  Sr0  1  0.97213700  0.91387000  0.12400300  1
  Sr  Sr1  1  0.47213700  0.08613000  0.62400300  1
  Sr  Sr2  1  0.02786300  0.58613000  0.62400300  1
  Sr  Sr3  1  0.52786300  0.91387000  0.37599700  1
  Sr  Sr4  1  0.52786300  0.41387000  0.12400300  1
  Sr  Sr5  1  0.97213700  0.41387000  0.37599700  1
  Sr  Sr6  1  0.02786300  0.08613000  0.87599700  1
  Sr  Sr7  1  0.47213700  0.58613000  0.87599700  1
  Cu  Cu8  1  0.08242200  0.05062800  0.32737800  1
  Cu  Cu9  1  0.91757800  0.94937200  0.67262200  1
  Cu  Cu10  1  0.90609800  0.29015500  0.07669000  1
  Cu  Cu11  1  0.08242200  0.55062800  0.17262200  1
  Cu  Cu12  1  0.91757800  0.44937200  0.82737800  1
  Cu  Cu13  1  0.59390200  0.79015500  0.07669000  1
  Cu  Cu14  1  0.09390200  0.70984500  0.92331000  1
  Cu  Cu15  1  0.40609800  0.20984500  0.92331000  1
  Cu  Cu16  1  0.40609800  0.70984500  0.57669000  1
  Cu  Cu17  1  0.59390200  0.29015500  0.42331000  1
  Cu  Cu18  1  0.41757800  0.55062800  0.32737800  1
  Cu  Cu19  1  0.41757800  0.05062800  0.17262200  1
  Cu  Cu20  1  0.58242200  0.44937200  0.67262200  1
  Cu  Cu21  1  0.58242200  0.94937200  0.82737800  1
  Cu  Cu22  1  0.09390200  0.20984500  0.57669000  1
  Cu  Cu23  1  0.90609800  0.79015500  0.42331000  1
  P  P24  1  0.25000000  0.32781600  0.75000000  1
  P  P25  1  0.75000000  0.70427600  0.75000000  1
  P  P26  1  0.79540300  0.56968700  0.00664500  1
  P  P27  1  0.25000000  0.82781600  0.75000000  1
  P  P28  1  0.20459700  0.93031300  0.50664500  1
  P  P29  1  0.29540300  0.93031300  0.99335500  1
  P  P30  1  0.25000000  0.29572400  0.25000000  1
  P  P31  1  0.70459700  0.06968700  0.00664500  1
  P  P32  1  0.75000000  0.20427600  0.75000000  1
  P  P33  1  0.75000000  0.67218400  0.25000000  1
  P  P34  1  0.20459700  0.43031300  0.99335500  1
  P  P35  1  0.70459700  0.56968700  0.49335500  1
  P  P36  1  0.75000000  0.17218400  0.25000000  1
  P  P37  1  0.79540300  0.06968700  0.49335500  1
  P  P38  1  0.25000000  0.79572400  0.25000000  1
  P  P39  1  0.29540300  0.43031300  0.50664500  1
  O  O40  1  0.65346200  0.47385500  0.42123200  1
  O  O41  1  0.76782600  0.50281400  0.91917500  1
  O  O42  1  0.08629400  0.81508300  0.50392700  1
  O  O43  1  0.91370600  0.68491700  0.00392700  1
  O  O44  1  0.59153500  0.08850600  0.25789500  1
  O  O45  1  0.26782600  0.99718600  0.08082500  1
  O  O46  1  0.75878100  0.75804200  0.16866600  1
  O  O47  1  0.61501200  0.11501100  0.46821500  1
  O  O48  1  0.74121900  0.75804200  0.33133400  1
  O  O49  1  0.24121900  0.74195800  0.66866600  1
  O  O50  1  0.90373100  0.62042500  0.77376200  1
  O  O51  1  0.75878100  0.25804200  0.33133400  1
  O  O52  1  0.09626900  0.87957500  0.27376200  1
  O  O53  1  0.09626900  0.37957500  0.22623800  1
  O  O54  1  0.90846500  0.58850600  0.25789500  1
  O  O55  1  0.65346200  0.97385500  0.07876800  1
  O  O56  1  0.74121900  0.25804200  0.16866600  1
  O  O57  1  0.30858200  0.71879500  0.32934100  1
  O  O58  1  0.19141800  0.71879500  0.17065900  1
  O  O59  1  0.25878100  0.24195800  0.66866600  1
  O  O60  1  0.11501200  0.38498900  0.53178500  1
  O  O61  1  0.40373100  0.87957500  0.22623800  1
  O  O62  1  0.09153500  0.91149400  0.75789500  1
  O  O63  1  0.23217400  0.49718600  0.08082500  1
  O  O64  1  0.59153500  0.58850600  0.24210500  1
  O  O65  1  0.15346200  0.52614500  0.92123200  1
  O  O66  1  0.73217400  0.00281400  0.91917500  1
  O  O67  1  0.09153500  0.41149400  0.74210500  1
  O  O68  1  0.88498800  0.61501100  0.46821500  1
  O  O69  1  0.91370600  0.18491700  0.49607300  1
  O  O70  1  0.08629400  0.31508300  0.99607300  1
  O  O71  1  0.25878100  0.74195800  0.83133400  1
  O  O72  1  0.24121900  0.24195800  0.83133400  1
  O  O73  1  0.41370600  0.31508300  0.50392700  1
  O  O74  1  0.26782600  0.49718600  0.41917500  1
  O  O75  1  0.40846500  0.41149400  0.75789500  1
  O  O76  1  0.40373100  0.37957500  0.27376200  1
  O  O77  1  0.76782600  0.00281400  0.58082500  1
  O  O78  1  0.80858200  0.78120500  0.67065900  1
  O  O79  1  0.80858200  0.28120500  0.82934100  1
  O  O80  1  0.90373100  0.12042500  0.72623800  1
  O  O81  1  0.34653800  0.02614500  0.92123200  1
  O  O82  1  0.59626900  0.62042500  0.72623800  1
  O  O83  1  0.38498800  0.88498900  0.53178500  1
  O  O84  1  0.58629400  0.18491700  0.00392700  1
  O  O85  1  0.19141800  0.21879500  0.32934100  1
  O  O86  1  0.40846500  0.91149400  0.74210500  1
  O  O87  1  0.58629400  0.68491700  0.49607300  1
  O  O88  1  0.38498800  0.38498900  0.96821500  1
  O  O89  1  0.84653800  0.97385500  0.42123200  1
  O  O90  1  0.73217400  0.50281400  0.58082500  1
  O  O91  1  0.23217400  0.99718600  0.41917500  1
  O  O92  1  0.90846500  0.08850600  0.24210500  1
  O  O93  1  0.41370600  0.81508300  0.99607300  1
  O  O94  1  0.15346200  0.02614500  0.57876800  1
  O  O95  1  0.30858200  0.21879500  0.17065900  1
  O  O96  1  0.11501200  0.88498900  0.96821500  1
  O  O97  1  0.69141800  0.28120500  0.67065900  1
  O  O98  1  0.61501200  0.61501100  0.03178500  1
  O  O99  1  0.84653800  0.47385500  0.07876800  1
  O  O100  1  0.59626900  0.12042500  0.77376200  1
  O  O101  1  0.34653800  0.52614500  0.57876800  1
  O  O102  1  0.88498800  0.11501100  0.03178500  1
  O  O103  1  0.69141800  0.78120500  0.82934100  1
