# generated using pymatgen
data_CdI2
_symmetry_space_group_name_H-M   'P 1'
_cell_length_a   4.33362719
_cell_length_b   4.33362719
_cell_length_c   136.42000100
_cell_angle_alpha   90.00000000
_cell_angle_beta   90.00000000
_cell_angle_gamma   119.99998759
_symmetry_Int_Tables_number   1
_chemical_formula_structural   CdI2
_chemical_formula_sum   'Cd18 I36'
_cell_volume   2218.76766796
_cell_formula_units_Z   18
loop_
 _symmetry_equiv_pos_site_id
 _symmetry_equiv_pos_as_xyz
  1  'x, y, z'
loop_
 _atom_site_type_symbol
 _atom_site_label
 _atom_site_symmetry_multiplicity
 _atom_site_fract_x
 _atom_site_fract_y
 _atom_site_fract_z
 _atom_site_occupancy
  Cd  Cd0  1  0.00000000  0.00000000  0.40279700  1
  Cd  Cd1  1  0.66666700  0.33333300  0.45836800  1
  Cd  Cd2  1  0.66666700  0.33333300  0.12501900  1
  Cd  Cd3  1  0.66666700  0.33333300  0.68053100  1
  Cd  Cd4  1  0.00000000  0.00000000  0.84720200  1
  Cd  Cd5  1  0.66666700  0.33333300  0.90278800  1
  Cd  Cd6  1  0.66666700  0.33333300  0.56940700  1
  Cd  Cd7  1  0.66666700  0.33333300  0.73608600  1
  Cd  Cd8  1  0.00000000  0.00000000  0.95829200  1
  Cd  Cd9  1  0.00000000  0.00000000  0.51389400  1
  Cd  Cd10  1  0.66666700  0.33333300  0.62501800  1
  Cd  Cd11  1  0.66666700  0.33333300  0.23608400  1
  Cd  Cd12  1  0.66666700  0.33333300  0.01388900  1
  Cd  Cd13  1  0.66666700  0.33333300  0.34724900  1
  Cd  Cd14  1  0.66666700  0.33333300  0.29169400  1
  Cd  Cd15  1  0.66666700  0.33333300  0.79169200  1
  Cd  Cd16  1  0.00000000  0.00000000  0.18054200  1
  Cd  Cd17  1  0.00000000  0.00000000  0.06943900  1
  I  I18  1  0.00000000  0.00000000  0.11237700  1
  I  I19  1  0.33333300  0.66666700  0.91543400  1
  I  I20  1  0.00000000  0.00000000  0.44574700  1
  I  I21  1  0.33333300  0.66666700  0.35988500  1
  I  I22  1  0.00000000  0.00000000  0.27904500  1
  I  I23  1  0.33333300  0.66666700  0.80434400  1
  I  I24  1  0.00000000  0.00000000  0.77904400  1
  I  I25  1  0.33333300  0.66666700  0.08207800  1
  I  I26  1  0.33333300  0.66666700  0.30434500  1
  I  I27  1  0.00000000  0.00000000  0.22344400  1
  I  I28  1  0.33333300  0.66666700  0.13767000  1
  I  I29  1  0.00000000  0.00000000  0.66788900  1
  I  I30  1  0.66666700  0.33333300  0.83456000  1
  I  I31  1  0.33333300  0.66666700  0.02653200  1
  I  I32  1  0.33333300  0.66666700  0.85984000  1
  I  I33  1  0.66666700  0.33333300  0.16790900  1
  I  I34  1  0.33333300  0.66666700  0.63766800  1
  I  I35  1  0.33333300  0.66666700  0.19318300  1
  I  I36  1  0.33333300  0.66666700  0.47098600  1
  I  I37  1  0.33333300  0.66666700  0.69317600  1
  I  I38  1  0.66666700  0.33333300  0.05680200  1
  I  I39  1  0.00000000  0.00000000  0.00124000  1
  I  I40  1  0.33333300  0.66666700  0.41544200  1
  I  I41  1  0.00000000  0.00000000  0.55675600  1
  I  I42  1  0.00000000  0.00000000  0.72344600  1
  I  I43  1  0.33333300  0.66666700  0.97094300  1
  I  I44  1  0.66666700  0.33333300  0.39015800  1
  I  I45  1  0.66666700  0.33333300  0.94563800  1
  I  I46  1  0.33333300  0.66666700  0.52653100  1
  I  I47  1  0.00000000  0.00000000  0.33461500  1
  I  I48  1  0.33333300  0.66666700  0.74873000  1
  I  I49  1  0.33333300  0.66666700  0.58205900  1
  I  I50  1  0.66666700  0.33333300  0.50125800  1
  I  I51  1  0.33333300  0.66666700  0.24872700  1
  I  I52  1  0.00000000  0.00000000  0.89013400  1
  I  I53  1  0.00000000  0.00000000  0.61237500  1
