# generated using pymatgen
data_H9C2(NO)3
_symmetry_space_group_name_H-M   'P 1'
_cell_length_a   5.79118400
_cell_length_b   7.85733500
_cell_length_c   14.10742700
_cell_angle_alpha   90.00000000
_cell_angle_beta   90.00000000
_cell_angle_gamma   90.00000000
_symmetry_Int_Tables_number   1
_chemical_formula_structural   H9C2(NO)3
_chemical_formula_sum   'H36 C8 N12 O12'
_cell_volume   641.93409837
_cell_formula_units_Z   4
loop_
 _symmetry_equiv_pos_site_id
 _symmetry_equiv_pos_as_xyz
  1  'x, y, z'
loop_
 _atom_site_type_symbol
 _atom_site_label
 _atom_site_symmetry_multiplicity
 _atom_site_fract_x
 _atom_site_fract_y
 _atom_site_fract_z
 _atom_site_occupancy
  H  H0  1  0.43268200  0.83194900  0.05020100  1
  H  H1  1  0.66553300  0.20774500  0.14564400  1
  H  H2  1  0.19258900  0.20992700  0.43481000  1
  H  H3  1  0.36182000  0.40988700  0.25861100  1
  H  H4  1  0.98093700  0.76521300  0.66671800  1
  H  H5  1  0.02541200  0.83458500  0.14042800  1
  H  H6  1  0.86182000  0.90988700  0.24138900  1
  H  H7  1  0.51906300  0.76521300  0.16671800  1
  H  H8  1  0.16553300  0.70774500  0.35435600  1
  H  H9  1  0.56731800  0.33194900  0.94979900  1
  H  H10  1  0.13818000  0.40988700  0.75861100  1
  H  H11  1  0.83446700  0.20774500  0.64564400  1
  H  H12  1  0.93268200  0.33194900  0.44979900  1
  H  H13  1  0.98270700  0.06472100  0.70908100  1
  H  H14  1  0.30741100  0.20992700  0.93481000  1
  H  H15  1  0.33446700  0.70774500  0.85435600  1
  H  H16  1  0.47630900  0.05689000  0.66999400  1
  H  H17  1  0.51729300  0.06472100  0.20908100  1
  H  H18  1  0.01906300  0.26521300  0.33328200  1
  H  H19  1  0.80741100  0.70992700  0.56519000  1
  H  H20  1  0.27017200  0.50112300  0.46037000  1
  H  H21  1  0.52541200  0.33458500  0.35957200  1
  H  H22  1  0.02369100  0.05689000  0.16999400  1
  H  H23  1  0.97630900  0.55689000  0.83000600  1
  H  H24  1  0.48093700  0.26521300  0.83328200  1
  H  H25  1  0.48270700  0.56472100  0.79091900  1
  H  H26  1  0.72982800  0.00112300  0.53963000  1
  H  H27  1  0.22982800  0.50112300  0.96037000  1
  H  H28  1  0.97458800  0.33458500  0.85957200  1
  H  H29  1  0.47458800  0.83458500  0.64042800  1
  H  H30  1  0.63818000  0.90988700  0.74138900  1
  H  H31  1  0.69258900  0.70992700  0.06519000  1
  H  H32  1  0.77017200  0.00112300  0.03963000  1
  H  H33  1  0.01729300  0.56472100  0.29091900  1
  H  H34  1  0.06731800  0.83194900  0.55020100  1
  H  H35  1  0.52369100  0.55689000  0.33000600  1
  C  C36  1  0.57944500  0.80587400  0.09676200  1
  C  C37  1  0.42055500  0.30587400  0.90323800  1
  C  C38  1  0.92055500  0.80587400  0.59676200  1
  C  C39  1  0.07944500  0.30587400  0.40323800  1
  C  C40  1  0.57728100  0.93919700  0.66966800  1
  C  C41  1  0.42271900  0.43919700  0.33033200  1
  C  C42  1  0.07728100  0.43919700  0.83033200  1
  C  C43  1  0.92271900  0.93919700  0.16966800  1
  N  N44  1  0.06382500  0.60042600  0.35880500  1
  N  N45  1  0.50547500  0.91919500  0.39555000  1
  N  N46  1  0.93617500  0.10042600  0.64119500  1
  N  N47  1  0.49452500  0.41919500  0.60445000  1
  N  N48  1  0.43617500  0.60042600  0.85880500  1
  N  N49  1  0.56382500  0.10042600  0.14119500  1
  N  N50  1  0.71539400  0.96581900  0.10805900  1
  N  N51  1  0.28460600  0.46581900  0.89194100  1
  N  N52  1  0.78460600  0.96581900  0.60805900  1
  N  N53  1  0.21539400  0.46581900  0.39194100  1
  N  N54  1  0.00547500  0.41919500  0.10445000  1
  N  N55  1  0.99452500  0.91919500  0.89555000  1
  O  O56  1  0.67111800  0.02218300  0.41048000  1
  O  O57  1  0.40283000  0.91884800  0.31559400  1
  O  O58  1  0.94215200  0.31701800  0.04035800  1
  O  O59  1  0.59717000  0.41884800  0.68440600  1
  O  O60  1  0.09717000  0.91884800  0.81559400  1
  O  O61  1  0.05784800  0.81701800  0.95964200  1
  O  O62  1  0.82888200  0.02218300  0.91048000  1
  O  O63  1  0.44215200  0.81701800  0.45964200  1
  O  O64  1  0.32888200  0.52218300  0.58952000  1
  O  O65  1  0.90283000  0.41884800  0.18440600  1
  O  O66  1  0.17111800  0.52218300  0.08952000  1
  O  O67  1  0.55784800  0.31701800  0.54035800  1
