# generated using pymatgen
data_Ba2CaFe2CuF14
_symmetry_space_group_name_H-M   'P 1'
_cell_length_a   7.54447325
_cell_length_b   7.54447325
_cell_length_c   15.06441490
_cell_angle_alpha   88.54661848
_cell_angle_beta   88.54661848
_cell_angle_gamma   42.32883339
_symmetry_Int_Tables_number   1
_chemical_formula_structural   Ba2CaFe2CuF14
_chemical_formula_sum   'Ba4 Ca2 Fe4 Cu2 F28'
_cell_volume   577.18179890
_cell_formula_units_Z   2
loop_
 _symmetry_equiv_pos_site_id
 _symmetry_equiv_pos_as_xyz
  1  'x, y, z'
loop_
 _atom_site_type_symbol
 _atom_site_label
 _atom_site_symmetry_multiplicity
 _atom_site_fract_x
 _atom_site_fract_y
 _atom_site_fract_z
 _atom_site_occupancy
  Ba  Ba0  1  0.74317700  0.88083500  0.62255800  1
  Ba  Ba1  1  0.88083500  0.74317700  0.12255800  1
  Ba  Ba2  1  0.25682300  0.11916500  0.37744200  1
  Ba  Ba3  1  0.11916500  0.25682300  0.87744200  1
  Ca  Ca4  1  0.41989400  0.58010600  0.75000000  1
  Ca  Ca5  1  0.58010600  0.41989400  0.25000000  1
  Fe  Fe6  1  0.85240300  0.90500600  0.87516000  1
  Fe  Fe7  1  0.14759700  0.09499400  0.12484000  1
  Fe  Fe8  1  0.90500600  0.85240300  0.37516000  1
  Fe  Fe9  1  0.09499400  0.14759700  0.62484000  1
  Cu  Cu10  1  0.50000000  0.50000000  0.00000000  1
  Cu  Cu11  1  0.50000000  0.50000000  0.50000000  1
  F  F12  1  0.93133000  0.08457500  0.34385400  1
  F  F13  1  0.60070800  0.12091600  0.45456100  1
  F  F14  1  0.39929200  0.87908400  0.54543900  1
  F  F15  1  0.16049300  0.34523300  0.59680600  1
  F  F16  1  0.51055100  0.38544500  0.61551400  1
  F  F17  1  0.61455500  0.48944900  0.88448600  1
  F  F18  1  0.12091600  0.60070800  0.95456100  1
  F  F19  1  0.91542500  0.06867000  0.15614600  1
  F  F20  1  0.03806700  0.64076600  0.77769000  1
  F  F21  1  0.83950700  0.65476700  0.40319400  1
  F  F22  1  0.58447400  0.17635500  0.78984700  1
  F  F23  1  0.65476700  0.83950700  0.90319400  1
  F  F24  1  0.17635500  0.58447400  0.28984700  1
  F  F25  1  0.41552600  0.82364500  0.21015300  1
  F  F26  1  0.38544500  0.51055100  0.11551400  1
  F  F27  1  0.96193300  0.35923400  0.22231000  1
  F  F28  1  0.29769600  0.86968900  0.01942700  1
  F  F29  1  0.06867000  0.91542500  0.65614600  1
  F  F30  1  0.70230400  0.13031100  0.98057300  1
  F  F31  1  0.86968900  0.29769600  0.51942700  1
  F  F32  1  0.87908400  0.39929200  0.04543900  1
  F  F33  1  0.82364500  0.41552600  0.71015300  1
  F  F34  1  0.64076600  0.03806700  0.27769000  1
  F  F35  1  0.13031100  0.70230400  0.48057300  1
  F  F36  1  0.48944900  0.61455500  0.38448600  1
  F  F37  1  0.08457500  0.93133000  0.84385400  1
  F  F38  1  0.35923400  0.96193300  0.72231000  1
  F  F39  1  0.34523300  0.16049300  0.09680600  1
