# generated using pymatgen
data_Ce(Ni5P2)2
_symmetry_space_group_name_H-M   'P 1'
_cell_length_a   3.63959800
_cell_length_b   9.21739600
_cell_length_c   21.95631400
_cell_angle_alpha   90.00000000
_cell_angle_beta   90.00000000
_cell_angle_gamma   90.00000000
_symmetry_Int_Tables_number   1
_chemical_formula_structural   Ce(Ni5P2)2
_chemical_formula_sum   'Ce4 Ni40 P16'
_cell_volume   736.58199188
_cell_formula_units_Z   4
loop_
 _symmetry_equiv_pos_site_id
 _symmetry_equiv_pos_as_xyz
  1  'x, y, z'
loop_
 _atom_site_type_symbol
 _atom_site_label
 _atom_site_symmetry_multiplicity
 _atom_site_fract_x
 _atom_site_fract_y
 _atom_site_fract_z
 _atom_site_occupancy
  Ce  Ce0  1  0.75000000  0.79879000  0.89243300  1
  Ce  Ce1  1  0.25000000  0.20121000  0.10756700  1
  Ce  Ce2  1  0.75000000  0.29879000  0.60756700  1
  Ce  Ce3  1  0.25000000  0.70121000  0.39243300  1
  Ni  Ni4  1  0.25000000  0.08326000  0.53149100  1
  Ni  Ni5  1  0.25000000  0.04980500  0.41742100  1
  Ni  Ni6  1  0.75000000  0.17302200  0.90273900  1
  Ni  Ni7  1  0.75000000  0.20557700  0.32923300  1
  Ni  Ni8  1  0.25000000  0.29442300  0.82923300  1
  Ni  Ni9  1  0.75000000  0.59836000  0.70254300  1
  Ni  Ni10  1  0.25000000  0.58326000  0.96850900  1
  Ni  Ni11  1  0.25000000  0.92312800  0.77878100  1
  Ni  Ni12  1  0.25000000  0.79442300  0.67076700  1
  Ni  Ni13  1  0.25000000  0.66017900  0.78438900  1
  Ni  Ni14  1  0.25000000  0.32697800  0.40273900  1
  Ni  Ni15  1  0.75000000  0.95019500  0.58257900  1
  Ni  Ni16  1  0.75000000  0.96422300  0.03807300  1
  Ni  Ni17  1  0.25000000  0.40164000  0.29745700  1
  Ni  Ni18  1  0.75000000  0.57687200  0.27878100  1
  Ni  Ni19  1  0.75000000  0.70557700  0.17076700  1
  Ni  Ni20  1  0.75000000  0.09836000  0.79745700  1
  Ni  Ni21  1  0.25000000  0.90164000  0.20254300  1
  Ni  Ni22  1  0.25000000  0.01912900  0.30635400  1
  Ni  Ni23  1  0.75000000  0.19230100  0.46806000  1
  Ni  Ni24  1  0.25000000  0.30769900  0.96806000  1
  Ni  Ni25  1  0.75000000  0.41674000  0.03149100  1
  Ni  Ni26  1  0.75000000  0.67302200  0.59726100  1
  Ni  Ni27  1  0.25000000  0.53577700  0.53807300  1
  Ni  Ni28  1  0.25000000  0.16017900  0.71561100  1
  Ni  Ni29  1  0.75000000  0.69230100  0.03194000  1
  Ni  Ni30  1  0.25000000  0.42312800  0.72121900  1
  Ni  Ni31  1  0.75000000  0.45019500  0.91742100  1
  Ni  Ni32  1  0.75000000  0.48087100  0.80635400  1
  Ni  Ni33  1  0.25000000  0.80769900  0.53194000  1
  Ni  Ni34  1  0.75000000  0.46422300  0.46192700  1
  Ni  Ni35  1  0.25000000  0.82697800  0.09726100  1
  Ni  Ni36  1  0.25000000  0.03577700  0.96192700  1
  Ni  Ni37  1  0.75000000  0.07687200  0.22121900  1
  Ni  Ni38  1  0.75000000  0.83982100  0.28438900  1
  Ni  Ni39  1  0.75000000  0.33982100  0.21561100  1
  Ni  Ni40  1  0.25000000  0.54980500  0.08257900  1
  Ni  Ni41  1  0.75000000  0.91674000  0.46850900  1
  Ni  Ni42  1  0.75000000  0.98087100  0.69364600  1
  Ni  Ni43  1  0.25000000  0.51912900  0.19364600  1
  P  P44  1  0.25000000  0.06195800  0.86086100  1
  P  P45  1  0.25000000  0.20489200  0.24320900  1
  P  P46  1  0.75000000  0.43804200  0.36086100  1
  P  P47  1  0.75000000  0.97483400  0.36849500  1
  P  P48  1  0.25000000  0.31453100  0.50101400  1
  P  P49  1  0.75000000  0.68546900  0.49898600  1
  P  P50  1  0.75000000  0.29510800  0.74320900  1
  P  P51  1  0.25000000  0.52516600  0.86849500  1
  P  P52  1  0.25000000  0.56195800  0.63913900  1
  P  P53  1  0.75000000  0.79510800  0.75679100  1
  P  P54  1  0.75000000  0.93804200  0.13913900  1
  P  P55  1  0.75000000  0.18546900  0.00101400  1
  P  P56  1  0.25000000  0.81453100  0.99898600  1
  P  P57  1  0.25000000  0.70489200  0.25679100  1
  P  P58  1  0.25000000  0.02516600  0.63150500  1
  P  P59  1  0.75000000  0.47483400  0.13150500  1
