# generated using pymatgen
data_KAg(CN)2
_symmetry_space_group_name_H-M   'P 1'
_cell_length_a   7.57421063
_cell_length_b   7.57421063
_cell_length_c   17.69036100
_cell_angle_alpha   90.00000000
_cell_angle_beta   90.00000000
_cell_angle_gamma   120.00000549
_symmetry_Int_Tables_number   1
_chemical_formula_structural   KAg(CN)2
_chemical_formula_sum   'K6 Ag6 C12 N12'
_cell_volume   878.90525142
_cell_formula_units_Z   6
loop_
 _symmetry_equiv_pos_site_id
 _symmetry_equiv_pos_as_xyz
  1  'x, y, z'
loop_
 _atom_site_type_symbol
 _atom_site_label
 _atom_site_symmetry_multiplicity
 _atom_site_fract_x
 _atom_site_fract_y
 _atom_site_fract_z
 _atom_site_occupancy
  K  K0  1  0.33333300  0.66666700  0.99670600  1
  K  K1  1  0.66666700  0.33333300  0.00329400  1
  K  K2  1  0.66666700  0.33333300  0.49670600  1
  K  K3  1  0.33333300  0.66666700  0.50329400  1
  K  K4  1  0.00000000  0.00000000  0.00000000  1
  K  K5  1  0.00000000  0.00000000  0.50000000  1
  Ag  Ag6  1  0.16679000  0.83321000  0.25000000  1
  Ag  Ag7  1  0.33358100  0.16679000  0.75000000  1
  Ag  Ag8  1  0.83321000  0.16679000  0.75000000  1
  Ag  Ag9  1  0.83321000  0.66641900  0.75000000  1
  Ag  Ag10  1  0.66641900  0.83321000  0.25000000  1
  Ag  Ag11  1  0.16679000  0.33358100  0.25000000  1
  C  C12  1  0.94646200  0.66787100  0.85554500  1
  C  C13  1  0.94646200  0.27859100  0.64445500  1
  C  C14  1  0.66787100  0.72140900  0.14445500  1
  C  C15  1  0.05353800  0.33212900  0.14445500  1
  C  C16  1  0.72140900  0.66787100  0.64445500  1
  C  C17  1  0.72140900  0.05353800  0.85554500  1
  C  C18  1  0.33212900  0.27859100  0.85554500  1
  C  C19  1  0.66787100  0.94646200  0.35554500  1
  C  C20  1  0.27859100  0.94646200  0.14445500  1
  C  C21  1  0.33212900  0.05353800  0.64445500  1
  C  C22  1  0.27859100  0.33212900  0.35554500  1
  C  C23  1  0.05353800  0.72140900  0.35554500  1
  N  N24  1  0.66983600  0.00643200  0.41697000  1
  N  N25  1  0.00643200  0.66983600  0.91697000  1
  N  N26  1  0.33659600  0.00643200  0.08303000  1
  N  N27  1  0.66983600  0.66340400  0.08303000  1
  N  N28  1  0.99356800  0.33016400  0.08303000  1
  N  N29  1  0.99356800  0.66340400  0.41697000  1
  N  N30  1  0.33659600  0.33016400  0.41697000  1
  N  N31  1  0.33016400  0.99356800  0.58303000  1
  N  N32  1  0.66340400  0.99356800  0.91697000  1
  N  N33  1  0.00643200  0.33659600  0.58303000  1
  N  N34  1  0.66340400  0.66983600  0.58303000  1
  N  N35  1  0.33016400  0.33659600  0.91697000  1
