# generated using pymatgen
data_NaH6CSNO3
_symmetry_space_group_name_H-M   'P 1'
_cell_length_a   10.73121108
_cell_length_b   10.73121108
_cell_length_c   10.73121099
_cell_angle_alpha   110.03993146
_cell_angle_beta   110.03993146
_cell_angle_gamma   110.03993448
_symmetry_Int_Tables_number   1
_chemical_formula_structural   NaH6CSNO3
_chemical_formula_sum   'Na6 H36 C6 S6 N6 O18'
_cell_volume   930.74561441
_cell_formula_units_Z   6
loop_
 _symmetry_equiv_pos_site_id
 _symmetry_equiv_pos_as_xyz
  1  'x, y, z'
loop_
 _atom_site_type_symbol
 _atom_site_label
 _atom_site_symmetry_multiplicity
 _atom_site_fract_x
 _atom_site_fract_y
 _atom_site_fract_z
 _atom_site_occupancy
  Na  Na0  1  0.19784700  0.54183800  0.98321200  1
  Na  Na1  1  0.98321200  0.19784700  0.54183800  1
  Na  Na2  1  0.54183800  0.98321200  0.19784700  1
  Na  Na3  1  0.80215300  0.45816200  0.01678800  1
  Na  Na4  1  0.01678800  0.80215300  0.45816200  1
  Na  Na5  1  0.45816200  0.01678800  0.80215300  1
  H  H6  1  0.19308300  0.86170500  0.17647100  1
  H  H7  1  0.17647100  0.19308300  0.86170400  1
  H  H8  1  0.86170400  0.17647100  0.19308300  1
  H  H9  1  0.80691700  0.13829600  0.82352900  1
  H  H10  1  0.82352900  0.80691700  0.13829600  1
  H  H11  1  0.13829600  0.82352900  0.80691700  1
  H  H12  1  0.88864500  0.65251500  0.87094700  1
  H  H13  1  0.87094700  0.88864500  0.65251500  1
  H  H14  1  0.65251500  0.87094700  0.88864500  1
  H  H15  1  0.11135500  0.34748500  0.12905300  1
  H  H16  1  0.12905300  0.11135500  0.34748500  1
  H  H17  1  0.34748500  0.12905300  0.11135500  1
  H  H18  1  0.28837000  0.56463200  0.29819500  1
  H  H19  1  0.29819500  0.28837000  0.56463200  1
  H  H20  1  0.56463200  0.29819500  0.28837000  1
  H  H21  1  0.71163000  0.43536800  0.70180500  1
  H  H22  1  0.70180500  0.71163000  0.43536800  1
  H  H23  1  0.43536800  0.70180500  0.71163000  1
  H  H24  1  0.40774100  0.73905200  0.42301500  1
  H  H25  1  0.42301500  0.40774100  0.73905200  1
  H  H26  1  0.73905200  0.42301500  0.40774100  1
  H  H27  1  0.59225900  0.26094800  0.57698500  1
  H  H28  1  0.57698500  0.59225900  0.26094800  1
  H  H29  1  0.26094800  0.57698500  0.59225900  1
  H  H30  1  0.99409200  0.49153400  0.68454100  1
  H  H31  1  0.68454100  0.99409200  0.49153400  1
  H  H32  1  0.49153400  0.68454100  0.99409200  1
  H  H33  1  0.00590800  0.50846600  0.31545900  1
  H  H34  1  0.31545900  0.00590800  0.50846600  1
  H  H35  1  0.50846600  0.31545900  0.00590800  1
  H  H36  1  0.89897000  0.37562900  0.71721900  1
  H  H37  1  0.71721900  0.89897000  0.37562900  1
  H  H38  1  0.37562900  0.71721900  0.89897000  1
  H  H39  1  0.10103000  0.62437100  0.28278100  1
  H  H40  1  0.28278100  0.10103000  0.62437100  1
  H  H41  1  0.62437100  0.28278100  0.10103000  1
  C  C42  1  0.28080600  0.29196700  0.14673500  1
  C  C43  1  0.14673500  0.28080600  0.29196700  1
  C  C44  1  0.29196700  0.14673500  0.28080600  1
  C  C45  1  0.71919400  0.70803300  0.85326500  1
  C  C46  1  0.85326500  0.71919400  0.70803300  1
  C  C47  1  0.70803300  0.85326500  0.71919400  1
  S  S48  1  0.29927300  0.32437100  0.00744400  1
  S  S49  1  0.00744400  0.29927300  0.32437100  1
  S  S50  1  0.32437100  0.00744400  0.29927300  1
  S  S51  1  0.70072700  0.67562900  0.99255600  1
  S  S52  1  0.99255600  0.70072700  0.67562900  1
  S  S53  1  0.67562900  0.99255600  0.70072700  1
  N  N54  1  0.18677900  0.32814500  0.19785900  1
  N  N55  1  0.19785900  0.18677900  0.32814500  1
  N  N56  1  0.32814500  0.19785900  0.18677900  1
  N  N57  1  0.81322100  0.67185500  0.80214100  1
  N  N58  1  0.80214100  0.81322100  0.67185500  1
  N  N59  1  0.67185500  0.80214100  0.81322100  1
  O  O60  1  0.00847100  0.57067200  0.00088400  1
  O  O61  1  0.00088400  0.00847100  0.57067200  1
  O  O62  1  0.57067200  0.00088400  0.00847100  1
  O  O63  1  0.99152900  0.42932800  0.99911600  1
  O  O64  1  0.99911600  0.99152900  0.42932800  1
  O  O65  1  0.42932800  0.99911600  0.99152900  1
  O  O66  1  0.31390600  0.66980700  0.31949500  1
  O  O67  1  0.31949500  0.31390600  0.66980700  1
  O  O68  1  0.66980700  0.31949500  0.31390600  1
  O  O69  1  0.68609400  0.33019300  0.68050500  1
  O  O70  1  0.68050500  0.68609400  0.33019300  1
  O  O71  1  0.33019300  0.68050500  0.68609400  1
  O  O72  1  0.98516400  0.40306100  0.69782900  1
  O  O73  1  0.69782900  0.98516400  0.40306100  1
  O  O74  1  0.40306100  0.69782900  0.98516400  1
  O  O75  1  0.01483600  0.59693900  0.30217100  1
  O  O76  1  0.30217100  0.01483600  0.59693900  1
  O  O77  1  0.59693900  0.30217100  0.01483600  1
