# generated using pymatgen
data_P3N3O14
_symmetry_space_group_name_H-M   'P 1'
_cell_length_a   6.86403800
_cell_length_b   9.56200953
_cell_length_c   9.63255119
_cell_angle_alpha   96.00499005
_cell_angle_beta   102.10124380
_cell_angle_gamma   106.84393946
_symmetry_Int_Tables_number   1
_chemical_formula_structural   P3N3O14
_chemical_formula_sum   'P6 N6 O28'
_cell_volume   582.34298685
_cell_formula_units_Z   2
loop_
 _symmetry_equiv_pos_site_id
 _symmetry_equiv_pos_as_xyz
  1  'x, y, z'
loop_
 _atom_site_type_symbol
 _atom_site_label
 _atom_site_symmetry_multiplicity
 _atom_site_fract_x
 _atom_site_fract_y
 _atom_site_fract_z
 _atom_site_occupancy
  P  P0  1  0.39782200  0.50777900  0.27814500  1
  P  P1  1  0.60217800  0.49222100  0.72185500  1
  P  P2  1  0.75219500  0.76672700  0.41802600  1
  P  P3  1  0.24780500  0.23327300  0.58197400  1
  P  P4  1  0.22103100  0.17938900  0.27054100  1
  P  P5  1  0.77896900  0.82061100  0.72945900  1
  N  N6  1  0.76610900  0.21566900  0.57273300  1
  N  N7  1  0.23389100  0.78433100  0.42726700  1
  N  N8  1  0.28986600  0.83269500  0.01638100  1
  N  N9  1  0.71013400  0.16730500  0.98361900  1
  N  N10  1  0.25466600  0.41816100  0.88308800  1
  N  N11  1  0.74533400  0.58183900  0.11691200  1
  O  O12  1  0.60868500  0.59244900  0.40311000  1
  O  O13  1  0.39131500  0.40755100  0.59689000  1
  O  O14  1  0.39980600  0.34076200  0.28445300  1
  O  O15  1  0.60019400  0.65923800  0.71554700  1
  O  O16  1  0.44721200  0.54709400  0.13499700  1
  O  O17  1  0.55278800  0.45290600  0.86500300  1
  O  O18  1  0.20527400  0.53361500  0.30765900  1
  O  O19  1  0.79472600  0.46638500  0.69234100  1
  O  O20  1  0.61859100  0.86075400  0.37833400  1
  O  O21  1  0.38140900  0.13924600  0.62166600  1
  O  O22  1  0.07898500  0.23602900  0.66276900  1
  O  O23  1  0.92101500  0.76397100  0.33723100  1
  O  O24  1  0.86983900  0.79675800  0.58770900  1
  O  O25  1  0.13016100  0.20324200  0.41229100  1
  O  O26  1  0.33708900  0.07059100  0.27988500  1
  O  O27  1  0.66291100  0.92940900  0.72011500  1
  O  O28  1  0.03751100  0.16293800  0.14259600  1
  O  O29  1  0.96248900  0.83706200  0.85740400  1
  O  O30  1  0.26656500  0.79106300  0.54707000  1
  O  O31  1  0.73343500  0.20893700  0.45293000  1
  O  O32  1  0.23345000  0.82148400  0.12000200  1
  O  O33  1  0.76655000  0.17851600  0.87999800  1
  O  O34  1  0.19417600  0.51224100  0.85599300  1
  O  O35  1  0.80582400  0.48775900  0.14400700  1
  O  O36  1  0.60827100  0.15002100  0.06639600  1
  O  O37  1  0.39172900  0.84997900  0.93360400  1
  O  O38  1  0.15940700  0.09497200  0.94749000  1
  O  O39  1  0.84059300  0.90502800  0.05251000  1
