# generated using pymatgen
data_P2W2O11
_symmetry_space_group_name_H-M   'P 1'
_cell_length_a   7.98274500
_cell_length_b   12.73926200
_cell_length_c   8.00027647
_cell_angle_alpha   90.00000000
_cell_angle_beta   92.26119973
_cell_angle_gamma   90.00000000
_symmetry_Int_Tables_number   1
_chemical_formula_structural   P2W2O11
_chemical_formula_sum   'P8 W8 O44'
_cell_volume   812.94885422
_cell_formula_units_Z   4
loop_
 _symmetry_equiv_pos_site_id
 _symmetry_equiv_pos_as_xyz
  1  'x, y, z'
loop_
 _atom_site_type_symbol
 _atom_site_label
 _atom_site_symmetry_multiplicity
 _atom_site_fract_x
 _atom_site_fract_y
 _atom_site_fract_z
 _atom_site_occupancy
  P  P0  1  0.25360400  0.49941700  0.10574300  1
  P  P1  1  0.25060500  0.24455000  0.61783200  1
  P  P2  1  0.25102100  0.75190100  0.61209500  1
  P  P3  1  0.07155800  0.99869900  0.34411000  1
  P  P4  1  0.74897900  0.25190100  0.38790500  1
  P  P5  1  0.74939500  0.74455000  0.38216800  1
  P  P6  1  0.74639600  0.99941700  0.89425700  1
  P  P7  1  0.92844200  0.49869900  0.65589000  1
  W  W8  1  0.85134400  0.25034500  0.80918500  1
  W  W9  1  0.15179900  0.24563600  0.19442500  1
  W  W10  1  0.36129300  0.99805300  0.69049700  1
  W  W11  1  0.36251800  0.49856800  0.69361300  1
  W  W12  1  0.63748200  0.99856800  0.30638700  1
  W  W13  1  0.84820100  0.74563600  0.80557500  1
  W  W14  1  0.14865600  0.75034500  0.19081500  1
  W  W15  1  0.63870700  0.49805300  0.30950300  1
  O  O16  1  0.25739000  0.74227300  0.41900600  1
  O  O17  1  0.89558800  0.99946500  0.40923700  1
  O  O18  1  0.55669400  0.99722300  0.51703600  1
  O  O19  1  0.99964800  0.74745400  0.99736900  1
  O  O20  1  0.82730600  0.90070700  0.81941900  1
  O  O21  1  0.25732400  0.25466200  0.42460900  1
  O  O22  1  0.37162900  0.15237600  0.66784100  1
  O  O23  1  0.66606500  0.15372100  0.30857600  1
  O  O24  1  0.00035200  0.24745400  0.00263100  1
  O  O25  1  0.07561000  0.77268600  0.66860700  1
  O  O26  1  0.32739400  0.34372200  0.69966500  1
  O  O27  1  0.20890100  0.99488100  0.83893700  1
  O  O28  1  0.79544300  0.50025200  0.50943700  1
  O  O29  1  0.62850600  0.34457200  0.33872000  1
  O  O30  1  0.33091500  0.77323300  0.08679900  1
  O  O31  1  0.77257300  0.00350400  0.08357600  1
  O  O32  1  0.66908500  0.27323300  0.91320100  1
  O  O33  1  0.44330600  0.49722300  0.48296400  1
  O  O34  1  0.10164800  0.90046700  0.23514200  1
  O  O35  1  0.10441200  0.49946500  0.59076300  1
  O  O36  1  0.44538300  0.49882300  0.15100100  1
  O  O37  1  0.22742700  0.50350400  0.91642400  1
  O  O38  1  0.92433200  0.72233600  0.32592500  1
  O  O39  1  0.74267600  0.75466200  0.57539100  1
  O  O40  1  0.37149400  0.84457200  0.66128000  1
  O  O41  1  0.55461700  0.99882300  0.84899900  1
  O  O42  1  0.79109900  0.49488100  0.16106300  1
  O  O43  1  0.33480100  0.22041200  0.09339200  1
  O  O44  1  0.83134900  0.09428700  0.81190000  1
  O  O45  1  0.20455700  0.00025200  0.49056300  1
  O  O46  1  0.89784800  0.59653800  0.76528000  1
  O  O47  1  0.62837100  0.65237600  0.33215900  1
  O  O48  1  0.44995100  0.99593900  0.18927000  1
  O  O49  1  0.89835200  0.40046700  0.76485800  1
  O  O50  1  0.67260600  0.84372200  0.30033500  1
  O  O51  1  0.17269400  0.40070700  0.18058100  1
  O  O52  1  0.16865100  0.59428700  0.18810000  1
  O  O53  1  0.74261000  0.24227300  0.58099400  1
  O  O54  1  0.33393500  0.65372100  0.69142400  1
  O  O55  1  0.07566800  0.22233600  0.67407500  1
  O  O56  1  0.10215200  0.09653800  0.23472000  1
  O  O57  1  0.92439000  0.27268600  0.33139300  1
  O  O58  1  0.66519900  0.72041200  0.90660800  1
  O  O59  1  0.55004900  0.49593900  0.81073000  1
