# generated using pymatgen
data_SiO2
_symmetry_space_group_name_H-M   'P 1'
_cell_length_a   7.56990312
_cell_length_b   7.56990312
_cell_length_c   17.31648300
_cell_angle_alpha   90.00000000
_cell_angle_beta   90.00000000
_cell_angle_gamma   139.19327525
_symmetry_Int_Tables_number   1
_chemical_formula_structural   SiO2
_chemical_formula_sum   'Si12 O24'
_cell_volume   648.47345691
_cell_formula_units_Z   12
loop_
 _symmetry_equiv_pos_site_id
 _symmetry_equiv_pos_as_xyz
  1  'x, y, z'
loop_
 _atom_site_type_symbol
 _atom_site_label
 _atom_site_symmetry_multiplicity
 _atom_site_fract_x
 _atom_site_fract_y
 _atom_site_fract_z
 _atom_site_occupancy
  Si  Si0  1  0.74243800  0.25756200  0.05371200  1
  Si  Si1  1  0.25756200  0.74243800  0.94628800  1
  Si  Si2  1  0.74243800  0.25756200  0.44628800  1
  Si  Si3  1  0.25756200  0.74243800  0.55371200  1
  Si  Si4  1  0.92887500  0.07112500  0.15761700  1
  Si  Si5  1  0.07112500  0.92887500  0.84238300  1
  Si  Si6  1  0.92887500  0.07112500  0.34238300  1
  Si  Si7  1  0.07112500  0.92887500  0.65761700  1
  Si  Si8  1  0.52879000  0.47121000  0.09072900  1
  Si  Si9  1  0.47121000  0.52879000  0.90927100  1
  Si  Si10  1  0.52879000  0.47121000  0.40927100  1
  Si  Si11  1  0.47121000  0.52879000  0.59072900  1
  O  O12  1  0.82610700  0.17389300  0.11706900  1
  O  O13  1  0.17389300  0.82610700  0.88293100  1
  O  O14  1  0.82610700  0.17389300  0.38293100  1
  O  O15  1  0.17389300  0.82610700  0.61706900  1
  O  O16  1  0.00000000  0.50000000  0.00000000  1
  O  O17  1  0.50000000  0.00000000  0.00000000  1
  O  O18  1  0.50000000  0.00000000  0.50000000  1
  O  O19  1  0.00000000  0.50000000  0.50000000  1
  O  O20  1  0.64266900  0.35733100  0.09973900  1
  O  O21  1  0.35733100  0.64266900  0.90026100  1
  O  O22  1  0.64266900  0.35733100  0.40026100  1
  O  O23  1  0.35733100  0.64266900  0.59973900  1
  O  O24  1  0.73763600  0.76269900  0.13244500  1
  O  O25  1  0.76269900  0.73763600  0.86755500  1
  O  O26  1  0.23730100  0.26236400  0.36755500  1
  O  O27  1  0.26236400  0.23730100  0.63244500  1
  O  O28  1  0.26236400  0.23730100  0.86755500  1
  O  O29  1  0.23730100  0.26236400  0.13244500  1
  O  O30  1  0.76269900  0.73763600  0.63244500  1
  O  O31  1  0.73763600  0.76269900  0.36755500  1
  O  O32  1  0.91393700  0.08606300  0.25000000  1
  O  O33  1  0.08606300  0.91393700  0.75000000  1
  O  O34  1  0.50000000  0.50000000  0.00000000  1
  O  O35  1  0.50000000  0.50000000  0.50000000  1
