# generated using pymatgen
data_SiO2
_symmetry_space_group_name_H-M   'P 1'
_cell_length_a   8.64577354
_cell_length_b   8.64577354
_cell_length_c   8.64577354
_cell_angle_alpha   110.30022352
_cell_angle_beta   110.30022352
_cell_angle_gamma   107.82564149
_symmetry_Int_Tables_number   1
_chemical_formula_structural   SiO2
_chemical_formula_sum   'Si8 O16'
_cell_volume   497.18940025
_cell_formula_units_Z   8
loop_
 _symmetry_equiv_pos_site_id
 _symmetry_equiv_pos_as_xyz
  1  'x, y, z'
loop_
 _atom_site_type_symbol
 _atom_site_label
 _atom_site_symmetry_multiplicity
 _atom_site_fract_x
 _atom_site_fract_y
 _atom_site_fract_z
 _atom_site_occupancy
  Si  Si0  1  0.59125700  0.40874300  0.50000000  1
  Si  Si1  1  0.15874300  0.15874300  0.31748500  1
  Si  Si2  1  0.84125700  0.84125700  0.68251500  1
  Si  Si3  1  0.90874300  0.09125700  0.50000000  1
  Si  Si4  1  0.15874300  0.84125700  0.00000000  1
  Si  Si5  1  0.59125700  0.09125700  0.18251500  1
  Si  Si6  1  0.90874300  0.40874300  0.81748500  1
  Si  Si7  1  0.84125700  0.15874300  0.00000000  1
  O  O8  1  0.60103000  0.28536000  0.31567000  1
  O  O9  1  0.03536000  0.21969100  0.18433000  1
  O  O10  1  0.03536000  0.85103000  0.81567000  1
  O  O11  1  0.14897000  0.96464000  0.18433000  1
  O  O12  1  0.78030900  0.96464000  0.81567000  1
  O  O13  1  0.96969100  0.28536000  0.68433000  1
  O  O14  1  0.71464000  0.03030900  0.31567000  1
  O  O15  1  0.71464000  0.39897000  0.68433000  1
  O  O16  1  0.67171900  0.62500000  0.54671900  1
  O  O17  1  0.37500000  0.32828100  0.45328100  1
  O  O18  1  0.87500000  0.92171900  0.54671900  1
  O  O19  1  0.07828100  0.12500000  0.45328100  1
  O  O20  1  0.07828100  0.62500000  0.95328100  1
  O  O21  1  0.37500000  0.92171900  0.04671900  1
  O  O22  1  0.87500000  0.32828100  0.95328100  1
  O  O23  1  0.67171900  0.12500000  0.04671900  1
