# generated using pymatgen
data_Co(PO3)4
_symmetry_space_group_name_H-M   'P 1'
_cell_length_a   7.43158994
_cell_length_b   7.43158994
_cell_length_c   9.70211312
_cell_angle_alpha   69.29539409
_cell_angle_beta   69.29539409
_cell_angle_gamma   69.15379552
_symmetry_Int_Tables_number   1
_chemical_formula_structural   Co(PO3)4
_chemical_formula_sum   'Co2 P8 O24'
_cell_volume   452.24195518
_cell_formula_units_Z   2
loop_
 _symmetry_equiv_pos_site_id
 _symmetry_equiv_pos_as_xyz
  1  'x, y, z'
loop_
 _atom_site_type_symbol
 _atom_site_label
 _atom_site_symmetry_multiplicity
 _atom_site_fract_x
 _atom_site_fract_y
 _atom_site_fract_z
 _atom_site_occupancy
  Co  Co0  1  0.00000000  0.50000000  0.00000000  1
  Co  Co1  1  0.50000000  0.00000000  0.50000000  1
  P  P2  1  0.27332400  0.73141800  0.46414300  1
  P  P3  1  0.66448500  0.69907700  0.81433100  1
  P  P4  1  0.73141800  0.27332400  0.96414300  1
  P  P5  1  0.69907700  0.66448500  0.31433100  1
  P  P6  1  0.72667600  0.26858200  0.53585700  1
  P  P7  1  0.33551500  0.30092300  0.18566900  1
  P  P8  1  0.26858200  0.72667600  0.03585700  1
  P  P9  1  0.30092300  0.33551500  0.68566900  1
  O  O10  1  0.52880900  0.20722500  0.06369600  1
  O  O11  1  0.35413500  0.52221900  0.15470100  1
  O  O12  1  0.31662200  0.15030100  0.64562700  1
  O  O13  1  0.47778100  0.64586500  0.34529900  1
  O  O14  1  0.15030100  0.31662200  0.14562700  1
  O  O15  1  0.52221900  0.35413500  0.65470100  1
  O  O16  1  0.84969900  0.68337800  0.85437300  1
  O  O17  1  0.12155100  0.86832400  0.37733400  1
  O  O18  1  0.47119100  0.79277500  0.93630400  1
  O  O19  1  0.64586500  0.47778100  0.84529900  1
  O  O20  1  0.65154600  0.81207400  0.65603600  1
  O  O21  1  0.20722500  0.52880900  0.56369600  1
  O  O22  1  0.18792600  0.34845400  0.84396400  1
  O  O23  1  0.79277500  0.47119100  0.43630400  1
  O  O24  1  0.86832400  0.12155100  0.87733400  1
  O  O25  1  0.81375100  0.32270100  0.06470700  1
  O  O26  1  0.13167600  0.87844900  0.12266600  1
  O  O27  1  0.87844900  0.13167600  0.62266600  1
  O  O28  1  0.81207400  0.65154600  0.15603600  1
  O  O29  1  0.18624900  0.67729900  0.93529300  1
  O  O30  1  0.68337800  0.84969900  0.35437300  1
  O  O31  1  0.67729900  0.18624900  0.43529300  1
  O  O32  1  0.32270100  0.81375100  0.56470700  1
  O  O33  1  0.34845400  0.18792600  0.34396400  1
