# generated using pymatgen
data_SiO2
_symmetry_space_group_name_H-M   'P 1'
_cell_length_a   11.00751521
_cell_length_b   11.00751521
_cell_length_c   10.22483300
_cell_angle_alpha   90.00000000
_cell_angle_beta   90.00000000
_cell_angle_gamma   133.09065642
_symmetry_Int_Tables_number   1
_chemical_formula_structural   SiO2
_chemical_formula_sum   'Si16 O32'
_cell_volume   904.73307593
_cell_formula_units_Z   16
loop_
 _symmetry_equiv_pos_site_id
 _symmetry_equiv_pos_as_xyz
  1  'x, y, z'
loop_
 _atom_site_type_symbol
 _atom_site_label
 _atom_site_symmetry_multiplicity
 _atom_site_fract_x
 _atom_site_fract_y
 _atom_site_fract_z
 _atom_site_occupancy
  Si  Si0  1  0.12704300  0.23723600  0.88909000  1
  Si  Si1  1  0.23723600  0.12704300  0.11091000  1
  Si  Si2  1  0.26276400  0.37295700  0.61091000  1
  Si  Si3  1  0.37295700  0.26276400  0.38909000  1
  Si  Si4  1  0.87295700  0.76276400  0.11091000  1
  Si  Si5  1  0.76276400  0.87295700  0.88909000  1
  Si  Si6  1  0.73723600  0.62704300  0.38909000  1
  Si  Si7  1  0.62704300  0.73723600  0.61091000  1
  Si  Si8  1  0.11716200  0.51483900  0.89318700  1
  Si  Si9  1  0.51483900  0.11716200  0.10681300  1
  Si  Si10  1  0.98516100  0.38283800  0.60681300  1
  Si  Si11  1  0.38283800  0.98516100  0.39318700  1
  Si  Si12  1  0.88283800  0.48516100  0.10681300  1
  Si  Si13  1  0.48516100  0.88283800  0.89318700  1
  Si  Si14  1  0.01483900  0.61716200  0.39318700  1
  Si  Si15  1  0.61716200  0.01483900  0.60681300  1
  O  O16  1  0.21595200  0.21595200  0.00000000  1
  O  O17  1  0.28404800  0.28404800  0.50000000  1
  O  O18  1  0.78404800  0.78404800  0.00000000  1
  O  O19  1  0.71595200  0.71595200  0.50000000  1
  O  O20  1  0.93212200  0.06787800  0.87384300  1
  O  O21  1  0.06787800  0.93212200  0.12615700  1
  O  O22  1  0.43212200  0.56787800  0.62615700  1
  O  O23  1  0.56787800  0.43212200  0.37384300  1
  O  O24  1  0.22107300  0.27892700  0.75000000  1
  O  O25  1  0.27892700  0.22107300  0.25000000  1
  O  O26  1  0.77892700  0.72107300  0.25000000  1
  O  O27  1  0.72107300  0.77892700  0.75000000  1
  O  O28  1  0.14013200  0.38804500  0.93200600  1
  O  O29  1  0.38804500  0.14013200  0.06799400  1
  O  O30  1  0.11195500  0.35986800  0.56799400  1
  O  O31  1  0.35986800  0.11195500  0.43200600  1
  O  O32  1  0.85986800  0.61195500  0.06799400  1
  O  O33  1  0.61195500  0.85986800  0.93200600  1
  O  O34  1  0.88804500  0.64013200  0.43200600  1
  O  O35  1  0.64013200  0.88804500  0.56799400  1
  O  O36  1  0.29694900  0.70305100  0.89123600  1
  O  O37  1  0.70305100  0.29694900  0.10876400  1
  O  O38  1  0.79694900  0.20305100  0.60876400  1
  O  O39  1  0.20305100  0.79694900  0.39123600  1
  O  O40  1  0.03099500  0.46900500  0.75000000  1
  O  O41  1  0.46900500  0.03099500  0.25000000  1
  O  O42  1  0.96900500  0.53099500  0.25000000  1
  O  O43  1  0.53099500  0.96900500  0.75000000  1
  O  O44  1  0.00000000  0.50000000  0.00000000  1
  O  O45  1  0.50000000  0.00000000  0.00000000  1
  O  O46  1  0.00000000  0.50000000  0.50000000  1
  O  O47  1  0.50000000  0.00000000  0.50000000  1
