# generated using pymatgen
data_Ca3Si2O7
_symmetry_space_group_name_H-M   'P 1'
_cell_length_a   12.78857849
_cell_length_b   12.78857849
_cell_length_c   12.78857849
_cell_angle_alpha   156.81771599
_cell_angle_beta   126.28722475
_cell_angle_gamma   59.26350065
_symmetry_Int_Tables_number   1
_chemical_formula_structural   Ca3Si2O7
_chemical_formula_sum   'Ca12 Si8 O28'
_cell_volume   660.08205459
_cell_formula_units_Z   4
loop_
 _symmetry_equiv_pos_site_id
 _symmetry_equiv_pos_as_xyz
  1  'x, y, z'
loop_
 _atom_site_type_symbol
 _atom_site_label
 _atom_site_symmetry_multiplicity
 _atom_site_fract_x
 _atom_site_fract_y
 _atom_site_fract_z
 _atom_site_occupancy
  Ca  Ca0  1  0.32170500  0.60920600  0.72220700  1
  Ca  Ca1  1  0.11300100  0.39079400  0.71249900  1
  Ca  Ca2  1  0.98965900  0.00000000  0.98965900  1
  Ca  Ca3  1  0.34183400  0.32659400  0.00541700  1
  Ca  Ca4  1  0.17882300  0.16358300  0.00541700  1
  Ca  Ca5  1  0.84183400  0.83641700  0.01524100  1
  Ca  Ca6  1  0.48965900  0.50000000  0.98965900  1
  Ca  Ca7  1  0.67882300  0.67340600  0.01524100  1
  Ca  Ca8  1  0.03619100  0.74869200  0.28488300  1
  Ca  Ca9  1  0.53619100  0.25130800  0.28749800  1
  Ca  Ca10  1  0.61300100  0.90050200  0.72220700  1
  Ca  Ca11  1  0.82170500  0.09949800  0.71249900  1
  Si  Si12  1  0.84708500  0.17858700  0.52567200  1
  Si  Si13  1  0.50923900  0.16140100  0.46921000  1
  Si  Si14  1  0.00923900  0.54002900  0.34783800  1
  Si  Si15  1  0.30780900  0.83859900  0.34783800  1
  Si  Si16  1  0.80780900  0.45997100  0.46921000  1
  Si  Si17  1  0.74179800  0.50000000  0.24179800  1
  Si  Si18  1  0.24179800  0.00000000  0.24179800  1
  Si  Si19  1  0.34708500  0.82141300  0.66849800  1
  O  O20  1  0.12790800  0.39651400  0.34000200  1
  O  O21  1  0.30744400  0.15856200  0.65943600  1
  O  O22  1  0.80744400  0.14800800  0.14888300  1
  O  O23  1  0.71564400  0.04399100  0.25963400  1
  O  O24  1  0.44348800  0.71209300  0.34000200  1
  O  O25  1  0.87251700  0.35257900  0.14289800  1
  O  O26  1  0.11901300  0.13835700  0.34034500  1
  O  O27  1  0.35499900  0.89367900  0.86614500  1
  O  O28  1  0.97246600  0.10632100  0.46132000  1
  O  O29  1  0.47246600  0.01114600  0.86614500  1
  O  O30  1  0.79031900  0.64742100  0.51993800  1
  O  O31  1  0.84759800  0.49842800  0.84602500  1
  O  O32  1  0.20198700  0.86164300  0.98065600  1
  O  O33  1  0.85499900  0.98885400  0.46132000  1
  O  O34  1  0.29031900  0.77038100  0.14289800  1
  O  O35  1  0.18700900  0.64056900  0.14543900  1
  O  O36  1  0.62790800  0.28790700  0.73139500  1
  O  O37  1  0.94348800  0.60348600  0.73139500  1
  O  O38  1  0.68700900  0.54157000  0.54644000  1
  O  O39  1  0.50487000  0.35943100  0.54644000  1
  O  O40  1  0.61901300  0.27866800  0.98065600  1
  O  O41  1  0.34759800  0.50157200  0.34917000  1
  O  O42  1  0.21564400  0.95600900  0.67165300  1
  O  O43  1  0.00487000  0.45843000  0.14543900  1
  O  O44  1  0.50087500  0.84143800  0.14888300  1
  O  O45  1  0.37251700  0.22961900  0.51993800  1
  O  O46  1  0.00087500  0.85199200  0.65943600  1
  O  O47  1  0.70198700  0.72133200  0.34034500  1
