# generated using pymatgen
data_Cr4P7O24
_symmetry_space_group_name_H-M   'P 1'
_cell_length_a   10.12129100
_cell_length_b   10.25432305
_cell_length_c   10.68079954
_cell_angle_alpha   108.66903147
_cell_angle_beta   111.52357071
_cell_angle_gamma   104.83893617
_symmetry_Int_Tables_number   1
_chemical_formula_structural   Cr4P7O24
_chemical_formula_sum   'Cr8 P14 O48'
_cell_volume   884.87311183
_cell_formula_units_Z   2
loop_
 _symmetry_equiv_pos_site_id
 _symmetry_equiv_pos_as_xyz
  1  'x, y, z'
loop_
 _atom_site_type_symbol
 _atom_site_label
 _atom_site_symmetry_multiplicity
 _atom_site_fract_x
 _atom_site_fract_y
 _atom_site_fract_z
 _atom_site_occupancy
  Cr  Cr0  1  0.00208100  0.38656900  0.07582900  1
  Cr  Cr1  1  0.01316400  0.16933700  0.58687200  1
  Cr  Cr2  1  0.48812400  0.33611500  0.11474800  1
  Cr  Cr3  1  0.98683600  0.83066300  0.41312800  1
  Cr  Cr4  1  0.51187600  0.66388500  0.88525200  1
  Cr  Cr5  1  0.99791900  0.61343100  0.92417100  1
  Cr  Cr6  1  0.50006200  0.89537400  0.74252800  1
  Cr  Cr7  1  0.49993800  0.10462600  0.25747200  1
  P  P8  1  0.24990000  0.39189200  0.52402300  1
  P  P9  1  0.73716600  0.96422700  0.24199800  1
  P  P10  1  0.73339600  0.17838100  0.11649100  1
  P  P11  1  0.19360600  0.62560500  0.43357000  1
  P  P12  1  0.75010000  0.60810800  0.47597700  1
  P  P13  1  0.26660400  0.82161900  0.88350900  1
  P  P14  1  0.24999600  0.45878300  0.94829400  1
  P  P15  1  0.80070700  0.05963300  0.73889200  1
  P  P16  1  0.22756500  0.22080100  0.22665200  1
  P  P17  1  0.75000400  0.54121700  0.05170600  1
  P  P18  1  0.80639400  0.37439500  0.56643000  1
  P  P19  1  0.77243500  0.77919900  0.77334800  1
  P  P20  1  0.19929300  0.94036700  0.26110800  1
  P  P21  1  0.26283400  0.03577300  0.75800200  1
  O  O22  1  0.33651800  0.17496600  0.90674100  1
  O  O23  1  0.34925200  0.43321300  0.07977100  1
  O  O24  1  0.68981000  0.66014900  0.59781800  1
  O  O25  1  0.60603000  0.50409700  0.32516200  1
  O  O26  1  0.36768100  0.59380500  0.95402400  1
  O  O27  1  0.88208700  0.97480600  0.37247900  1
  O  O28  1  0.12882600  0.78885600  0.12394600  1
  O  O29  1  0.13226400  0.67947200  0.84168800  1
  O  O30  1  0.63167400  0.27682500  0.46038100  1
  O  O31  1  0.37733200  0.01823600  0.33729700  1
  O  O32  1  0.64236700  0.06303100  0.95178200  1
  O  O33  1  0.08771800  0.69844600  0.46238800  1
  O  O34  1  0.62603700  0.99434200  0.29946000  1
  O  O35  1  0.35763300  0.93696900  0.04821800  1
  O  O36  1  0.36832600  0.72317500  0.53961900  1
  O  O37  1  0.11334900  0.25785500  0.12594900  1
  O  O38  1  0.87117400  0.21114400  0.87605400  1
  O  O39  1  0.84098400  0.43927500  0.73033400  1
  O  O40  1  0.63444700  0.78041300  0.80347500  1
  O  O41  1  0.63231900  0.40619500  0.04597600  1
  O  O42  1  0.86773600  0.32052800  0.15831200  1
  O  O43  1  0.18396900  0.89293000  0.78199000  1
  O  O44  1  0.81603100  0.10707000  0.21801000  1
  O  O45  1  0.14583900  0.93130500  0.37322400  1
  O  O46  1  0.66348200  0.82503400  0.09325900  1
  O  O47  1  0.37985000  0.78104500  0.82398000  1
  O  O48  1  0.31019000  0.33985100  0.40218200  1
  O  O49  1  0.11791300  0.02519400  0.62752100  1
  O  O50  1  0.62266800  0.98176400  0.66270300  1
  O  O51  1  0.62015000  0.21895500  0.17602000  1
  O  O52  1  0.86368400  0.94348900  0.79706400  1
  O  O53  1  0.85380400  0.75379800  0.49317200  1
  O  O54  1  0.36555300  0.21958700  0.19652500  1
  O  O55  1  0.37396300  0.00565800  0.70054000  1
  O  O56  1  0.85416100  0.06869500  0.62677600  1
  O  O57  1  0.88665100  0.74214500  0.87405100  1
  O  O58  1  0.84995100  0.52092800  0.53119300  1
  O  O59  1  0.15901600  0.56072500  0.26966600  1
  O  O60  1  0.14619600  0.24620200  0.50682800  1
  O  O61  1  0.87363900  0.50062800  0.00998800  1
  O  O62  1  0.65074800  0.56678700  0.92022900  1
  O  O63  1  0.39397000  0.49590300  0.67483800  1
  O  O64  1  0.13631600  0.05651100  0.20293600  1
  O  O65  1  0.83579600  0.67822800  0.20647500  1
  O  O66  1  0.91228200  0.30155400  0.53761200  1
  O  O67  1  0.12636100  0.49937200  0.99001200  1
  O  O68  1  0.16420400  0.32177200  0.79352500  1
  O  O69  1  0.15004900  0.47907200  0.46880700  1
