# generated using pymatgen
data_Ni3P3O11
_symmetry_space_group_name_H-M   'P 1'
_cell_length_a   9.47269500
_cell_length_b   9.77824900
_cell_length_c   10.22452185
_cell_angle_alpha   59.37353870
_cell_angle_beta   90.00000000
_cell_angle_gamma   90.00000000
_symmetry_Int_Tables_number   1
_chemical_formula_structural   Ni3P3O11
_chemical_formula_sum   'Ni12 P12 O44'
_cell_volume   814.95190862
_cell_formula_units_Z   4
loop_
 _symmetry_equiv_pos_site_id
 _symmetry_equiv_pos_as_xyz
  1  'x, y, z'
loop_
 _atom_site_type_symbol
 _atom_site_label
 _atom_site_symmetry_multiplicity
 _atom_site_fract_x
 _atom_site_fract_y
 _atom_site_fract_z
 _atom_site_occupancy
  Ni  Ni0  1  0.12630600  0.08333700  0.73594000  1
  Ni  Ni1  1  0.36689500  0.26773200  0.87372600  1
  Ni  Ni2  1  0.87369400  0.91666300  0.26406000  1
  Ni  Ni3  1  0.13656000  0.90226600  0.10586300  1
  Ni  Ni4  1  0.37369400  0.08333700  0.23594000  1
  Ni  Ni5  1  0.63310500  0.73226800  0.12627400  1
  Ni  Ni6  1  0.36344000  0.90226600  0.60586300  1
  Ni  Ni7  1  0.63656000  0.09773400  0.39413700  1
  Ni  Ni8  1  0.86689500  0.73226800  0.62627400  1
  Ni  Ni9  1  0.86344000  0.09773400  0.89413700  1
  Ni  Ni10  1  0.13310500  0.26773200  0.37372600  1
  Ni  Ni11  1  0.62630600  0.91666300  0.76406000  1
  P  P12  1  0.58066300  0.76678400  0.42196800  1
  P  P13  1  0.33276100  0.88567400  0.93329900  1
  P  P14  1  0.91933700  0.76678400  0.92196800  1
  P  P15  1  0.16723900  0.88567400  0.43329900  1
  P  P16  1  0.66723900  0.11432600  0.06670100  1
  P  P17  1  0.94416100  0.59574400  0.24879800  1
  P  P18  1  0.05583900  0.40425600  0.75120200  1
  P  P19  1  0.41933700  0.23321600  0.57803200  1
  P  P20  1  0.08066300  0.23321600  0.07803200  1
  P  P21  1  0.55583900  0.59574400  0.74879800  1
  P  P22  1  0.44416100  0.40425600  0.25120200  1
  P  P23  1  0.83276100  0.11432600  0.56670100  1
  O  O24  1  0.50835800  0.75455100  0.73942200  1
  O  O25  1  0.73736200  0.24210300  0.91753300  1
  O  O26  1  0.52984600  0.54492300  0.14214400  1
  O  O27  1  0.23428300  0.04255400  0.42486500  1
  O  O28  1  0.74235100  0.77292200  0.43714300  1
  O  O29  1  0.23069900  0.89680000  0.28784700  1
  O  O30  1  0.24235100  0.22707800  0.06285700  1
  O  O31  1  0.03113100  0.25252200  0.20685900  1
  O  O32  1  0.26930100  0.89680000  0.78784700  1
  O  O33  1  0.98970300  0.92149600  0.91163500  1
  O  O34  1  0.71473500  0.58866600  0.77343900  1
  O  O35  1  0.23736200  0.75789700  0.58246700  1
  O  O36  1  0.49164200  0.24544900  0.26057800  1
  O  O37  1  0.97015400  0.54492300  0.64214400  1
  O  O38  1  0.76571700  0.95744600  0.57513500  1
  O  O39  1  0.02440200  0.37678200  0.92045500  1
  O  O40  1  0.26571700  0.04255400  0.92486500  1
  O  O41  1  0.00573000  0.88096400  0.43848900  1
  O  O42  1  0.53113100  0.74747800  0.29314100  1
  O  O43  1  0.50573000  0.11903600  0.06151100  1
  O  O44  1  0.00835800  0.24544900  0.76057800  1
  O  O45  1  0.28526500  0.41133400  0.22656100  1
  O  O46  1  0.75764900  0.77292200  0.93714300  1
  O  O47  1  0.48970300  0.07850400  0.58836500  1
  O  O48  1  0.02984600  0.45507700  0.35785600  1
  O  O49  1  0.99427000  0.11903600  0.56151100  1
  O  O50  1  0.47559800  0.37678200  0.42045500  1
  O  O51  1  0.25764900  0.22707800  0.56285700  1
  O  O52  1  0.73069900  0.10320000  0.21215300  1
  O  O53  1  0.97559800  0.62321800  0.07954500  1
  O  O54  1  0.52440200  0.62321800  0.57954500  1
  O  O55  1  0.01029700  0.07850400  0.08836500  1
  O  O56  1  0.47015400  0.45507700  0.85785600  1
  O  O57  1  0.73428300  0.95744600  0.07513500  1
  O  O58  1  0.78526500  0.58866600  0.27343900  1
  O  O59  1  0.76263800  0.24210300  0.41753300  1
  O  O60  1  0.49427000  0.88096400  0.93848900  1
  O  O61  1  0.99164200  0.75455100  0.23942200  1
  O  O62  1  0.46886900  0.25252200  0.70685900  1
  O  O63  1  0.76930100  0.10320000  0.71215300  1
  O  O64  1  0.96886900  0.74747800  0.79314100  1
  O  O65  1  0.26263800  0.75789700  0.08246700  1
  O  O66  1  0.21473500  0.41133400  0.72656100  1
  O  O67  1  0.51029700  0.92149600  0.41163500  1
