# generated using pymatgen
data_MnP2O7
_symmetry_space_group_name_H-M   'P 1'
_cell_length_a   6.42012038
_cell_length_b   6.86440852
_cell_length_c   6.21724329
_cell_angle_alpha   66.80353494
_cell_angle_beta   83.76184426
_cell_angle_gamma   87.79579256
_symmetry_Int_Tables_number   1
_chemical_formula_structural   MnP2O7
_chemical_formula_sum   'Mn2 P4 O14'
_cell_volume   250.35197835
_cell_formula_units_Z   2
loop_
 _symmetry_equiv_pos_site_id
 _symmetry_equiv_pos_as_xyz
  1  'x, y, z'
loop_
 _atom_site_type_symbol
 _atom_site_label
 _atom_site_symmetry_multiplicity
 _atom_site_fract_x
 _atom_site_fract_y
 _atom_site_fract_z
 _atom_site_occupancy
  Mn  Mn0  1  0.85618800  0.71421500  0.90543900  1
  Mn  Mn1  1  0.14385500  0.28564100  0.09457400  1
  P  P2  1  0.88777500  0.85402800  0.33995900  1
  P  P3  1  0.11224500  0.14604200  0.66001700  1
  P  P4  1  0.62909400  0.26050500  0.22631200  1
  P  P5  1  0.37077400  0.73961900  0.77381100  1
  O  O6  1  0.91083100  0.01400900  0.77227900  1
  O  O7  1  0.08918900  0.98600100  0.22768000  1
  O  O8  1  0.15699700  0.29012500  0.78341900  1
  O  O9  1  0.84295200  0.71002400  0.21653100  1
  O  O10  1  0.10246800  0.29097700  0.40093000  1
  O  O11  1  0.89759800  0.70901900  0.59897700  1
  O  O12  1  0.45337700  0.26909700  0.07309900  1
  O  O13  1  0.54665700  0.73073600  0.92683500  1
  O  O14  1  0.70037100  0.01611000  0.32514600  1
  O  O15  1  0.29964900  0.98400500  0.67506800  1
  O  O16  1  0.82702600  0.38236500  0.05750100  1
  O  O17  1  0.43151000  0.67026900  0.57676900  1
  O  O18  1  0.56845000  0.32971200  0.42311300  1
  O  O19  1  0.17299000  0.61750300  0.94254200  1
