# generated using pymatgen
data_SiO2
_symmetry_space_group_name_H-M   'P 1'
_cell_length_a   9.66244417
_cell_length_b   9.66244417
_cell_length_c   9.66244417
_cell_angle_alpha   94.30249161
_cell_angle_beta   94.30249161
_cell_angle_gamma   148.20686419
_symmetry_Int_Tables_number   1
_chemical_formula_structural   SiO2
_chemical_formula_sum   'Si8 O16'
_cell_volume   457.10600982
_cell_formula_units_Z   8
loop_
 _symmetry_equiv_pos_site_id
 _symmetry_equiv_pos_as_xyz
  1  'x, y, z'
loop_
 _atom_site_type_symbol
 _atom_site_label
 _atom_site_symmetry_multiplicity
 _atom_site_fract_x
 _atom_site_fract_y
 _atom_site_fract_z
 _atom_site_occupancy
  Si  Si0  1  0.38124300  0.21013600  0.59137900  1
  Si  Si1  1  0.78986400  0.38124300  0.17110700  1
  Si  Si2  1  0.21013600  0.61875700  0.82889300  1
  Si  Si3  1  0.38124300  0.78986400  0.17110700  1
  Si  Si4  1  0.61875700  0.21013600  0.82889300  1
  Si  Si5  1  0.61875700  0.78986400  0.40862100  1
  Si  Si6  1  0.21013600  0.38124300  0.59137900  1
  Si  Si7  1  0.78986400  0.61875700  0.40862100  1
  O  O8  1  0.10734600  0.89265400  0.50000000  1
  O  O9  1  0.60734600  0.10734600  0.21469100  1
  O  O10  1  0.89265400  0.39265400  0.78530900  1
  O  O11  1  0.39265400  0.60734600  0.50000000  1
  O  O12  1  0.89265400  0.10734600  0.50000000  1
  O  O13  1  0.39265400  0.89265400  0.78530900  1
  O  O14  1  0.10734600  0.60734600  0.21469100  1
  O  O15  1  0.60734600  0.39265400  0.50000000  1
  O  O16  1  0.50000000  0.24308700  0.74308700  1
  O  O17  1  0.75691300  0.50000000  0.25691300  1
  O  O18  1  0.24308700  0.50000000  0.74308700  1
  O  O19  1  0.50000000  0.75691300  0.25691300  1
  O  O20  1  0.31358100  0.31358100  0.62716300  1
  O  O21  1  0.68641900  0.31358100  0.00000000  1
  O  O22  1  0.31358100  0.68641900  0.00000000  1
  O  O23  1  0.68641900  0.68641900  0.37283700  1
