# generated using pymatgen
data_Si3N4
_symmetry_space_group_name_H-M   'P 1'
_cell_length_a   12.52608181
_cell_length_b   12.52608181
_cell_length_c   8.09143100
_cell_angle_alpha   90.00000000
_cell_angle_beta   90.00000000
_cell_angle_gamma   119.99999899
_symmetry_Int_Tables_number   1
_chemical_formula_structural   Si3N4
_chemical_formula_sum   'Si18 N24'
_cell_volume   1099.47778453
_cell_formula_units_Z   6
loop_
 _symmetry_equiv_pos_site_id
 _symmetry_equiv_pos_as_xyz
  1  'x, y, z'
loop_
 _atom_site_type_symbol
 _atom_site_label
 _atom_site_symmetry_multiplicity
 _atom_site_fract_x
 _atom_site_fract_y
 _atom_site_fract_z
 _atom_site_occupancy
  Si  Si0  1  0.01050500  0.23837500  0.09790600  1
  Si  Si1  1  0.16345400  0.12284900  0.25000000  1
  Si  Si2  1  0.04060600  0.16345400  0.75000000  1
  Si  Si3  1  0.95939400  0.83654600  0.25000000  1
  Si  Si4  1  0.77213000  0.01050500  0.59790600  1
  Si  Si5  1  0.83654600  0.87715100  0.75000000  1
  Si  Si6  1  0.77213000  0.01050500  0.90209400  1
  Si  Si7  1  0.12284900  0.95939400  0.75000000  1
  Si  Si8  1  0.76162500  0.77213000  0.40209400  1
  Si  Si9  1  0.23837500  0.22787000  0.90209400  1
  Si  Si10  1  0.01050500  0.23837500  0.40209400  1
  Si  Si11  1  0.76162500  0.77213000  0.09790600  1
  Si  Si12  1  0.98949500  0.76162500  0.90209400  1
  Si  Si13  1  0.87715100  0.04060600  0.25000000  1
  Si  Si14  1  0.22787000  0.98949500  0.09790600  1
  Si  Si15  1  0.98949500  0.76162500  0.59790600  1
  Si  Si16  1  0.22787000  0.98949500  0.40209400  1
  Si  Si17  1  0.23837500  0.22787000  0.59790600  1
  N  N18  1  0.31587300  0.98153200  0.25000000  1
  N  N19  1  0.14449100  0.10393000  0.75000000  1
  N  N20  1  0.09862800  0.24685500  0.57014600  1
  N  N21  1  0.68412700  0.01846800  0.75000000  1
  N  N22  1  0.66565900  0.68412700  0.25000000  1
  N  N23  1  0.24685500  0.14822700  0.42985400  1
  N  N24  1  0.24685500  0.14822700  0.07014600  1
  N  N25  1  0.10393000  0.95944000  0.25000000  1
  N  N26  1  0.85550900  0.89607000  0.25000000  1
  N  N27  1  0.89607000  0.04056000  0.75000000  1
  N  N28  1  0.14822700  0.90137200  0.57014600  1
  N  N29  1  0.33434100  0.31587300  0.75000000  1
  N  N30  1  0.90137200  0.75314500  0.07014600  1
  N  N31  1  0.01846800  0.33434100  0.25000000  1
  N  N32  1  0.85177300  0.09862800  0.07014600  1
  N  N33  1  0.09862800  0.24685500  0.92985400  1
  N  N34  1  0.75314500  0.85177300  0.57014600  1
  N  N35  1  0.75314500  0.85177300  0.92985400  1
  N  N36  1  0.14822700  0.90137200  0.92985400  1
  N  N37  1  0.90137200  0.75314500  0.42985400  1
  N  N38  1  0.85177300  0.09862800  0.42985400  1
  N  N39  1  0.98153200  0.66565900  0.75000000  1
  N  N40  1  0.95944000  0.85550900  0.75000000  1
  N  N41  1  0.04056000  0.14449100  0.25000000  1
