# generated using pymatgen
data_H8C3SN2
_symmetry_space_group_name_H-M   'P 1'
_cell_length_a   6.36478800
_cell_length_b   11.86467000
_cell_length_c   15.11679800
_cell_angle_alpha   90.00000000
_cell_angle_beta   90.00000000
_cell_angle_gamma   90.00000000
_symmetry_Int_Tables_number   1
_chemical_formula_structural   H8C3SN2
_chemical_formula_sum   'H64 C24 S8 N16'
_cell_volume   1141.56176913
_cell_formula_units_Z   8
loop_
 _symmetry_equiv_pos_site_id
 _symmetry_equiv_pos_as_xyz
  1  'x, y, z'
loop_
 _atom_site_type_symbol
 _atom_site_label
 _atom_site_symmetry_multiplicity
 _atom_site_fract_x
 _atom_site_fract_y
 _atom_site_fract_z
 _atom_site_occupancy
  H  H0  1  0.26714800  0.99120700  0.19721800  1
  H  H1  1  0.28309700  0.30309800  0.13730300  1
  H  H2  1  0.36985900  0.92446300  0.96044100  1
  H  H3  1  0.73285200  0.49120700  0.30278200  1
  H  H4  1  0.23285200  0.00879300  0.69721800  1
  H  H5  1  0.94897500  0.91647700  0.78580700  1
  H  H6  1  0.21690300  0.69690200  0.63730300  1
  H  H7  1  0.32501700  0.92593400  0.60734700  1
  H  H8  1  0.44950900  0.74255100  0.85237200  1
  H  H9  1  0.71690300  0.80309800  0.36269700  1
  H  H10  1  0.05049100  0.25744900  0.35237200  1
  H  H11  1  0.55102500  0.41647700  0.78580700  1
  H  H12  1  0.85619700  0.12617400  0.08937400  1
  H  H13  1  0.14380300  0.62617400  0.41062600  1
  H  H14  1  0.94897500  0.58352300  0.28580700  1
  H  H15  1  0.55049100  0.24255100  0.64762800  1
  H  H16  1  0.05102500  0.08352300  0.21419300  1
  H  H17  1  0.58562100  0.81867700  0.25884400  1
  H  H18  1  0.76714800  0.50879300  0.80278200  1
  H  H19  1  0.85619700  0.37382600  0.58937400  1
  H  H20  1  0.94950900  0.74255100  0.64762800  1
  H  H21  1  0.21690300  0.80309800  0.13730300  1
  H  H22  1  0.64380300  0.87382600  0.58937400  1
  H  H23  1  0.41437900  0.18132300  0.74115600  1
  H  H24  1  0.76714800  0.99120700  0.30278200  1
  H  H25  1  0.63014100  0.42446300  0.53955900  1
  H  H26  1  0.64380300  0.62617400  0.08937400  1
  H  H27  1  0.05102500  0.41647700  0.71419300  1
  H  H28  1  0.55102500  0.08352300  0.28580700  1
  H  H29  1  0.14380300  0.87382600  0.91062600  1
  H  H30  1  0.91437900  0.18132300  0.75884400  1
  H  H31  1  0.17498300  0.07406600  0.10734700  1
  H  H32  1  0.78309700  0.19690200  0.86269700  1
  H  H33  1  0.08562100  0.68132300  0.74115600  1
  H  H34  1  0.35619700  0.37382600  0.91062600  1
  H  H35  1  0.86985900  0.92446300  0.53955900  1
  H  H36  1  0.08562100  0.81867700  0.24115600  1
  H  H37  1  0.67498300  0.07406600  0.39265300  1
  H  H38  1  0.71690300  0.69690200  0.86269700  1
  H  H39  1  0.05049100  0.24255100  0.85237200  1
  H  H40  1  0.13014100  0.42446300  0.96044100  1
  H  H41  1  0.91437900  0.31867700  0.25884400  1
  H  H42  1  0.35619700  0.12617400  0.41062600  1
  H  H43  1  0.44897500  0.91647700  0.71419300  1
  H  H44  1  0.44950900  0.75744900  0.35237200  1
  H  H45  1  0.17498300  0.42593400  0.60734700  1
  H  H46  1  0.28309700  0.19690200  0.63730300  1
  H  H47  1  0.73285200  0.00879300  0.80278200  1
  H  H48  1  0.86985900  0.57553700  0.03955900  1
  H  H49  1  0.63014100  0.07553700  0.03955900  1
  H  H50  1  0.55049100  0.25744900  0.14762800  1
  H  H51  1  0.94950900  0.75744900  0.14762800  1
  H  H52  1  0.82501700  0.92593400  0.89265300  1
  H  H53  1  0.67498300  0.42593400  0.89265300  1
  H  H54  1  0.26714800  0.50879300  0.69721800  1
  H  H55  1  0.44897500  0.58352300  0.21419300  1
  H  H56  1  0.78309700  0.30309800  0.36269700  1
  H  H57  1  0.13014100  0.07553700  0.46044100  1
  H  H58  1  0.23285200  0.49120700  0.19721800  1
  H  H59  1  0.41437900  0.31867700  0.24115600  1
  H  H60  1  0.36985900  0.57553700  0.46044100  1
  H  H61  1  0.58562100  0.68132300  0.75884400  1
  H  H62  1  0.32501700  0.57406600  0.10734700  1
  H  H63  1  0.82501700  0.57406600  0.39265300  1
  C  C64  1  0.68941200  0.04901900  0.59642100  1
  C  C65  1  0.18941200  0.04901900  0.90357900  1
  C  C66  1  0.06411700  0.82083800  0.16872700  1
  C  C67  1  0.81058800  0.95098100  0.09642100  1
  C  C68  1  0.62646400  0.47373200  0.83365700  1
  C  C69  1  0.56411700  0.67916200  0.83127300  1
  C  C70  1  0.31058800  0.95098100  0.40357900  1
  C  C71  1  0.81058800  0.54901900  0.59642100  1
  C  C72  1  0.37353600  0.97373200  0.66634300  1
  C  C73  1  0.87353600  0.97373200  0.83365700  1
  C  C74  1  0.06411700  0.67916200  0.66872700  1
  C  C75  1  0.12646400  0.47373200  0.66634300  1
  C  C76  1  0.93588300  0.17916200  0.83127300  1
  C  C77  1  0.18941200  0.45098100  0.40357900  1
  C  C78  1  0.43588300  0.32083800  0.16872700  1
  C  C79  1  0.12646400  0.02626800  0.16634300  1
  C  C80  1  0.43588300  0.17916200  0.66872700  1
  C  C81  1  0.56411700  0.82083800  0.33127300  1
  C  C82  1  0.31058800  0.54901900  0.90357900  1
  C  C83  1  0.62646400  0.02626800  0.33365700  1
  C  C84  1  0.37353600  0.52626800  0.16634300  1
  C  C85  1  0.68941200  0.45098100  0.09642100  1
  C  C86  1  0.93588300  0.32083800  0.33127300  1
  C  C87  1  0.87353600  0.52626800  0.33365700  1
  S  S88  1  0.35742400  0.15307400  0.93679300  1
  S  S89  1  0.35742400  0.34692600  0.43679300  1
  S  S90  1  0.85742400  0.15307400  0.56320700  1
  S  S91  1  0.14257600  0.84692600  0.43679300  1
  S  S92  1  0.64257600  0.84692600  0.06320700  1
  S  S93  1  0.14257600  0.65307400  0.93679300  1
  S  S94  1  0.64257600  0.65307400  0.56320700  1
  S  S95  1  0.85742400  0.34692600  0.06320700  1
  N  N96  1  0.51028100  0.43234900  0.14248900  1
  N  N97  1  0.73837400  0.55892200  0.07621300  1
  N  N98  1  0.48971900  0.56765100  0.85751100  1
  N  N99  1  0.23837400  0.94107800  0.92378700  1
  N  N100  1  0.01028100  0.43234900  0.35751100  1
  N  N101  1  0.98971900  0.56765100  0.64248900  1
  N  N102  1  0.23837400  0.55892200  0.42378700  1
  N  N103  1  0.26162600  0.05892200  0.42378700  1
  N  N104  1  0.51028100  0.06765100  0.64248900  1
  N  N105  1  0.98971900  0.93234900  0.14248900  1
  N  N106  1  0.76162600  0.05892200  0.07621300  1
  N  N107  1  0.01028100  0.06765100  0.85751100  1
  N  N108  1  0.48971900  0.93234900  0.35751100  1
  N  N109  1  0.76162600  0.44107800  0.57621300  1
  N  N110  1  0.73837400  0.94107800  0.57621300  1
  N  N111  1  0.26162600  0.44107800  0.92378700  1
