# generated using pymatgen
data_K3AlH6
_symmetry_space_group_name_H-M   'P 1'
_cell_length_a   3.23851200
_cell_length_b   13.08575900
_cell_length_c   15.21153100
_cell_angle_alpha   90.00000000
_cell_angle_beta   90.00000000
_cell_angle_gamma   90.00000000
_symmetry_Int_Tables_number   1
_chemical_formula_structural   K3AlH6
_chemical_formula_sum   'K12 Al4 H24'
_cell_volume   644.64015596
_cell_formula_units_Z   4
loop_
 _symmetry_equiv_pos_site_id
 _symmetry_equiv_pos_as_xyz
  1  'x, y, z'
loop_
 _atom_site_type_symbol
 _atom_site_label
 _atom_site_symmetry_multiplicity
 _atom_site_fract_x
 _atom_site_fract_y
 _atom_site_fract_z
 _atom_site_occupancy
  K  K0  1  0.50000000  0.47102300  0.71973200  1
  K  K1  1  0.50000000  0.74623500  0.11722600  1
  K  K2  1  0.50000000  0.25376500  0.88277400  1
  K  K3  1  0.50000000  0.70042800  0.85190300  1
  K  K4  1  0.50000000  0.29957200  0.14809700  1
  K  K5  1  0.00000000  0.02897700  0.21973200  1
  K  K6  1  0.00000000  0.79957200  0.35190300  1
  K  K7  1  0.00000000  0.20042800  0.64809700  1
  K  K8  1  0.50000000  0.52897700  0.28026800  1
  K  K9  1  0.00000000  0.24623500  0.38277400  1
  K  K10  1  0.00000000  0.75376500  0.61722600  1
  K  K11  1  0.00000000  0.97102300  0.78026800  1
  Al  Al12  1  0.50000000  0.00000000  0.50000000  1
  Al  Al13  1  0.00000000  0.50000000  0.50000000  1
  Al  Al14  1  0.50000000  0.00000000  0.00000000  1
  Al  Al15  1  0.00000000  0.50000000  0.00000000  1
  H  H16  1  0.50000000  0.09423600  0.07240800  1
  H  H17  1  0.00000000  0.33330600  0.77519800  1
  H  H18  1  0.00000000  0.05854800  0.94608000  1
  H  H19  1  0.00000000  0.66669400  0.22480200  1
  H  H20  1  0.00000000  0.38101200  0.25469600  1
  H  H21  1  0.00000000  0.62743600  0.99142400  1
  H  H22  1  0.00000000  0.00583700  0.42661100  1
  H  H23  1  0.50000000  0.50583700  0.07338900  1
  H  H24  1  0.50000000  0.16669400  0.27519800  1
  H  H25  1  0.00000000  0.59423600  0.42759200  1
  H  H26  1  0.50000000  0.83330600  0.72480200  1
  H  H27  1  0.50000000  0.49416300  0.92661100  1
  H  H28  1  0.50000000  0.12743600  0.50857600  1
  H  H29  1  0.50000000  0.55854800  0.55392000  1
  H  H30  1  0.00000000  0.99416300  0.57338900  1
  H  H31  1  0.50000000  0.11898800  0.75469600  1
  H  H32  1  0.50000000  0.87256400  0.49142400  1
  H  H33  1  0.00000000  0.37256400  0.00857600  1
  H  H34  1  0.00000000  0.94145200  0.05392000  1
  H  H35  1  0.50000000  0.44145200  0.44608000  1
  H  H36  1  0.00000000  0.40576400  0.57240800  1
  H  H37  1  0.50000000  0.88101200  0.24530400  1
  H  H38  1  0.00000000  0.61898800  0.74530400  1
  H  H39  1  0.50000000  0.90576400  0.92759200  1
