# generated using pymatgen
data_O2
_symmetry_space_group_name_H-M   'P 1'
_cell_length_a   5.43185338
_cell_length_b   5.43185338
_cell_length_c   3.40637771
_cell_angle_alpha   75.60816209
_cell_angle_beta   75.60816209
_cell_angle_gamma   102.31067083
_symmetry_Int_Tables_number   1
_chemical_formula_structural   O2
_chemical_formula_sum   O8
_cell_volume   90.15501288
_cell_formula_units_Z   4
loop_
 _symmetry_equiv_pos_site_id
 _symmetry_equiv_pos_as_xyz
  1  'x, y, z'
loop_
 _atom_site_type_symbol
 _atom_site_label
 _atom_site_symmetry_multiplicity
 _atom_site_fract_x
 _atom_site_fract_y
 _atom_site_fract_z
 _atom_site_occupancy
  O  O0  1  0.77495700  0.11393900  0.64708600  1
  O  O1  1  0.88606100  0.22504300  0.85291400  1
  O  O2  1  0.22504300  0.88606100  0.35291400  1
  O  O3  1  0.11393900  0.77495700  0.14708600  1
  O  O4  1  0.71771100  0.75331900  0.82768500  1
  O  O5  1  0.24668100  0.28228900  0.67231500  1
  O  O6  1  0.28228900  0.24668100  0.17231500  1
  O  O7  1  0.75331900  0.71771100  0.32768500  1
