# generated using pymatgen
data_MgSiO3
_symmetry_space_group_name_H-M   'P 1'
_cell_length_a   6.37693289
_cell_length_b   6.37693289
_cell_length_c   4.89492618
_cell_angle_alpha   84.04629231
_cell_angle_beta   84.04629231
_cell_angle_gamma   80.38613500
_symmetry_Int_Tables_number   1
_chemical_formula_structural   MgSiO3
_chemical_formula_sum   'Mg4 Si4 O12'
_cell_volume   194.44017702
_cell_formula_units_Z   4
loop_
 _symmetry_equiv_pos_site_id
 _symmetry_equiv_pos_as_xyz
  1  'x, y, z'
loop_
 _atom_site_type_symbol
 _atom_site_label
 _atom_site_symmetry_multiplicity
 _atom_site_fract_x
 _atom_site_fract_y
 _atom_site_fract_z
 _atom_site_occupancy
  Mg  Mg0  1  0.11230400  0.88769600  0.25000000  1
  Mg  Mg1  1  0.69282400  0.30717600  0.25000000  1
  Mg  Mg2  1  0.88769600  0.11230400  0.75000000  1
  Mg  Mg3  1  0.30717600  0.69282400  0.75000000  1
  Si  Si4  1  0.32673500  0.16724700  0.52773100  1
  Si  Si5  1  0.67326500  0.83275300  0.47226900  1
  Si  Si6  1  0.83275300  0.67326500  0.97226900  1
  Si  Si7  1  0.16724700  0.32673500  0.02773100  1
  O  O8  1  0.93583800  0.80079600  0.63078400  1
  O  O9  1  0.71194000  0.60371300  0.30317400  1
  O  O10  1  0.89512300  0.38503900  0.92535400  1
  O  O11  1  0.80079600  0.93583800  0.13078400  1
  O  O12  1  0.19920400  0.06416200  0.86921600  1
  O  O13  1  0.60371300  0.71194000  0.80317400  1
  O  O14  1  0.10487700  0.61496100  0.07464600  1
  O  O15  1  0.38503900  0.89512300  0.42535400  1
  O  O16  1  0.61496100  0.10487700  0.57464600  1
  O  O17  1  0.39628700  0.28806000  0.19682600  1
  O  O18  1  0.28806000  0.39628700  0.69682600  1
  O  O19  1  0.06416200  0.19920400  0.36921600  1
