# generated using pymatgen
data_InH24C6(Br2N)3
_symmetry_space_group_name_H-M   'P 1'
_cell_length_a   17.34809050
_cell_length_b   17.34809050
_cell_length_c   17.34809097
_cell_angle_alpha   117.40072225
_cell_angle_beta   117.40072225
_cell_angle_gamma   117.40072333
_symmetry_Int_Tables_number   1
_chemical_formula_structural   InH24C6(Br2N)3
_chemical_formula_sum   'In4 H96 C24 Br24 N12'
_cell_volume   2150.63776804
_cell_formula_units_Z   4
loop_
 _symmetry_equiv_pos_site_id
 _symmetry_equiv_pos_as_xyz
  1  'x, y, z'
loop_
 _atom_site_type_symbol
 _atom_site_label
 _atom_site_symmetry_multiplicity
 _atom_site_fract_x
 _atom_site_fract_y
 _atom_site_fract_z
 _atom_site_occupancy
  In  In0  1  0.50000000  0.00000000  0.50000000  1
  In  In1  1  0.00000000  0.00000000  0.00000000  1
  In  In2  1  0.50000000  0.50000000  0.00000000  1
  In  In3  1  0.00000000  0.50000000  0.50000000  1
  H  H4  1  0.32605300  0.09526900  0.56301300  1
  H  H5  1  0.94358600  0.11556800  0.47675500  1
  H  H6  1  0.54895800  0.61519100  0.32622100  1
  H  H7  1  0.23948300  0.64868600  0.01786900  1
  H  H8  1  0.67310100  0.95974400  0.87719400  1
  H  H9  1  0.40210500  0.69024200  0.56958700  1
  H  H10  1  0.48211600  0.66807400  0.54250400  1
  H  H11  1  0.93566000  0.75692000  0.71664800  1
  H  H12  1  0.58753200  0.98099600  0.80148300  1
  H  H13  1  0.71664800  0.93566000  0.75692000  1
  H  H14  1  0.64868600  0.01786900  0.23948300  1
  H  H15  1  0.52324500  0.05641400  0.88443200  1
  H  H16  1  0.30975800  0.43041300  0.59789500  1
  H  H17  1  0.94584000  0.03140500  0.55401400  1
  H  H18  1  0.01786900  0.23948300  0.64868600  1
  H  H19  1  0.67377900  0.45104200  0.38480900  1
  H  H20  1  0.62520300  0.94412500  0.67959200  1
  H  H21  1  0.03140500  0.55401400  0.94584000  1
  H  H22  1  0.20010300  0.06952400  0.44826500  1
  H  H23  1  0.88443200  0.52324500  0.05641400  1
  H  H24  1  0.61519100  0.32622100  0.54895800  1
  H  H25  1  0.95459200  0.80082200  0.13336800  1
  H  H26  1  0.05587500  0.32040800  0.37479700  1
  H  H27  1  0.93047600  0.55173500  0.79989700  1
  H  H28  1  0.90473100  0.43698700  0.67394700  1
  H  H29  1  0.43041300  0.59789500  0.30975800  1
  H  H30  1  0.12161000  0.63817800  0.24909900  1
  H  H31  1  0.04540800  0.19917800  0.86663200  1
  H  H32  1  0.55401400  0.94584000  0.03140500  1
  H  H33  1  0.45104200  0.38480900  0.67377900  1
  H  H34  1  0.59789500  0.30975800  0.43041300  1
  H  H35  1  0.06952400  0.44826500  0.20010300  1
  H  H36  1  0.66807400  0.54250400  0.48211600  1
  H  H37  1  0.86663200  0.04540800  0.19917800  1
  H  H38  1  0.67394700  0.90473100  0.43698700  1
  H  H39  1  0.69024200  0.56958700  0.40210500  1
  H  H40  1  0.05416000  0.96859500  0.44598600  1
  H  H41  1  0.92254400  0.55524300  0.19081700  1
  H  H42  1  0.89184100  0.34897500  0.11420300  1
  H  H43  1  0.35131400  0.98213100  0.76051700  1
  H  H44  1  0.56958700  0.40210500  0.69024200  1
  H  H45  1  0.87839000  0.36182200  0.75090100  1
  H  H46  1  0.96859500  0.44598600  0.05416000  1
  H  H47  1  0.45749600  0.51788400  0.33192600  1
  H  H48  1  0.12280600  0.32689900  0.04025600  1
  H  H49  1  0.88579700  0.10815900  0.65102500  1
  H  H50  1  0.04025600  0.12280600  0.32689900  1
  H  H51  1  0.44826500  0.20010300  0.06952400  1
  H  H52  1  0.44598600  0.05416000  0.96859500  1
  H  H53  1  0.55524300  0.19081700  0.92254400  1
  H  H54  1  0.19081700  0.92254400  0.55524300  1
  H  H55  1  0.63817800  0.24909900  0.12161000  1
  H  H56  1  0.06434000  0.24308000  0.28335200  1
  H  H57  1  0.54250400  0.48211600  0.66807400  1
  H  H58  1  0.24308000  0.28335200  0.06434000  1
  H  H59  1  0.76051700  0.35131400  0.98213100  1
  H  H60  1  0.28335200  0.06434000  0.24308000  1
  H  H61  1  0.38480900  0.67377900  0.45104200  1
  H  H62  1  0.80082200  0.13336800  0.95459200  1
  H  H63  1  0.24909900  0.12161000  0.63817800  1
  H  H64  1  0.94412500  0.67959200  0.62520300  1
  H  H65  1  0.55173500  0.79989700  0.93047600  1
  H  H66  1  0.80918300  0.07745600  0.44475700  1
  H  H67  1  0.43698700  0.67394700  0.90473100  1
  H  H68  1  0.95974400  0.87719400  0.67310100  1
  H  H69  1  0.80148300  0.58753200  0.98099600  1
  H  H70  1  0.56301300  0.32605300  0.09526900  1
  H  H71  1  0.34897500  0.11420300  0.89184100  1
  H  H72  1  0.51788400  0.33192600  0.45749600  1
  H  H73  1  0.36182200  0.75090100  0.87839000  1
  H  H74  1  0.47675500  0.94358600  0.11556800  1
  H  H75  1  0.11556800  0.47675500  0.94358600  1
  H  H76  1  0.41246800  0.01900400  0.19851700  1
  H  H77  1  0.19851700  0.41246800  0.01900400  1
  H  H78  1  0.05641400  0.88443200  0.52324500  1
  H  H79  1  0.87719400  0.67310100  0.95974400  1
  H  H80  1  0.19917800  0.86663200  0.04540800  1
  H  H81  1  0.01900400  0.19851700  0.41246800  1
  H  H82  1  0.75692000  0.71664800  0.93566000  1
  H  H83  1  0.13336800  0.95459200  0.80082200  1
  H  H84  1  0.11420300  0.89184100  0.34897500  1
  H  H85  1  0.32622100  0.54895800  0.61519100  1
  H  H86  1  0.65102500  0.88579700  0.10815900  1
  H  H87  1  0.09526900  0.56301300  0.32605300  1
  H  H88  1  0.44475700  0.80918300  0.07745600  1
  H  H89  1  0.98099600  0.80148300  0.58753200  1
  H  H90  1  0.37479700  0.05587500  0.32040800  1
  H  H91  1  0.07745600  0.44475700  0.80918300  1
  H  H92  1  0.32040800  0.37479700  0.05587500  1
  H  H93  1  0.32689900  0.04025600  0.12280600  1
  H  H94  1  0.75090100  0.87839000  0.36182200  1
  H  H95  1  0.10815900  0.65102500  0.88579700  1
  H  H96  1  0.33192600  0.45749600  0.51788400  1
  H  H97  1  0.67959200  0.62520300  0.94412500  1
  H  H98  1  0.98213100  0.76051700  0.35131400  1
  H  H99  1  0.79989700  0.93047600  0.55173500  1
  C  C100  1  0.44262800  0.53858100  0.27938700  1
  C  C101  1  0.46141900  0.72061300  0.55737200  1
  C  C102  1  0.90903800  0.11552200  0.51608300  1
  C  C103  1  0.32518100  0.99852200  0.15452600  1
  C  C104  1  0.20105300  0.01594400  0.46484100  1
  C  C105  1  0.84547400  0.67481900  0.00147800  1
  C  C106  1  0.15452600  0.32518100  0.99852200  1
  C  C107  1  0.48391700  0.09096200  0.88447800  1
  C  C108  1  0.55737200  0.46141900  0.72061300  1
  C  C109  1  0.11552200  0.51608300  0.90903800  1
  C  C110  1  0.99852200  0.15452600  0.32518100  1
  C  C111  1  0.79894700  0.98405600  0.53515900  1
  C  C112  1  0.09096200  0.88447800  0.48391700  1
  C  C113  1  0.53515900  0.79894700  0.98405600  1
  C  C114  1  0.72061300  0.55737200  0.46141900  1
  C  C115  1  0.27938700  0.44262800  0.53858100  1
  C  C116  1  0.46484100  0.20105300  0.01594400  1
  C  C117  1  0.01594400  0.46484100  0.20105300  1
  C  C118  1  0.88447800  0.48391700  0.09096200  1
  C  C119  1  0.67481900  0.00147800  0.84547400  1
  C  C120  1  0.51608300  0.90903800  0.11552200  1
  C  C121  1  0.53858100  0.27938700  0.44262800  1
  C  C122  1  0.98405600  0.53515900  0.79894700  1
  C  C123  1  0.00147800  0.84547400  0.67481900  1
  Br  Br124  1  0.17382600  0.11137300  0.26377600  1
  Br  Br125  1  0.57696400  0.40145300  0.94244700  1
  Br  Br126  1  0.31455000  0.36254500  0.72317900  1
  Br  Br127  1  0.19429000  0.78326300  0.80552000  1
  Br  Br128  1  0.26377600  0.17382600  0.11137300  1
  Br  Br129  1  0.42303600  0.59854700  0.05755300  1
  Br  Br130  1  0.80552000  0.19429000  0.78326300  1
  Br  Br131  1  0.05755300  0.42303600  0.59854700  1
  Br  Br132  1  0.59854700  0.05755300  0.42303600  1
  Br  Br133  1  0.11137300  0.26377600  0.17382600  1
  Br  Br134  1  0.80571000  0.21673700  0.19448000  1
  Br  Br135  1  0.19448000  0.80571000  0.21673700  1
  Br  Br136  1  0.88862700  0.73622400  0.82617400  1
  Br  Br137  1  0.73622400  0.82617400  0.88862700  1
  Br  Br138  1  0.78326300  0.80552000  0.19429000  1
  Br  Br139  1  0.94244700  0.57696400  0.40145300  1
  Br  Br140  1  0.63745500  0.27682100  0.68545000  1
  Br  Br141  1  0.36254500  0.72317900  0.31455000  1
  Br  Br142  1  0.68545000  0.63745500  0.27682100  1
  Br  Br143  1  0.40145300  0.94244700  0.57696400  1
  Br  Br144  1  0.21673700  0.19448000  0.80571000  1
  Br  Br145  1  0.72317900  0.31455000  0.36254500  1
  Br  Br146  1  0.82617400  0.88862700  0.73622400  1
  Br  Br147  1  0.27682100  0.68545000  0.63745500  1
  N  N148  1  0.71143400  0.62634700  0.90620400  1
  N  N149  1  0.51294900  0.14897500  0.00421900  1
  N  N150  1  0.90620400  0.71143400  0.62634700  1
  N  N151  1  0.85102500  0.99578100  0.48705100  1
  N  N152  1  0.48705100  0.85102500  0.99578100  1
  N  N153  1  0.99578100  0.48705100  0.85102500  1
  N  N154  1  0.37365300  0.09379600  0.28856600  1
  N  N155  1  0.62634700  0.90620400  0.71143400  1
  N  N156  1  0.28856600  0.37365300  0.09379600  1
  N  N157  1  0.09379600  0.28856600  0.37365300  1
  N  N158  1  0.00421900  0.51294900  0.14897500  1
  N  N159  1  0.14897500  0.00421900  0.51294900  1
