# generated using pymatgen
data_SiO2
_symmetry_space_group_name_H-M   'P 1'
_cell_length_a   10.06922500
_cell_length_b   10.06922500
_cell_length_c   34.48404500
_cell_angle_alpha   90.00000000
_cell_angle_beta   90.00000000
_cell_angle_gamma   90.00000000
_symmetry_Int_Tables_number   1
_chemical_formula_structural   SiO2
_chemical_formula_sum   'Si60 O120'
_cell_volume   3496.31291132
_cell_formula_units_Z   60
loop_
 _symmetry_equiv_pos_site_id
 _symmetry_equiv_pos_as_xyz
  1  'x, y, z'
loop_
 _atom_site_type_symbol
 _atom_site_label
 _atom_site_symmetry_multiplicity
 _atom_site_fract_x
 _atom_site_fract_y
 _atom_site_fract_z
 _atom_site_occupancy
  Si  Si0  1  0.09931700  0.70156500  0.90322700  1
  Si  Si1  1  0.79843500  0.09931700  0.40322700  1
  Si  Si2  1  0.70156500  0.40068300  0.40322700  1
  Si  Si3  1  0.59931700  0.29843500  0.59677300  1
  Si  Si4  1  0.90068300  0.20156500  0.59677300  1
  Si  Si5  1  0.40068300  0.79843500  0.90322700  1
  Si  Si6  1  0.20156500  0.59931700  0.09677300  1
  Si  Si7  1  0.29843500  0.90068300  0.09677300  1
  Si  Si8  1  0.90068300  0.29843500  0.09677300  1
  Si  Si9  1  0.20156500  0.90068300  0.59677300  1
  Si  Si10  1  0.29843500  0.59931700  0.59677300  1
  Si  Si11  1  0.40068300  0.70156500  0.40322700  1
  Si  Si12  1  0.09931700  0.79843500  0.40322700  1
  Si  Si13  1  0.59931700  0.20156500  0.09677300  1
  Si  Si14  1  0.79843500  0.40068300  0.90322700  1
  Si  Si15  1  0.70156500  0.09931700  0.90322700  1
  Si  Si16  1  0.04586700  0.04586700  0.45724100  1
  Si  Si17  1  0.45413300  0.04586700  0.95724100  1
  Si  Si18  1  0.04586700  0.45413300  0.95724100  1
  Si  Si19  1  0.54586700  0.95413300  0.04275900  1
  Si  Si20  1  0.95413300  0.54586700  0.04275900  1
  Si  Si21  1  0.45413300  0.45413300  0.45724100  1
  Si  Si22  1  0.54586700  0.54586700  0.54275900  1
  Si  Si23  1  0.95413300  0.95413300  0.54275900  1
  Si  Si24  1  0.09511500  0.09511500  0.27218300  1
  Si  Si25  1  0.40488500  0.09511500  0.77218300  1
  Si  Si26  1  0.09511500  0.40488500  0.77218300  1
  Si  Si27  1  0.59511500  0.90488500  0.22781700  1
  Si  Si28  1  0.90488500  0.59511500  0.22781700  1
  Si  Si29  1  0.40488500  0.40488500  0.27218300  1
  Si  Si30  1  0.59511500  0.59511500  0.72781700  1
  Si  Si31  1  0.90488500  0.90488500  0.72781700  1
  Si  Si32  1  0.10862600  0.10862600  0.74588600  1
  Si  Si33  1  0.39137400  0.10862600  0.24588600  1
  Si  Si34  1  0.10862600  0.39137400  0.24588600  1
  Si  Si35  1  0.60862600  0.89137400  0.75411400  1
  Si  Si36  1  0.89137400  0.60862600  0.75411400  1
  Si  Si37  1  0.39137400  0.39137400  0.74588600  1
  Si  Si38  1  0.60862600  0.60862600  0.25411400  1
  Si  Si39  1  0.89137400  0.89137400  0.25411400  1
  Si  Si40  1  0.95513400  0.95513400  0.33649800  1
  Si  Si41  1  0.54486600  0.95513400  0.83649800  1
  Si  Si42  1  0.95513400  0.54486600  0.83649800  1
  Si  Si43  1  0.45513400  0.04486600  0.16350200  1
  Si  Si44  1  0.04486600  0.45513400  0.16350200  1
  Si  Si45  1  0.54486600  0.54486600  0.33649800  1
  Si  Si46  1  0.45513400  0.45513400  0.66350200  1
  Si  Si47  1  0.04486600  0.04486600  0.66350200  1
  Si  Si48  1  0.14408000  0.14408000  0.06518300  1
  Si  Si49  1  0.35592000  0.14408000  0.56518300  1
  Si  Si50  1  0.14408000  0.35592000  0.56518300  1
  Si  Si51  1  0.64408000  0.85592000  0.43481700  1
  Si  Si52  1  0.85592000  0.64408000  0.43481700  1
  Si  Si53  1  0.35592000  0.35592000  0.06518300  1
  Si  Si54  1  0.64408000  0.64408000  0.93481700  1
  Si  Si55  1  0.85592000  0.85592000  0.93481700  1
  Si  Si56  1  0.25000000  0.25000000  0.48979000  1
  Si  Si57  1  0.25000000  0.25000000  0.98979000  1
  Si  Si58  1  0.75000000  0.75000000  0.01021000  1
  Si  Si59  1  0.75000000  0.75000000  0.51021000  1
  O  O60  1  0.00601700  0.81974500  0.92106700  1
  O  O61  1  0.68025500  0.00601700  0.42106700  1
  O  O62  1  0.81974500  0.49398300  0.42106700  1
  O  O63  1  0.50601700  0.18025500  0.57893300  1
  O  O64  1  0.99398300  0.31974500  0.57893300  1
  O  O65  1  0.49398300  0.68025500  0.92106700  1
  O  O66  1  0.31974500  0.50601700  0.07893300  1
  O  O67  1  0.18025500  0.99398300  0.07893300  1
  O  O68  1  0.99398300  0.18025500  0.07893300  1
  O  O69  1  0.31974500  0.99398300  0.57893300  1
  O  O70  1  0.18025500  0.50601700  0.57893300  1
  O  O71  1  0.49398300  0.81974500  0.42106700  1
  O  O72  1  0.00601700  0.68025500  0.42106700  1
  O  O73  1  0.50601700  0.31974500  0.07893300  1
  O  O74  1  0.68025500  0.49398300  0.92106700  1
  O  O75  1  0.81974500  0.00601700  0.92106700  1
  O  O76  1  0.03493000  0.65250200  0.86243700  1
  O  O77  1  0.84749800  0.03493000  0.36243700  1
  O  O78  1  0.65250200  0.46507000  0.36243700  1
  O  O79  1  0.53493000  0.34749800  0.63756300  1
  O  O80  1  0.96507000  0.15250200  0.63756300  1
  O  O81  1  0.46507000  0.84749800  0.86243700  1
  O  O82  1  0.15250200  0.53493000  0.13756300  1
  O  O83  1  0.34749800  0.96507000  0.13756300  1
  O  O84  1  0.96507000  0.34749800  0.13756300  1
  O  O85  1  0.15250200  0.96507000  0.63756300  1
  O  O86  1  0.34749800  0.53493000  0.63756300  1
  O  O87  1  0.46507000  0.65250200  0.36243700  1
  O  O88  1  0.03493000  0.84749800  0.36243700  1
  O  O89  1  0.53493000  0.15250200  0.13756300  1
  O  O90  1  0.84749800  0.46507000  0.86243700  1
  O  O91  1  0.65250200  0.03493000  0.86243700  1
  O  O92  1  0.10624000  0.57957400  0.93386600  1
  O  O93  1  0.92042600  0.10624000  0.43386600  1
  O  O94  1  0.57957400  0.39376000  0.43386600  1
  O  O95  1  0.60624000  0.42042600  0.56613400  1
  O  O96  1  0.89376000  0.07957400  0.56613400  1
  O  O97  1  0.39376000  0.92042600  0.93386600  1
  O  O98  1  0.07957400  0.60624000  0.06613400  1
  O  O99  1  0.42042600  0.89376000  0.06613400  1
  O  O100  1  0.89376000  0.42042600  0.06613400  1
  O  O101  1  0.07957400  0.89376000  0.56613400  1
  O  O102  1  0.42042600  0.60624000  0.56613400  1
  O  O103  1  0.39376000  0.57957400  0.43386600  1
  O  O104  1  0.10624000  0.92042600  0.43386600  1
  O  O105  1  0.60624000  0.07957400  0.06613400  1
  O  O106  1  0.92042600  0.39376000  0.93386600  1
  O  O107  1  0.57957400  0.10624000  0.93386600  1
  O  O108  1  0.25000000  0.75000000  0.89531900  1
  O  O109  1  0.75000000  0.25000000  0.39531900  1
  O  O110  1  0.75000000  0.25000000  0.60468100  1
  O  O111  1  0.25000000  0.75000000  0.10468100  1
  O  O112  1  0.75000000  0.25000000  0.10468100  1
  O  O113  1  0.25000000  0.75000000  0.60468100  1
  O  O114  1  0.25000000  0.75000000  0.39531900  1
  O  O115  1  0.75000000  0.25000000  0.89531900  1
  O  O116  1  0.15908600  0.15908600  0.46184300  1
  O  O117  1  0.34091400  0.15908600  0.96184300  1
  O  O118  1  0.15908600  0.34091400  0.96184300  1
  O  O119  1  0.65908600  0.84091400  0.03815700  1
  O  O120  1  0.84091400  0.65908600  0.03815700  1
  O  O121  1  0.34091400  0.34091400  0.46184300  1
  O  O122  1  0.65908600  0.65908600  0.53815700  1
  O  O123  1  0.84091400  0.84091400  0.53815700  1
  O  O124  1  0.00000000  0.00000000  0.50000000  1
  O  O125  1  0.50000000  0.00000000  0.00000000  1
  O  O126  1  0.00000000  0.50000000  0.00000000  1
  O  O127  1  0.50000000  0.50000000  0.50000000  1
  O  O128  1  0.00304300  0.00304300  0.24391000  1
  O  O129  1  0.49695700  0.00304300  0.74391000  1
  O  O130  1  0.00304300  0.49695700  0.74391000  1
  O  O131  1  0.50304300  0.99695700  0.25609000  1
  O  O132  1  0.99695700  0.50304300  0.25609000  1
  O  O133  1  0.49695700  0.49695700  0.24391000  1
  O  O134  1  0.50304300  0.50304300  0.75609000  1
  O  O135  1  0.99695700  0.99695700  0.75609000  1
  O  O136  1  0.06323400  0.25035500  0.26416000  1
  O  O137  1  0.24964500  0.06323400  0.76416000  1
  O  O138  1  0.25035500  0.43676600  0.76416000  1
  O  O139  1  0.56323400  0.74964500  0.23584000  1
  O  O140  1  0.93676600  0.75035500  0.23584000  1
  O  O141  1  0.43676600  0.24964500  0.26416000  1
  O  O142  1  0.75035500  0.56323400  0.73584000  1
  O  O143  1  0.74964500  0.93676600  0.73584000  1
  O  O144  1  0.93676600  0.74964500  0.73584000  1
  O  O145  1  0.75035500  0.93676600  0.23584000  1
  O  O146  1  0.74964500  0.56323400  0.23584000  1
  O  O147  1  0.43676600  0.25035500  0.76416000  1
  O  O148  1  0.06323400  0.24964500  0.76416000  1
  O  O149  1  0.56323400  0.75035500  0.73584000  1
  O  O150  1  0.24964500  0.43676600  0.26416000  1
  O  O151  1  0.25035500  0.06323400  0.26416000  1
  O  O152  1  0.06030200  0.06030200  0.31732300  1
  O  O153  1  0.43969800  0.06030200  0.81732300  1
  O  O154  1  0.06030200  0.43969800  0.81732300  1
  O  O155  1  0.56030200  0.93969800  0.18267700  1
  O  O156  1  0.93969800  0.56030200  0.18267700  1
  O  O157  1  0.43969800  0.43969800  0.31732300  1
  O  O158  1  0.56030200  0.56030200  0.68267700  1
  O  O159  1  0.93969800  0.93969800  0.68267700  1
  O  O160  1  0.12164500  0.12164500  0.69870800  1
  O  O161  1  0.37835500  0.12164500  0.19870800  1
  O  O162  1  0.12164500  0.37835500  0.19870800  1
  O  O163  1  0.62164500  0.87835500  0.80129200  1
  O  O164  1  0.87835500  0.62164500  0.80129200  1
  O  O165  1  0.37835500  0.37835500  0.69870800  1
  O  O166  1  0.62164500  0.62164500  0.30129200  1
  O  O167  1  0.87835500  0.87835500  0.30129200  1
  O  O168  1  0.15672700  0.15672700  0.01788700  1
  O  O169  1  0.34327300  0.15672700  0.51788700  1
  O  O170  1  0.15672700  0.34327300  0.51788700  1
  O  O171  1  0.65672700  0.84327300  0.48211300  1
  O  O172  1  0.84327300  0.65672700  0.48211300  1
  O  O173  1  0.34327300  0.34327300  0.01788700  1
  O  O174  1  0.65672700  0.65672700  0.98211300  1
  O  O175  1  0.84327300  0.84327300  0.98211300  1
  O  O176  1  0.25000000  0.25000000  0.08439500  1
  O  O177  1  0.25000000  0.25000000  0.58439500  1
  O  O178  1  0.75000000  0.75000000  0.41560500  1
  O  O179  1  0.75000000  0.75000000  0.91560500  1
