# generated using pymatgen
data_CoH32C8S4(NO5)2
_symmetry_space_group_name_H-M   'P 1'
_cell_length_a   11.02975300
_cell_length_b   9.95632400
_cell_length_c   12.69421526
_cell_angle_alpha   55.81639394
_cell_angle_beta   90.00000000
_cell_angle_gamma   90.00000000
_symmetry_Int_Tables_number   1
_chemical_formula_structural   CoH32C8S4(NO5)2
_chemical_formula_sum   'Co2 H64 C16 S8 N4 O20'
_cell_volume   1153.19542497
_cell_formula_units_Z   2
loop_
 _symmetry_equiv_pos_site_id
 _symmetry_equiv_pos_as_xyz
  1  'x, y, z'
loop_
 _atom_site_type_symbol
 _atom_site_label
 _atom_site_symmetry_multiplicity
 _atom_site_fract_x
 _atom_site_fract_y
 _atom_site_fract_z
 _atom_site_occupancy
  Co  Co0  1  0.50000000  0.00000000  0.50000000  1
  Co  Co1  1  0.00000000  0.00000000  0.00000000  1
  H  H2  1  0.99587800  0.16506900  0.47305900  1
  H  H3  1  0.41553600  0.60304100  0.36645300  1
  H  H4  1  0.82283100  0.78943300  0.47697700  1
  H  H5  1  0.87916100  0.35301800  0.48239700  1
  H  H6  1  0.37916100  0.64698200  0.01760300  1
  H  H7  1  0.01941000  0.18021600  0.32644100  1
  H  H8  1  0.12492800  0.86774300  0.93977700  1
  H  H9  1  0.50147000  0.60445000  0.71685000  1
  H  H10  1  0.87307800  0.12184000  0.40557100  1
  H  H11  1  0.99853000  0.60445000  0.21685000  1
  H  H12  1  0.80808000  0.52181500  0.34189000  1
  H  H13  1  0.30808000  0.47818500  0.15811000  1
  H  H14  1  0.91019000  0.55314000  0.77146200  1
  H  H15  1  0.61338200  0.80161500  0.34911700  1
  H  H16  1  0.56581500  0.55137200  0.13187200  1
  H  H17  1  0.74848400  0.31746900  0.91391000  1
  H  H18  1  0.67716900  0.78943300  0.97697700  1
  H  H19  1  0.76364600  0.99457400  0.85995300  1
  H  H20  1  0.12692200  0.87816000  0.59442900  1
  H  H21  1  0.37307800  0.87816000  0.09442900  1
  H  H22  1  0.67237700  0.54496600  0.63950700  1
  H  H23  1  0.91553600  0.39695900  0.13354700  1
  H  H24  1  0.48059000  0.18021600  0.82644100  1
  H  H25  1  0.49853000  0.39555000  0.28315000  1
  H  H26  1  0.49587800  0.83493100  0.02694100  1
  H  H27  1  0.75151600  0.31746900  0.41391000  1
  H  H28  1  0.50412200  0.16506900  0.97305900  1
  H  H29  1  0.62492800  0.13225700  0.56022300  1
  H  H30  1  0.12083900  0.64698200  0.51760300  1
  H  H31  1  0.08446400  0.60304100  0.86645300  1
  H  H32  1  0.00412200  0.83493100  0.52694100  1
  H  H33  1  0.98059000  0.81978400  0.67355900  1
  H  H34  1  0.08981000  0.44686000  0.22853800  1
  H  H35  1  0.27355900  0.66204800  0.28352900  1
  H  H36  1  0.93418500  0.55137200  0.63187200  1
  H  H37  1  0.77355900  0.33795200  0.21647100  1
  H  H38  1  0.69192000  0.52181500  0.84189000  1
  H  H39  1  0.32762300  0.45503400  0.36049300  1
  H  H40  1  0.17237700  0.45503400  0.86049300  1
  H  H41  1  0.88661800  0.80161500  0.84911700  1
  H  H42  1  0.82762300  0.54496600  0.13950700  1
  H  H43  1  0.87507200  0.13225700  0.06022300  1
  H  H44  1  0.58446400  0.39695900  0.63354700  1
  H  H45  1  0.25151600  0.68253100  0.08609000  1
  H  H46  1  0.32283100  0.21056700  0.02302300  1
  H  H47  1  0.73635400  0.99457400  0.35995300  1
  H  H48  1  0.11338200  0.19838500  0.15088300  1
  H  H49  1  0.43418500  0.44862800  0.86812800  1
  H  H50  1  0.51941000  0.81978400  0.17355900  1
  H  H51  1  0.72644100  0.33795200  0.71647100  1
  H  H52  1  0.58981000  0.55314000  0.27146200  1
  H  H53  1  0.62692200  0.12184000  0.90557100  1
  H  H54  1  0.23635400  0.00542600  0.14004700  1
  H  H55  1  0.62083900  0.35301800  0.98239700  1
  H  H56  1  0.37507200  0.86774300  0.43977700  1
  H  H57  1  0.22644100  0.66204800  0.78352900  1
  H  H58  1  0.17716900  0.21056700  0.52302300  1
  H  H59  1  0.06581500  0.44862800  0.36812800  1
  H  H60  1  0.24848400  0.68253100  0.58609000  1
  H  H61  1  0.19192000  0.47818500  0.65811000  1
  H  H62  1  0.38661800  0.19838500  0.65088300  1
  H  H63  1  0.26364600  0.00542600  0.64004700  1
  H  H64  1  0.41019000  0.44686000  0.72853800  1
  H  H65  1  0.00147000  0.39555000  0.78315000  1
  C  C66  1  0.83205100  0.39310500  0.39326000  1
  C  C67  1  0.04566500  0.80406000  0.61625000  1
  C  C68  1  0.35313500  0.58356200  0.30900000  1
  C  C69  1  0.95433500  0.19594000  0.38375000  1
  C  C70  1  0.66794900  0.39310500  0.89326000  1
  C  C71  1  0.64686500  0.41643800  0.69100000  1
  C  C72  1  0.54566500  0.19594000  0.88375000  1
  C  C73  1  0.14686500  0.58356200  0.80900000  1
  C  C74  1  0.45433500  0.80406000  0.11625000  1
  C  C75  1  0.16794900  0.60689500  0.60674000  1
  C  C76  1  0.33205100  0.60689500  0.10674000  1
  C  C77  1  0.02604300  0.47661200  0.27873000  1
  C  C78  1  0.85313500  0.41643800  0.19100000  1
  C  C79  1  0.97395700  0.52338800  0.72127000  1
  C  C80  1  0.52604300  0.52338800  0.22127000  1
  C  C81  1  0.47395700  0.47661200  0.77873000  1
  S  S82  1  0.20068600  0.13369600  0.72611600  1
  S  S83  1  0.81595200  0.89824300  0.03629900  1
  S  S84  1  0.31595200  0.10175700  0.46370100  1
  S  S85  1  0.68404800  0.89824300  0.53629900  1
  S  S86  1  0.70068600  0.86630400  0.77388400  1
  S  S87  1  0.79931400  0.86630400  0.27388400  1
  S  S88  1  0.18404800  0.10175700  0.96370100  1
  S  S89  1  0.29931400  0.13369600  0.22611600  1
  N  N90  1  0.41642700  0.62940000  0.18847700  1
  N  N91  1  0.08357300  0.62940000  0.68847700  1
  N  N92  1  0.91642700  0.37060000  0.31152300  1
  N  N93  1  0.58357300  0.37060000  0.81152300  1
  O  O94  1  0.82048000  0.74586400  0.83486300  1
  O  O95  1  0.23367500  0.01993100  0.40321500  1
  O  O96  1  0.32048000  0.25413600  0.66513700  1
  O  O97  1  0.74520400  0.02320000  0.76742400  1
  O  O98  1  0.62606000  0.77764700  0.91763100  1
  O  O99  1  0.17952000  0.25413600  0.16513700  1
  O  O100  1  0.96105700  0.15178700  0.03792200  1
  O  O101  1  0.53894300  0.15178700  0.53792200  1
  O  O102  1  0.25479600  0.97680000  0.23257600  1
  O  O103  1  0.37394000  0.22235300  0.08236900  1
  O  O104  1  0.75479600  0.02320000  0.26742400  1
  O  O105  1  0.24520400  0.97680000  0.73257600  1
  O  O106  1  0.12606000  0.22235300  0.58236900  1
  O  O107  1  0.73367500  0.98006900  0.09678500  1
  O  O108  1  0.03894300  0.84821300  0.96207800  1
  O  O109  1  0.26632500  0.01993100  0.90321500  1
  O  O110  1  0.76632500  0.98006900  0.59678500  1
  O  O111  1  0.46105700  0.84821300  0.46207800  1
  O  O112  1  0.87394000  0.77764700  0.41763100  1
  O  O113  1  0.67952000  0.74586400  0.33486300  1
