# generated using pymatgen
data_KH13CBrNO7
_symmetry_space_group_name_H-M   'P 1'
_cell_length_a   14.49325100
_cell_length_b   7.28783900
_cell_length_c   12.79156784
_cell_angle_alpha   63.14382552
_cell_angle_beta   90.00000000
_cell_angle_gamma   90.00000000
_symmetry_Int_Tables_number   1
_chemical_formula_structural   KH13CBrNO7
_chemical_formula_sum   'K4 H52 C4 Br4 N4 O28'
_cell_volume   1205.37726937
_cell_formula_units_Z   4
loop_
 _symmetry_equiv_pos_site_id
 _symmetry_equiv_pos_as_xyz
  1  'x, y, z'
loop_
 _atom_site_type_symbol
 _atom_site_label
 _atom_site_symmetry_multiplicity
 _atom_site_fract_x
 _atom_site_fract_y
 _atom_site_fract_z
 _atom_site_occupancy
  K  K0  1  0.47071800  0.17549400  0.59281600  1
  K  K1  1  0.52928200  0.82450600  0.40718400  1
  K  K2  1  0.97071800  0.82450600  0.90718400  1
  K  K3  1  0.02928200  0.17549400  0.09281600  1
  H  H4  1  0.89806900  0.74618100  0.31965700  1
  H  H5  1  0.64609600  0.52417200  0.85724000  1
  H  H6  1  0.83971200  0.37080000  0.10971200  1
  H  H7  1  0.59293400  0.38691500  0.16825000  1
  H  H8  1  0.90706600  0.38691500  0.66825000  1
  H  H9  1  0.26500900  0.17609700  0.71050200  1
  H  H10  1  0.40706600  0.61308500  0.83175000  1
  H  H11  1  0.21591700  0.20872300  0.96844500  1
  H  H12  1  0.14609600  0.47582800  0.64276000  1
  H  H13  1  0.31422400  0.55035200  0.76067700  1
  H  H14  1  0.59626500  0.63828300  0.16817300  1
  H  H15  1  0.16028800  0.62920000  0.89028800  1
  H  H16  1  0.29990000  0.78914700  0.42834100  1
  H  H17  1  0.22797000  0.97378400  0.20122900  1
  H  H18  1  0.76500900  0.82390300  0.78949800  1
  H  H19  1  0.90373500  0.63828300  0.66817300  1
  H  H20  1  0.55890000  0.02989000  0.85363000  1
  H  H21  1  0.04059100  0.93838900  0.37229900  1
  H  H22  1  0.73499100  0.82390300  0.28949800  1
  H  H23  1  0.45940900  0.93838900  0.87229900  1
  H  H24  1  0.83974600  0.69550900  0.14944100  1
  H  H25  1  0.35390400  0.47582800  0.14276000  1
  H  H26  1  0.66028800  0.37080000  0.60971200  1
  H  H27  1  0.72797000  0.02621600  0.29877100  1
  H  H28  1  0.44110000  0.97011000  0.14637000  1
  H  H29  1  0.09626500  0.36171700  0.33182700  1
  H  H30  1  0.09293400  0.61308500  0.33175000  1
  H  H31  1  0.10193100  0.25381900  0.68034300  1
  H  H32  1  0.60193100  0.74618100  0.81965700  1
  H  H33  1  0.85390400  0.52417200  0.35724000  1
  H  H34  1  0.33971200  0.62920000  0.39028800  1
  H  H35  1  0.81422400  0.44964800  0.73932300  1
  H  H36  1  0.68577600  0.44964800  0.23932300  1
  H  H37  1  0.79990000  0.21085300  0.07165900  1
  H  H38  1  0.27203000  0.97378400  0.70122900  1
  H  H39  1  0.16025400  0.30449100  0.85055900  1
  H  H40  1  0.39806900  0.25381900  0.18034300  1
  H  H41  1  0.33974600  0.30449100  0.35055900  1
  H  H42  1  0.54059100  0.06161100  0.12770100  1
  H  H43  1  0.77203000  0.02621600  0.79877100  1
  H  H44  1  0.20010000  0.78914700  0.92834100  1
  H  H45  1  0.95940900  0.06161100  0.62770100  1
  H  H46  1  0.05890000  0.97011000  0.64637000  1
  H  H47  1  0.94110000  0.02989000  0.35363000  1
  H  H48  1  0.18577600  0.55035200  0.26067700  1
  H  H49  1  0.78408300  0.79127700  0.03155500  1
  H  H50  1  0.23499100  0.17609700  0.21050200  1
  H  H51  1  0.71591700  0.79127700  0.53155500  1
  H  H52  1  0.40373500  0.36171700  0.83182700  1
  H  H53  1  0.66025400  0.69550900  0.64944100  1
  H  H54  1  0.28408300  0.20872300  0.46844500  1
  H  H55  1  0.70010000  0.21085300  0.57165900  1
  C  C56  1  0.11222500  0.52634900  0.28439200  1
  C  C57  1  0.88777500  0.47365100  0.71560800  1
  C  C58  1  0.61222500  0.47365100  0.21560800  1
  C  C59  1  0.38777500  0.52634900  0.78439200  1
  Br  Br60  1  0.66749700  0.14511500  0.96325800  1
  Br  Br61  1  0.83250300  0.14511500  0.46325800  1
  Br  Br62  1  0.33250300  0.85488500  0.03674200  1
  Br  Br63  1  0.16749700  0.85488500  0.53674200  1
  N  N64  1  0.56144300  0.38662000  0.32783200  1
  N  N65  1  0.06144300  0.61338000  0.17216800  1
  N  N66  1  0.93855700  0.38662000  0.82783200  1
  N  N67  1  0.43855700  0.61338000  0.67216800  1
  O  O68  1  0.48311000  0.04833300  0.17197500  1
  O  O69  1  0.35139300  0.32999200  0.20185700  1
  O  O70  1  0.85139300  0.67000800  0.29814300  1
  O  O71  1  0.31048400  0.08002200  0.70511700  1
  O  O72  1  0.68951600  0.91997800  0.29488300  1
  O  O73  1  0.14860700  0.32999200  0.70185700  1
  O  O74  1  0.34788900  0.77036600  0.37949200  1
  O  O75  1  0.81048400  0.91997800  0.79488300  1
  O  O76  1  0.96551300  0.50381100  0.86768200  1
  O  O77  1  0.82832200  0.68257700  0.07652400  1
  O  O78  1  0.46551300  0.49618900  0.63231800  1
  O  O79  1  0.64860700  0.67000800  0.79814300  1
  O  O80  1  0.15211100  0.77036600  0.87949200  1
  O  O81  1  0.51689000  0.95166700  0.82802500  1
  O  O82  1  0.03448700  0.49618900  0.13231800  1
  O  O83  1  0.67167800  0.68257700  0.57652400  1
  O  O84  1  0.53448700  0.50381100  0.36768200  1
  O  O85  1  0.05010700  0.80264800  0.11998400  1
  O  O86  1  0.17167800  0.31742300  0.92347600  1
  O  O87  1  0.55010700  0.19735200  0.38001600  1
  O  O88  1  0.18951600  0.08002200  0.20511700  1
  O  O89  1  0.44989300  0.80264800  0.61998400  1
  O  O90  1  0.94989300  0.19735200  0.88001600  1
  O  O91  1  0.65211100  0.22963400  0.62050800  1
  O  O92  1  0.01689000  0.04833300  0.67197500  1
  O  O93  1  0.84788900  0.22963400  0.12050800  1
  O  O94  1  0.32832200  0.31742300  0.42347600  1
  O  O95  1  0.98311000  0.95166700  0.32802500  1
