# generated using pymatgen
data_Pb10S(ClO3)4
_symmetry_space_group_name_H-M   'P 1'
_cell_length_a   9.06672900
_cell_length_b   10.84359502
_cell_length_c   13.14512940
_cell_angle_alpha   66.12723315
_cell_angle_beta   84.64623994
_cell_angle_gamma   77.45239879
_symmetry_Int_Tables_number   1
_chemical_formula_structural   Pb10S(ClO3)4
_chemical_formula_sum   'Pb20 S2 Cl8 O24'
_cell_volume   1153.56089457
_cell_formula_units_Z   2
loop_
 _symmetry_equiv_pos_site_id
 _symmetry_equiv_pos_as_xyz
  1  'x, y, z'
loop_
 _atom_site_type_symbol
 _atom_site_label
 _atom_site_symmetry_multiplicity
 _atom_site_fract_x
 _atom_site_fract_y
 _atom_site_fract_z
 _atom_site_occupancy
  Pb  Pb0  1  0.99779400  0.65485200  0.02590000  1
  Pb  Pb1  1  0.00220600  0.34514800  0.97410000  1
  Pb  Pb2  1  0.45412800  0.41679400  0.64774400  1
  Pb  Pb3  1  0.54587200  0.58320600  0.35225600  1
  Pb  Pb4  1  0.34964600  0.83093600  0.94294700  1
  Pb  Pb5  1  0.65035400  0.16906400  0.05705300  1
  Pb  Pb6  1  0.64986600  0.49665500  0.09343600  1
  Pb  Pb7  1  0.35013400  0.50334500  0.90656400  1
  Pb  Pb8  1  0.82116100  0.56884400  0.56016500  1
  Pb  Pb9  1  0.17883900  0.43115600  0.43983500  1
  Pb  Pb10  1  0.28391700  0.32751800  0.20484200  1
  Pb  Pb11  1  0.71608300  0.67248200  0.79515800  1
  Pb  Pb12  1  0.15001400  0.75977700  0.46765500  1
  Pb  Pb13  1  0.84998600  0.24022300  0.53234500  1
  Pb  Pb14  1  0.14289000  0.22751100  0.74602800  1
  Pb  Pb15  1  0.85711000  0.77248900  0.25397200  1
  Pb  Pb16  1  0.55422900  0.93343400  0.38502500  1
  Pb  Pb17  1  0.44577100  0.06656600  0.61497500  1
  Pb  Pb18  1  0.88000900  0.12282800  0.28758900  1
  Pb  Pb19  1  0.11999100  0.87717200  0.71241100  1
  S  S20  1  0.77227000  0.01683100  0.80798400  1
  S  S21  1  0.22773000  0.98316900  0.19201600  1
  Cl  Cl22  1  0.80471200  0.90435400  0.52300300  1
  Cl  Cl23  1  0.19528800  0.09564600  0.47699700  1
  Cl  Cl24  1  0.27966500  0.61174400  0.17571100  1
  Cl  Cl25  1  0.72033500  0.38825600  0.82428900  1
  Cl  Cl26  1  0.57721800  0.26682100  0.35477800  1
  Cl  Cl27  1  0.42278200  0.73317900  0.64522200  1
  Cl  Cl28  1  0.06119300  0.59284900  0.70075000  1
  Cl  Cl29  1  0.93880700  0.40715100  0.29925000  1
  O  O30  1  0.91462300  0.06569600  0.74863700  1
  O  O31  1  0.08537700  0.93430400  0.25136300  1
  O  O32  1  0.75319800  0.03074700  0.91495600  1
  O  O33  1  0.24680200  0.96925300  0.08504400  1
  O  O34  1  0.64264400  0.10129800  0.73119100  1
  O  O35  1  0.35735600  0.89870200  0.26880900  1
  O  O36  1  0.79303100  0.86781400  0.82673800  1
  O  O37  1  0.20696900  0.13218600  0.17326200  1
  O  O38  1  0.48038000  0.35778200  0.07371200  1
  O  O39  1  0.51962000  0.64221800  0.92628800  1
  O  O40  1  0.33224400  0.27661800  0.61389500  1
  O  O41  1  0.66775600  0.72338200  0.38610500  1
  O  O42  1  0.72834600  0.00175300  0.24466900  1
  O  O43  1  0.27165400  0.99824700  0.75533100  1
  O  O44  1  0.66460400  0.42848100  0.52219500  1
  O  O45  1  0.33539600  0.57151900  0.47780500  1
  O  O46  1  0.84857200  0.55268700  0.95950200  1
  O  O47  1  0.15142800  0.44731300  0.04049800  1
  O  O48  1  0.81733600  0.27286900  0.10524900  1
  O  O49  1  0.18266400  0.72713100  0.89475100  1
  O  O50  1  0.00208200  0.64596300  0.41830500  1
  O  O51  1  0.99791800  0.35403700  0.58169500  1
  O  O52  1  0.33513800  0.34977600  0.82001900  1
  O  O53  1  0.66486200  0.65022400  0.17998100  1
