# generated using pymatgen
data_Na4TeH10(SeO8)2
_symmetry_space_group_name_H-M   'P 1'
_cell_length_a   12.67262200
_cell_length_b   6.17880100
_cell_length_c   10.90674014
_cell_angle_alpha   67.53181420
_cell_angle_beta   90.00000000
_cell_angle_gamma   90.00000000
_symmetry_Int_Tables_number   1
_chemical_formula_structural   Na4TeH10(SeO8)2
_chemical_formula_sum   'Na8 Te2 H20 Se4 O32'
_cell_volume   789.18861074
_cell_formula_units_Z   2
loop_
 _symmetry_equiv_pos_site_id
 _symmetry_equiv_pos_as_xyz
  1  'x, y, z'
loop_
 _atom_site_type_symbol
 _atom_site_label
 _atom_site_symmetry_multiplicity
 _atom_site_fract_x
 _atom_site_fract_y
 _atom_site_fract_z
 _atom_site_occupancy
  Na  Na0  1  0.72435100  0.87584100  0.23067800  1
  Na  Na1  1  0.27564900  0.12415900  0.76932200  1
  Na  Na2  1  0.96900500  0.37688100  0.14814000  1
  Na  Na3  1  0.53099500  0.37688100  0.64814000  1
  Na  Na4  1  0.22435100  0.12415900  0.26932200  1
  Na  Na5  1  0.77564900  0.87584100  0.73067800  1
  Na  Na6  1  0.46900500  0.62311900  0.35186000  1
  Na  Na7  1  0.03099500  0.62311900  0.85186000  1
  Te  Te8  1  0.00000000  0.00000000  0.50000000  1
  Te  Te9  1  0.50000000  0.00000000  0.00000000  1
  H  H10  1  0.12327400  0.99795400  0.01743500  1
  H  H11  1  0.37672600  0.99795400  0.51743500  1
  H  H12  1  0.62327400  0.00204600  0.48256500  1
  H  H13  1  0.62897900  0.87660300  0.86521000  1
  H  H14  1  0.87672600  0.00204600  0.98256500  1
  H  H15  1  0.45289900  0.74377300  0.73127800  1
  H  H16  1  0.04710100  0.74377300  0.23127800  1
  H  H17  1  0.93219600  0.67783800  0.25418200  1
  H  H18  1  0.12897900  0.12339700  0.63479000  1
  H  H19  1  0.87102100  0.87660300  0.36521000  1
  H  H20  1  0.75616000  0.04810100  0.94805300  1
  H  H21  1  0.56780400  0.67783800  0.75418200  1
  H  H22  1  0.37102100  0.12339700  0.13479000  1
  H  H23  1  0.54710100  0.25622700  0.26872200  1
  H  H24  1  0.95289900  0.25622700  0.76872200  1
  H  H25  1  0.43219600  0.32216200  0.24581800  1
  H  H26  1  0.24384000  0.95189900  0.05194700  1
  H  H27  1  0.06780400  0.32216200  0.74581800  1
  H  H28  1  0.74384000  0.04810100  0.44805300  1
  H  H29  1  0.25616000  0.95189900  0.55194700  1
  Se  Se30  1  0.70995600  0.43612000  0.02595700  1
  Se  Se31  1  0.29004400  0.56388000  0.97404300  1
  Se  Se32  1  0.79004400  0.43612000  0.52595700  1
  Se  Se33  1  0.20995600  0.56388000  0.47404300  1
  O  O34  1  0.84115800  0.59073700  0.37605600  1
  O  O35  1  0.11423800  0.79940900  0.40747700  1
  O  O36  1  0.43810100  0.33104600  0.86281800  1
  O  O37  1  0.15884200  0.40926300  0.62394400  1
  O  O38  1  0.98287100  0.74828300  0.17998300  1
  O  O39  1  0.88576200  0.20059100  0.59252300  1
  O  O40  1  0.63247200  0.66582900  0.44483000  1
  O  O41  1  0.51712900  0.74828300  0.67998300  1
  O  O42  1  0.67214300  0.62267800  0.12753100  1
  O  O43  1  0.32785700  0.37732200  0.87246900  1
  O  O44  1  0.36752800  0.33417100  0.55517000  1
  O  O45  1  0.81390500  0.07481900  0.00180600  1
  O  O46  1  0.13247200  0.33417100  0.05517000  1
  O  O47  1  0.18609500  0.92518100  0.99819400  1
  O  O48  1  0.01712900  0.25171700  0.82001700  1
  O  O49  1  0.82785700  0.62267800  0.62753100  1
  O  O50  1  0.34115800  0.40926300  0.12394400  1
  O  O51  1  0.48287100  0.25171700  0.32001700  1
  O  O52  1  0.87754100  0.04362600  0.35496600  1
  O  O53  1  0.38576200  0.79940900  0.90747700  1
  O  O54  1  0.65884200  0.59073700  0.87605600  1
  O  O55  1  0.56189900  0.66895400  0.13718200  1
  O  O56  1  0.12245900  0.95637400  0.64503400  1
  O  O57  1  0.37754100  0.95637400  0.14503400  1
  O  O58  1  0.86752800  0.66582900  0.94483000  1
  O  O59  1  0.31390500  0.92518100  0.49819400  1
  O  O60  1  0.62245900  0.04362600  0.85496600  1
  O  O61  1  0.06189900  0.33104600  0.36281800  1
  O  O62  1  0.17214300  0.37732200  0.37246900  1
  O  O63  1  0.68609500  0.07481900  0.50180600  1
  O  O64  1  0.61423800  0.20059100  0.09252300  1
  O  O65  1  0.93810100  0.66895400  0.63718200  1
