# generated using pymatgen
data_NiH14C3NCl3O2
_symmetry_space_group_name_H-M   'P 1'
_cell_length_a   7.22142900
_cell_length_b   8.28795700
_cell_length_c   16.91159200
_cell_angle_alpha   90.00000000
_cell_angle_beta   90.00000000
_cell_angle_gamma   90.00000000
_symmetry_Int_Tables_number   1
_chemical_formula_structural   NiH14C3NCl3O2
_chemical_formula_sum   'Ni4 H56 C12 N4 Cl12 O8'
_cell_volume   1012.17388377
_cell_formula_units_Z   4
loop_
 _symmetry_equiv_pos_site_id
 _symmetry_equiv_pos_as_xyz
  1  'x, y, z'
loop_
 _atom_site_type_symbol
 _atom_site_label
 _atom_site_symmetry_multiplicity
 _atom_site_fract_x
 _atom_site_fract_y
 _atom_site_fract_z
 _atom_site_occupancy
  Ni  Ni0  1  0.50000000  0.00000000  0.00000000  1
  Ni  Ni1  1  0.00000000  0.00000000  0.00000000  1
  Ni  Ni2  1  0.50000000  0.50000000  0.50000000  1
  Ni  Ni3  1  0.00000000  0.50000000  0.50000000  1
  H  H4  1  0.42675400  0.69871800  0.95856600  1
  H  H5  1  0.12569800  0.51491400  0.13457800  1
  H  H6  1  0.37430200  0.51491400  0.13457800  1
  H  H7  1  0.25000000  0.24968300  0.12859600  1
  H  H8  1  0.09810600  0.19271700  0.48370300  1
  H  H9  1  0.87430200  0.48508600  0.86542200  1
  H  H10  1  0.42273300  0.31365400  0.28446800  1
  H  H11  1  0.62569800  0.01491400  0.36542200  1
  H  H12  1  0.08658600  0.12343600  0.23288100  1
  H  H13  1  0.57726700  0.68634600  0.71553200  1
  H  H14  1  0.54056900  0.21216000  0.69091200  1
  H  H15  1  0.62569800  0.48508600  0.86542200  1
  H  H16  1  0.95943100  0.21216000  0.69091200  1
  H  H17  1  0.91341400  0.62343600  0.26711900  1
  H  H18  1  0.12569800  0.98508600  0.63457800  1
  H  H19  1  0.90189400  0.80728300  0.51629700  1
  H  H20  1  0.92675400  0.19871800  0.54143400  1
  H  H21  1  0.04056900  0.71216000  0.80908800  1
  H  H22  1  0.09810600  0.30728300  0.98370300  1
  H  H23  1  0.75000000  0.45174400  0.77482700  1
  H  H24  1  0.42273300  0.18634600  0.78446800  1
  H  H25  1  0.92273300  0.68634600  0.71553200  1
  H  H26  1  0.57324600  0.30128200  0.04143400  1
  H  H27  1  0.25000000  0.54825600  0.22517300  1
  H  H28  1  0.75000000  0.74968300  0.37140400  1
  H  H29  1  0.25000000  0.95174400  0.72517300  1
  H  H30  1  0.57726700  0.81365400  0.21553200  1
  H  H31  1  0.87430200  0.01491400  0.36542200  1
  H  H32  1  0.42675400  0.80128200  0.45856600  1
  H  H33  1  0.07726700  0.18634600  0.78446800  1
  H  H34  1  0.75000000  0.75031700  0.87140400  1
  H  H35  1  0.58658600  0.62343600  0.26711900  1
  H  H36  1  0.07324600  0.69871800  0.95856600  1
  H  H37  1  0.75000000  0.04825600  0.27482700  1
  H  H38  1  0.04056900  0.78784000  0.30908800  1
  H  H39  1  0.40189400  0.19271700  0.48370300  1
  H  H40  1  0.41341400  0.12343600  0.23288100  1
  H  H41  1  0.92273300  0.81365400  0.21553200  1
  H  H42  1  0.59810600  0.69271700  0.01629700  1
  H  H43  1  0.08658600  0.37656400  0.73288100  1
  H  H44  1  0.91341400  0.87656400  0.76711900  1
  H  H45  1  0.25000000  0.25031700  0.62859600  1
  H  H46  1  0.45943100  0.78784000  0.30908800  1
  H  H47  1  0.90189400  0.69271700  0.01629700  1
  H  H48  1  0.41341400  0.37656400  0.73288100  1
  H  H49  1  0.92675400  0.30128200  0.04143400  1
  H  H50  1  0.45943100  0.71216000  0.80908800  1
  H  H51  1  0.07726700  0.31365400  0.28446800  1
  H  H52  1  0.95943100  0.28784000  0.19091200  1
  H  H53  1  0.40189400  0.30728300  0.98370300  1
  H  H54  1  0.37430200  0.98508600  0.63457800  1
  H  H55  1  0.57324600  0.19871800  0.54143400  1
  H  H56  1  0.54056900  0.28784000  0.19091200  1
  H  H57  1  0.58658600  0.87656400  0.76711900  1
  H  H58  1  0.07324600  0.80128200  0.45856600  1
  H  H59  1  0.59810600  0.80728300  0.51629700  1
  C  C60  1  0.07996600  0.25441400  0.22641700  1
  C  C61  1  0.57996600  0.75441400  0.27358300  1
  C  C62  1  0.25000000  0.01559500  0.66829600  1
  C  C63  1  0.42003400  0.24558600  0.72641700  1
  C  C64  1  0.92003400  0.74558600  0.77358300  1
  C  C65  1  0.57996600  0.74558600  0.77358300  1
  C  C66  1  0.75000000  0.98440500  0.33170400  1
  C  C67  1  0.75000000  0.51559500  0.83170400  1
  C  C68  1  0.42003400  0.25441400  0.22641700  1
  C  C69  1  0.25000000  0.48440500  0.16829600  1
  C  C70  1  0.92003400  0.75441400  0.27358300  1
  C  C71  1  0.07996600  0.24558600  0.72641700  1
  N  N72  1  0.25000000  0.30701000  0.18355700  1
  N  N73  1  0.25000000  0.19299000  0.68355700  1
  N  N74  1  0.75000000  0.69299000  0.81644300  1
  N  N75  1  0.75000000  0.80701000  0.31644300  1
  Cl  Cl76  1  0.75000000  0.50219100  0.08490800  1
  Cl  Cl77  1  0.75000000  0.50717600  0.59485000  1
  Cl  Cl78  1  0.25000000  0.56792400  0.59350300  1
  Cl  Cl79  1  0.25000000  0.93207600  0.09350300  1
  Cl  Cl80  1  0.75000000  0.43207600  0.40649700  1
  Cl  Cl81  1  0.25000000  0.49282400  0.40515000  1
  Cl  Cl82  1  0.25000000  0.00717600  0.90515000  1
  Cl  Cl83  1  0.75000000  0.06792400  0.90649700  1
  Cl  Cl84  1  0.25000000  0.00219100  0.41509200  1
  Cl  Cl85  1  0.75000000  0.99780900  0.58490800  1
  Cl  Cl86  1  0.75000000  0.99282400  0.09485000  1
  Cl  Cl87  1  0.25000000  0.49780900  0.91509200  1
  O  O88  1  0.45895500  0.24280500  0.02669000  1
  O  O89  1  0.45895500  0.25719500  0.52669000  1
  O  O90  1  0.54104500  0.74280500  0.47331000  1
  O  O91  1  0.04104500  0.25719500  0.52669000  1
  O  O92  1  0.95895500  0.75719500  0.97331000  1
  O  O93  1  0.04104500  0.24280500  0.02669000  1
  O  O94  1  0.54104500  0.75719500  0.97331000  1
  O  O95  1  0.95895500  0.74280500  0.47331000  1
