# generated using pymatgen
data_CoH9C6(S2O)3
_symmetry_space_group_name_H-M   'P 1'
_cell_length_a   13.63063600
_cell_length_b   9.66284300
_cell_length_c   12.81040932
_cell_angle_alpha   59.91471103
_cell_angle_beta   90.00000000
_cell_angle_gamma   90.00000000
_symmetry_Int_Tables_number   1
_chemical_formula_structural   CoH9C6(S2O)3
_chemical_formula_sum   'Co4 H36 C24 S24 O12'
_cell_volume   1459.95945512
_cell_formula_units_Z   4
loop_
 _symmetry_equiv_pos_site_id
 _symmetry_equiv_pos_as_xyz
  1  'x, y, z'
loop_
 _atom_site_type_symbol
 _atom_site_label
 _atom_site_symmetry_multiplicity
 _atom_site_fract_x
 _atom_site_fract_y
 _atom_site_fract_z
 _atom_site_occupancy
  Co  Co0  1  0.49029900  0.40916800  0.26588300  1
  Co  Co1  1  0.50970100  0.59083200  0.73411700  1
  Co  Co2  1  0.00970100  0.40916800  0.76588300  1
  Co  Co3  1  0.99029900  0.59083200  0.23411700  1
  H  H4  1  0.13037500  0.08665500  0.28014500  1
  H  H5  1  0.69469300  0.38372700  0.57715800  1
  H  H6  1  0.86962500  0.91334500  0.71985500  1
  H  H7  1  0.22828800  0.74318600  0.45407800  1
  H  H8  1  0.17489000  0.24620900  0.48679900  1
  H  H9  1  0.65718500  0.18222800  0.62303400  1
  H  H10  1  0.75003900  0.92556800  0.41773000  1
  H  H11  1  0.74996100  0.92556800  0.91773000  1
  H  H12  1  0.86507400  0.95235700  0.47270500  1
  H  H13  1  0.25003900  0.07443200  0.08227000  1
  H  H14  1  0.32511000  0.24620900  0.98679900  1
  H  H15  1  0.24996100  0.07443200  0.58227000  1
  H  H16  1  0.63037500  0.91334500  0.21985500  1
  H  H17  1  0.53858300  0.06065300  0.19627800  1
  H  H18  1  0.19469300  0.61627300  0.92284200  1
  H  H19  1  0.34281500  0.81777200  0.37696600  1
  H  H20  1  0.03858300  0.93934700  0.30372200  1
  H  H21  1  0.36507400  0.04764300  0.02729500  1
  H  H22  1  0.03818900  0.13005200  0.16675600  1
  H  H23  1  0.96181100  0.86994800  0.83324400  1
  H  H24  1  0.84281500  0.18222800  0.12303400  1
  H  H25  1  0.82511000  0.75379100  0.51320100  1
  H  H26  1  0.30530700  0.61627300  0.42284200  1
  H  H27  1  0.27171200  0.74318600  0.95407800  1
  H  H28  1  0.36962500  0.08665500  0.78014500  1
  H  H29  1  0.15718500  0.81777200  0.87696600  1
  H  H30  1  0.46181100  0.13005200  0.66675600  1
  H  H31  1  0.77171200  0.25681400  0.54592200  1
  H  H32  1  0.96141700  0.06065300  0.69627800  1
  H  H33  1  0.67489000  0.75379100  0.01320100  1
  H  H34  1  0.80530700  0.38372700  0.07715800  1
  H  H35  1  0.46141700  0.93934700  0.80372200  1
  H  H36  1  0.63492600  0.95235700  0.97270500  1
  H  H37  1  0.13492600  0.04764300  0.52729500  1
  H  H38  1  0.53818900  0.86994800  0.33324400  1
  H  H39  1  0.72828800  0.25681400  0.04592200  1
  C  C40  1  0.28050000  0.73921600  0.39046800  1
  C  C41  1  0.00787900  0.72245300  0.70792600  1
  C  C42  1  0.82373800  0.76995600  0.14270900  1
  C  C43  1  0.44588900  0.06699300  0.76382100  1
  C  C44  1  0.69815000  0.87321400  0.99324800  1
  C  C45  1  0.05411100  0.06699300  0.26382100  1
  C  C46  1  0.80185000  0.87321400  0.49324800  1
  C  C47  1  0.65557100  0.27167800  0.23641700  1
  C  C48  1  0.34442900  0.72832200  0.76358300  1
  C  C49  1  0.17626200  0.23004400  0.85729100  1
  C  C50  1  0.55411100  0.93300700  0.23617900  1
  C  C51  1  0.32373800  0.23004400  0.35729100  1
  C  C52  1  0.19815000  0.12678600  0.50675200  1
  C  C53  1  0.78050000  0.26078400  0.10953200  1
  C  C54  1  0.99212100  0.27754700  0.29207400  1
  C  C55  1  0.49212100  0.72245300  0.20792600  1
  C  C56  1  0.21950000  0.73921600  0.89046800  1
  C  C57  1  0.84442900  0.27167800  0.73641700  1
  C  C58  1  0.15557100  0.72832200  0.26358300  1
  C  C59  1  0.30185000  0.12678600  0.00675200  1
  C  C60  1  0.71950000  0.26078400  0.60953200  1
  C  C61  1  0.50787900  0.27754700  0.79207400  1
  C  C62  1  0.94588900  0.93300700  0.73617900  1
  C  C63  1  0.67626200  0.76995600  0.64270900  1
  S  S64  1  0.90081200  0.43293400  0.62297200  1
  S  S65  1  0.37951600  0.26199600  0.22911600  1
  S  S66  1  0.91620000  0.35227100  0.35596800  1
  S  S67  1  0.59918800  0.43293400  0.12297200  1
  S  S68  1  0.11881300  0.32596900  0.92002300  1
  S  S69  1  0.61881300  0.67403100  0.57997700  1
  S  S70  1  0.62048400  0.73800400  0.77088400  1
  S  S71  1  0.40081200  0.56706600  0.87702800  1
  S  S72  1  0.43220200  0.41844400  0.68884000  1
  S  S73  1  0.87951600  0.73800400  0.27088400  1
  S  S74  1  0.08380000  0.64772900  0.64403200  1
  S  S75  1  0.59738900  0.20424700  0.37013000  1
  S  S76  1  0.90261100  0.20424700  0.87013000  1
  S  S77  1  0.12048400  0.26199600  0.72911600  1
  S  S78  1  0.88118700  0.67403100  0.07997700  1
  S  S79  1  0.58380000  0.35227100  0.85596800  1
  S  S80  1  0.93220200  0.58155600  0.81116000  1
  S  S81  1  0.41620000  0.64772900  0.14403200  1
  S  S82  1  0.09918800  0.56706600  0.37702800  1
  S  S83  1  0.09738900  0.79575300  0.12987000  1
  S  S84  1  0.06779800  0.41844400  0.18884000  1
  S  S85  1  0.56779800  0.58155600  0.31116000  1
  S  S86  1  0.40261100  0.79575300  0.62987000  1
  S  S87  1  0.38118700  0.32596900  0.42002300  1
  O  O88  1  0.01134300  0.87680800  0.67540100  1
  O  O89  1  0.76521700  0.19748300  0.72766200  1
  O  O90  1  0.73478300  0.19748300  0.22766200  1
  O  O91  1  0.75582100  0.86119200  0.60037400  1
  O  O92  1  0.23478300  0.80251700  0.27233800  1
  O  O93  1  0.51134300  0.12319200  0.82459900  1
  O  O94  1  0.98865700  0.12319200  0.32459900  1
  O  O95  1  0.26521700  0.80251700  0.77233800  1
  O  O96  1  0.74417900  0.86119200  0.10037400  1
  O  O97  1  0.48865700  0.87680800  0.17540100  1
  O  O98  1  0.24417900  0.13880800  0.39962600  1
  O  O99  1  0.25582100  0.13880800  0.89962600  1
