# generated using pymatgen
data_MgSiO3
_symmetry_space_group_name_H-M   'P 1'
_cell_length_a   6.75970391
_cell_length_b   6.75970391
_cell_length_c   5.36694933
_cell_angle_alpha   72.92769901
_cell_angle_beta   72.92769901
_cell_angle_gamma   81.85455495
_symmetry_Int_Tables_number   1
_chemical_formula_structural   MgSiO3
_chemical_formula_sum   'Mg4 Si4 O12'
_cell_volume   223.68517189
_cell_formula_units_Z   4
loop_
 _symmetry_equiv_pos_site_id
 _symmetry_equiv_pos_as_xyz
  1  'x, y, z'
loop_
 _atom_site_type_symbol
 _atom_site_label
 _atom_site_symmetry_multiplicity
 _atom_site_fract_x
 _atom_site_fract_y
 _atom_site_fract_z
 _atom_site_occupancy
  Mg  Mg0  1  0.26109600  0.73890400  0.25000000  1
  Mg  Mg1  1  0.89915500  0.10084500  0.25000000  1
  Mg  Mg2  1  0.73890400  0.26109600  0.75000000  1
  Mg  Mg3  1  0.10084500  0.89915500  0.75000000  1
  Si  Si4  1  0.61914200  0.79735500  0.80144300  1
  Si  Si5  1  0.20264500  0.38085800  0.69855700  1
  Si  Si6  1  0.79735500  0.61914200  0.30144300  1
  Si  Si7  1  0.38085800  0.20264500  0.19855700  1
  O  O8  1  0.68550300  0.62021900  0.62565900  1
  O  O9  1  0.62021900  0.68550300  0.12565900  1
  O  O10  1  0.86438900  0.37630500  0.34379500  1
  O  O11  1  0.62369500  0.13561100  0.15620500  1
  O  O12  1  0.31449700  0.37978100  0.37434100  1
  O  O13  1  0.78883500  0.97429500  0.66583400  1
  O  O14  1  0.37978100  0.31449700  0.87434100  1
  O  O15  1  0.21116500  0.02570500  0.33416600  1
  O  O16  1  0.37630500  0.86438900  0.84379500  1
  O  O17  1  0.13561100  0.62369500  0.65620500  1
  O  O18  1  0.97429500  0.78883500  0.16583400  1
  O  O19  1  0.02570500  0.21116500  0.83416600  1
