# generated using pymatgen
data_Tl2HPtC5N5O
_symmetry_space_group_name_H-M   'P 1'
_cell_length_a   20.62945000
_cell_length_b   6.78169200
_cell_length_c   9.21058803
_cell_angle_alpha   64.13173194
_cell_angle_beta   90.00000000
_cell_angle_gamma   90.00000000
_symmetry_Int_Tables_number   1
_chemical_formula_structural   Tl2HPtC5N5O
_chemical_formula_sum   'Tl8 H4 Pt4 C20 N20 O4'
_cell_volume   1159.46820102
_cell_formula_units_Z   4
loop_
 _symmetry_equiv_pos_site_id
 _symmetry_equiv_pos_as_xyz
  1  'x, y, z'
loop_
 _atom_site_type_symbol
 _atom_site_label
 _atom_site_symmetry_multiplicity
 _atom_site_fract_x
 _atom_site_fract_y
 _atom_site_fract_z
 _atom_site_occupancy
  Tl  Tl0  1  0.28171200  0.73539300  0.82359000  1
  Tl  Tl1  1  0.78171200  0.26460700  0.67641000  1
  Tl  Tl2  1  0.21828800  0.73539300  0.32359000  1
  Tl  Tl3  1  0.41784400  0.36019000  0.70872900  1
  Tl  Tl4  1  0.91784400  0.63981000  0.79127100  1
  Tl  Tl5  1  0.58215600  0.63981000  0.29127100  1
  Tl  Tl6  1  0.08215600  0.36019000  0.20872900  1
  Tl  Tl7  1  0.71828800  0.26460700  0.17641000  1
  H  H8  1  0.08420400  0.58679900  0.44655600  1
  H  H9  1  0.58420400  0.41320100  0.05344400  1
  H  H10  1  0.41579600  0.58679900  0.94655600  1
  H  H11  1  0.91579600  0.41320100  0.55344400  1
  Pt  Pt12  1  0.11947400  0.22858100  0.69231900  1
  Pt  Pt13  1  0.38052600  0.22858100  0.19231900  1
  Pt  Pt14  1  0.88052600  0.77141900  0.30768100  1
  Pt  Pt15  1  0.61947400  0.77141900  0.80768100  1
  C  C16  1  0.08592800  0.43223800  0.78283300  1
  C  C17  1  0.21210300  0.32067800  0.70330400  1
  C  C18  1  0.12615900  0.98662800  0.91355100  1
  C  C19  1  0.41407200  0.43223800  0.28283300  1
  C  C20  1  0.28789700  0.32067800  0.20330400  1
  C  C21  1  0.37384100  0.98662800  0.41355100  1
  C  C22  1  0.02690700  0.15425500  0.66736000  1
  C  C23  1  0.97309300  0.84574500  0.33264000  1
  C  C24  1  0.52690700  0.84574500  0.83264000  1
  C  C25  1  0.58592800  0.56776200  0.71716700  1
  C  C26  1  0.34856800  0.03151000  0.09465700  1
  C  C27  1  0.71210300  0.67932200  0.79669600  1
  C  C28  1  0.62615900  0.01337200  0.58644900  1
  C  C29  1  0.65143200  0.96849000  0.90534300  1
  C  C30  1  0.15143200  0.03151000  0.59465700  1
  C  C31  1  0.47309300  0.15425500  0.16736000  1
  C  C32  1  0.78789700  0.67932200  0.29669600  1
  C  C33  1  0.91407200  0.56776200  0.21716700  1
  C  C34  1  0.87384100  0.01337200  0.08644900  1
  C  C35  1  0.84856800  0.96849000  0.40534300  1
  N  N36  1  0.47258800  0.87638000  0.85346100  1
  N  N37  1  0.52741200  0.12362000  0.14653900  1
  N  N38  1  0.86748700  0.15311500  0.95508900  1
  N  N39  1  0.76554000  0.61980800  0.79817200  1
  N  N40  1  0.36748700  0.84688500  0.54491100  1
  N  N41  1  0.17145400  0.93163300  0.52805800  1
  N  N42  1  0.67145400  0.06836700  0.97194200  1
  N  N43  1  0.13251300  0.84688500  0.04491100  1
  N  N44  1  0.97258800  0.12362000  0.64653900  1
  N  N45  1  0.43732300  0.54006500  0.33990800  1
  N  N46  1  0.26554000  0.38019200  0.70182800  1
  N  N47  1  0.63251300  0.15311500  0.45508900  1
  N  N48  1  0.73446000  0.61980800  0.29817200  1
  N  N49  1  0.23446000  0.38019200  0.20182800  1
  N  N50  1  0.93732300  0.45993500  0.16009200  1
  N  N51  1  0.56267700  0.45993500  0.66009200  1
  N  N52  1  0.02741200  0.87638000  0.35346100  1
  N  N53  1  0.32854600  0.93163300  0.02805800  1
  N  N54  1  0.06267700  0.54006500  0.83990800  1
  N  N55  1  0.82854600  0.06836700  0.47194200  1
  O  O56  1  0.38407300  0.47370200  0.95458900  1
  O  O57  1  0.88407300  0.52629800  0.54541100  1
  O  O58  1  0.11592700  0.47370200  0.45458900  1
  O  O59  1  0.61592700  0.52629800  0.04541100  1
