# generated using pymatgen
data_NaH2CSO4F3
_symmetry_space_group_name_H-M   'P 1'
_cell_length_a   7.52370200
_cell_length_b   10.27020200
_cell_length_c   10.70764266
_cell_angle_alpha   68.75011483
_cell_angle_beta   90.00000000
_cell_angle_gamma   90.00000000
_symmetry_Int_Tables_number   1
_chemical_formula_structural   NaH2CSO4F3
_chemical_formula_sum   'Na4 H8 C4 S4 O16 F12'
_cell_volume   771.12424556
_cell_formula_units_Z   4
loop_
 _symmetry_equiv_pos_site_id
 _symmetry_equiv_pos_as_xyz
  1  'x, y, z'
loop_
 _atom_site_type_symbol
 _atom_site_label
 _atom_site_symmetry_multiplicity
 _atom_site_fract_x
 _atom_site_fract_y
 _atom_site_fract_z
 _atom_site_occupancy
  Na  Na0  1  0.03097100  0.49835400  0.76872500  1
  Na  Na1  1  0.46902900  0.49835400  0.26872500  1
  Na  Na2  1  0.96902900  0.50164600  0.23127500  1
  Na  Na3  1  0.53097100  0.50164600  0.73127500  1
  H  H4  1  0.76030200  0.22079800  0.41717300  1
  H  H5  1  0.23905100  0.83465500  0.51439400  1
  H  H6  1  0.26030200  0.77920200  0.08282700  1
  H  H7  1  0.73905100  0.16534500  0.98560600  1
  H  H8  1  0.23969800  0.77920200  0.58282700  1
  H  H9  1  0.26094900  0.83465500  0.01439400  1
  H  H10  1  0.76094900  0.16534500  0.48560600  1
  H  H11  1  0.73969800  0.22079800  0.91717300  1
  C  C12  1  0.69135800  0.85654100  0.39466600  1
  C  C13  1  0.30864200  0.14345900  0.60533400  1
  C  C14  1  0.19135800  0.14345900  0.10533400  1
  C  C15  1  0.80864200  0.85654100  0.89466600  1
  S  S16  1  0.67153600  0.69351700  0.93676600  1
  S  S17  1  0.17153600  0.30648300  0.56323400  1
  S  S18  1  0.32846400  0.30648300  0.06323400  1
  S  S19  1  0.82846400  0.69351700  0.43676600  1
  O  O20  1  0.23805100  0.52072100  0.11626800  1
  O  O21  1  0.72501000  0.63648500  0.33721200  1
  O  O22  1  0.50620400  0.26579100  0.10740100  1
  O  O23  1  0.26194900  0.52072100  0.61626800  1
  O  O24  1  0.77499000  0.63648500  0.83721200  1
  O  O25  1  0.29419400  0.38955600  0.92370100  1
  O  O26  1  0.70580600  0.61044400  0.07629900  1
  O  O27  1  0.27499000  0.36351500  0.66278800  1
  O  O28  1  0.73805100  0.47927900  0.38373200  1
  O  O29  1  0.76194900  0.47927900  0.88373200  1
  O  O30  1  0.20580600  0.38955600  0.42370100  1
  O  O31  1  0.49379600  0.73420900  0.89259900  1
  O  O32  1  0.22501000  0.36351500  0.16278800  1
  O  O33  1  0.00620400  0.73420900  0.39259900  1
  O  O34  1  0.79419400  0.61044400  0.57629900  1
  O  O35  1  0.99379600  0.26579100  0.60740100  1
  F  F36  1  0.27082400  0.05564900  0.73011400  1
  F  F37  1  0.76674200  0.91774600  0.98313500  1
  F  F38  1  0.22917600  0.05564900  0.23011400  1
  F  F39  1  0.23325800  0.08225400  0.01686500  1
  F  F40  1  0.01707000  0.17538000  0.09592200  1
  F  F41  1  0.73325800  0.91774600  0.48313500  1
  F  F42  1  0.98293000  0.82462000  0.90407800  1
  F  F43  1  0.26674200  0.08225400  0.51686500  1
  F  F44  1  0.51707000  0.82462000  0.40407800  1
  F  F45  1  0.48293000  0.17538000  0.59592200  1
  F  F46  1  0.77082400  0.94435100  0.76988600  1
  F  F47  1  0.72917600  0.94435100  0.26988600  1
