# generated using pymatgen
data_SiO2
_symmetry_space_group_name_H-M   'P 1'
_cell_length_a   15.54178543
_cell_length_b   15.54178543
_cell_length_c   15.54178543
_cell_angle_alpha   109.47122063
_cell_angle_beta   109.47122063
_cell_angle_gamma   109.47122063
_symmetry_Int_Tables_number   1
_chemical_formula_structural   SiO2
_chemical_formula_sum   'Si24 O48'
_cell_volume   2889.88682713
_cell_formula_units_Z   24
loop_
 _symmetry_equiv_pos_site_id
 _symmetry_equiv_pos_as_xyz
  1  'x, y, z'
loop_
 _atom_site_type_symbol
 _atom_site_label
 _atom_site_symmetry_multiplicity
 _atom_site_fract_x
 _atom_site_fract_y
 _atom_site_fract_z
 _atom_site_occupancy
  Si  Si0  1  0.26939700  0.59921800  0.72068500  1
  Si  Si1  1  0.40078200  0.12146700  0.67017900  1
  Si  Si2  1  0.45128800  0.73060300  0.32982100  1
  Si  Si3  1  0.32982100  0.45128800  0.73060300  1
  Si  Si4  1  0.27931500  0.54871200  0.87853300  1
  Si  Si5  1  0.12146700  0.67017900  0.40078200  1
  Si  Si6  1  0.87853300  0.27931500  0.54871200  1
  Si  Si7  1  0.54871200  0.27931500  0.87853300  1
  Si  Si8  1  0.67017900  0.12146700  0.40078200  1
  Si  Si9  1  0.32982100  0.73060300  0.45128800  1
  Si  Si10  1  0.40078200  0.67017900  0.12146700  1
  Si  Si11  1  0.27931500  0.87853300  0.54871200  1
  Si  Si12  1  0.45128800  0.32982100  0.73060300  1
  Si  Si13  1  0.59921800  0.72068500  0.26939700  1
  Si  Si14  1  0.72068500  0.26939700  0.59921800  1
  Si  Si15  1  0.87853300  0.54871200  0.27931500  1
  Si  Si16  1  0.12146700  0.40078200  0.67017900  1
  Si  Si17  1  0.73060300  0.45128800  0.32982100  1
  Si  Si18  1  0.73060300  0.32982100  0.45128800  1
  Si  Si19  1  0.26939700  0.72068500  0.59921800  1
  Si  Si20  1  0.72068500  0.59921800  0.26939700  1
  Si  Si21  1  0.67017900  0.40078200  0.12146700  1
  Si  Si22  1  0.59921800  0.26939700  0.72068500  1
  Si  Si23  1  0.54871200  0.87853300  0.27931500  1
  O  O24  1  0.28635300  0.69240000  0.69240000  1
  O  O25  1  0.30760000  0.00000000  0.59395200  1
  O  O26  1  0.40604800  0.71364700  0.40604800  1
  O  O27  1  0.40604800  0.40604800  0.71364700  1
  O  O28  1  0.30760000  0.59395200  0.00000000  1
  O  O29  1  0.00000000  0.59395200  0.30760000  1
  O  O30  1  0.00000000  0.30760000  0.59395200  1
  O  O31  1  0.59395200  0.30760000  0.00000000  1
  O  O32  1  0.59395200  0.00000000  0.30760000  1
  O  O33  1  0.69240000  0.69240000  0.28635300  1
  O  O34  1  0.69240000  0.28635300  0.69240000  1
  O  O35  1  0.71364700  0.40604800  0.40604800  1
  O  O36  1  0.29628700  0.64101100  0.84434800  1
  O  O37  1  0.35898900  0.20333700  0.65527600  1
  O  O38  1  0.54806100  0.70371300  0.34472400  1
  O  O39  1  0.34472400  0.54806100  0.70371300  1
  O  O40  1  0.15565200  0.45193900  0.79666300  1
  O  O41  1  0.20333700  0.65527600  0.35898900  1
  O  O42  1  0.79666300  0.15565200  0.45193900  1
  O  O43  1  0.45193900  0.15565200  0.79666300  1
  O  O44  1  0.65527600  0.20333700  0.35898900  1
  O  O45  1  0.34472400  0.70371300  0.54806100  1
  O  O46  1  0.35898900  0.65527600  0.20333700  1
  O  O47  1  0.15565200  0.79666300  0.45193900  1
  O  O48  1  0.54806100  0.34472400  0.70371300  1
  O  O49  1  0.64101100  0.84434800  0.29628700  1
  O  O50  1  0.84434800  0.29628700  0.64101100  1
  O  O51  1  0.79666300  0.45193900  0.15565200  1
  O  O52  1  0.20333700  0.35898900  0.65527600  1
  O  O53  1  0.70371300  0.54806100  0.34472400  1
  O  O54  1  0.70371300  0.34472400  0.54806100  1
  O  O55  1  0.29628700  0.84434800  0.64101100  1
  O  O56  1  0.84434800  0.64101100  0.29628700  1
  O  O57  1  0.65527600  0.35898900  0.20333700  1
  O  O58  1  0.64101100  0.29628700  0.84434800  1
  O  O59  1  0.45193900  0.79666300  0.15565200  1
  O  O60  1  0.14635700  0.50000000  0.64635700  1
  O  O61  1  0.50000000  0.14635700  0.64635700  1
  O  O62  1  0.50000000  0.85364300  0.35364300  1
  O  O63  1  0.35364300  0.50000000  0.85364300  1
  O  O64  1  0.14635700  0.64635700  0.50000000  1
  O  O65  1  0.85364300  0.35364300  0.50000000  1
  O  O66  1  0.50000000  0.35364300  0.85364300  1
  O  O67  1  0.64635700  0.14635700  0.50000000  1
  O  O68  1  0.35364300  0.85364300  0.50000000  1
  O  O69  1  0.50000000  0.64635700  0.14635700  1
  O  O70  1  0.85364300  0.50000000  0.35364300  1
  O  O71  1  0.64635700  0.50000000  0.14635700  1
