# generated using pymatgen
data_H7CSeN3O4
_symmetry_space_group_name_H-M   'P 1'
_cell_length_a   6.02823400
_cell_length_b   9.18951700
_cell_length_c   18.11724212
_cell_angle_alpha   65.84991737
_cell_angle_beta   90.00000000
_cell_angle_gamma   90.00000000
_symmetry_Int_Tables_number   1
_chemical_formula_structural   H7CSeN3O4
_chemical_formula_sum   'H28 C4 Se4 N12 O16'
_cell_volume   915.79181296
_cell_formula_units_Z   4
loop_
 _symmetry_equiv_pos_site_id
 _symmetry_equiv_pos_as_xyz
  1  'x, y, z'
loop_
 _atom_site_type_symbol
 _atom_site_label
 _atom_site_symmetry_multiplicity
 _atom_site_fract_x
 _atom_site_fract_y
 _atom_site_fract_z
 _atom_site_occupancy
  H  H0  1  0.40631100  0.77041000  0.21952300  1
  H  H1  1  0.59486900  0.06592700  0.14186800  1
  H  H2  1  0.59368900  0.22959000  0.78047700  1
  H  H3  1  0.32220200  0.58412500  0.26241900  1
  H  H4  1  0.28117200  0.71783800  0.79184100  1
  H  H5  1  0.89683400  0.60551400  0.62156500  1
  H  H6  1  0.09368900  0.77041000  0.71952300  1
  H  H7  1  0.70947600  0.79064700  0.75639300  1
  H  H8  1  0.71882800  0.28216200  0.20815900  1
  H  H9  1  0.20947600  0.20935300  0.74360700  1
  H  H10  1  0.90513100  0.06592700  0.64186800  1
  H  H11  1  0.60316600  0.60551400  0.12156500  1
  H  H12  1  0.78117200  0.28216200  0.70815900  1
  H  H13  1  0.17779800  0.58412500  0.76241900  1
  H  H14  1  0.29052400  0.20935300  0.24360700  1
  H  H15  1  0.40513100  0.93407300  0.85813200  1
  H  H16  1  0.10316600  0.39448600  0.37843500  1
  H  H17  1  0.64584600  0.14660000  0.54515100  1
  H  H18  1  0.14584600  0.85340000  0.95484900  1
  H  H19  1  0.21882800  0.71783800  0.29184100  1
  H  H20  1  0.82220200  0.41587500  0.23758100  1
  H  H21  1  0.35415400  0.85340000  0.45484900  1
  H  H22  1  0.67779800  0.41587500  0.73758100  1
  H  H23  1  0.90631100  0.22959000  0.28047700  1
  H  H24  1  0.85415400  0.14660000  0.04515100  1
  H  H25  1  0.79052400  0.79064700  0.25639300  1
  H  H26  1  0.09486900  0.93407300  0.35813200  1
  H  H27  1  0.39683400  0.39448600  0.87843500  1
  C  C28  1  0.56230400  0.17839000  0.08971900  1
  C  C29  1  0.93769600  0.17839000  0.58971900  1
  C  C30  1  0.43769600  0.82161000  0.91028100  1
  C  C31  1  0.06230400  0.82161000  0.41028100  1
  Se  Se32  1  0.42518700  0.28125300  0.34829100  1
  Se  Se33  1  0.07481300  0.28125300  0.84829100  1
  Se  Se34  1  0.92518700  0.71874700  0.15170900  1
  Se  Se35  1  0.57481300  0.71874700  0.65170900  1
  N  N36  1  0.26910300  0.70052400  0.24219300  1
  N  N37  1  0.21996900  0.77564000  0.46768000  1
  N  N38  1  0.37610200  0.26864000  0.07962400  1
  N  N39  1  0.87610200  0.73136000  0.42037600  1
  N  N40  1  0.76910300  0.29947600  0.25780700  1
  N  N41  1  0.28003100  0.77564000  0.96768000  1
  N  N42  1  0.78003100  0.22436000  0.53232000  1
  N  N43  1  0.23089700  0.70052400  0.74219300  1
  N  N44  1  0.73089700  0.29947600  0.75780700  1
  N  N45  1  0.62389800  0.73136000  0.92037600  1
  N  N46  1  0.71996900  0.22436000  0.03232000  1
  N  N47  1  0.12389800  0.26864000  0.57962400  1
  O  O48  1  0.79270100  0.84475600  0.19685000  1
  O  O49  1  0.32102400  0.29268200  0.90685000  1
  O  O50  1  0.82102400  0.70731800  0.59315000  1
  O  O51  1  0.77403000  0.34572600  0.46676200  1
  O  O52  1  0.29270100  0.15524400  0.30315000  1
  O  O53  1  0.70729900  0.84475600  0.69685000  1
  O  O54  1  0.74091700  0.78751900  0.36165000  1
  O  O55  1  0.27403000  0.65427400  0.03323800  1
  O  O56  1  0.72597000  0.34572600  0.96676200  1
  O  O57  1  0.24091700  0.21248100  0.13835000  1
  O  O58  1  0.75908300  0.78751900  0.86165000  1
  O  O59  1  0.67897600  0.70731800  0.09315000  1
  O  O60  1  0.25908300  0.21248100  0.63835000  1
  O  O61  1  0.17897600  0.29268200  0.40685000  1
  O  O62  1  0.20729900  0.15524400  0.80315000  1
  O  O63  1  0.22597000  0.65427400  0.53323800  1
