# generated using pymatgen
data_AgMo4H22C8(NO5)3
_symmetry_space_group_name_H-M   'P 1'
_cell_length_a   10.20740100
_cell_length_b   10.73796481
_cell_length_c   12.05634488
_cell_angle_alpha   85.66834908
_cell_angle_beta   114.40087943
_cell_angle_gamma   110.15055577
_symmetry_Int_Tables_number   1
_chemical_formula_structural   AgMo4H22C8(NO5)3
_chemical_formula_sum   'Ag2 Mo8 H44 C16 N6 O30'
_cell_volume   1126.30743159
_cell_formula_units_Z   2
loop_
 _symmetry_equiv_pos_site_id
 _symmetry_equiv_pos_as_xyz
  1  'x, y, z'
loop_
 _atom_site_type_symbol
 _atom_site_label
 _atom_site_symmetry_multiplicity
 _atom_site_fract_x
 _atom_site_fract_y
 _atom_site_fract_z
 _atom_site_occupancy
  Ag  Ag0  1  0.48598400  0.96976600  0.62089900  1
  Ag  Ag1  1  0.51401600  0.03023400  0.37910100  1
  Mo  Mo2  1  0.70318700  0.75286600  0.57769100  1
  Mo  Mo3  1  0.71923200  0.82072400  0.30890500  1
  Mo  Mo4  1  0.08734900  0.93457300  0.31583700  1
  Mo  Mo5  1  0.91265100  0.06542700  0.68416300  1
  Mo  Mo6  1  0.29681300  0.24713400  0.42230900  1
  Mo  Mo7  1  0.06957400  0.87319200  0.57894300  1
  Mo  Mo8  1  0.28076800  0.17927600  0.69109500  1
  Mo  Mo9  1  0.93042600  0.12680800  0.42105700  1
  H  H10  1  0.93067300  0.51004800  0.15797800  1
  H  H11  1  0.39712800  0.70094600  0.73491400  1
  H  H12  1  0.04781100  0.73575100  0.89601400  1
  H  H13  1  0.66015300  0.34147200  0.67175400  1
  H  H14  1  0.62147600  0.43349200  0.16849800  1
  H  H15  1  0.70757900  0.27859700  0.08711000  1
  H  H16  1  0.90537200  0.58469200  0.27217800  1
  H  H17  1  0.16221200  0.47452600  0.48748100  1
  H  H18  1  0.62769500  0.53222100  0.97879100  1
  H  H19  1  0.36408100  0.89688800  0.90423400  1
  H  H20  1  0.46878300  0.82044400  0.03213800  1
  H  H21  1  0.19724000  0.33431200  0.99316100  1
  H  H22  1  0.09462800  0.41530800  0.72782200  1
  H  H23  1  0.28804800  0.44629600  0.12768300  1
  H  H24  1  0.33984700  0.65852800  0.32824600  1
  H  H25  1  0.55697700  0.44121800  0.28367300  1
  H  H26  1  0.71195200  0.55370400  0.87231700  1
  H  H27  1  0.32721400  0.92634700  0.08712300  1
  H  H28  1  0.83778800  0.52547400  0.51251900  1
  H  H29  1  0.91201700  0.41936900  0.28539100  1
  H  H30  1  0.30809800  0.63004300  0.49662900  1
  H  H31  1  0.06932700  0.48995200  0.84202200  1
  H  H32  1  0.74252900  0.24241300  0.90671600  1
  H  H33  1  0.88143800  0.08766200  0.10928900  1
  H  H34  1  0.95218900  0.26424900  0.10398600  1
  H  H35  1  0.37230500  0.46777900  0.02120900  1
  H  H36  1  0.69190200  0.36995700  0.50337100  1
  H  H37  1  0.78526900  0.86163100  0.95751100  1
  H  H38  1  0.08798300  0.58063100  0.71460900  1
  H  H39  1  0.29242100  0.72140300  0.91289000  1
  H  H40  1  0.80276000  0.66568800  0.00683900  1
  H  H41  1  0.37852400  0.56650800  0.83150200  1
  H  H42  1  0.87030600  0.37252100  0.51046000  1
  H  H43  1  0.12969400  0.62747900  0.48954000  1
  H  H44  1  0.67278600  0.07365300  0.91287700  1
  H  H45  1  0.05260500  0.84171700  0.00674500  1
  H  H46  1  0.44302300  0.55878200  0.71632700  1
  H  H47  1  0.60287200  0.29905400  0.26508600  1
  H  H48  1  0.53121700  0.17955600  0.96786200  1
  H  H49  1  0.25747100  0.75758700  0.09328400  1
  H  H50  1  0.63591900  0.10311200  0.09576600  1
  H  H51  1  0.94739500  0.15828300  0.99325500  1
  H  H52  1  0.11856200  0.91233800  0.89071100  1
  H  H53  1  0.21473100  0.13836900  0.04248900  1
  C  C54  1  0.04193500  0.48189600  0.74416400  1
  C  C55  1  0.81573300  0.42434100  0.54339200  1
  C  C56  1  0.69235900  0.60675800  0.93519700  1
  C  C57  1  0.78288400  0.38119500  0.73374500  1
  C  C58  1  0.55362700  0.37397900  0.21744900  1
  C  C59  1  0.64512600  0.18220300  0.03345000  1
  C  C60  1  0.66574400  0.82491400  0.88819500  1
  C  C61  1  0.35487400  0.81779700  0.96655000  1
  C  C62  1  0.11068100  0.83128200  0.95106800  1
  C  C63  1  0.44637300  0.62602100  0.78255100  1
  C  C64  1  0.33425600  0.17508600  0.11180500  1
  C  C65  1  0.18426700  0.57565900  0.45660800  1
  C  C66  1  0.95806500  0.51810400  0.25583600  1
  C  C67  1  0.21711600  0.61880500  0.26625500  1
  C  C68  1  0.30764100  0.39324200  0.06480300  1
  C  C69  1  0.88931900  0.16871800  0.04893200  1
  N  N70  1  0.87599100  0.42857600  0.67649400  1
  N  N71  1  0.12400900  0.57142400  0.32350600  1
  N  N72  1  0.39552000  0.30760600  0.13065300  1
  N  N73  1  0.60448000  0.69239400  0.86934700  1
  N  N74  1  0.73172700  0.16493700  0.96589000  1
  N  N75  1  0.26827300  0.83506300  0.03411000  1
  O  O76  1  0.54851200  0.81296200  0.52776500  1
  O  O77  1  0.43482400  0.12182000  0.73337200  1
  O  O78  1  0.82689900  0.38001200  0.84796200  1
  O  O79  1  0.25876000  0.90026600  0.38031800  1
  O  O80  1  0.00995100  0.14366000  0.83009700  1
  O  O81  1  0.64567600  0.60729900  0.64199100  1
  O  O82  1  0.87110400  0.99103700  0.29014600  1
  O  O83  1  0.56517600  0.87818000  0.26662800  1
  O  O84  1  0.06143000  0.25555400  0.37615400  1
  O  O85  1  0.97279900  0.80755600  0.40480600  1
  O  O86  1  0.67758000  0.69179800  0.41919000  1
  O  O87  1  0.93857000  0.74444600  0.62384600  1
  O  O88  1  0.16458000  0.11579800  0.28266800  1
  O  O89  1  0.32242000  0.30820200  0.58081000  1
  O  O90  1  0.17310100  0.61998800  0.15203800  1
  O  O91  1  0.35432400  0.39270100  0.35800900  1
  O  O92  1  0.45148800  0.18703800  0.47223500  1
  O  O93  1  0.23473100  0.83244200  0.63162300  1
  O  O94  1  0.40184100  0.09399800  0.16353700  1
  O  O95  1  0.59815900  0.90600200  0.83646300  1
  O  O96  1  0.02720100  0.19244400  0.59519400  1
  O  O97  1  0.12889600  0.00896300  0.70985400  1
  O  O98  1  0.67794400  0.72327800  0.18308800  1
  O  O99  1  0.85695500  0.94831800  0.50198200  1
  O  O100  1  0.76526900  0.16755800  0.36837700  1
  O  O101  1  0.32205600  0.27672200  0.81691200  1
  O  O102  1  0.14304500  0.05168200  0.49801800  1
  O  O103  1  0.74124000  0.09973400  0.61968200  1
  O  O104  1  0.99004900  0.85634000  0.16990300  1
  O  O105  1  0.83542000  0.88420200  0.71733200  1
