# generated using pymatgen
data_CuH2(CO2)2
_symmetry_space_group_name_H-M   'P 1'
_cell_length_a   6.76561700
_cell_length_b   11.48053000
_cell_length_c   12.12011800
_cell_angle_alpha   90.00000000
_cell_angle_beta   90.00000000
_cell_angle_gamma   90.00000000
_symmetry_Int_Tables_number   1
_chemical_formula_structural   CuH2(CO2)2
_chemical_formula_sum   'Cu8 H16 C16 O32'
_cell_volume   941.40433692
_cell_formula_units_Z   8
loop_
 _symmetry_equiv_pos_site_id
 _symmetry_equiv_pos_as_xyz
  1  'x, y, z'
loop_
 _atom_site_type_symbol
 _atom_site_label
 _atom_site_symmetry_multiplicity
 _atom_site_fract_x
 _atom_site_fract_y
 _atom_site_fract_z
 _atom_site_occupancy
  Cu  Cu0  1  0.70518100  0.88704600  0.48016800  1
  Cu  Cu1  1  0.70518100  0.38704600  0.01983200  1
  Cu  Cu2  1  0.79481900  0.88704600  0.98016800  1
  Cu  Cu3  1  0.20518100  0.11295400  0.01983200  1
  Cu  Cu4  1  0.20518100  0.61295400  0.48016800  1
  Cu  Cu5  1  0.79481900  0.38704600  0.51983200  1
  Cu  Cu6  1  0.29481900  0.11295400  0.51983200  1
  Cu  Cu7  1  0.29481900  0.61295400  0.98016800  1
  H  H8  1  0.48102000  0.82885500  0.21223900  1
  H  H9  1  0.48102000  0.32885500  0.28776100  1
  H  H10  1  0.98102000  0.67114500  0.21223900  1
  H  H11  1  0.51898000  0.67114500  0.71223900  1
  H  H12  1  0.01898000  0.82885500  0.71223900  1
  H  H13  1  0.51898000  0.17114500  0.78776100  1
  H  H14  1  0.56293600  0.65601600  0.41634300  1
  H  H15  1  0.93706400  0.65601600  0.91634300  1
  H  H16  1  0.56293600  0.15601600  0.08365700  1
  H  H17  1  0.98102000  0.17114500  0.28776100  1
  H  H18  1  0.43706400  0.84398400  0.91634300  1
  H  H19  1  0.06293600  0.34398400  0.08365700  1
  H  H20  1  0.43706400  0.34398400  0.58365700  1
  H  H21  1  0.06293600  0.84398400  0.41634300  1
  H  H22  1  0.01898000  0.32885500  0.78776100  1
  H  H23  1  0.93706400  0.15601600  0.58365700  1
  C  C24  1  0.16235500  0.61269900  0.32089800  1
  C  C25  1  0.66235500  0.88730100  0.32089800  1
  C  C26  1  0.18117100  0.85584700  0.47795900  1
  C  C27  1  0.33764500  0.61269900  0.82089800  1
  C  C28  1  0.66235500  0.38730100  0.17910200  1
  C  C29  1  0.83764500  0.88730100  0.82089800  1
  C  C30  1  0.16235500  0.11269900  0.17910200  1
  C  C31  1  0.18117100  0.35584700  0.02204100  1
  C  C32  1  0.68117100  0.14415300  0.02204100  1
  C  C33  1  0.68117100  0.64415300  0.47795900  1
  C  C34  1  0.81882900  0.64415300  0.97795900  1
  C  C35  1  0.81882900  0.14415300  0.52204100  1
  C  C36  1  0.31882900  0.35584700  0.52204100  1
  C  C37  1  0.83764500  0.38730100  0.67910200  1
  C  C38  1  0.31882900  0.85584700  0.97795900  1
  C  C39  1  0.33764500  0.11269900  0.67910200  1
  O  O40  1  0.52304800  0.31050300  0.21194200  1
  O  O41  1  0.52304800  0.81050300  0.28805800  1
  O  O42  1  0.74215700  0.04528700  0.51152900  1
  O  O43  1  0.74215700  0.54528700  0.98847100  1
  O  O44  1  0.76324100  0.73287900  0.03401200  1
  O  O45  1  0.74404400  0.45680900  0.24010600  1
  O  O46  1  0.24215700  0.95471300  0.98847100  1
  O  O47  1  0.23675900  0.76712100  0.53401200  1
  O  O48  1  0.25595600  0.04319100  0.74010600  1
  O  O49  1  0.26324100  0.26712100  0.46598800  1
  O  O50  1  0.73675900  0.23287900  0.96598800  1
  O  O51  1  0.47695200  0.18949700  0.71194200  1
  O  O52  1  0.25784300  0.45471300  0.01152900  1
  O  O53  1  0.47695200  0.68949700  0.78805800  1
  O  O54  1  0.75595600  0.95680900  0.75989400  1
  O  O55  1  0.74404400  0.95680900  0.25989400  1
  O  O56  1  0.23675900  0.26712100  0.96598800  1
  O  O57  1  0.97695200  0.81050300  0.78805800  1
  O  O58  1  0.25595600  0.54319100  0.75989400  1
  O  O59  1  0.25784300  0.95471300  0.48847100  1
  O  O60  1  0.73675900  0.73287900  0.53401200  1
  O  O61  1  0.75784300  0.54528700  0.48847100  1
  O  O62  1  0.24404400  0.54319100  0.25989400  1
  O  O63  1  0.26324100  0.76712100  0.03401200  1
  O  O64  1  0.24215700  0.45471300  0.51152900  1
  O  O65  1  0.75784300  0.04528700  0.01152900  1
  O  O66  1  0.75595600  0.45680900  0.74010600  1
  O  O67  1  0.02304800  0.68949700  0.28805800  1
  O  O68  1  0.02304800  0.18949700  0.21194200  1
  O  O69  1  0.24404400  0.04319100  0.24010600  1
  O  O70  1  0.76324100  0.23287900  0.46598800  1
  O  O71  1  0.97695200  0.31050300  0.71194200  1
