# generated using pymatgen
data_FeH24C8(NCl2)2
_symmetry_space_group_name_H-M   'P 1'
_cell_length_a   9.16587100
_cell_length_b   12.54309200
_cell_length_c   15.63704600
_cell_angle_alpha   90.00000000
_cell_angle_beta   90.00000000
_cell_angle_gamma   90.00000000
_symmetry_Int_Tables_number   1
_chemical_formula_structural   FeH24C8(NCl2)2
_chemical_formula_sum   'Fe4 H96 C32 N8 Cl16'
_cell_volume   1797.76558411
_cell_formula_units_Z   4
loop_
 _symmetry_equiv_pos_site_id
 _symmetry_equiv_pos_as_xyz
  1  'x, y, z'
loop_
 _atom_site_type_symbol
 _atom_site_label
 _atom_site_symmetry_multiplicity
 _atom_site_fract_x
 _atom_site_fract_y
 _atom_site_fract_z
 _atom_site_occupancy
  Fe  Fe0  1  0.75000000  0.25563300  0.09304000  1
  Fe  Fe1  1  0.25000000  0.24436700  0.59304000  1
  Fe  Fe2  1  0.25000000  0.74436700  0.90696000  1
  Fe  Fe3  1  0.75000000  0.75563300  0.40696000  1
  H  H4  1  0.65236100  0.60486500  0.73221900  1
  H  H5  1  0.84855200  0.85992500  0.97629400  1
  H  H6  1  0.52041100  0.85739800  0.11254800  1
  H  H7  1  0.88435700  0.97711200  0.14289200  1
  H  H8  1  0.62301800  0.36151000  0.28932700  1
  H  H9  1  0.65236100  0.10486500  0.76778100  1
  H  H10  1  0.38435700  0.02288800  0.85710800  1
  H  H11  1  0.12301800  0.13849000  0.78932700  1
  H  H12  1  0.60980300  0.88036200  0.70774600  1
  H  H13  1  0.12521200  0.59387100  0.09508300  1
  H  H14  1  0.34818800  0.79585600  0.56557800  1
  H  H15  1  0.34818800  0.29585600  0.93442200  1
  H  H16  1  0.15236100  0.89513500  0.23221900  1
  H  H17  1  0.37698200  0.63849000  0.71067300  1
  H  H18  1  0.87478800  0.90612900  0.59508300  1
  H  H19  1  0.02041100  0.64260200  0.61254800  1
  H  H20  1  0.51892000  0.49301600  0.83836100  1
  H  H21  1  0.15144800  0.14007500  0.02370600  1
  H  H22  1  0.84782700  0.14860100  0.62116700  1
  H  H23  1  0.37478800  0.09387100  0.40491700  1
  H  H24  1  0.75000000  0.20357800  0.33446000  1
  H  H25  1  0.88435700  0.47711200  0.35710800  1
  H  H26  1  0.75000000  0.06621500  0.54500500  1
  H  H27  1  0.15144800  0.64007500  0.47629400  1
  H  H28  1  0.75000000  0.99128200  0.80899400  1
  H  H29  1  0.12521200  0.09387100  0.40491700  1
  H  H30  1  0.87478800  0.40612900  0.90491700  1
  H  H31  1  0.34855200  0.64007500  0.47629400  1
  H  H32  1  0.84855200  0.35992500  0.52370600  1
  H  H33  1  0.65217300  0.14860100  0.62116700  1
  H  H34  1  0.25000000  0.79642200  0.66554000  1
  H  H35  1  0.11564300  0.52288800  0.64289200  1
  H  H36  1  0.65217300  0.64860100  0.87883300  1
  H  H37  1  0.34782700  0.35139900  0.12116700  1
  H  H38  1  0.75000000  0.70357800  0.16554000  1
  H  H39  1  0.98108000  0.99301600  0.66163900  1
  H  H40  1  0.25000000  0.43378500  0.04500500  1
  H  H41  1  0.98108000  0.49301600  0.83836100  1
  H  H42  1  0.60980300  0.38036200  0.79225400  1
  H  H43  1  0.25000000  0.29642200  0.83446000  1
  H  H44  1  0.65181200  0.70414400  0.06557800  1
  H  H45  1  0.15217300  0.35139900  0.12116700  1
  H  H46  1  0.34763900  0.39513500  0.26778100  1
  H  H47  1  0.48108000  0.00698400  0.33836100  1
  H  H48  1  0.02041100  0.14260200  0.88745200  1
  H  H49  1  0.34763900  0.89513500  0.23221900  1
  H  H50  1  0.15236100  0.39513500  0.26778100  1
  H  H51  1  0.10980300  0.61963800  0.20774600  1
  H  H52  1  0.89019700  0.88036200  0.70774600  1
  H  H53  1  0.61564300  0.97711200  0.14289200  1
  H  H54  1  0.62301800  0.86151000  0.21067300  1
  H  H55  1  0.25000000  0.52245300  0.50766200  1
  H  H56  1  0.52041100  0.35739800  0.38745200  1
  H  H57  1  0.87698200  0.86151000  0.21067300  1
  H  H58  1  0.25000000  0.93378500  0.45499500  1
  H  H59  1  0.25000000  0.00871800  0.19100600  1
  H  H60  1  0.61564300  0.47711200  0.35710800  1
  H  H61  1  0.01892000  0.50698400  0.16163900  1
  H  H62  1  0.65144800  0.85992500  0.97629400  1
  H  H63  1  0.65181200  0.20414400  0.43442200  1
  H  H64  1  0.48108000  0.50698400  0.16163900  1
  H  H65  1  0.84818800  0.20414400  0.43442200  1
  H  H66  1  0.97958900  0.35739800  0.38745200  1
  H  H67  1  0.12301800  0.63849000  0.71067300  1
  H  H68  1  0.51892000  0.99301600  0.66163900  1
  H  H69  1  0.37698200  0.13849000  0.78932700  1
  H  H70  1  0.65144800  0.35992500  0.52370600  1
  H  H71  1  0.75000000  0.56621500  0.95499500  1
  H  H72  1  0.84763900  0.10486500  0.76778100  1
  H  H73  1  0.47958900  0.14260200  0.88745200  1
  H  H74  1  0.84782700  0.64860100  0.87883300  1
  H  H75  1  0.62521200  0.40612900  0.90491700  1
  H  H76  1  0.39019700  0.11963800  0.29225400  1
  H  H77  1  0.10980300  0.11963800  0.29225400  1
  H  H78  1  0.75000000  0.49128200  0.69100600  1
  H  H79  1  0.01892000  0.00698400  0.33836100  1
  H  H80  1  0.15181200  0.79585600  0.56557800  1
  H  H81  1  0.84763900  0.60486500  0.73221900  1
  H  H82  1  0.47958900  0.64260200  0.61254800  1
  H  H83  1  0.15181200  0.29585600  0.93442200  1
  H  H84  1  0.34855200  0.14007500  0.02370600  1
  H  H85  1  0.89019700  0.38036200  0.79225400  1
  H  H86  1  0.87698200  0.36151000  0.28932700  1
  H  H87  1  0.62521200  0.90612900  0.59508300  1
  H  H88  1  0.25000000  0.50871800  0.30899400  1
  H  H89  1  0.25000000  0.02245300  0.99233800  1
  H  H90  1  0.39019700  0.61963800  0.20774600  1
  H  H91  1  0.15217300  0.85139900  0.37883300  1
  H  H92  1  0.84818800  0.70414400  0.06557800  1
  H  H93  1  0.11564300  0.02288800  0.85710800  1
  H  H94  1  0.97958900  0.85739800  0.11254800  1
  H  H95  1  0.75000000  0.47754700  0.49233800  1
  H  H96  1  0.34782700  0.85139900  0.37883300  1
  H  H97  1  0.75000000  0.97754700  0.00766200  1
  H  H98  1  0.37478800  0.59387100  0.09508300  1
  H  H99  1  0.38435700  0.52288800  0.64289200  1
  C  C100  1  0.61621800  0.44238700  0.84155000  1
  C  C101  1  0.38283700  0.61020200  0.64450400  1
  C  C102  1  0.88378200  0.94238700  0.65845000  1
  C  C103  1  0.38378200  0.55761300  0.15845000  1
  C  C104  1  0.25000000  0.44489300  0.26131300  1
  C  C105  1  0.25000000  0.10971900  0.99202100  1
  C  C106  1  0.75000000  0.55510700  0.73868700  1
  C  C107  1  0.25000000  0.26879300  0.90112500  1
  C  C108  1  0.75000000  0.05510700  0.76131300  1
  C  C109  1  0.25000000  0.89980400  0.39022900  1
  C  C110  1  0.61716300  0.88979800  0.14450400  1
  C  C111  1  0.11716300  0.61020200  0.64450400  1
  C  C112  1  0.25000000  0.60971900  0.50797900  1
  C  C113  1  0.75000000  0.10019600  0.60977100  1
  C  C114  1  0.88283700  0.38979800  0.35549600  1
  C  C115  1  0.25000000  0.76879300  0.59887500  1
  C  C116  1  0.11716300  0.11020200  0.85549600  1
  C  C117  1  0.61621800  0.94238700  0.65845000  1
  C  C118  1  0.75000000  0.89028100  0.00797900  1
  C  C119  1  0.75000000  0.60019600  0.89022900  1
  C  C120  1  0.75000000  0.73120700  0.09887500  1
  C  C121  1  0.25000000  0.39980400  0.10977100  1
  C  C122  1  0.88378200  0.44238700  0.84155000  1
  C  C123  1  0.88283700  0.88979800  0.14450400  1
  C  C124  1  0.38283700  0.11020200  0.85549600  1
  C  C125  1  0.75000000  0.23120700  0.40112500  1
  C  C126  1  0.11621800  0.05761300  0.34155000  1
  C  C127  1  0.11621800  0.55761300  0.15845000  1
  C  C128  1  0.75000000  0.39028100  0.49202100  1
  C  C129  1  0.61716300  0.38979800  0.35549600  1
  C  C130  1  0.38378200  0.05761300  0.34155000  1
  C  C131  1  0.25000000  0.94489300  0.23868700  1
  N  N132  1  0.75000000  0.85074300  0.09866200  1
  N  N133  1  0.75000000  0.50936300  0.82746700  1
  N  N134  1  0.25000000  0.14925700  0.90133800  1
  N  N135  1  0.75000000  0.00936300  0.67253300  1
  N  N136  1  0.25000000  0.99063700  0.32746700  1
  N  N137  1  0.25000000  0.64925700  0.59866200  1
  N  N138  1  0.75000000  0.35074300  0.40133800  1
  N  N139  1  0.25000000  0.49063700  0.17253300  1
  Cl  Cl140  1  0.25000000  0.31458400  0.45989400  1
  Cl  Cl141  1  0.45686900  0.80023600  0.84151500  1
  Cl  Cl142  1  0.04313100  0.30023600  0.65848500  1
  Cl  Cl143  1  0.25000000  0.56466000  0.90302500  1
  Cl  Cl144  1  0.95686900  0.69976400  0.34151500  1
  Cl  Cl145  1  0.54313100  0.69976400  0.34151500  1
  Cl  Cl146  1  0.75000000  0.68541600  0.54010600  1
  Cl  Cl147  1  0.45686900  0.30023600  0.65848500  1
  Cl  Cl148  1  0.04313100  0.80023600  0.84151500  1
  Cl  Cl149  1  0.75000000  0.93534000  0.40302500  1
  Cl  Cl150  1  0.75000000  0.18541600  0.95989400  1
  Cl  Cl151  1  0.25000000  0.06466000  0.59697500  1
  Cl  Cl152  1  0.95686900  0.19976400  0.15848500  1
  Cl  Cl153  1  0.54313100  0.19976400  0.15848500  1
  Cl  Cl154  1  0.75000000  0.43534000  0.09697500  1
  Cl  Cl155  1  0.25000000  0.81458400  0.04010600  1
