# generated using pymatgen
data_VH4(CO3)2
_symmetry_space_group_name_H-M   'P 1'
_cell_length_a   7.52714900
_cell_length_b   8.49113400
_cell_length_c   8.62610700
_cell_angle_alpha   90.00000000
_cell_angle_beta   90.00000000
_cell_angle_gamma   90.00000000
_symmetry_Int_Tables_number   1
_chemical_formula_structural   VH4(CO3)2
_chemical_formula_sum   'V4 H16 C8 O24'
_cell_volume   551.32926846
_cell_formula_units_Z   4
loop_
 _symmetry_equiv_pos_site_id
 _symmetry_equiv_pos_as_xyz
  1  'x, y, z'
loop_
 _atom_site_type_symbol
 _atom_site_label
 _atom_site_symmetry_multiplicity
 _atom_site_fract_x
 _atom_site_fract_y
 _atom_site_fract_z
 _atom_site_occupancy
  V  V0  1  0.22814700  0.50000000  0.25000000  1
  V  V1  1  0.77185300  0.50000000  0.75000000  1
  V  V2  1  0.77185300  0.00000000  0.25000000  1
  V  V3  1  0.22814700  0.00000000  0.75000000  1
  H  H4  1  0.82432200  0.16989100  0.57278600  1
  H  H5  1  0.59890100  0.07244700  0.80863600  1
  H  H6  1  0.40109900  0.42755300  0.80863600  1
  H  H7  1  0.59890100  0.92755300  0.69136400  1
  H  H8  1  0.17567800  0.83010900  0.42721400  1
  H  H9  1  0.59890100  0.42755300  0.30863600  1
  H  H10  1  0.82432200  0.33010900  0.07278600  1
  H  H11  1  0.40109900  0.57244700  0.69136400  1
  H  H12  1  0.17567800  0.66989100  0.92721400  1
  H  H13  1  0.82432200  0.83010900  0.92721400  1
  H  H14  1  0.40109900  0.92755300  0.19136400  1
  H  H15  1  0.17567800  0.16989100  0.07278600  1
  H  H16  1  0.82432200  0.66989100  0.42721400  1
  H  H17  1  0.17567800  0.33010900  0.57278600  1
  H  H18  1  0.40109900  0.07244700  0.30863600  1
  H  H19  1  0.59890100  0.57244700  0.19136400  1
  C  C20  1  0.23574500  0.24427100  0.49244700  1
  C  C21  1  0.76425500  0.75572900  0.50755300  1
  C  C22  1  0.23574500  0.25572900  0.99244700  1
  C  C23  1  0.76425500  0.74427100  0.00755300  1
  C  C24  1  0.23574500  0.74427100  0.50755300  1
  C  C25  1  0.76425500  0.24427100  0.99244700  1
  C  C26  1  0.23574500  0.75572900  0.00755300  1
  C  C27  1  0.76425500  0.25572900  0.49244700  1
  O  O28  1  0.47726200  0.50000000  0.75000000  1
  O  O29  1  0.47726200  0.00000000  0.25000000  1
  O  O30  1  0.01119800  0.50000000  0.25000000  1
  O  O31  1  0.26774300  0.39514100  0.03740500  1
  O  O32  1  0.72540900  0.21388200  0.35440300  1
  O  O33  1  0.72540900  0.78611800  0.14559700  1
  O  O34  1  0.72540900  0.28611800  0.85440300  1
  O  O35  1  0.73225700  0.10485900  0.03740500  1
  O  O36  1  0.27459100  0.78611800  0.64559700  1
  O  O37  1  0.27459100  0.71388200  0.14559700  1
  O  O38  1  0.26774300  0.10485900  0.53740500  1
  O  O39  1  0.73225700  0.39514100  0.53740500  1
  O  O40  1  0.27459100  0.28611800  0.35440300  1
  O  O41  1  0.01119800  0.00000000  0.75000000  1
  O  O42  1  0.72540900  0.71388200  0.64559700  1
  O  O43  1  0.26774300  0.60485900  0.46259500  1
  O  O44  1  0.73225700  0.89514100  0.46259500  1
  O  O45  1  0.98880200  0.00000000  0.25000000  1
  O  O46  1  0.52273800  0.50000000  0.25000000  1
  O  O47  1  0.98880200  0.50000000  0.75000000  1
  O  O48  1  0.26774300  0.89514100  0.96259500  1
  O  O49  1  0.27459100  0.21388200  0.85440300  1
  O  O50  1  0.73225700  0.60485900  0.96259500  1
  O  O51  1  0.52273800  0.00000000  0.75000000  1
