# generated using pymatgen
data_U2Al20Fe
_symmetry_space_group_name_H-M   'P 1'
_cell_length_a   10.25376588
_cell_length_b   10.25376588
_cell_length_c   10.25376588
_cell_angle_alpha   103.98832252
_cell_angle_beta   103.98832252
_cell_angle_gamma   121.10123140
_symmetry_Int_Tables_number   1
_chemical_formula_structural   U2Al20Fe
_chemical_formula_sum   'U4 Al40 Fe2'
_cell_volume   803.83595439
_cell_formula_units_Z   2
loop_
 _symmetry_equiv_pos_site_id
 _symmetry_equiv_pos_as_xyz
  1  'x, y, z'
loop_
 _atom_site_type_symbol
 _atom_site_label
 _atom_site_symmetry_multiplicity
 _atom_site_fract_x
 _atom_site_fract_y
 _atom_site_fract_z
 _atom_site_occupancy
  U  U0  1  0.58588500  0.58588500  0.67507100  1
  U  U1  1  0.41411500  0.08918600  0.00000000  1
  U  U2  1  0.08918600  0.41411500  0.00000000  1
  U  U3  1  0.91081400  0.91081400  0.32492900  1
  Al  Al4  1  0.75074000  0.22509800  0.00000000  1
  Al  Al5  1  0.49316500  0.34638200  0.32592300  1
  Al  Al6  1  0.04233600  0.44903300  0.26986500  1
  Al  Al7  1  0.50000000  0.65274300  0.15274300  1
  Al  Al8  1  0.83275800  0.50683500  0.85321700  1
  Al  Al9  1  0.73584400  0.32305400  0.26820100  1
  Al  Al10  1  0.74318700  0.74318700  0.00000000  1
  Al  Al11  1  0.34638200  0.49316500  0.32592300  1
  Al  Al12  1  0.26415600  0.53235600  0.58721000  1
  Al  Al13  1  0.84895500  0.00000000  0.84895500  1
  Al  Al14  1  0.82083200  0.55096700  0.59330300  1
  Al  Al15  1  0.32305400  0.73584400  0.26820100  1
  Al  Al16  1  0.77247100  0.17916800  0.73013500  1
  Al  Al17  1  0.24926000  0.24926000  0.47435800  1
  Al  Al18  1  0.97954100  0.65361800  0.14678300  1
  Al  Al19  1  0.25681300  0.25681300  0.00000000  1
  Al  Al20  1  0.15104500  0.00000000  0.15104500  1
  Al  Al21  1  0.02045900  0.16724200  0.67407700  1
  Al  Al22  1  0.22509800  0.75074000  0.00000000  1
  Al  Al23  1  0.17916800  0.77247100  0.73013500  1
  Al  Al24  1  0.34725700  0.50000000  0.84725700  1
  Al  Al25  1  0.00000000  0.84895500  0.84895500  1
  Al  Al26  1  0.22752900  0.95766400  0.40669700  1
  Al  Al27  1  0.55096700  0.82083200  0.59330300  1
  Al  Al28  1  0.67694600  0.94514600  0.41279000  1
  Al  Al29  1  0.50683500  0.83275800  0.85321700  1
  Al  Al30  1  0.53235600  0.26415600  0.58721000  1
  Al  Al31  1  0.75000000  0.25000000  0.50000000  1
  Al  Al32  1  0.94514600  0.67694600  0.41279000  1
  Al  Al33  1  0.16724200  0.02045900  0.67407700  1
  Al  Al34  1  0.65274300  0.50000000  0.15274300  1
  Al  Al35  1  0.00000000  0.15104500  0.15104500  1
  Al  Al36  1  0.77490200  0.77490200  0.52564200  1
  Al  Al37  1  0.46764400  0.05485400  0.73179900  1
  Al  Al38  1  0.50000000  0.34725700  0.84725700  1
  Al  Al39  1  0.65361800  0.97954100  0.14678300  1
  Al  Al40  1  0.05485400  0.46764400  0.73179900  1
  Al  Al41  1  0.95766400  0.22752900  0.40669700  1
  Al  Al42  1  0.44903300  0.04233600  0.26986500  1
  Al  Al43  1  0.25000000  0.75000000  0.50000000  1
  Fe  Fe44  1  0.00000000  0.50000000  0.50000000  1
  Fe  Fe45  1  0.50000000  0.00000000  0.50000000  1
