# generated using pymatgen
data_S4N5Cl
_symmetry_space_group_name_H-M   'P 1'
_cell_length_a   5.06448900
_cell_length_b   8.07223000
_cell_length_c   18.21841800
_cell_angle_alpha   90.00000000
_cell_angle_beta   90.00000000
_cell_angle_gamma   90.00000000
_symmetry_Int_Tables_number   1
_chemical_formula_structural   S4N5Cl
_chemical_formula_sum   'S16 N20 Cl4'
_cell_volume   744.80026426
_cell_formula_units_Z   4
loop_
 _symmetry_equiv_pos_site_id
 _symmetry_equiv_pos_as_xyz
  1  'x, y, z'
loop_
 _atom_site_type_symbol
 _atom_site_label
 _atom_site_symmetry_multiplicity
 _atom_site_fract_x
 _atom_site_fract_y
 _atom_site_fract_z
 _atom_site_occupancy
  S  S0  1  0.46726900  0.25000000  0.94905800  1
  S  S1  1  0.59016900  0.75000000  0.20318200  1
  S  S2  1  0.03273100  0.25000000  0.44905800  1
  S  S3  1  0.17053200  0.50497700  0.88141700  1
  S  S4  1  0.32946800  0.99502300  0.38141700  1
  S  S5  1  0.67053200  0.00497700  0.61858300  1
  S  S6  1  0.67053200  0.49502300  0.61858300  1
  S  S7  1  0.40983100  0.25000000  0.79681800  1
  S  S8  1  0.82946800  0.00497700  0.11858300  1
  S  S9  1  0.82946800  0.49502300  0.11858300  1
  S  S10  1  0.53273100  0.75000000  0.05094200  1
  S  S11  1  0.17053200  0.99502300  0.88141700  1
  S  S12  1  0.96726900  0.75000000  0.55094200  1
  S  S13  1  0.32946800  0.50497700  0.38141700  1
  S  S14  1  0.90983100  0.75000000  0.70318200  1
  S  S15  1  0.09016900  0.25000000  0.29681800  1
  N  N16  1  0.75372100  0.58865700  0.54668500  1
  N  N17  1  0.20477400  0.08648300  0.80584600  1
  N  N18  1  0.25372100  0.41134300  0.95331500  1
  N  N19  1  0.79522600  0.91351700  0.19415400  1
  N  N20  1  0.24627900  0.08865700  0.45331500  1
  N  N21  1  0.60673800  0.25000000  0.86845700  1
  N  N22  1  0.79522600  0.58648300  0.19415400  1
  N  N23  1  0.25372100  0.08865700  0.95331500  1
  N  N24  1  0.89326200  0.25000000  0.36845700  1
  N  N25  1  0.74627900  0.58865700  0.04668500  1
  N  N26  1  0.24627900  0.41134300  0.45331500  1
  N  N27  1  0.39326200  0.75000000  0.13154300  1
  N  N28  1  0.29522600  0.41351700  0.30584600  1
  N  N29  1  0.70477400  0.91351700  0.69415400  1
  N  N30  1  0.70477400  0.58648300  0.69415400  1
  N  N31  1  0.74627900  0.91134300  0.04668500  1
  N  N32  1  0.29522600  0.08648300  0.30584600  1
  N  N33  1  0.20477400  0.41351700  0.80584600  1
  N  N34  1  0.75372100  0.91134300  0.54668500  1
  N  N35  1  0.10673800  0.75000000  0.63154300  1
  Cl  Cl36  1  0.93744200  0.75000000  0.36970600  1
  Cl  Cl37  1  0.43744200  0.25000000  0.13029400  1
  Cl  Cl38  1  0.56255800  0.75000000  0.86970600  1
  Cl  Cl39  1  0.06255800  0.25000000  0.63029400  1
