# generated using pymatgen
data_Hf(MoO4)2
_symmetry_space_group_name_H-M   'P 1'
_cell_length_a   10.36959328
_cell_length_b   10.36959328
_cell_length_c   9.57771900
_cell_angle_alpha   90.00000000
_cell_angle_beta   90.00000000
_cell_angle_gamma   119.99999541
_symmetry_Int_Tables_number   1
_chemical_formula_structural   Hf(MoO4)2
_chemical_formula_sum   'Hf6 Mo12 O48'
_cell_volume   891.90005008
_cell_formula_units_Z   6
loop_
 _symmetry_equiv_pos_site_id
 _symmetry_equiv_pos_as_xyz
  1  'x, y, z'
loop_
 _atom_site_type_symbol
 _atom_site_label
 _atom_site_symmetry_multiplicity
 _atom_site_fract_x
 _atom_site_fract_y
 _atom_site_fract_z
 _atom_site_occupancy
  Hf  Hf0  1  0.66666700  0.33333300  0.53039000  1
  Hf  Hf1  1  0.00000000  0.00000000  0.25000000  1
  Hf  Hf2  1  0.33333300  0.66666700  0.03039000  1
  Hf  Hf3  1  0.66666700  0.33333300  0.96961000  1
  Hf  Hf4  1  0.00000000  0.00000000  0.75000000  1
  Hf  Hf5  1  0.33333300  0.66666700  0.46961000  1
  Mo  Mo6  1  0.34596900  0.00875400  0.75792600  1
  Mo  Mo7  1  0.66278500  0.65403100  0.75792600  1
  Mo  Mo8  1  0.33721500  0.34596900  0.24207400  1
  Mo  Mo9  1  0.65403100  0.99124600  0.24207400  1
  Mo  Mo10  1  0.34596900  0.33721500  0.74207400  1
  Mo  Mo11  1  0.00875400  0.66278500  0.24207400  1
  Mo  Mo12  1  0.99124600  0.33721500  0.75792600  1
  Mo  Mo13  1  0.65403100  0.66278500  0.25792600  1
  Mo  Mo14  1  0.00875400  0.34596900  0.25792600  1
  Mo  Mo15  1  0.66278500  0.00875400  0.74207400  1
  Mo  Mo16  1  0.99124600  0.65403100  0.74207400  1
  Mo  Mo17  1  0.33721500  0.99124600  0.25792600  1
  O  O18  1  0.49888300  0.18122200  0.86325500  1
  O  O19  1  0.74134800  0.10792900  0.10369200  1
  O  O20  1  0.98256100  0.80439900  0.84086500  1
  O  O21  1  0.81877800  0.31766100  0.86325500  1
  O  O22  1  0.39434200  0.91082600  0.63548400  1
  O  O23  1  0.89207100  0.25865200  0.39630800  1
  O  O24  1  0.36658100  0.10792900  0.39630800  1
  O  O25  1  0.48351500  0.39434200  0.36451600  1
  O  O26  1  0.82183800  0.01743900  0.84086500  1
  O  O27  1  0.17816200  0.19560100  0.34086500  1
  O  O28  1  0.60565800  0.51648500  0.13548400  1
  O  O29  1  0.51648500  0.91082600  0.86451600  1
  O  O30  1  0.68233900  0.50111700  0.86325500  1
  O  O31  1  0.01743900  0.19560100  0.15913500  1
  O  O32  1  0.08917400  0.60565800  0.86451600  1
  O  O33  1  0.48351500  0.08917400  0.13548400  1
  O  O34  1  0.39434200  0.48351500  0.86451600  1
  O  O35  1  0.19560100  0.01743900  0.65913500  1
  O  O36  1  0.91082600  0.51648500  0.36451600  1
  O  O37  1  0.50111700  0.81877800  0.13674500  1
  O  O38  1  0.25865200  0.36658100  0.60369200  1
  O  O39  1  0.63341900  0.74134800  0.89630800  1
  O  O40  1  0.89207100  0.63341900  0.10369200  1
  O  O41  1  0.49888300  0.31766100  0.63674500  1
  O  O42  1  0.80439900  0.82183800  0.15913500  1
  O  O43  1  0.19560100  0.17816200  0.84086500  1
  O  O44  1  0.91082600  0.39434200  0.13548400  1
  O  O45  1  0.80439900  0.98256100  0.34086500  1
  O  O46  1  0.68233900  0.18122200  0.63674500  1
  O  O47  1  0.63341900  0.89207100  0.60369200  1
  O  O48  1  0.18122200  0.68233900  0.13674500  1
  O  O49  1  0.74134800  0.63341900  0.39630800  1
  O  O50  1  0.17816200  0.98256100  0.15913500  1
  O  O51  1  0.01743900  0.82183800  0.34086500  1
  O  O52  1  0.18122200  0.49888300  0.36325500  1
  O  O53  1  0.51648500  0.60565800  0.63548400  1
  O  O54  1  0.82183800  0.80439900  0.65913500  1
  O  O55  1  0.31766100  0.81877800  0.36325500  1
  O  O56  1  0.10792900  0.74134800  0.60369200  1
  O  O57  1  0.50111700  0.68233900  0.36325500  1
  O  O58  1  0.10792900  0.36658100  0.89630800  1
  O  O59  1  0.08917400  0.48351500  0.63548400  1
  O  O60  1  0.98256100  0.17816200  0.65913500  1
  O  O61  1  0.81877800  0.50111700  0.63674500  1
  O  O62  1  0.31766100  0.49888300  0.13674500  1
  O  O63  1  0.36658100  0.25865200  0.10369200  1
  O  O64  1  0.25865200  0.89207100  0.89630800  1
  O  O65  1  0.60565800  0.08917400  0.36451600  1
