# generated using pymatgen
data_FeP3(HO2)6
_symmetry_space_group_name_H-M   'P 1'
_cell_length_a   9.89922349
_cell_length_b   9.89922349
_cell_length_c   9.89922355
_cell_angle_alpha   51.67741992
_cell_angle_beta   51.67741992
_cell_angle_gamma   51.67741557
_symmetry_Int_Tables_number   1
_chemical_formula_structural   FeP3(HO2)6
_chemical_formula_sum   'Fe2 P6 H12 O24'
_cell_volume   551.60374346
_cell_formula_units_Z   2
loop_
 _symmetry_equiv_pos_site_id
 _symmetry_equiv_pos_as_xyz
  1  'x, y, z'
loop_
 _atom_site_type_symbol
 _atom_site_label
 _atom_site_symmetry_multiplicity
 _atom_site_fract_x
 _atom_site_fract_y
 _atom_site_fract_z
 _atom_site_occupancy
  Fe  Fe0  1  0.50000000  0.50000000  0.50000000  1
  Fe  Fe1  1  0.00000000  0.00000000  0.00000000  1
  P  P2  1  0.84334600  0.65665400  0.25000000  1
  P  P3  1  0.25000000  0.84334600  0.65665400  1
  P  P4  1  0.15665400  0.34334600  0.75000000  1
  P  P5  1  0.65665400  0.25000000  0.84334600  1
  P  P6  1  0.75000000  0.15665400  0.34334600  1
  P  P7  1  0.34334600  0.75000000  0.15665400  1
  H  H8  1  0.65200700  0.98309700  0.06381400  1
  H  H9  1  0.93618600  0.34799300  0.01690300  1
  H  H10  1  0.06381400  0.65200700  0.98309700  1
  H  H11  1  0.98309700  0.06381400  0.65200700  1
  H  H12  1  0.56381400  0.48309700  0.15200700  1
  H  H13  1  0.48309700  0.15200700  0.56381400  1
  H  H14  1  0.34799300  0.01690300  0.93618600  1
  H  H15  1  0.01690300  0.93618600  0.34799300  1
  H  H16  1  0.84799300  0.43618600  0.51690300  1
  H  H17  1  0.15200700  0.56381400  0.48309700  1
  H  H18  1  0.43618600  0.51690300  0.84799300  1
  H  H19  1  0.51690300  0.84799300  0.43618600  1
  O  O20  1  0.98355500  0.58098700  0.08915600  1
  O  O21  1  0.01644500  0.41901300  0.91084400  1
  O  O22  1  0.51644500  0.41084400  0.91901300  1
  O  O23  1  0.35183200  0.33322500  0.67396000  1
  O  O24  1  0.14816800  0.82604000  0.16677500  1
  O  O25  1  0.64816800  0.66677500  0.32604000  1
  O  O26  1  0.91901300  0.51644500  0.41084400  1
  O  O27  1  0.48355500  0.58915600  0.08098700  1
  O  O28  1  0.41084400  0.91901300  0.51644500  1
  O  O29  1  0.16677500  0.14816800  0.82604000  1
  O  O30  1  0.08915600  0.98355500  0.58098700  1
  O  O31  1  0.82604000  0.16677500  0.14816800  1
  O  O32  1  0.17396000  0.83322500  0.85183200  1
  O  O33  1  0.33322500  0.67396000  0.35183200  1
  O  O34  1  0.41901300  0.91084400  0.01644500  1
  O  O35  1  0.08098700  0.48355500  0.58915600  1
  O  O36  1  0.66677500  0.32604000  0.64816800  1
  O  O37  1  0.85183200  0.17396000  0.83322500  1
  O  O38  1  0.91084400  0.01644500  0.41901300  1
  O  O39  1  0.83322500  0.85183200  0.17396000  1
  O  O40  1  0.32604000  0.64816800  0.66677500  1
  O  O41  1  0.67396000  0.35183200  0.33322500  1
  O  O42  1  0.58098700  0.08915600  0.98355500  1
  O  O43  1  0.58915600  0.08098700  0.48355500  1
