# generated using pymatgen
data_Cr(OF)2
_symmetry_space_group_name_H-M   'P 1'
_cell_length_a   5.16167100
_cell_length_b   6.08096800
_cell_length_c   9.19874439
_cell_angle_alpha   88.17844149
_cell_angle_beta   90.00000000
_cell_angle_gamma   90.00000000
_symmetry_Int_Tables_number   1
_chemical_formula_structural   Cr(OF)2
_chemical_formula_sum   'Cr4 O8 F8'
_cell_volume   288.58388234
_cell_formula_units_Z   4
loop_
 _symmetry_equiv_pos_site_id
 _symmetry_equiv_pos_as_xyz
  1  'x, y, z'
loop_
 _atom_site_type_symbol
 _atom_site_label
 _atom_site_symmetry_multiplicity
 _atom_site_fract_x
 _atom_site_fract_y
 _atom_site_fract_z
 _atom_site_occupancy
  Cr  Cr0  1  0.93545900  0.69094700  0.62224600  1
  Cr  Cr1  1  0.43545900  0.30905300  0.87775400  1
  Cr  Cr2  1  0.56454100  0.69094700  0.12224600  1
  Cr  Cr3  1  0.06454100  0.30905300  0.37775400  1
  O  O4  1  0.89887900  0.11656600  0.31346100  1
  O  O5  1  0.39887900  0.88343400  0.18653900  1
  O  O6  1  0.60112100  0.11656600  0.81346100  1
  O  O7  1  0.10112100  0.88343400  0.68653900  1
  O  O8  1  0.18243100  0.19637300  0.94098800  1
  O  O9  1  0.81756900  0.80362700  0.05901200  1
  O  O10  1  0.31756900  0.19637300  0.44098800  1
  O  O11  1  0.68243100  0.80362700  0.55901200  1
  F  F12  1  0.13364700  0.64537300  0.45863200  1
  F  F13  1  0.17662800  0.44842000  0.21697200  1
  F  F14  1  0.82337200  0.55158000  0.78302800  1
  F  F15  1  0.36635300  0.64537300  0.95863200  1
  F  F16  1  0.63364700  0.35462700  0.04136800  1
  F  F17  1  0.86635300  0.35462700  0.54136800  1
  F  F18  1  0.32337200  0.44842000  0.71697200  1
  F  F19  1  0.67662800  0.55158000  0.28302800  1
