# generated using pymatgen
data_KCa4Si8H16O28F
_symmetry_space_group_name_H-M   'P 1'
_cell_length_a   9.96822500
_cell_length_b   9.96822500
_cell_length_c   12.42281300
_cell_angle_alpha   90.00000000
_cell_angle_beta   90.00000000
_cell_angle_gamma   90.00000000
_symmetry_Int_Tables_number   1
_chemical_formula_structural   KCa4Si8H16O28F
_chemical_formula_sum   'K2 Ca8 Si16 H32 O56 F2'
_cell_volume   1234.39914504
_cell_formula_units_Z   2
loop_
 _symmetry_equiv_pos_site_id
 _symmetry_equiv_pos_as_xyz
  1  'x, y, z'
loop_
 _atom_site_type_symbol
 _atom_site_label
 _atom_site_symmetry_multiplicity
 _atom_site_fract_x
 _atom_site_fract_y
 _atom_site_fract_z
 _atom_site_occupancy
  K  K0  1  0.50000000  0.50000000  0.00000000  1
  K  K1  1  0.00000000  0.00000000  0.50000000  1
  Ca  Ca2  1  0.70995100  0.70413000  0.00000000  1
  Ca  Ca3  1  0.20413000  0.20995100  0.50000000  1
  Ca  Ca4  1  0.29587000  0.70995100  0.00000000  1
  Ca  Ca5  1  0.20995100  0.79587000  0.50000000  1
  Ca  Ca6  1  0.79587000  0.79004900  0.50000000  1
  Ca  Ca7  1  0.29004900  0.29587000  0.00000000  1
  Ca  Ca8  1  0.79004900  0.20413000  0.50000000  1
  Ca  Ca9  1  0.70413000  0.29004900  0.00000000  1
  Si  Si10  1  0.54345600  0.71385300  0.24330800  1
  Si  Si11  1  0.78614700  0.95654400  0.25669200  1
  Si  Si12  1  0.71385300  0.45654400  0.24330800  1
  Si  Si13  1  0.04345600  0.78614700  0.74330800  1
  Si  Si14  1  0.78614700  0.95654400  0.74330800  1
  Si  Si15  1  0.71385300  0.45654400  0.75669200  1
  Si  Si16  1  0.95654400  0.21385300  0.25669200  1
  Si  Si17  1  0.54345600  0.71385300  0.75669200  1
  Si  Si18  1  0.21385300  0.04345600  0.74330800  1
  Si  Si19  1  0.95654400  0.21385300  0.74330800  1
  Si  Si20  1  0.21385300  0.04345600  0.25669200  1
  Si  Si21  1  0.45654400  0.28614700  0.75669200  1
  Si  Si22  1  0.04345600  0.78614700  0.25669200  1
  Si  Si23  1  0.28614700  0.54345600  0.75669200  1
  Si  Si24  1  0.28614700  0.54345600  0.24330800  1
  Si  Si25  1  0.45654400  0.28614700  0.24330800  1
  H  H26  1  0.89852200  0.43524700  0.60031600  1
  H  H27  1  0.43524700  0.10147800  0.39968400  1
  H  H28  1  0.41096400  0.67780900  0.46911400  1
  H  H29  1  0.39852200  0.06475300  0.89968400  1
  H  H30  1  0.82219100  0.08903600  0.03088600  1
  H  H31  1  0.91096400  0.82219100  0.03088600  1
  H  H32  1  0.43524700  0.10147800  0.60031600  1
  H  H33  1  0.58903600  0.32219100  0.46911400  1
  H  H34  1  0.56475300  0.89852200  0.60031600  1
  H  H35  1  0.82219100  0.08903600  0.96911400  1
  H  H36  1  0.10147800  0.56475300  0.39968400  1
  H  H37  1  0.17780900  0.91096400  0.96911400  1
  H  H38  1  0.06475300  0.60147800  0.10031600  1
  H  H39  1  0.67780900  0.58903600  0.53088600  1
  H  H40  1  0.08903600  0.17780900  0.96911400  1
  H  H41  1  0.39852200  0.06475300  0.10031600  1
  H  H42  1  0.91096400  0.82219100  0.96911400  1
  H  H43  1  0.32219100  0.41096400  0.46911400  1
  H  H44  1  0.93524700  0.39852200  0.89968400  1
  H  H45  1  0.60147800  0.93524700  0.89968400  1
  H  H46  1  0.89852200  0.43524700  0.39968400  1
  H  H47  1  0.56475300  0.89852200  0.39968400  1
  H  H48  1  0.67780900  0.58903600  0.46911400  1
  H  H49  1  0.10147800  0.56475300  0.60031600  1
  H  H50  1  0.32219100  0.41096400  0.53088600  1
  H  H51  1  0.93524700  0.39852200  0.10031600  1
  H  H52  1  0.60147800  0.93524700  0.10031600  1
  H  H53  1  0.06475300  0.60147800  0.89968400  1
  H  H54  1  0.58903600  0.32219100  0.53088600  1
  H  H55  1  0.41096400  0.67780900  0.53088600  1
  H  H56  1  0.17780900  0.91096400  0.03088600  1
  H  H57  1  0.08903600  0.17780900  0.03088600  1
  O  O58  1  0.02379600  0.77638200  0.38778700  1
  O  O59  1  0.66162000  0.60771500  0.71755700  1
  O  O60  1  0.83838000  0.10771500  0.78244300  1
  O  O61  1  0.69820000  0.93878600  0.11178500  1
  O  O62  1  0.22361800  0.02379600  0.38778700  1
  O  O63  1  0.47620400  0.27638200  0.11221300  1
  O  O64  1  0.19820000  0.56121400  0.61178500  1
  O  O65  1  0.27638200  0.52379600  0.88778700  1
  O  O66  1  0.66162000  0.60771500  0.28244300  1
  O  O67  1  0.93878600  0.30180000  0.11178500  1
  O  O68  1  0.97620400  0.22361800  0.61221300  1
  O  O69  1  0.37391600  0.12608400  0.75000000  1
  O  O70  1  0.72361800  0.47620400  0.88778700  1
  O  O71  1  0.06121400  0.69820000  0.88821500  1
  O  O72  1  0.97620400  0.22361800  0.38778700  1
  O  O73  1  0.12608400  0.62608400  0.75000000  1
  O  O74  1  0.52379600  0.72361800  0.11221300  1
  O  O75  1  0.87391600  0.37391600  0.25000000  1
  O  O76  1  0.37391600  0.12608400  0.25000000  1
  O  O77  1  0.87391600  0.37391600  0.75000000  1
  O  O78  1  0.22361800  0.02379600  0.61221300  1
  O  O79  1  0.39228500  0.66162000  0.71755700  1
  O  O80  1  0.16162000  0.89228500  0.78244300  1
  O  O81  1  0.33838000  0.39228500  0.71755700  1
  O  O82  1  0.83838000  0.10771500  0.21755700  1
  O  O83  1  0.16162000  0.89228500  0.21755700  1
  O  O84  1  0.93878600  0.30180000  0.88821500  1
  O  O85  1  0.02379600  0.77638200  0.61221300  1
  O  O86  1  0.69820000  0.93878600  0.88821500  1
  O  O87  1  0.06121400  0.69820000  0.11178500  1
  O  O88  1  0.30180000  0.06121400  0.88821500  1
  O  O89  1  0.62608400  0.87391600  0.25000000  1
  O  O90  1  0.12608400  0.62608400  0.25000000  1
  O  O91  1  0.39228500  0.66162000  0.28244300  1
  O  O92  1  0.77638200  0.97620400  0.38778700  1
  O  O93  1  0.62608400  0.87391600  0.75000000  1
  O  O94  1  0.80180000  0.43878600  0.61178500  1
  O  O95  1  0.30180000  0.06121400  0.11178500  1
  O  O96  1  0.52379600  0.72361800  0.88778700  1
  O  O97  1  0.19820000  0.56121400  0.38821500  1
  O  O98  1  0.89228500  0.83838000  0.21755700  1
  O  O99  1  0.89228500  0.83838000  0.78244300  1
  O  O100  1  0.43878600  0.19820000  0.38821500  1
  O  O101  1  0.56121400  0.80180000  0.61178500  1
  O  O102  1  0.60771500  0.33838000  0.28244300  1
  O  O103  1  0.72361800  0.47620400  0.11221300  1
  O  O104  1  0.10771500  0.16162000  0.21755700  1
  O  O105  1  0.33838000  0.39228500  0.28244300  1
  O  O106  1  0.10771500  0.16162000  0.78244300  1
  O  O107  1  0.27638200  0.52379600  0.11221300  1
  O  O108  1  0.43878600  0.19820000  0.61178500  1
  O  O109  1  0.60771500  0.33838000  0.71755700  1
  O  O110  1  0.77638200  0.97620400  0.61221300  1
  O  O111  1  0.47620400  0.27638200  0.88778700  1
  O  O112  1  0.56121400  0.80180000  0.38821500  1
  O  O113  1  0.80180000  0.43878600  0.38821500  1
  F  F114  1  0.50000000  0.50000000  0.50000000  1
  F  F115  1  0.00000000  0.00000000  0.00000000  1
