# generated using pymatgen
data_NiSO9
_symmetry_space_group_name_H-M   'P 1'
_cell_length_a   5.47890500
_cell_length_b   5.92106100
_cell_length_c   6.16961592
_cell_angle_alpha   89.22806087
_cell_angle_beta   113.37972359
_cell_angle_gamma   94.39434144
_symmetry_Int_Tables_number   1
_chemical_formula_structural   NiSO9
_chemical_formula_sum   'Ni1 S1 O9'
_cell_volume   183.14353190
_cell_formula_units_Z   1
loop_
 _symmetry_equiv_pos_site_id
 _symmetry_equiv_pos_as_xyz
  1  'x, y, z'
loop_
 _atom_site_type_symbol
 _atom_site_label
 _atom_site_symmetry_multiplicity
 _atom_site_fract_x
 _atom_site_fract_y
 _atom_site_fract_z
 _atom_site_occupancy
  Ni  Ni0  1  0.98191400  0.01812300  0.96059400  1
  S  S1  1  0.16482000  0.52981900  0.05476900  1
  O  O2  1  0.83923300  0.35194200  0.95543100  1
  O  O3  1  0.64984500  0.86046900  0.73399500  1
  O  O4  1  0.10043200  0.73104100  0.15529400  1
  O  O5  1  0.93038400  0.03055600  0.48898200  1
  O  O6  1  0.54384800  0.68596500  0.80261200  1
  O  O7  1  0.66641000  0.43579200  0.74494800  1
  O  O8  1  0.30127900  0.37011300  0.27406200  1
  O  O9  1  0.10306200  0.00334200  0.69553900  1
  O  O10  1  0.32677400  0.17883900  0.13377400  1
