# generated using pymatgen
data_Cu3As2H16C16Br3(NO)2
_symmetry_space_group_name_H-M   'P 1'
_cell_length_a   10.28508800
_cell_length_b   11.85029190
_cell_length_c   11.87296585
_cell_angle_alpha   68.24524819
_cell_angle_beta   80.49388189
_cell_angle_gamma   68.20807251
_symmetry_Int_Tables_number   1
_chemical_formula_structural   Cu3As2H16C16Br3(NO)2
_chemical_formula_sum   'Cu6 As4 H32 C32 Br6 N4 O4'
_cell_volume   1247.34461650
_cell_formula_units_Z   2
loop_
 _symmetry_equiv_pos_site_id
 _symmetry_equiv_pos_as_xyz
  1  'x, y, z'
loop_
 _atom_site_type_symbol
 _atom_site_label
 _atom_site_symmetry_multiplicity
 _atom_site_fract_x
 _atom_site_fract_y
 _atom_site_fract_z
 _atom_site_occupancy
  Cu  Cu0  1  0.08559000  0.66175600  0.76008400  1
  Cu  Cu1  1  0.84875400  0.13851100  0.45154000  1
  Cu  Cu2  1  0.80858200  0.81580900  0.63659000  1
  Cu  Cu3  1  0.15124600  0.86148900  0.54846000  1
  Cu  Cu4  1  0.91441000  0.33824400  0.23991600  1
  Cu  Cu5  1  0.19141800  0.18419100  0.36341000  1
  As  As6  1  0.61505300  0.16579800  0.42156200  1
  As  As7  1  0.42547800  0.05111800  0.33133600  1
  As  As8  1  0.57452200  0.94888200  0.66866400  1
  As  As9  1  0.38494700  0.83420200  0.57843800  1
  H  H10  1  0.37215900  0.32977300  0.37033900  1
  H  H11  1  0.51232300  0.91816500  0.88974400  1
  H  H12  1  0.42774200  0.08331800  0.79792300  1
  H  H13  1  0.47926700  0.34699400  0.07600500  1
  H  H14  1  0.57225800  0.91668200  0.20207700  1
  H  H15  1  0.61137300  0.02608500  0.82681600  1
  H  H16  1  0.65361500  0.65474600  0.07628900  1
  H  H17  1  0.13501100  0.16036200  0.07993700  1
  H  H18  1  0.10857600  0.36981500  0.91491000  1
  H  H19  1  0.49617200  0.61363700  0.73055900  1
  H  H20  1  0.84977400  0.03142200  0.96834300  1
  H  H21  1  0.52199000  0.60580800  0.58115100  1
  H  H22  1  0.62784100  0.67022700  0.62966100  1
  H  H23  1  0.15022600  0.96857800  0.03165700  1
  H  H24  1  0.11788100  0.38615900  0.70088600  1
  H  H25  1  0.15282900  0.98181600  0.81954700  1
  H  H26  1  0.53950600  0.67431200  0.27283900  1
  H  H27  1  0.86498900  0.83963800  0.92006300  1
  H  H28  1  0.84922500  0.30554900  0.83726800  1
  H  H29  1  0.71357900  0.29872000  0.68721100  1
  H  H30  1  0.28642100  0.70128000  0.31278900  1
  H  H31  1  0.15077500  0.69445100  0.16273200  1
  H  H32  1  0.52073300  0.65300600  0.92399500  1
  H  H33  1  0.50382800  0.38636300  0.26944100  1
  H  H34  1  0.89142400  0.63018500  0.08509000  1
  H  H35  1  0.46049400  0.32568800  0.72716100  1
  H  H36  1  0.88211900  0.61384100  0.29911400  1
  H  H37  1  0.47801000  0.39419200  0.41884900  1
  H  H38  1  0.38862700  0.97391500  0.17318400  1
  H  H39  1  0.48767700  0.08183500  0.11025600  1
  H  H40  1  0.34638500  0.34525400  0.92371100  1
  H  H41  1  0.84717100  0.01818400  0.18045300  1
  C  C42  1  0.12526300  0.29423600  0.77240800  1
  C  C43  1  0.52496100  0.00039400  0.81241700  1
  C  C44  1  0.26032900  0.68686400  0.14363200  1
  C  C45  1  0.47588600  0.33840500  0.36377000  1
  C  C46  1  0.14514500  0.06660500  0.83941800  1
  C  C47  1  0.33735500  0.68946600  0.22805400  1
  C  C48  1  0.54395400  0.66322100  0.09554100  1
  C  C49  1  0.13438700  0.16715500  0.98620800  1
  C  C50  1  0.87473700  0.70576400  0.22759200  1
  C  C51  1  0.73967100  0.31313600  0.85636800  1
  C  C52  1  0.24983700  0.66948500  0.94618600  1
  C  C53  1  0.87749100  0.71557800  0.10681400  1
  C  C54  1  0.53121600  0.33796500  0.99075800  1
  C  C55  1  0.45604600  0.33677900  0.90445900  1
  C  C56  1  0.52411400  0.66159500  0.63623000  1
  C  C57  1  0.14406700  0.05934600  0.95908100  1
  C  C58  1  0.85415700  0.80880700  0.37787400  1
  C  C59  1  0.13785800  0.18420400  0.74505900  1
  C  C60  1  0.75016300  0.33051500  0.05381400  1
  C  C61  1  0.85593300  0.94065400  0.04091900  1
  C  C62  1  0.86214200  0.81579600  0.25494100  1
  C  C63  1  0.47893100  0.67599100  0.20505400  1
  C  C64  1  0.86561300  0.83284500  0.01379200  1
  C  C65  1  0.52106900  0.32400900  0.79494600  1
  C  C66  1  0.67354800  0.32729100  0.96675300  1
  C  C67  1  0.12250900  0.28442200  0.89318600  1
  C  C68  1  0.46878400  0.66203500  0.00924200  1
  C  C69  1  0.47503900  0.99960600  0.18758300  1
  C  C70  1  0.66264500  0.31053400  0.77194600  1
  C  C71  1  0.14584300  0.19119300  0.62212600  1
  C  C72  1  0.85485500  0.93339500  0.16058200  1
  C  C73  1  0.32645200  0.67270900  0.03324700  1
  Br  Br74  1  0.80687300  0.36659900  0.42835300  1
  Br  Br75  1  0.93233400  0.96811800  0.65790400  1
  Br  Br76  1  0.06766600  0.03188200  0.34209600  1
  Br  Br77  1  0.86102500  0.62553800  0.82018200  1
  Br  Br78  1  0.19312700  0.63340100  0.57164700  1
  Br  Br79  1  0.13897500  0.37446200  0.17981800  1
  N  N80  1  0.18732600  0.66708600  0.87353900  1
  N  N81  1  0.81267400  0.33291400  0.12646100  1
  N  N82  1  0.15403600  0.19580400  0.52161600  1
  N  N83  1  0.84596400  0.80419600  0.47838400  1
  O  O84  1  0.51043600  0.11194200  0.55731200  1
  O  O85  1  0.41858500  0.90664900  0.67818200  1
  O  O86  1  0.58141500  0.09335100  0.32181800  1
  O  O87  1  0.48956400  0.88805800  0.44268800  1
