# generated using pymatgen
data_H6SN2
_symmetry_space_group_name_H-M   'P 1'
_cell_length_a   8.84336400
_cell_length_b   7.15484700
_cell_length_c   14.47757118
_cell_angle_alpha   79.42868485
_cell_angle_beta   90.00000000
_cell_angle_gamma   90.00000000
_symmetry_Int_Tables_number   1
_chemical_formula_structural   H6SN2
_chemical_formula_sum   'H48 S8 N16'
_cell_volume   900.49052851
_cell_formula_units_Z   8
loop_
 _symmetry_equiv_pos_site_id
 _symmetry_equiv_pos_as_xyz
  1  'x, y, z'
loop_
 _atom_site_type_symbol
 _atom_site_label
 _atom_site_symmetry_multiplicity
 _atom_site_fract_x
 _atom_site_fract_y
 _atom_site_fract_z
 _atom_site_occupancy
  H  H0  1  0.59489400  0.24008600  0.41946500  1
  H  H1  1  0.20323200  0.05860700  0.70781600  1
  H  H2  1  0.70171000  0.69024700  0.57902200  1
  H  H3  1  0.99245900  0.24723400  0.74464100  1
  H  H4  1  0.54171000  0.12950500  0.16003000  1
  H  H5  1  0.60449300  0.81544100  0.02410700  1
  H  H6  1  0.84902500  0.97554600  0.17982900  1
  H  H7  1  0.43516400  0.66954600  0.61032000  1
  H  H8  1  0.45829000  0.87049500  0.83997000  1
  H  H9  1  0.56483600  0.33045400  0.38968000  1
  H  H10  1  0.39550700  0.18455900  0.97589300  1
  H  H11  1  0.10449300  0.18455900  0.47589300  1
  H  H12  1  0.12413000  0.59295300  0.60451600  1
  H  H13  1  0.58175100  0.59937300  0.24402100  1
  H  H14  1  0.26687300  0.55536400  0.00432700  1
  H  H15  1  0.87587000  0.40704700  0.39548400  1
  H  H16  1  0.90119100  0.14116900  0.24738000  1
  H  H17  1  0.50754100  0.24723400  0.24464100  1
  H  H18  1  0.40510600  0.75991400  0.58053500  1
  H  H19  1  0.20171000  0.30975300  0.92097800  1
  H  H20  1  0.29829000  0.30975300  0.42097800  1
  H  H21  1  0.09489400  0.75991400  0.08053500  1
  H  H22  1  0.89550700  0.81544100  0.52410700  1
  H  H23  1  0.65097500  0.97554600  0.67982900  1
  H  H24  1  0.79676800  0.94139300  0.29218400  1
  H  H25  1  0.00754100  0.75276600  0.25535900  1
  H  H26  1  0.09880900  0.85883100  0.75262000  1
  H  H27  1  0.73312700  0.44463600  0.99567300  1
  H  H28  1  0.34902500  0.02445400  0.32017100  1
  H  H29  1  0.49245900  0.75276600  0.75535900  1
  H  H30  1  0.15097500  0.02445400  0.82017100  1
  H  H31  1  0.08175100  0.40062700  0.25597900  1
  H  H32  1  0.04171000  0.87049500  0.33997000  1
  H  H33  1  0.70323200  0.94139300  0.79218400  1
  H  H34  1  0.95829000  0.12950500  0.66003000  1
  H  H35  1  0.62413000  0.40704700  0.89548400  1
  H  H36  1  0.23312700  0.55536400  0.50432700  1
  H  H37  1  0.41824900  0.40062700  0.75597900  1
  H  H38  1  0.59880900  0.14116900  0.74738000  1
  H  H39  1  0.29676800  0.05860700  0.20781600  1
  H  H40  1  0.90510600  0.24008600  0.91946500  1
  H  H41  1  0.93516400  0.33045400  0.88968000  1
  H  H42  1  0.79829000  0.69024700  0.07902200  1
  H  H43  1  0.37587000  0.59295300  0.10451600  1
  H  H44  1  0.76687300  0.44463600  0.49567300  1
  H  H45  1  0.91824900  0.59937300  0.74402100  1
  H  H46  1  0.40119100  0.85883100  0.25262000  1
  H  H47  1  0.06483600  0.66954600  0.11032000  1
  S  S48  1  0.42963200  0.58408800  0.24969900  1
  S  S49  1  0.26115300  0.13772100  0.47157200  1
  S  S50  1  0.07036800  0.58408800  0.74969900  1
  S  S51  1  0.92963200  0.41591200  0.25030100  1
  S  S52  1  0.23884700  0.13772100  0.97157200  1
  S  S53  1  0.57036800  0.41591200  0.75030100  1
  S  S54  1  0.76115300  0.86227900  0.02842800  1
  S  S55  1  0.73884700  0.86227900  0.52842800  1
  N  N56  1  0.85626900  0.37196100  0.47026900  1
  N  N57  1  0.38449400  0.01069200  0.25328900  1
  N  N58  1  0.88449400  0.98930800  0.24671100  1
  N  N59  1  0.06829700  0.74832100  0.47835300  1
  N  N60  1  0.56829700  0.25167900  0.02164700  1
  N  N61  1  0.14373100  0.62803900  0.52973100  1
  N  N62  1  0.93170300  0.25167900  0.52164700  1
  N  N63  1  0.64373100  0.37196100  0.97026900  1
  N  N64  1  0.97424900  0.11106200  0.73214700  1
  N  N65  1  0.11550600  0.01069200  0.75328900  1
  N  N66  1  0.02575100  0.88893800  0.26785300  1
  N  N67  1  0.47424900  0.88893800  0.76785300  1
  N  N68  1  0.35626900  0.62803900  0.02973100  1
  N  N69  1  0.43170300  0.74832100  0.97835300  1
  N  N70  1  0.61550600  0.98930800  0.74671100  1
  N  N71  1  0.52575100  0.11106200  0.23214700  1
