# generated using pymatgen
data_Ba5Tm8Zn4O21
_symmetry_space_group_name_H-M   'P 1'
_cell_length_a   10.13600050
_cell_length_b   10.13600050
_cell_length_c   10.13600050
_cell_angle_alpha   94.53733962
_cell_angle_beta   94.53733962
_cell_angle_gamma   147.32882456
_symmetry_Int_Tables_number   1
_chemical_formula_structural   Ba5Tm8Zn4O21
_chemical_formula_sum   'Ba5 Tm8 Zn4 O21'
_cell_volume   539.44915440
_cell_formula_units_Z   1
loop_
 _symmetry_equiv_pos_site_id
 _symmetry_equiv_pos_as_xyz
  1  'x, y, z'
loop_
 _atom_site_type_symbol
 _atom_site_label
 _atom_site_symmetry_multiplicity
 _atom_site_fract_x
 _atom_site_fract_y
 _atom_site_fract_z
 _atom_site_occupancy
  Ba  Ba0  1  0.14027900  0.53603500  0.67631400  1
  Ba  Ba1  1  0.53603500  0.85972100  0.39575600  1
  Ba  Ba2  1  0.46396500  0.14027900  0.60424400  1
  Ba  Ba3  1  0.85972100  0.46396500  0.32368600  1
  Ba  Ba4  1  0.00000000  0.00000000  0.00000000  1
  Tm  Tm5  1  0.35859800  0.41128800  0.76988600  1
  Tm  Tm6  1  0.41128800  0.64140200  0.05268900  1
  Tm  Tm7  1  0.58871200  0.35859800  0.94731100  1
  Tm  Tm8  1  0.64140200  0.58871200  0.23011400  1
  Tm  Tm9  1  0.16843000  0.24762500  0.41605500  1
  Tm  Tm10  1  0.24762500  0.83157000  0.07919500  1
  Tm  Tm11  1  0.75237500  0.16843000  0.92080500  1
  Tm  Tm12  1  0.83157000  0.75237500  0.58394500  1
  Zn  Zn13  1  0.24935000  0.04052100  0.28987000  1
  Zn  Zn14  1  0.04052100  0.75065000  0.79117100  1
  Zn  Zn15  1  0.95947900  0.24935000  0.20882900  1
  Zn  Zn16  1  0.75065000  0.95947900  0.71013000  1
  O  O17  1  0.00623600  0.89913700  0.40513600  1
  O  O18  1  0.89913700  0.49400100  0.89290100  1
  O  O19  1  0.60110000  0.00623600  0.10709900  1
  O  O20  1  0.49400100  0.60110000  0.59486400  1
  O  O21  1  0.99376400  0.10086300  0.59486400  1
  O  O22  1  0.10086300  0.50599900  0.10709900  1
  O  O23  1  0.39890000  0.99376400  0.89290100  1
  O  O24  1  0.50599900  0.39890000  0.40513600  1
  O  O25  1  0.20282900  0.07435300  0.77417400  1
  O  O26  1  0.07435300  0.30017900  0.87152400  1
  O  O27  1  0.42865500  0.20282900  0.12847600  1
  O  O28  1  0.30017900  0.42865500  0.22582600  1
  O  O29  1  0.79717100  0.92564700  0.22582600  1
  O  O30  1  0.92564700  0.69982100  0.12847600  1
  O  O31  1  0.57134500  0.79717100  0.87152400  1
  O  O32  1  0.69982100  0.57134500  0.77417400  1
  O  O33  1  0.96018900  0.62960100  0.58979000  1
  O  O34  1  0.50000000  0.50000000  0.00000000  1
  O  O35  1  0.03981100  0.37039900  0.41021000  1
  O  O36  1  0.37039900  0.96018900  0.33058800  1
  O  O37  1  0.62960100  0.03981100  0.66941200  1
