# generated using pymatgen
data_Re2Pt(CO)12
_symmetry_space_group_name_H-M   'P 1'
_cell_length_a   6.53972400
_cell_length_b   7.27168172
_cell_length_c   10.17256834
_cell_angle_alpha   71.53938141
_cell_angle_beta   85.40636274
_cell_angle_gamma   88.06005239
_symmetry_Int_Tables_number   1
_chemical_formula_structural   Re2Pt(CO)12
_chemical_formula_sum   'Re2 Pt1 C12 O12'
_cell_volume   457.36869279
_cell_formula_units_Z   1
loop_
 _symmetry_equiv_pos_site_id
 _symmetry_equiv_pos_as_xyz
  1  'x, y, z'
loop_
 _atom_site_type_symbol
 _atom_site_label
 _atom_site_symmetry_multiplicity
 _atom_site_fract_x
 _atom_site_fract_y
 _atom_site_fract_z
 _atom_site_occupancy
  Re  Re0  1  0.78711700  0.88568800  0.26939300  1
  Re  Re1  1  0.21288300  0.11431200  0.73060700  1
  Pt  Pt2  1  0.00000000  0.00000000  0.00000000  1
  C  C3  1  0.31784600  0.33235700  0.78877700  1
  C  C4  1  0.91033100  0.11370600  0.30105700  1
  C  C5  1  0.08966900  0.88629400  0.69894300  1
  C  C6  1  0.68215400  0.66764300  0.21122300  1
  C  C7  1  0.89252900  0.25625800  0.96390800  1
  C  C8  1  0.44503100  0.94496200  0.81857000  1
  C  C9  1  0.96066200  0.26750200  0.66312400  1
  C  C10  1  0.03933800  0.73249800  0.33687600  1
  C  C11  1  0.55496900  0.05503800  0.18143000  1
  C  C12  1  0.36107200  0.19914500  0.54922000  1
  C  C13  1  0.10747100  0.74374200  0.03609200  1
  C  C14  1  0.63892800  0.80085500  0.45078000  1
  O  O15  1  0.01854300  0.75537200  0.67767600  1
  O  O16  1  0.45408000  0.25187700  0.44150500  1
  O  O17  1  0.17147500  0.58674100  0.05996600  1
  O  O18  1  0.37889500  0.45835500  0.82082500  1
  O  O19  1  0.18576000  0.64515100  0.37801600  1
  O  O20  1  0.98145700  0.24462800  0.32232400  1
  O  O21  1  0.82852500  0.41325900  0.94003400  1
  O  O22  1  0.62110500  0.54164500  0.17917500  1
  O  O23  1  0.58133000  0.84861500  0.86834700  1
  O  O24  1  0.41867000  0.15138500  0.13165300  1
  O  O25  1  0.54592000  0.74812300  0.55849500  1
  O  O26  1  0.81424000  0.35484900  0.62198400  1
