# generated using pymatgen
data_NiH12(C2O5)2
_symmetry_space_group_name_H-M   'P 1'
_cell_length_a   5.82375328
_cell_length_b   10.00885164
_cell_length_c   12.37007200
_cell_angle_alpha   90.00000000
_cell_angle_beta   90.00000000
_cell_angle_gamma   88.94948514
_symmetry_Int_Tables_number   1
_chemical_formula_structural   NiH12(C2O5)2
_chemical_formula_sum   'Ni2 H24 C8 O20'
_cell_volume   720.91895589
_cell_formula_units_Z   2
loop_
 _symmetry_equiv_pos_site_id
 _symmetry_equiv_pos_as_xyz
  1  'x, y, z'
loop_
 _atom_site_type_symbol
 _atom_site_label
 _atom_site_symmetry_multiplicity
 _atom_site_fract_x
 _atom_site_fract_y
 _atom_site_fract_z
 _atom_site_occupancy
  Ni  Ni0  1  0.00000000  0.00000000  0.50000000  1
  Ni  Ni1  1  0.50000000  0.00000000  0.00000000  1
  H  H2  1  0.25871000  0.19621600  0.00275600  1
  H  H3  1  0.58122600  0.71846000  0.21548600  1
  H  H4  1  0.95284400  0.43199200  0.69655000  1
  H  H5  1  0.84847900  0.34602200  0.26136300  1
  H  H6  1  0.75871000  0.19621600  0.49724400  1
  H  H7  1  0.48010800  0.75688400  0.81223000  1
  H  H8  1  0.65152100  0.65397800  0.76136300  1
  H  H9  1  0.15152100  0.65397800  0.73863700  1
  H  H10  1  0.08122600  0.71846000  0.28451400  1
  H  H11  1  0.41877400  0.28154000  0.78451400  1
  H  H12  1  0.24129000  0.80378400  0.50275600  1
  H  H13  1  0.74129000  0.80378400  0.99724400  1
  H  H14  1  0.16668800  0.08467400  0.07939600  1
  H  H15  1  0.33331200  0.91532600  0.57939600  1
  H  H16  1  0.01989200  0.24311600  0.31223000  1
  H  H17  1  0.51989200  0.24311600  0.18777000  1
  H  H18  1  0.34847900  0.34602200  0.23863700  1
  H  H19  1  0.83331200  0.91532600  0.92060400  1
  H  H20  1  0.54715600  0.56800800  0.19655000  1
  H  H21  1  0.45284400  0.43199200  0.80345000  1
  H  H22  1  0.66668800  0.08467400  0.42060400  1
  H  H23  1  0.91877400  0.28154000  0.71548600  1
  H  H24  1  0.04715600  0.56800800  0.30345000  1
  H  H25  1  0.98010800  0.75688400  0.68777000  1
  C  C26  1  0.83800300  0.33505300  0.01206900  1
  C  C27  1  0.05247600  0.55575100  0.99646300  1
  C  C28  1  0.94752500  0.44424900  0.00353700  1
  C  C29  1  0.66199700  0.66494700  0.51206900  1
  C  C30  1  0.16199700  0.66494700  0.98793100  1
  C  C31  1  0.44752500  0.44424900  0.49646300  1
  C  C32  1  0.55247500  0.55575100  0.50353700  1
  C  C33  1  0.33800300  0.33505300  0.48793100  1
  O  O34  1  0.50367200  0.01274400  0.13610800  1
  O  O35  1  0.25615700  0.76830500  0.97731600  1
  O  O36  1  0.71206000  0.10258900  0.49594800  1
  O  O37  1  0.49632800  0.98725600  0.86389200  1
  O  O38  1  0.01076200  0.33320200  0.28086900  1
  O  O39  1  0.21206000  0.10258900  0.00405200  1
  O  O40  1  0.78794000  0.89741100  0.99594800  1
  O  O41  1  0.51076200  0.33320200  0.21913100  1
  O  O42  1  0.75615700  0.76830500  0.52268400  1
  O  O43  1  0.97651800  0.65538300  0.31759100  1
  O  O44  1  0.48923800  0.66679800  0.78086900  1
  O  O45  1  0.24384300  0.23169500  0.47731600  1
  O  O46  1  0.47651800  0.65538300  0.18240900  1
  O  O47  1  0.52348200  0.34461700  0.81759100  1
  O  O48  1  0.74384300  0.23169500  0.02268400  1
  O  O49  1  0.28794000  0.89741100  0.50405200  1
  O  O50  1  0.00367200  0.01274400  0.36389200  1
  O  O51  1  0.98923800  0.66679800  0.71913100  1
  O  O52  1  0.02348200  0.34461700  0.68240900  1
  O  O53  1  0.99632800  0.98725600  0.63610800  1
