# generated using pymatgen
data_AsN(OF3)2
_symmetry_space_group_name_H-M   'P 1'
_cell_length_a   4.92067678
_cell_length_b   4.92067678
_cell_length_c   6.14127727
_cell_angle_alpha   85.50958825
_cell_angle_beta   85.50958825
_cell_angle_gamma   97.27125969
_symmetry_Int_Tables_number   1
_chemical_formula_structural   AsN(OF3)2
_chemical_formula_sum   'As1 N1 O2 F6'
_cell_volume   146.46446115
_cell_formula_units_Z   1
loop_
 _symmetry_equiv_pos_site_id
 _symmetry_equiv_pos_as_xyz
  1  'x, y, z'
loop_
 _atom_site_type_symbol
 _atom_site_label
 _atom_site_symmetry_multiplicity
 _atom_site_fract_x
 _atom_site_fract_y
 _atom_site_fract_z
 _atom_site_occupancy
  As  As0  1  0.00000000  0.00000000  0.00000000  1
  N  N1  1  0.50000000  0.50000000  0.50000000  1
  O  O2  1  0.37179200  0.37179200  0.38868000  1
  O  O3  1  0.62820800  0.62820800  0.61132000  1
  F  F4  1  0.76290400  0.76290400  0.17601600  1
  F  F5  1  0.92839200  0.26657600  0.16426300  1
  F  F6  1  0.26657600  0.92839200  0.16426300  1
  F  F7  1  0.73342400  0.07160800  0.83573700  1
  F  F8  1  0.07160800  0.73342400  0.83573700  1
  F  F9  1  0.23709600  0.23709600  0.82398400  1
