# generated using pymatgen
data_Os3C9S2O9
_symmetry_space_group_name_H-M   'P 1'
_cell_length_a   6.80263300
_cell_length_b   9.59863009
_cell_length_c   13.70756960
_cell_angle_alpha   82.66262956
_cell_angle_beta   84.63063673
_cell_angle_gamma   69.56613541
_symmetry_Int_Tables_number   1
_chemical_formula_structural   Os3C9S2O9
_chemical_formula_sum   'Os6 C18 S4 O18'
_cell_volume   830.70421364
_cell_formula_units_Z   2
loop_
 _symmetry_equiv_pos_site_id
 _symmetry_equiv_pos_as_xyz
  1  'x, y, z'
loop_
 _atom_site_type_symbol
 _atom_site_label
 _atom_site_symmetry_multiplicity
 _atom_site_fract_x
 _atom_site_fract_y
 _atom_site_fract_z
 _atom_site_occupancy
  Os  Os0  1  0.67156500  0.76023300  0.84446500  1
  Os  Os1  1  0.29431700  0.60021900  0.24214400  1
  Os  Os2  1  0.70568300  0.39978100  0.75785600  1
  Os  Os3  1  0.41804800  0.30192200  0.34052900  1
  Os  Os4  1  0.58195200  0.69807800  0.65947100  1
  Os  Os5  1  0.32843500  0.23976700  0.15553500  1
  C  C6  1  0.79415100  0.28033200  0.87724400  1
  C  C7  1  0.55977900  0.07092700  0.11524000  1
  C  C8  1  0.90921000  0.26795600  0.67318000  1
  C  C9  1  0.44022100  0.92907300  0.88476000  1
  C  C10  1  0.69715800  0.22689300  0.38495100  1
  C  C11  1  0.20584900  0.71966800  0.12275600  1
  C  C12  1  0.14599000  0.12285900  0.17815300  1
  C  C13  1  0.30776600  0.39830800  0.45674600  1
  C  C14  1  0.24509100  0.31972400  0.02688400  1
  C  C15  1  0.75490900  0.68027600  0.97311600  1
  C  C16  1  0.30284200  0.77310700  0.61504900  1
  C  C17  1  0.09079000  0.73204400  0.32682000  1
  C  C18  1  0.49831300  0.31343600  0.73917900  1
  C  C19  1  0.50168700  0.68656400  0.26082100  1
  C  C20  1  0.69223400  0.60169200  0.54325400  1
  C  C21  1  0.37483100  0.11578400  0.37802400  1
  C  C22  1  0.85401000  0.87714100  0.82184700  1
  C  C23  1  0.62516900  0.88421600  0.62197600  1
  S  S24  1  0.54843600  0.38200000  0.17870900  1
  S  S25  1  0.45156400  0.61800000  0.82129100  1
  S  S26  1  0.09400600  0.43311400  0.25183600  1
  S  S27  1  0.90599400  0.56688600  0.74816400  1
  O  O28  1  0.96770200  0.80996300  0.37833600  1
  O  O29  1  0.34847900  0.00326900  0.40472600  1
  O  O30  1  0.19515800  0.37352100  0.94803900  1
  O  O31  1  0.96461800  0.94743700  0.80744700  1
  O  O32  1  0.62627600  0.74044500  0.27077300  1
  O  O33  1  0.30304300  0.03299800  0.90817200  1
  O  O34  1  0.84028400  0.21378500  0.95372300  1
  O  O35  1  0.03538200  0.05256300  0.19255300  1
  O  O36  1  0.03229800  0.19003700  0.62166400  1
  O  O37  1  0.80484200  0.62647900  0.05196100  1
  O  O38  1  0.65152100  0.99673100  0.59527400  1
  O  O39  1  0.86774600  0.18259800  0.41101800  1
  O  O40  1  0.37372400  0.25955500  0.72922700  1
  O  O41  1  0.76031000  0.54049100  0.47308700  1
  O  O42  1  0.69695700  0.96700200  0.09182800  1
  O  O43  1  0.13225400  0.81740200  0.58898200  1
  O  O44  1  0.23969000  0.45950900  0.52691300  1
  O  O45  1  0.15971600  0.78621500  0.04627700  1
