# generated using pymatgen
data_MnNF3
_symmetry_space_group_name_H-M   'P 1'
_cell_length_a   5.70433600
_cell_length_b   5.71307500
_cell_length_c   7.90400800
_cell_angle_alpha   90.00000000
_cell_angle_beta   90.00000000
_cell_angle_gamma   90.00000000
_symmetry_Int_Tables_number   1
_chemical_formula_structural   MnNF3
_chemical_formula_sum   'Mn4 N4 F12'
_cell_volume   257.58608312
_cell_formula_units_Z   4
loop_
 _symmetry_equiv_pos_site_id
 _symmetry_equiv_pos_as_xyz
  1  'x, y, z'
loop_
 _atom_site_type_symbol
 _atom_site_label
 _atom_site_symmetry_multiplicity
 _atom_site_fract_x
 _atom_site_fract_y
 _atom_site_fract_z
 _atom_site_occupancy
  Mn  Mn0  1  0.50000000  0.50000000  0.00000000  1
  Mn  Mn1  1  0.00000000  0.00000000  0.50000000  1
  Mn  Mn2  1  0.50000000  0.50000000  0.50000000  1
  Mn  Mn3  1  0.00000000  0.00000000  0.00000000  1
  N  N4  1  0.00163600  0.49854300  0.25000000  1
  N  N5  1  0.50163600  0.00145700  0.25000000  1
  N  N6  1  0.99836400  0.50145700  0.75000000  1
  N  N7  1  0.49836400  0.99854300  0.75000000  1
  F  F8  1  0.77561900  0.75751100  0.00614000  1
  F  F9  1  0.27561900  0.74248900  0.49386000  1
  F  F10  1  0.22438100  0.24248900  0.50614000  1
  F  F11  1  0.72438100  0.25751100  0.99386000  1
  F  F12  1  0.22438100  0.24248900  0.99386000  1
  F  F13  1  0.72438100  0.25751100  0.50614000  1
  F  F14  1  0.77561900  0.75751100  0.49386000  1
  F  F15  1  0.27561900  0.74248900  0.00614000  1
  F  F16  1  0.50144700  0.48836200  0.25000000  1
  F  F17  1  0.00144700  0.01163800  0.25000000  1
  F  F18  1  0.49855300  0.51163800  0.75000000  1
  F  F19  1  0.99855300  0.98836200  0.75000000  1
