# generated using pymatgen
data_NaCa3C2O7F3
_symmetry_space_group_name_H-M   'P 1'
_cell_length_a   6.76965371
_cell_length_b   6.76965371
_cell_length_c   15.33478000
_cell_angle_alpha   90.00000000
_cell_angle_beta   90.00000000
_cell_angle_gamma   119.99999713
_symmetry_Int_Tables_number   1
_chemical_formula_structural   NaCa3C2O7F3
_chemical_formula_sum   'Na3 Ca9 C6 O21 F9'
_cell_volume   608.61282656
_cell_formula_units_Z   3
loop_
 _symmetry_equiv_pos_site_id
 _symmetry_equiv_pos_as_xyz
  1  'x, y, z'
loop_
 _atom_site_type_symbol
 _atom_site_label
 _atom_site_symmetry_multiplicity
 _atom_site_fract_x
 _atom_site_fract_y
 _atom_site_fract_z
 _atom_site_occupancy
  Na  Na0  1  0.27596700  0.00000000  0.16666700  1
  Na  Na1  1  0.72403300  0.72403300  0.50000000  1
  Na  Na2  1  0.00000000  0.27596700  0.83333300  1
  Ca  Ca3  1  0.38046900  0.38046900  0.00000000  1
  Ca  Ca4  1  0.00000000  0.61953100  0.33333300  1
  Ca  Ca5  1  0.61953100  0.00000000  0.66666700  1
  Ca  Ca6  1  0.63165000  0.99838900  0.00406400  1
  Ca  Ca7  1  0.36673900  0.36835000  0.33739700  1
  Ca  Ca8  1  0.00161100  0.63326100  0.67073100  1
  Ca  Ca9  1  0.99838900  0.63165000  0.99593600  1
  Ca  Ca10  1  0.63326100  0.00161100  0.32926900  1
  Ca  Ca11  1  0.36835000  0.36673900  0.66260300  1
  C  C12  1  0.75722300  0.43358300  0.16808600  1
  C  C13  1  0.67636000  0.24277700  0.50141900  1
  C  C14  1  0.56641700  0.32364000  0.83475200  1
  C  C15  1  0.32364000  0.56641700  0.16524800  1
  C  C16  1  0.24277700  0.67636000  0.49858100  1
  C  C17  1  0.43358300  0.75722300  0.83191400  1
  O  O18  1  0.68273600  0.32760300  0.09380100  1
  O  O19  1  0.64486700  0.31726400  0.42713400  1
  O  O20  1  0.67239700  0.35513300  0.76046800  1
  O  O21  1  0.66423000  0.32941400  0.24073000  1
  O  O22  1  0.66518400  0.33577000  0.57406300  1
  O  O23  1  0.67058600  0.33481600  0.90739700  1
  O  O24  1  0.92364700  0.64081100  0.16891700  1
  O  O25  1  0.71716400  0.07635300  0.50225100  1
  O  O26  1  0.35918900  0.28283600  0.83558400  1
  O  O27  1  0.32760300  0.68273600  0.90619900  1
  O  O28  1  0.35513300  0.67239700  0.23953200  1
  O  O29  1  0.31726400  0.64486700  0.57286600  1
  O  O30  1  0.32941400  0.66423000  0.75927000  1
  O  O31  1  0.33481600  0.67058600  0.09260300  1
  O  O32  1  0.33577000  0.66518400  0.42593700  1
  O  O33  1  0.28283600  0.35918900  0.16441600  1
  O  O34  1  0.07635300  0.71716400  0.49774900  1
  O  O35  1  0.64081100  0.92364700  0.83108300  1
  O  O36  1  0.00000000  0.76901800  0.83333300  1
  O  O37  1  0.76901800  0.00000000  0.16666700  1
  O  O38  1  0.23098200  0.23098200  0.50000000  1
  F  F39  1  0.27308600  0.00432700  0.01802500  1
  F  F40  1  0.73124200  0.72691400  0.35135800  1
  F  F41  1  0.99567300  0.26875800  0.68469200  1
  F  F42  1  0.72228800  0.72228800  0.00000000  1
  F  F43  1  0.00000000  0.27771200  0.33333300  1
  F  F44  1  0.27771200  0.00000000  0.66666700  1
  F  F45  1  0.00432700  0.27308600  0.98197500  1
  F  F46  1  0.26875800  0.99567300  0.31530800  1
  F  F47  1  0.72691400  0.73124200  0.64864200  1
