# generated using pymatgen
data_MnF2
_symmetry_space_group_name_H-M   'P 1'
_cell_length_a   5.28400300
_cell_length_b   5.28398901
_cell_length_c   5.26041401
_cell_angle_alpha   90.00494453
_cell_angle_beta   90.00171688
_cell_angle_gamma   90.00016261
_symmetry_Int_Tables_number   1
_chemical_formula_structural   MnF2
_chemical_formula_sum   'Mn4 F8'
_cell_volume   146.87398704
_cell_formula_units_Z   4
loop_
 _symmetry_equiv_pos_site_id
 _symmetry_equiv_pos_as_xyz
  1  'x, y, z'
loop_
 _atom_site_type_symbol
 _atom_site_label
 _atom_site_symmetry_multiplicity
 _atom_site_fract_x
 _atom_site_fract_y
 _atom_site_fract_z
 _atom_site_occupancy
  Mn  Mn0  1  0.50000000  0.50003900  0.99997500  1
  Mn  Mn1  1  0.00006500  0.00003800  0.00000100  1
  Mn  Mn2  1  0.99994000  0.49998100  0.49998400  1
  Mn  Mn3  1  0.50001200  0.99996300  0.50003700  1
  F  F4  1  0.27682200  0.72318600  0.75984500  1
  F  F5  1  0.72315900  0.27683300  0.75987600  1
  F  F6  1  0.78193800  0.78192400  0.73082600  1
  F  F7  1  0.21808600  0.21811000  0.73071900  1
  F  F8  1  0.72318000  0.72316500  0.24019100  1
  F  F9  1  0.78190600  0.21806300  0.26922800  1
  F  F10  1  0.21808600  0.78190000  0.26922800  1
  F  F11  1  0.27680500  0.27679700  0.24009100  1
