# generated using pymatgen
data_P3Rh4
_symmetry_space_group_name_H-M   'P 1'
_cell_length_a   3.34616800
_cell_length_b   10.12004800
_cell_length_c   11.79580300
_cell_angle_alpha   90.00000000
_cell_angle_beta   90.00000000
_cell_angle_gamma   90.00000000
_symmetry_Int_Tables_number   1
_chemical_formula_structural   P3Rh4
_chemical_formula_sum   'P12 Rh16'
_cell_volume   399.44576855
_cell_formula_units_Z   4
loop_
 _symmetry_equiv_pos_site_id
 _symmetry_equiv_pos_as_xyz
  1  'x, y, z'
loop_
 _atom_site_type_symbol
 _atom_site_label
 _atom_site_symmetry_multiplicity
 _atom_site_fract_x
 _atom_site_fract_y
 _atom_site_fract_z
 _atom_site_occupancy
  P  P0  1  0.75000000  0.92085200  0.63073600  1
  P  P1  1  0.75000000  0.07981800  0.87241300  1
  P  P2  1  0.75000000  0.23970600  0.62403300  1
  P  P3  1  0.25000000  0.07914800  0.36926400  1
  P  P4  1  0.25000000  0.73970600  0.87596700  1
  P  P5  1  0.25000000  0.57981800  0.62758700  1
  P  P6  1  0.25000000  0.92018200  0.12758700  1
  P  P7  1  0.75000000  0.57914800  0.13073600  1
  P  P8  1  0.25000000  0.42085200  0.86926400  1
  P  P9  1  0.75000000  0.26029400  0.12403300  1
  P  P10  1  0.75000000  0.42018200  0.37241300  1
  P  P11  1  0.25000000  0.76029400  0.37596700  1
  Rh  Rh12  1  0.25000000  0.92990600  0.77115900  1
  Rh  Rh13  1  0.25000000  0.40622400  0.06454400  1
  Rh  Rh14  1  0.75000000  0.88199700  0.97316600  1
  Rh  Rh15  1  0.75000000  0.59377600  0.93545600  1
  Rh  Rh16  1  0.25000000  0.29121600  0.29506500  1
  Rh  Rh17  1  0.25000000  0.38199700  0.52683400  1
  Rh  Rh18  1  0.75000000  0.07009400  0.22884100  1
  Rh  Rh19  1  0.25000000  0.09377600  0.56454400  1
  Rh  Rh20  1  0.25000000  0.57009400  0.27115900  1
  Rh  Rh21  1  0.75000000  0.61800300  0.47316600  1
  Rh  Rh22  1  0.75000000  0.90622400  0.43545600  1
  Rh  Rh23  1  0.75000000  0.42990600  0.72884100  1
  Rh  Rh24  1  0.25000000  0.11800300  0.02683400  1
  Rh  Rh25  1  0.75000000  0.79121600  0.20493500  1
  Rh  Rh26  1  0.75000000  0.70878400  0.70493500  1
  Rh  Rh27  1  0.25000000  0.20878400  0.79506500  1
