# generated using pymatgen
data_Cs6ZnGe8
_symmetry_space_group_name_H-M   'P 1'
_cell_length_a   16.34799759
_cell_length_b   13.47222170
_cell_length_c   12.89120645
_cell_angle_alpha   76.61184577
_cell_angle_beta   53.29220810
_cell_angle_gamma   50.09594613
_symmetry_Int_Tables_number   1
_chemical_formula_structural   Cs6ZnGe8
_chemical_formula_sum   'Cs18 Zn3 Ge24'
_cell_volume   1692.00022366
_cell_formula_units_Z   3
loop_
 _symmetry_equiv_pos_site_id
 _symmetry_equiv_pos_as_xyz
  1  'x, y, z'
loop_
 _atom_site_type_symbol
 _atom_site_label
 _atom_site_symmetry_multiplicity
 _atom_site_fract_x
 _atom_site_fract_y
 _atom_site_fract_z
 _atom_site_occupancy
  Cs  Cs0  1  0.60593300  0.05620000  0.39406700  1
  Cs  Cs1  1  0.55763100  0.80432400  0.15162200  1
  Cs  Cs2  1  0.22505800  0.43317800  0.15643100  1
  Cs  Cs3  1  0.27176200  0.09472300  0.72823800  1
  Cs  Cs4  1  0.84837800  0.51357800  0.44236900  1
  Cs  Cs5  1  0.67803900  0.32196100  0.61626800  1
  Cs  Cs6  1  0.90527700  0.72823800  0.09472300  1
  Cs  Cs7  1  0.08891100  0.91108900  0.91108900  1
  Cs  Cs8  1  0.75757200  0.24242800  0.24242800  1
  Cs  Cs9  1  0.01052500  0.98947500  0.61660300  1
  Cs  Cs10  1  0.84356900  0.81466800  0.77494200  1
  Cs  Cs11  1  0.38339700  0.61660300  0.98947500  1
  Cs  Cs12  1  0.18533200  0.15643100  0.43317800  1
  Cs  Cs13  1  0.48642200  0.15162200  0.80432400  1
  Cs  Cs14  1  0.94380000  0.39406700  0.05620000  1
  Cs  Cs15  1  0.19567600  0.44236900  0.51357800  1
  Cs  Cs16  1  0.38373200  0.61626800  0.32196100  1
  Cs  Cs17  1  0.56682200  0.77494200  0.81466800  1
  Zn  Zn18  1  0.04910600  0.95089400  0.28448700  1
  Zn  Zn19  1  0.38618700  0.61381300  0.61381300  1
  Zn  Zn20  1  0.71551300  0.28448700  0.95089400  1
  Ge  Ge21  1  0.25684600  0.92914000  0.20228300  1
  Ge  Ge22  1  0.82919100  0.98338400  0.48652600  1
  Ge  Ge23  1  0.94120800  0.24618700  0.83499200  1
  Ge  Ge24  1  0.87270500  0.76659400  0.46205500  1
  Ge  Ge25  1  0.20397100  0.43710000  0.79602900  1
  Ge  Ge26  1  0.17024300  0.64376800  0.71051000  1
  Ge  Ge27  1  0.41312100  0.39945800  0.58687900  1
  Ge  Ge28  1  0.89864600  0.46205500  0.76659400  1
  Ge  Ge29  1  0.75381300  0.05879200  0.02238700  1
  Ge  Ge30  1  0.23340600  0.12729500  0.10135400  1
  Ge  Ge31  1  0.16500800  0.02238700  0.05879200  1
  Ge  Ge32  1  0.53794500  0.10135400  0.12729500  1
  Ge  Ge33  1  0.70089900  0.48652600  0.98338400  1
  Ge  Ge34  1  0.47547900  0.71051000  0.64376800  1
  Ge  Ge35  1  0.79771700  0.38826900  0.74315400  1
  Ge  Ge36  1  0.35623200  0.82975700  0.52452100  1
  Ge  Ge37  1  0.28949000  0.52452100  0.82975700  1
  Ge  Ge38  1  0.61173100  0.20228300  0.92914000  1
  Ge  Ge39  1  0.60054200  0.58687900  0.39945800  1
  Ge  Ge40  1  0.97761300  0.83499200  0.24618700  1
  Ge  Ge41  1  0.56290000  0.79602900  0.43710000  1
  Ge  Ge42  1  0.01661600  0.17080900  0.29910100  1
  Ge  Ge43  1  0.07086000  0.74315400  0.38826900  1
  Ge  Ge44  1  0.51347400  0.29910100  0.17080900  1
