# generated using pymatgen
data_Gd6C3Cl5
_symmetry_space_group_name_H-M   'P 1'
_cell_length_a   3.69407675
_cell_length_b   8.42125164
_cell_length_c   10.28842485
_cell_angle_alpha   85.76164168
_cell_angle_beta   79.66833761
_cell_angle_gamma   77.32308085
_symmetry_Int_Tables_number   1
_chemical_formula_structural   Gd6C3Cl5
_chemical_formula_sum   'Gd6 C3 Cl5'
_cell_volume   306.99594729
_cell_formula_units_Z   1
loop_
 _symmetry_equiv_pos_site_id
 _symmetry_equiv_pos_as_xyz
  1  'x, y, z'
loop_
 _atom_site_type_symbol
 _atom_site_label
 _atom_site_symmetry_multiplicity
 _atom_site_fract_x
 _atom_site_fract_y
 _atom_site_fract_z
 _atom_site_occupancy
  Gd  Gd0  1  0.57428272  0.07680383  0.77994649  1
  Gd  Gd1  1  0.95894184  0.43047118  0.66012252  1
  Gd  Gd2  1  0.68309189  0.18157851  0.45451626  1
  Gd  Gd3  1  0.04893295  0.56729838  0.34076638  1
  Gd  Gd4  1  0.31912456  0.81991923  0.54315235  1
  Gd  Gd5  1  0.43167229  0.92189219  0.21703895  1
  C  C6  1  0.12671540  0.12275385  0.62581034  1
  C  C7  1  0.87815779  0.87408418  0.37256852  1
  C  C8  1  0.50612694  0.49808250  0.49969490  1
  Cl  Cl9  1  0.74434990  0.74595415  0.75704064  1
  Cl  Cl10  1  0.38017406  0.38002055  0.87125730  1
  Cl  Cl11  1  0.25148232  0.25261834  0.23922983  1
  Cl  Cl12  1  0.63274369  0.61568280  0.12966234  1
  Cl  Cl13  1  0.00142463  0.99642931  0.99850917  1
