# generated using pymatgen
data_Cs3Sb2N3(O3F2)3
_symmetry_space_group_name_H-M   'P 1'
_cell_length_a   11.87084470
_cell_length_b   11.87084470
_cell_length_c   9.98315342
_cell_angle_alpha   89.69933735
_cell_angle_beta   89.69933735
_cell_angle_gamma   37.64692049
_symmetry_Int_Tables_number   1
_chemical_formula_structural   Cs3Sb2N3(O3F2)3
_chemical_formula_sum   'Cs6 Sb4 N6 O18 F12'
_cell_volume   859.24877712
_cell_formula_units_Z   2
loop_
 _symmetry_equiv_pos_site_id
 _symmetry_equiv_pos_as_xyz
  1  'x, y, z'
loop_
 _atom_site_type_symbol
 _atom_site_label
 _atom_site_symmetry_multiplicity
 _atom_site_fract_x
 _atom_site_fract_y
 _atom_site_fract_z
 _atom_site_occupancy
  Cs  Cs0  1  0.44387300  0.18100600  0.34045300  1
  Cs  Cs1  1  0.55612700  0.81899400  0.65954700  1
  Cs  Cs2  1  0.18100600  0.44387300  0.84045300  1
  Cs  Cs3  1  0.50000000  0.50000000  0.50000000  1
  Cs  Cs4  1  0.81899400  0.55612700  0.15954700  1
  Cs  Cs5  1  0.50000000  0.50000000  0.00000000  1
  Sb  Sb6  1  0.26363900  0.96403600  0.28280600  1
  Sb  Sb7  1  0.03596400  0.73636100  0.21719400  1
  Sb  Sb8  1  0.96403600  0.26363900  0.78280600  1
  Sb  Sb9  1  0.73636100  0.03596400  0.71719400  1
  N  N10  1  0.11635700  0.88364300  0.75000000  1
  N  N11  1  0.05060500  0.32103700  0.50465600  1
  N  N12  1  0.88364300  0.11635700  0.25000000  1
  N  N13  1  0.94939500  0.67896300  0.49534400  1
  N  N14  1  0.32103700  0.05060500  0.00465600  1
  N  N15  1  0.67896300  0.94939500  0.99534400  1
  O  O16  1  0.24176800  0.84949600  0.79057300  1
  O  O17  1  0.09756200  0.28620500  0.38085200  1
  O  O18  1  0.28620500  0.09756200  0.88085200  1
  O  O19  1  0.15050400  0.75823200  0.70942700  1
  O  O20  1  0.16366400  0.26207700  0.59315400  1
  O  O21  1  0.05355400  0.94644600  0.25000000  1
  O  O22  1  0.58735600  0.10925300  0.96272600  1
  O  O23  1  0.84949600  0.24176800  0.29057300  1
  O  O24  1  0.83633600  0.73792300  0.40684600  1
  O  O25  1  0.75823200  0.15050400  0.20942700  1
  O  O26  1  0.26207700  0.16366400  0.09315400  1
  O  O27  1  0.41264400  0.89074700  0.03727400  1
  O  O28  1  0.90243800  0.71379500  0.61914800  1
  O  O29  1  0.73792300  0.83633600  0.90684600  1
  O  O30  1  0.10925300  0.58735600  0.46272600  1
  O  O31  1  0.89074700  0.41264400  0.53727400  1
  O  O32  1  0.94644600  0.05355400  0.75000000  1
  O  O33  1  0.71379500  0.90243800  0.11914800  1
  F  F34  1  0.92085800  0.25743400  0.97430600  1
  F  F35  1  0.25743400  0.92085800  0.47430600  1
  F  F36  1  0.52194700  0.11325600  0.65877300  1
  F  F37  1  0.44791600  0.69656400  0.25004500  1
  F  F38  1  0.11325600  0.52194700  0.15877300  1
  F  F39  1  0.74256600  0.07914200  0.52569400  1
  F  F40  1  0.69656400  0.44791600  0.75004500  1
  F  F41  1  0.47805300  0.88674400  0.34122700  1
  F  F42  1  0.55208400  0.30343600  0.74995500  1
  F  F43  1  0.88674400  0.47805300  0.84122700  1
  F  F44  1  0.30343600  0.55208400  0.24995500  1
  F  F45  1  0.07914200  0.74256600  0.02569400  1
