# generated using pymatgen
data_Co2C5SO5
_symmetry_space_group_name_H-M   'P 1'
_cell_length_a   6.70610600
_cell_length_b   9.92265600
_cell_length_c   14.86830040
_cell_angle_alpha   55.27492422
_cell_angle_beta   90.00000000
_cell_angle_gamma   90.00000000
_symmetry_Int_Tables_number   1
_chemical_formula_structural   Co2C5SO5
_chemical_formula_sum   'Co8 C20 S4 O20'
_cell_volume   813.15983058
_cell_formula_units_Z   4
loop_
 _symmetry_equiv_pos_site_id
 _symmetry_equiv_pos_as_xyz
  1  'x, y, z'
loop_
 _atom_site_type_symbol
 _atom_site_label
 _atom_site_symmetry_multiplicity
 _atom_site_fract_x
 _atom_site_fract_y
 _atom_site_fract_z
 _atom_site_occupancy
  Co  Co0  1  0.07154100  0.85406900  0.97015600  1
  Co  Co1  1  0.42845900  0.85406900  0.47015600  1
  Co  Co2  1  0.54320200  0.84293400  0.64282400  1
  Co  Co3  1  0.92845900  0.14593100  0.02984400  1
  Co  Co4  1  0.57154100  0.14593100  0.52984400  1
  Co  Co5  1  0.45679800  0.15706600  0.35717600  1
  Co  Co6  1  0.04320200  0.15706600  0.85717600  1
  Co  Co7  1  0.95679800  0.84293400  0.14282400  1
  C  C8  1  0.20419200  0.73904100  0.50836500  1
  C  C9  1  0.29580800  0.73904100  0.00836500  1
  C  C10  1  0.37941000  0.01165900  0.31872400  1
  C  C11  1  0.36558000  0.72963400  0.74864000  1
  C  C12  1  0.79580800  0.26095900  0.49163500  1
  C  C13  1  0.74208500  0.70003400  0.70114900  1
  C  C14  1  0.25791500  0.29996600  0.29885100  1
  C  C15  1  0.41923800  0.27809800  0.54510000  1
  C  C16  1  0.08076200  0.27809800  0.04510000  1
  C  C17  1  0.12059000  0.01165900  0.81872400  1
  C  C18  1  0.13442000  0.72963400  0.24864000  1
  C  C19  1  0.91923800  0.72190200  0.95490000  1
  C  C20  1  0.86558000  0.27036600  0.75136000  1
  C  C21  1  0.87941000  0.98834100  0.18127600  1
  C  C22  1  0.70419200  0.26095900  0.99163500  1
  C  C23  1  0.63442000  0.27036600  0.25136000  1
  C  C24  1  0.24208500  0.29996600  0.79885100  1
  C  C25  1  0.75791500  0.70003400  0.20114900  1
  C  C26  1  0.62059000  0.98834100  0.68127600  1
  C  C27  1  0.58076200  0.72190200  0.45490000  1
  S  S28  1  0.19357200  0.01171300  0.02274700  1
  S  S29  1  0.80642800  0.98828700  0.97725300  1
  S  S30  1  0.30642800  0.01171300  0.52274700  1
  S  S31  1  0.69357200  0.98828700  0.47725300  1
  O  O32  1  0.86507300  0.60067100  0.74158300  1
  O  O33  1  0.63492700  0.60067100  0.24158300  1
  O  O34  1  0.74413600  0.34858700  0.17975900  1
  O  O35  1  0.24413600  0.65141300  0.32024100  1
  O  O36  1  0.93664900  0.34256700  0.46388600  1
  O  O37  1  0.66858900  0.98318900  0.75934000  1
  O  O38  1  0.33141100  0.01681100  0.24066000  1
  O  O39  1  0.67087200  0.63284000  0.44409900  1
  O  O40  1  0.16858900  0.01681100  0.74066000  1
  O  O41  1  0.36507300  0.39932900  0.75841700  1
  O  O42  1  0.43664900  0.65743300  0.03611400  1
  O  O43  1  0.83141100  0.98318900  0.25934000  1
  O  O44  1  0.56335100  0.34256700  0.96388600  1
  O  O45  1  0.17087200  0.36716000  0.05590100  1
  O  O46  1  0.06335100  0.65743300  0.53611400  1
  O  O47  1  0.13492700  0.39932900  0.25841700  1
  O  O48  1  0.25586400  0.65141300  0.82024100  1
  O  O49  1  0.82912800  0.63284000  0.94409900  1
  O  O50  1  0.32912800  0.36716000  0.55590100  1
  O  O51  1  0.75586400  0.34858700  0.67975900  1
