# generated using pymatgen
data_Ti9Se2
_symmetry_space_group_name_H-M   'P 1'
_cell_length_a   3.46046700
_cell_length_b   6.83278700
_cell_length_c   15.51034600
_cell_angle_alpha   90.00000000
_cell_angle_beta   90.00000000
_cell_angle_gamma   90.00000000
_symmetry_Int_Tables_number   1
_chemical_formula_structural   Ti9Se2
_chemical_formula_sum   'Ti18 Se4'
_cell_volume   366.73645332
_cell_formula_units_Z   2
loop_
 _symmetry_equiv_pos_site_id
 _symmetry_equiv_pos_as_xyz
  1  'x, y, z'
loop_
 _atom_site_type_symbol
 _atom_site_label
 _atom_site_symmetry_multiplicity
 _atom_site_fract_x
 _atom_site_fract_y
 _atom_site_fract_z
 _atom_site_occupancy
  Ti  Ti0  1  0.00000000  0.72247700  0.71026000  1
  Ti  Ti1  1  0.50000000  0.40445600  0.63961800  1
  Ti  Ti2  1  0.00000000  0.61073800  0.92273100  1
  Ti  Ti3  1  0.00000000  0.77752300  0.21026000  1
  Ti  Ti4  1  0.50000000  0.28121100  0.94341100  1
  Ti  Ti5  1  0.50000000  0.71878900  0.05658900  1
  Ti  Ti6  1  0.00000000  0.11073800  0.57726900  1
  Ti  Ti7  1  0.00000000  0.88926200  0.42273100  1
  Ti  Ti8  1  0.50000000  0.21878900  0.44341100  1
  Ti  Ti9  1  0.00000000  0.38926200  0.07726900  1
  Ti  Ti10  1  0.50000000  0.59554400  0.36038200  1
  Ti  Ti11  1  0.00000000  0.22247700  0.78974000  1
  Ti  Ti12  1  0.50000000  0.90445600  0.86038200  1
  Ti  Ti13  1  0.00000000  0.00000000  0.00000000  1
  Ti  Ti14  1  0.00000000  0.27752300  0.28974000  1
  Ti  Ti15  1  0.50000000  0.09554400  0.13961800  1
  Ti  Ti16  1  0.50000000  0.78121100  0.55658900  1
  Ti  Ti17  1  0.00000000  0.50000000  0.50000000  1
  Se  Se18  1  0.50000000  0.51918200  0.80277100  1
  Se  Se19  1  0.50000000  0.48081800  0.19722900  1
  Se  Se20  1  0.50000000  0.01918200  0.69722900  1
  Se  Se21  1  0.50000000  0.98081800  0.30277100  1
