# generated using pymatgen
data_Mn(GaS2)2
_symmetry_space_group_name_H-M   'P 1'
_cell_length_a   6.44441881
_cell_length_b   12.39767262
_cell_length_c   13.06592337
_cell_angle_alpha   115.35019997
_cell_angle_beta   99.04049180
_cell_angle_gamma   100.83049140
_symmetry_Int_Tables_number   1
_chemical_formula_structural   Mn(GaS2)2
_chemical_formula_sum   'Mn6 Ga12 S24'
_cell_volume   892.77775827
_cell_formula_units_Z   6
loop_
 _symmetry_equiv_pos_site_id
 _symmetry_equiv_pos_as_xyz
  1  'x, y, z'
loop_
 _atom_site_type_symbol
 _atom_site_label
 _atom_site_symmetry_multiplicity
 _atom_site_fract_x
 _atom_site_fract_y
 _atom_site_fract_z
 _atom_site_occupancy
  Mn  Mn0  1  0.46359700  0.21641500  0.43399900  1
  Mn  Mn1  1  0.11979100  0.86938900  0.74000000  1
  Mn  Mn2  1  0.53674100  0.78383900  0.56498300  1
  Mn  Mn3  1  0.70532900  0.95688900  0.91244300  1
  Mn  Mn4  1  0.29541900  0.04326500  0.08699700  1
  Mn  Mn5  1  0.87822700  0.12777600  0.25727800  1
  Ga  Ga6  1  0.29342800  0.67196300  0.91935700  1
  Ga  Ga7  1  0.45388000  0.83312700  0.25218100  1
  Ga  Ga8  1  0.30087400  0.41751900  0.25082000  1
  Ga  Ga9  1  0.71039500  0.32880500  0.08044800  1
  Ga  Ga10  1  0.03414400  0.88725500  0.40246800  1
  Ga  Ga11  1  0.12943700  0.24606700  0.91846700  1
  Ga  Ga12  1  0.96997100  0.11560200  0.59969400  1
  Ga  Ga13  1  0.87242600  0.51824000  0.40228900  1
  Ga  Ga14  1  0.13078600  0.48573900  0.59839600  1
  Ga  Ga15  1  0.55094500  0.16622000  0.74856600  1
  Ga  Ga16  1  0.70205400  0.58110000  0.74824700  1
  Ga  Ga17  1  0.87119700  0.75087800  0.08073900  1
  S  S18  1  0.74667300  0.74342500  0.23741400  1
  S  S19  1  0.25723400  0.25653800  0.76445900  1
  S  S20  1  0.42663200  0.41404500  0.60321500  1
  S  S21  1  0.67093100  0.15019300  0.08820300  1
  S  S22  1  0.59610400  0.59103000  0.91816500  1
  S  S23  1  0.07963800  0.05996900  0.91052100  1
  S  S24  1  0.01068400  0.50802700  0.76434200  1
  S  S25  1  0.25610600  0.23860700  0.26377900  1
  S  S26  1  0.82485200  0.32567900  0.91808100  1
  S  S27  1  0.99199400  0.49265200  0.23577100  1
  S  S28  1  0.91705300  0.91174900  0.56906400  1
  S  S29  1  0.92205100  0.93688800  0.08750700  1
  S  S30  1  0.08653600  0.09045400  0.43309200  1
  S  S31  1  0.40480400  0.40688800  0.08069700  1
  S  S32  1  0.33192700  0.84951700  0.91025700  1
  S  S33  1  0.84543600  0.34533400  0.43313800  1
  S  S34  1  0.57065800  0.58464900  0.39913300  1
  S  S35  1  0.49652000  0.97516500  0.73620000  1
  S  S36  1  0.32469700  0.81049400  0.39700600  1
  S  S37  1  0.50895000  0.02475500  0.26466700  1
  S  S38  1  0.74336300  0.76003300  0.73561800  1
  S  S39  1  0.15803700  0.65912300  0.56766100  1
  S  S40  1  0.18033700  0.67514100  0.08177000  1
  S  S41  1  0.67138500  0.18502900  0.60013700  1
