# generated using pymatgen
data_P(HO)3
_symmetry_space_group_name_H-M   'P 1'
_cell_length_a   7.36100100
_cell_length_b   7.87254900
_cell_length_c   11.50521459
_cell_angle_alpha   89.98163382
_cell_angle_beta   90.00000000
_cell_angle_gamma   90.00000000
_symmetry_Int_Tables_number   1
_chemical_formula_structural   P(HO)3
_chemical_formula_sum   'P8 H24 O24'
_cell_volume   666.72532268
_cell_formula_units_Z   8
loop_
 _symmetry_equiv_pos_site_id
 _symmetry_equiv_pos_as_xyz
  1  'x, y, z'
loop_
 _atom_site_type_symbol
 _atom_site_label
 _atom_site_symmetry_multiplicity
 _atom_site_fract_x
 _atom_site_fract_y
 _atom_site_fract_z
 _atom_site_occupancy
  P  P0  1  0.02475300  0.49532500  0.38375800  1
  P  P1  1  0.52475300  0.50467500  0.61624200  1
  P  P2  1  0.52552500  0.00202000  0.88143700  1
  P  P3  1  0.02552500  0.99798000  0.11856300  1
  P  P4  1  0.45695800  0.43968600  0.12365200  1
  P  P5  1  0.95695800  0.56031400  0.87634800  1
  P  P6  1  0.95629100  0.05988900  0.62189600  1
  P  P7  1  0.45629100  0.94011100  0.37810400  1
  H  H8  1  0.96135000  0.23604700  0.45148300  1
  H  H9  1  0.46135000  0.76395300  0.54851700  1
  H  H10  1  0.44574000  0.25691100  0.95129800  1
  H  H11  1  0.94574000  0.74308900  0.04870200  1
  H  H12  1  0.92365700  0.66181100  0.23811700  1
  H  H13  1  0.42365700  0.33818900  0.76188300  1
  H  H14  1  0.42108400  0.83461000  0.73712700  1
  H  H15  1  0.92108400  0.16539000  0.26287300  1
  H  H16  1  0.97438700  0.50590900  0.57998800  1
  H  H17  1  0.47438700  0.49409100  0.42001200  1
  H  H18  1  0.47665300  0.99777500  0.07785700  1
  H  H19  1  0.97665300  0.00222500  0.92214300  1
  H  H20  1  0.65813500  0.52153500  0.25964400  1
  H  H21  1  0.15813500  0.47846500  0.74035600  1
  H  H22  1  0.15764700  0.97956200  0.75773700  1
  H  H23  1  0.65764700  0.02043800  0.24226300  1
  H  H24  1  0.16586100  0.44047800  0.07935900  1
  H  H25  1  0.66586100  0.55952200  0.92064100  1
  H  H26  1  0.66460200  0.06128100  0.57855800  1
  H  H27  1  0.16460200  0.93871900  0.42144200  1
  H  H28  1  0.47057200  0.71156800  0.04730200  1
  H  H29  1  0.97057200  0.28843200  0.95269800  1
  H  H30  1  0.97234800  0.78600400  0.54633500  1
  H  H31  1  0.47234800  0.21399600  0.45366500  1
  O  O32  1  0.93163100  0.30141800  0.37967600  1
  O  O33  1  0.43163100  0.69858200  0.62032400  1
  O  O34  1  0.43750400  0.19777000  0.87472000  1
  O  O35  1  0.93750400  0.80223000  0.12528000  1
  O  O36  1  0.87318700  0.58307300  0.29838200  1
  O  O37  1  0.37318700  0.41692700  0.70161800  1
  O  O38  1  0.37225100  0.91375200  0.79765700  1
  O  O39  1  0.87225100  0.08624800  0.20234300  1
  O  O40  1  0.93198600  0.56430700  0.50846200  1
  O  O41  1  0.43198600  0.43569300  0.49153800  1
  O  O42  1  0.43022600  0.94029100  0.00724300  1
  O  O43  1  0.93022600  0.05970900  0.99275700  1
  O  O44  1  0.52399100  0.50594700  0.25120900  1
  O  O45  1  0.02399100  0.49405300  0.74879100  1
  O  O46  1  0.02375400  0.99575900  0.74986600  1
  O  O47  1  0.52375400  0.00424100  0.25013400  1
  O  O48  1  0.24370400  0.47924500  0.14528400  1
  O  O49  1  0.74370400  0.52075500  0.85471600  1
  O  O50  1  0.74283100  0.02192900  0.64428600  1
  O  O51  1  0.24283100  0.97807100  0.35571400  1
  O  O52  1  0.52225400  0.59572900  0.03582200  1
  O  O53  1  0.02225400  0.40427100  0.96417800  1
  O  O54  1  0.02088100  0.90355900  0.53491700  1
  O  O55  1  0.52088100  0.09644100  0.46508300  1
