# generated using pymatgen
data_Mo3C8S13N2
_symmetry_space_group_name_H-M   'P 1'
_cell_length_a   10.63961435
_cell_length_b   10.37362487
_cell_length_c   6.48203891
_cell_angle_alpha   97.35708354
_cell_angle_beta   84.67974088
_cell_angle_gamma   117.60241683
_symmetry_Int_Tables_number   1
_chemical_formula_structural   Mo3C8S13N2
_chemical_formula_sum   'Mo3 C8 S13 N2'
_cell_volume   628.33047002
_cell_formula_units_Z   1
loop_
 _symmetry_equiv_pos_site_id
 _symmetry_equiv_pos_as_xyz
  1  'x, y, z'
loop_
 _atom_site_type_symbol
 _atom_site_label
 _atom_site_symmetry_multiplicity
 _atom_site_fract_x
 _atom_site_fract_y
 _atom_site_fract_z
 _atom_site_occupancy
  Mo  Mo0  1  0.47871200  0.82068600  0.60896400  1
  Mo  Mo1  1  0.33303600  0.52318800  0.59326600  1
  Mo  Mo2  1  0.18906100  0.68540100  0.61292400  1
  C  C3  1  0.94352700  0.90799700  0.11125600  1
  C  C4  1  0.94506700  0.03749500  0.01532100  1
  C  C5  1  0.00511400  0.84867300  0.94051100  1
  C  C6  1  0.06044100  0.00047000  0.90920400  1
  C  C7  1  0.59914800  0.23510500  0.96892700  1
  C  C8  1  0.63037800  0.40948300  0.04497600  1
  C  C9  1  0.76239500  0.35714700  0.04791600  1
  C  C10  1  0.69857200  0.36587100  0.85141200  1
  S  S11  1  0.66013700  0.01623300  0.82658500  1
  S  S12  1  0.33439800  0.33741600  0.79298900  1
  S  S13  1  0.96649100  0.67780600  0.81552200  1
  S  S14  1  0.70251300  0.04059700  0.52625600  1
  S  S15  1  0.33653900  0.28531000  0.48985000  1
  S  S16  1  0.97807200  0.70104600  0.50794700  1
  S  S17  1  0.32839400  0.68704000  0.88567400  1
  S  S18  1  0.33552000  0.95589900  0.65727300  1
  S  S19  1  0.59712700  0.66034100  0.60767000  1
  S  S20  1  0.06706100  0.41427900  0.62503800  1
  S  S21  1  0.33871700  0.85643800  0.36698400  1
  S  S22  1  0.51424500  0.65551100  0.33610100  1
  S  S23  1  0.15864400  0.48756200  0.34722000  1
  N  N24  1  0.06838100  0.05739500  0.13525200  1
  N  N25  1  0.63491000  0.30891100  0.18422300  1
