# generated using pymatgen
data_Cs2K2B10O17
_symmetry_space_group_name_H-M   'P 1'
_cell_length_a   6.67710090
_cell_length_b   11.44274041
_cell_length_c   11.98101752
_cell_angle_alpha   102.68519387
_cell_angle_beta   106.33765911
_cell_angle_gamma   90.09185762
_symmetry_Int_Tables_number   1
_chemical_formula_structural   Cs2K2B10O17
_chemical_formula_sum   'Cs4 K4 B20 O34'
_cell_volume   855.03095743
_cell_formula_units_Z   2
loop_
 _symmetry_equiv_pos_site_id
 _symmetry_equiv_pos_as_xyz
  1  'x, y, z'
loop_
 _atom_site_type_symbol
 _atom_site_label
 _atom_site_symmetry_multiplicity
 _atom_site_fract_x
 _atom_site_fract_y
 _atom_site_fract_z
 _atom_site_occupancy
  Cs  Cs0  1  0.25518000  0.40361000  0.88851100  1
  Cs  Cs1  1  0.74421200  0.59502900  0.11005700  1
  Cs  Cs2  1  0.36636100  0.09550200  0.11079300  1
  Cs  Cs3  1  0.64218100  0.90740400  0.89092300  1
  K  K4  1  0.19373600  0.32793500  0.54260500  1
  K  K5  1  0.65193700  0.17328700  0.45959100  1
  K  K6  1  0.35156500  0.82536600  0.54336000  1
  K  K7  1  0.81304700  0.67588400  0.45656300  1
  B  B8  1  0.49046900  0.83666000  0.28802300  1
  B  B9  1  0.51041300  0.16272000  0.71151300  1
  B  B10  1  0.44247800  0.42521200  0.30309000  1
  B  B11  1  0.12211700  0.76485200  0.89808400  1
  B  B12  1  0.22533100  0.98470700  0.33400300  1
  B  B13  1  0.89282200  0.51475600  0.66619800  1
  B  B14  1  0.87659800  0.23444400  0.10407200  1
  B  B15  1  0.79593200  0.33618500  0.28986200  1
  B  B16  1  0.20558000  0.66311000  0.71298600  1
  B  B17  1  0.04776900  0.87073800  0.73097700  1
  B  B18  1  0.85844600  0.92478300  0.29940900  1
  B  B19  1  0.95443400  0.12880600  0.27137300  1
  B  B20  1  0.14256300  0.07357500  0.69910600  1
  B  B21  1  0.56030200  0.57420000  0.70013700  1
  B  B22  1  0.22484400  0.73184500  0.10237800  1
  B  B23  1  0.68472100  0.37083700  0.72976000  1
  B  B24  1  0.77607800  0.01383800  0.66453900  1
  B  B25  1  0.10833300  0.48472400  0.33434200  1
  B  B26  1  0.31746900  0.62800400  0.27049000  1
  B  B27  1  0.77602700  0.26723800  0.89842300  1
  O  O28  1  0.05723300  0.86441000  0.85611800  1
  O  O29  1  0.76488700  0.31773100  0.15756900  1
  O  O30  1  0.23231500  0.68037100  0.84452100  1
  O  O31  1  0.43437100  0.73973000  0.33667200  1
  O  O32  1  0.07366300  0.74795800  0.99973900  1
  O  O33  1  0.42886800  0.95571100  0.34722700  1
  O  O34  1  0.20484700  0.63169600  0.14399900  1
  O  O35  1  0.15163600  0.59924700  0.32540000  1
  O  O36  1  0.17404200  0.10032900  0.32923400  1
  O  O37  1  0.41534000  0.65812900  0.69116700  1
  O  O38  1  0.72204700  0.84151400  0.30940600  1
  O  O39  1  0.92424100  0.25217000  0.00213000  1
  O  O40  1  0.84718900  0.39966300  0.67266300  1
  O  O41  1  0.80137600  0.02874800  0.26394000  1
  O  O42  1  0.53775400  0.47025500  0.73490400  1
  O  O43  1  0.57378600  0.04368000  0.65297500  1
  O  O44  1  0.10169400  0.76029500  0.66492000  1
  O  O45  1  0.08300300  0.54422800  0.65341300  1
  O  O46  1  0.38602400  0.81852400  0.15658700  1
  O  O47  1  0.91891200  0.45515700  0.34798800  1
  O  O48  1  0.92974800  0.09866900  0.66641000  1
  O  O49  1  0.90043900  0.23899000  0.33756500  1
  O  O50  1  0.58793000  0.34193600  0.31342900  1
  O  O51  1  0.61385900  0.18091700  0.84334000  1
  O  O52  1  0.25899700  0.39975200  0.33211400  1
  O  O53  1  0.27859300  0.15691500  0.68876700  1
  O  O54  1  0.82794300  0.89919400  0.67273700  1
  O  O55  1  0.46425400  0.52876400  0.26676400  1
  O  O56  1  0.56666900  0.25972800  0.66371000  1
  O  O57  1  0.74387700  0.60044400  0.67135900  1
  O  O58  1  0.19943400  0.97211100  0.73867700  1
  O  O59  1  0.94451300  0.13528000  0.14598900  1
  O  O60  1  0.07051800  0.89832800  0.32719700  1
  O  O61  1  0.79974600  0.36623500  0.85579400  1
