# generated using pymatgen
data_GeS2
_symmetry_space_group_name_H-M   'P 1'
_cell_length_a   12.47799271
_cell_length_b   12.47799271
_cell_length_c   12.47799271
_cell_angle_alpha   126.27997866
_cell_angle_beta   126.27997866
_cell_angle_gamma   79.42846249
_symmetry_Int_Tables_number   1
_chemical_formula_structural   GeS2
_chemical_formula_sum   'Ge16 S32'
_cell_volume   1220.31621281
_cell_formula_units_Z   16
loop_
 _symmetry_equiv_pos_site_id
 _symmetry_equiv_pos_as_xyz
  1  'x, y, z'
loop_
 _atom_site_type_symbol
 _atom_site_label
 _atom_site_symmetry_multiplicity
 _atom_site_fract_x
 _atom_site_fract_y
 _atom_site_fract_z
 _atom_site_occupancy
  Ge  Ge0  1  0.77840900  0.31128100  0.71753900  1
  Ge  Ge1  1  0.47159100  0.68913000  0.03287200  1
  Ge  Ge2  1  0.31087000  0.34374200  0.78246100  1
  Ge  Ge3  1  0.93913000  0.22159100  0.53287200  1
  Ge  Ge4  1  0.81087000  0.02840900  0.96712800  1
  Ge  Ge5  1  0.18871900  0.72159100  0.28246100  1
  Ge  Ge6  1  0.06128100  0.84374200  0.03287200  1
  Ge  Ge7  1  0.27840900  0.56087000  0.46712800  1
  Ge  Ge8  1  0.59374200  0.06087000  0.28246100  1
  Ge  Ge9  1  0.09374200  0.81128100  0.53287200  1
  Ge  Ge10  1  0.65625800  0.43871900  0.96712800  1
  Ge  Ge11  1  0.97159100  0.93871900  0.78246100  1
  Ge  Ge12  1  0.68871900  0.40625800  0.46712800  1
  Ge  Ge13  1  0.43913000  0.90625800  0.71753900  1
  Ge  Ge14  1  0.56128100  0.52840900  0.21753900  1
  Ge  Ge15  1  0.15625800  0.18913000  0.21753900  1
  S  S16  1  0.46601800  0.26576100  0.73283600  1
  S  S17  1  0.12500000  0.66708600  0.04208600  1
  S  S18  1  0.61223900  0.11223900  0.50000000  1
  S  S19  1  0.62500000  0.08291400  0.95791400  1
  S  S20  1  0.51576100  0.21601800  0.23283600  1
  S  S21  1  0.76681800  0.96707500  0.73283600  1
  S  S22  1  0.12500000  0.16708600  0.54208600  1
  S  S23  1  0.91708600  0.87500000  0.54208600  1
  S  S24  1  0.01576100  0.78292500  0.29974200  1
  S  S25  1  0.62500000  0.58291400  0.45791400  1
  S  S26  1  0.13776100  0.13776100  0.00000000  1
  S  S27  1  0.28398200  0.98423900  0.76716400  1
  S  S28  1  0.86223900  0.86223900  0.00000000  1
  S  S29  1  0.53292500  0.73318200  0.26716400  1
  S  S30  1  0.11223900  0.61223900  0.50000000  1
  S  S31  1  0.63776100  0.63776100  0.00000000  1
  S  S32  1  0.88776100  0.38776100  0.50000000  1
  S  S33  1  0.78398200  0.01681800  0.29974200  1
  S  S34  1  0.48318200  0.71601800  0.70025800  1
  S  S35  1  0.26681800  0.53398200  0.79974200  1
  S  S36  1  0.41708600  0.87500000  0.04208600  1
  S  S37  1  0.38776100  0.88776100  0.50000000  1
  S  S38  1  0.96601800  0.23318200  0.20025800  1
  S  S39  1  0.98318200  0.28292500  0.76716400  1
  S  S40  1  0.73423900  0.46707500  0.20025800  1
  S  S41  1  0.03292500  0.76576100  0.79974200  1
  S  S42  1  0.83291400  0.37500000  0.95791400  1
  S  S43  1  0.36223900  0.36223900  0.00000000  1
  S  S44  1  0.21707500  0.51681800  0.23283600  1
  S  S45  1  0.71707500  0.48423900  0.70025800  1
  S  S46  1  0.23423900  0.03398200  0.26716400  1
  S  S47  1  0.33291400  0.37500000  0.45791400  1
