# generated using pymatgen
data_H5IO6
_symmetry_space_group_name_H-M   'P 1'
_cell_length_a   18.46406200
_cell_length_b   4.92196300
_cell_length_c   5.51926887
_cell_angle_alpha   69.70163971
_cell_angle_beta   90.00000000
_cell_angle_gamma   90.00000000
_symmetry_Int_Tables_number   1
_chemical_formula_structural   H5IO6
_chemical_formula_sum   'H20 I4 O24'
_cell_volume   470.43882343
_cell_formula_units_Z   4
loop_
 _symmetry_equiv_pos_site_id
 _symmetry_equiv_pos_as_xyz
  1  'x, y, z'
loop_
 _atom_site_type_symbol
 _atom_site_label
 _atom_site_symmetry_multiplicity
 _atom_site_fract_x
 _atom_site_fract_y
 _atom_site_fract_z
 _atom_site_occupancy
  H  H0  1  0.54546500  0.63857900  0.02209300  1
  H  H1  1  0.99300600  0.95463500  0.34841300  1
  H  H2  1  0.49300600  0.04536500  0.65158700  1
  H  H3  1  0.04546500  0.36142100  0.97790700  1
  H  H4  1  0.60963000  0.19653800  0.48837200  1
  H  H5  1  0.97987600  0.58995700  0.08946200  1
  H  H6  1  0.47987600  0.41004300  0.91053800  1
  H  H7  1  0.10963000  0.80346200  0.51162800  1
  H  H8  1  0.96526400  0.35588700  0.60265200  1
  H  H9  1  0.46526400  0.64411300  0.39734800  1
  H  H10  1  0.69024400  0.78914600  0.88906400  1
  H  H11  1  0.80019700  0.33554400  0.35396500  1
  H  H12  1  0.30019700  0.66445600  0.64603500  1
  H  H13  1  0.19024400  0.21085400  0.11093600  1
  H  H14  1  0.86412700  0.75847700  0.84028100  1
  H  H15  1  0.36412700  0.24152300  0.15971900  1
  H  H16  1  0.70694400  0.49195900  0.66457900  1
  H  H17  1  0.77323000  0.99497700  0.11578300  1
  H  H18  1  0.27323000  0.00502300  0.88421700  1
  H  H19  1  0.20694400  0.50804100  0.33542100  1
  I  I20  1  0.61571500  0.17232500  0.97380100  1
  I  I21  1  0.87229500  0.73802200  0.40532900  1
  I  I22  1  0.37229500  0.26197800  0.59467100  1
  I  I23  1  0.11571500  0.82767500  0.02619900  1
  O  O24  1  0.53490400  0.46086800  0.95258400  1
  O  O25  1  0.94482500  0.02072700  0.39373600  1
  O  O26  1  0.44482500  0.97927300  0.60626400  1
  O  O27  1  0.03490400  0.53913200  0.04741600  1
  O  O28  1  0.57511000  0.18531400  0.64702500  1
  O  O29  1  0.90953800  0.65946300  0.12523600  1
  O  O30  1  0.40953800  0.34053700  0.87476400  1
  O  O31  1  0.07511000  0.81468600  0.35297500  1
  O  O32  1  0.55783700  0.85550600  0.12827100  1
  O  O33  1  0.92361800  0.43426800  0.66844800  1
  O  O34  1  0.42361800  0.56573200  0.33155200  1
  O  O35  1  0.05783700  0.14449400  0.87172900  1
  O  O36  1  0.70179200  0.97089400  0.92913400  1
  O  O37  1  0.78857000  0.49238100  0.42502000  1
  O  O38  1  0.28857000  0.50761900  0.57498000  1
  O  O39  1  0.20179200  0.02910600  0.07086600  1
  O  O40  1  0.65050700  0.21535600  0.26578000  1
  O  O41  1  0.82981500  0.81492000  0.68840900  1
  O  O42  1  0.32981500  0.18508000  0.31159100  1
  O  O43  1  0.15050700  0.78464400  0.73422000  1
  O  O44  1  0.66944900  0.53080000  0.77752300  1
  O  O45  1  0.81591300  0.06164000  0.19407800  1
  O  O46  1  0.31591300  0.93836000  0.80592200  1
  O  O47  1  0.16944900  0.46920000  0.22247700  1
