# generated using pymatgen
data_Ba4In6O13
_symmetry_space_group_name_H-M   'P 1'
_cell_length_a   12.62686594
_cell_length_b   12.62686594
_cell_length_c   12.62686594
_cell_angle_alpha   153.06323043
_cell_angle_beta   123.02968383
_cell_angle_gamma   64.11409648
_symmetry_Int_Tables_number   1
_chemical_formula_structural   Ba4In6O13
_chemical_formula_sum   'Ba8 In12 O26'
_cell_volume   758.12040662
_cell_formula_units_Z   2
loop_
 _symmetry_equiv_pos_site_id
 _symmetry_equiv_pos_as_xyz
  1  'x, y, z'
loop_
 _atom_site_type_symbol
 _atom_site_label
 _atom_site_symmetry_multiplicity
 _atom_site_fract_x
 _atom_site_fract_y
 _atom_site_fract_z
 _atom_site_occupancy
  Ba  Ba0  1  0.02761400  0.16186100  0.87697100  1
  Ba  Ba1  1  0.71511000  0.34935700  0.37697100  1
  Ba  Ba2  1  0.21279500  0.34047300  0.87906500  1
  Ba  Ba3  1  0.28489000  0.66186100  0.63424700  1
  Ba  Ba4  1  0.97238600  0.84935700  0.13424700  1
  Ba  Ba5  1  0.46140800  0.84047300  0.62767800  1
  Ba  Ba6  1  0.78720500  0.66626900  0.12767800  1
  Ba  Ba7  1  0.53859200  0.16626900  0.37906500  1
  In  In8  1  0.34451100  0.96180100  0.39991300  1
  In  In9  1  0.08795300  0.51920200  0.68268400  1
  In  In10  1  0.56188800  0.46180100  0.11729100  1
  In  In11  1  0.37362500  0.25228100  0.12672500  1
  In  In12  1  0.62637500  0.75310000  0.87865600  1
  In  In13  1  0.65548900  0.05540300  0.61729100  1
  In  In14  1  0.91204700  0.59473000  0.43124900  1
  In  In15  1  0.43811200  0.55540300  0.89991300  1
  In  In16  1  0.16348100  0.09473000  0.18268400  1
  In  In17  1  0.83651900  0.01920200  0.93124900  1
  In  In18  1  0.12555600  0.75228100  0.37865600  1
  In  In19  1  0.87444400  0.25310000  0.62672500  1
  O  O20  1  0.49647800  0.99972700  0.00244700  1
  O  O21  1  0.99185900  0.36543200  0.62316700  1
  O  O22  1  0.46648600  0.92473300  0.29981300  1
  O  O23  1  0.25181900  0.42947600  0.61295500  1
  O  O24  1  0.74818100  0.36113600  0.17765700  1
  O  O25  1  0.37508000  0.33332700  0.79981300  1
  O  O26  1  0.00814100  0.63130800  0.37357400  1
  O  O27  1  0.00000000  0.28301600  0.28301600  1
  O  O28  1  0.00000000  0.78301600  0.78301600  1
  O  O29  1  0.53351400  0.83332700  0.45824700  1
  O  O30  1  0.50352200  0.50596900  0.50324900  1
  O  O31  1  0.24117500  0.99975400  0.75433300  1
  O  O32  1  0.75882500  0.51315800  0.75858000  1
  O  O33  1  0.47683600  0.33764900  0.10199700  1
  O  O34  1  0.99728000  0.49972700  0.00324900  1
  O  O35  1  0.75457900  0.01315800  0.25433300  1
  O  O36  1  0.00272000  0.00596900  0.50244700  1
  O  O37  1  0.25773500  0.13130800  0.12316700  1
  O  O38  1  0.23565200  0.83764900  0.36081300  1
  O  O39  1  0.18347900  0.86113600  0.11295500  1
  O  O40  1  0.76434800  0.12516200  0.60199700  1
  O  O41  1  0.52316400  0.62516200  0.86081300  1
  O  O42  1  0.24542100  0.49975400  0.25858000  1
  O  O43  1  0.62492000  0.42473300  0.95824700  1
  O  O44  1  0.81652100  0.92947600  0.67765700  1
  O  O45  1  0.74226500  0.86543200  0.87357400  1
