# generated using pymatgen
data_H3ClO5
_symmetry_space_group_name_H-M   'P 1'
_cell_length_a   6.45749200
_cell_length_b   7.10886300
_cell_length_c   9.79244000
_cell_angle_alpha   90.00000000
_cell_angle_beta   90.00000000
_cell_angle_gamma   90.00000000
_symmetry_Int_Tables_number   1
_chemical_formula_structural   H3ClO5
_chemical_formula_sum   'H12 Cl4 O20'
_cell_volume   449.52612931
_cell_formula_units_Z   4
loop_
 _symmetry_equiv_pos_site_id
 _symmetry_equiv_pos_as_xyz
  1  'x, y, z'
loop_
 _atom_site_type_symbol
 _atom_site_label
 _atom_site_symmetry_multiplicity
 _atom_site_fract_x
 _atom_site_fract_y
 _atom_site_fract_z
 _atom_site_occupancy
  H  H0  1  0.25000000  0.58038000  0.81323900  1
  H  H1  1  0.25000000  0.91962000  0.31323900  1
  H  H2  1  0.75000000  0.41962000  0.18676100  1
  H  H3  1  0.75000000  0.08038000  0.68676100  1
  H  H4  1  0.75000000  0.14083000  0.10429000  1
  H  H5  1  0.75000000  0.15034200  0.26611900  1
  H  H6  1  0.75000000  0.34965800  0.76611900  1
  H  H7  1  0.75000000  0.35917000  0.60429000  1
  H  H8  1  0.25000000  0.84965800  0.73388100  1
  H  H9  1  0.25000000  0.85917000  0.89571000  1
  H  H10  1  0.25000000  0.65034200  0.23388100  1
  H  H11  1  0.25000000  0.64083000  0.39571000  1
  Cl  Cl12  1  0.25000000  0.30558700  0.92361100  1
  Cl  Cl13  1  0.25000000  0.19441300  0.42361100  1
  Cl  Cl14  1  0.75000000  0.69441300  0.07638900  1
  Cl  Cl15  1  0.75000000  0.80558700  0.57638900  1
  O  O16  1  0.25000000  0.43163700  0.79001600  1
  O  O17  1  0.25000000  0.06836300  0.29001600  1
  O  O18  1  0.75000000  0.56836300  0.20998400  1
  O  O19  1  0.75000000  0.93163700  0.70998400  1
  O  O20  1  0.25000000  0.43136500  0.03831800  1
  O  O21  1  0.25000000  0.06863500  0.53831800  1
  O  O22  1  0.75000000  0.56863500  0.96168200  1
  O  O23  1  0.75000000  0.93136500  0.46168200  1
  O  O24  1  0.06588500  0.19238200  0.91438900  1
  O  O25  1  0.43411500  0.30761800  0.41438900  1
  O  O26  1  0.56588500  0.80761800  0.08561100  1
  O  O27  1  0.93411500  0.69238200  0.58561100  1
  O  O28  1  0.93411500  0.80761800  0.08561100  1
  O  O29  1  0.56588500  0.69238200  0.58561100  1
  O  O30  1  0.43411500  0.19238200  0.91438900  1
  O  O31  1  0.06588500  0.30761800  0.41438900  1
  O  O32  1  0.75000000  0.22452600  0.18302800  1
  O  O33  1  0.75000000  0.27547400  0.68302800  1
  O  O34  1  0.25000000  0.77547400  0.81697200  1
  O  O35  1  0.25000000  0.72452600  0.31697200  1
