# generated using pymatgen
data_Zn(C2N3)2
_symmetry_space_group_name_H-M   'P 1'
_cell_length_a   7.69231200
_cell_length_b   7.70788200
_cell_length_c   12.13681100
_cell_angle_alpha   90.00000000
_cell_angle_beta   90.00000000
_cell_angle_gamma   90.00000000
_symmetry_Int_Tables_number   1
_chemical_formula_structural   Zn(C2N3)2
_chemical_formula_sum   'Zn4 C16 N24'
_cell_volume   719.60891871
_cell_formula_units_Z   4
loop_
 _symmetry_equiv_pos_site_id
 _symmetry_equiv_pos_as_xyz
  1  'x, y, z'
loop_
 _atom_site_type_symbol
 _atom_site_label
 _atom_site_symmetry_multiplicity
 _atom_site_fract_x
 _atom_site_fract_y
 _atom_site_fract_z
 _atom_site_occupancy
  Zn  Zn0  1  0.75000000  0.73090300  0.15161100  1
  Zn  Zn1  1  0.25000000  0.26909700  0.84838900  1
  Zn  Zn2  1  0.25000000  0.76909700  0.65161100  1
  Zn  Zn3  1  0.75000000  0.23090300  0.34838900  1
  C  C4  1  0.25000000  0.41826600  0.52246800  1
  C  C5  1  0.25000000  0.62201700  0.97472600  1
  C  C6  1  0.75000000  0.87798300  0.47472600  1
  C  C7  1  0.25000000  0.91826600  0.97753200  1
  C  C8  1  0.60110100  0.72294700  0.77222200  1
  C  C9  1  0.39889900  0.77705300  0.27222200  1
  C  C10  1  0.60110100  0.22294700  0.72777800  1
  C  C11  1  0.75000000  0.37798300  0.02527400  1
  C  C12  1  0.10110100  0.27705300  0.22777800  1
  C  C13  1  0.89889900  0.22294700  0.72777800  1
  C  C14  1  0.10110100  0.77705300  0.27222200  1
  C  C15  1  0.39889900  0.27705300  0.22777800  1
  C  C16  1  0.75000000  0.58173400  0.47753200  1
  C  C17  1  0.89889900  0.72294700  0.77222200  1
  C  C18  1  0.75000000  0.08173400  0.02246800  1
  C  C19  1  0.25000000  0.12201700  0.52527400  1
  N  N20  1  0.04148900  0.76232500  0.74681700  1
  N  N21  1  0.25000000  0.26908900  0.47467600  1
  N  N22  1  0.75000000  0.17190900  0.69243900  1
  N  N23  1  0.75000000  0.43959700  0.44243800  1
  N  N24  1  0.75000000  0.23091100  0.97467600  1
  N  N25  1  0.95851100  0.23767500  0.25318300  1
  N  N26  1  0.04148900  0.26232500  0.75318300  1
  N  N27  1  0.25000000  0.32809100  0.19243900  1
  N  N28  1  0.75000000  0.01777500  0.43619300  1
  N  N29  1  0.25000000  0.82809100  0.30756100  1
  N  N30  1  0.45851100  0.76232500  0.74681700  1
  N  N31  1  0.25000000  0.56040300  0.55756200  1
  N  N32  1  0.54148900  0.23767500  0.25318300  1
  N  N33  1  0.95851100  0.73767500  0.24681700  1
  N  N34  1  0.25000000  0.76908900  0.02532400  1
  N  N35  1  0.25000000  0.06040300  0.94243800  1
  N  N36  1  0.45851100  0.26232500  0.75318300  1
  N  N37  1  0.25000000  0.98222500  0.56380700  1
  N  N38  1  0.75000000  0.67190900  0.80756100  1
  N  N39  1  0.75000000  0.51777500  0.06380700  1
  N  N40  1  0.25000000  0.48222500  0.93619300  1
  N  N41  1  0.75000000  0.93959700  0.05756200  1
  N  N42  1  0.75000000  0.73091100  0.52532400  1
  N  N43  1  0.54148900  0.73767500  0.24681700  1
