# generated using pymatgen
data_Cu2SbO5
_symmetry_space_group_name_H-M   'P 1'
_cell_length_a   7.13810800
_cell_length_b   7.44040729
_cell_length_c   13.78932090
_cell_angle_alpha   88.50301358
_cell_angle_beta   102.41101752
_cell_angle_gamma   116.71954819
_symmetry_Int_Tables_number   1
_chemical_formula_structural   Cu2SbO5
_chemical_formula_sum   'Cu2 Sb1 O5'
_cell_volume   636.77697576
_cell_formula_units_Z   1
loop_
 _symmetry_equiv_pos_site_id
 _symmetry_equiv_pos_as_xyz
  1  'x, y, z'
loop_
 _atom_site_type_symbol
 _atom_site_label
 _atom_site_symmetry_multiplicity
 _atom_site_fract_x
 _atom_site_fract_y
 _atom_site_fract_z
 _atom_site_occupancy
  Cu  Cu0  1  0.19423400  0.70341200  0.54392500  1
  Cu  Cu1  1  0.22109300  0.20002100  0.05212400  1
  Sb  Sb2  1  0.50900100  0.72471500  0.76381900  1
  O  O3  1  0.76139800  0.70708000  0.77349300  1
  O  O4  1  0.06428200  0.81602600  0.46994700  1
  O  O5  1  0.33606400  0.60260600  0.62853000  1
  O  O6  1  0.08936700  0.31391900  0.97931300  1
  O  O7  1  0.34836300  0.08882000  0.12924900  1
