# generated using pymatgen
data_Fe2TeWC10SeO10
_symmetry_space_group_name_H-M   'P 1'
_cell_length_a   6.95645700
_cell_length_b   9.56945294
_cell_length_c   13.83500081
_cell_angle_alpha   81.56433493
_cell_angle_beta   82.13893375
_cell_angle_gamma   85.34031981
_symmetry_Int_Tables_number   1
_chemical_formula_structural   Fe2TeWC10SeO10
_chemical_formula_sum   'Fe4 Te2 W2 C20 Se2 O20'
_cell_volume   900.70337546
_cell_formula_units_Z   2
loop_
 _symmetry_equiv_pos_site_id
 _symmetry_equiv_pos_as_xyz
  1  'x, y, z'
loop_
 _atom_site_type_symbol
 _atom_site_label
 _atom_site_symmetry_multiplicity
 _atom_site_fract_x
 _atom_site_fract_y
 _atom_site_fract_z
 _atom_site_occupancy
  Fe  Fe0  1  0.28097700  0.99972900  0.27113100  1
  Fe  Fe1  1  0.64670000  0.66877700  0.63446800  1
  Fe  Fe2  1  0.35330000  0.33122300  0.36553200  1
  Fe  Fe3  1  0.71902300  0.00027100  0.72886900  1
  Te  Te4  1  0.43121100  0.88576000  0.68074100  1
  Te  Te5  1  0.56878900  0.11424000  0.31925900  1
  W  W6  1  0.39425100  0.27235200  0.16470900  1
  W  W7  1  0.60574900  0.72764800  0.83529100  1
  C  C8  1  0.21444000  0.24606300  0.06288500  1
  C  C9  1  0.44645000  0.86481800  0.22125200  1
  C  C10  1  0.72515500  0.52435600  0.86522300  1
  C  C11  1  0.29878700  0.25876300  0.49053300  1
  C  C12  1  0.63563500  0.38887600  0.13574600  1
  C  C13  1  0.36436500  0.61112400  0.86425400  1
  C  C14  1  0.79244200  0.50399300  0.63720500  1
  C  C15  1  0.56973600  0.41632700  0.37547600  1
  C  C16  1  0.78556000  0.75393700  0.93711500  1
  C  C17  1  0.55355000  0.13518200  0.77874800  1
  C  C18  1  0.20755800  0.49600700  0.36279500  1
  C  C19  1  0.08627000  0.95194300  0.21019900  1
  C  C20  1  0.42584700  0.84380900  0.92891500  1
  C  C21  1  0.57415300  0.15619100  0.07108500  1
  C  C22  1  0.27484500  0.47564400  0.13477700  1
  C  C23  1  0.70121300  0.74123700  0.50946700  1
  C  C24  1  0.22112100  0.90960000  0.39106600  1
  C  C25  1  0.91373000  0.04805700  0.78980100  1
  C  C26  1  0.43026400  0.58367300  0.62452400  1
  C  C27  1  0.77887900  0.09040000  0.60893400  1
  Se  Se28  1  0.10322700  0.22047900  0.30209600  1
  Se  Se29  1  0.89677300  0.77952100  0.69790400  1
  O  O30  1  0.70738500  0.47075300  0.38513300  1
  O  O31  1  0.32492600  0.90744100  0.98315100  1
  O  O32  1  0.67507400  0.09255900  0.01684900  1
  O  O33  1  0.11203700  0.23062300  0.00647300  1
  O  O34  1  0.11701400  0.60303400  0.36273500  1
  O  O35  1  0.54837900  0.77460900  0.19154000  1
  O  O36  1  0.22825000  0.54473100  0.88014600  1
  O  O37  1  0.96123600  0.91870000  0.17319100  1
  O  O38  1  0.29261500  0.52924700  0.61486700  1
  O  O39  1  0.73403400  0.78959000  0.42742700  1
  O  O40  1  0.21132400  0.59099400  0.11639100  1
  O  O41  1  0.88796300  0.76937700  0.99352700  1
  O  O42  1  0.03876400  0.08130000  0.82680900  1
  O  O43  1  0.77175000  0.45526900  0.11985400  1
  O  O44  1  0.81582100  0.14850600  0.52951800  1
  O  O45  1  0.18417900  0.85149400  0.47048200  1
  O  O46  1  0.45162100  0.22539100  0.80846000  1
  O  O47  1  0.26596600  0.21041000  0.57257300  1
  O  O48  1  0.78867600  0.40900600  0.88360900  1
  O  O49  1  0.88298600  0.39696600  0.63726500  1
