# generated using pymatgen
data_Ca2FeWO6
_symmetry_space_group_name_H-M   'P 1'
_cell_length_a   5.58386900
_cell_length_b   5.67383900
_cell_length_c   7.88476500
_cell_angle_alpha   90.00000000
_cell_angle_beta   90.00000000
_cell_angle_gamma   90.00000000
_symmetry_Int_Tables_number   1
_chemical_formula_structural   Ca2FeWO6
_chemical_formula_sum   'Ca4 Fe2 W2 O12'
_cell_volume   249.80491739
_cell_formula_units_Z   2
loop_
 _symmetry_equiv_pos_site_id
 _symmetry_equiv_pos_as_xyz
  1  'x, y, z'
loop_
 _atom_site_type_symbol
 _atom_site_label
 _atom_site_symmetry_multiplicity
 _atom_site_fract_x
 _atom_site_fract_y
 _atom_site_fract_z
 _atom_site_occupancy
  Ca  Ca0  1  0.00000000  0.49977700  0.26201500  1
  Ca  Ca1  1  0.50000000  0.99247500  0.25866800  1
  Ca  Ca2  1  0.00000000  0.49977700  0.73798500  1
  Ca  Ca3  1  0.50000000  0.99247500  0.74133200  1
  Fe  Fe4  1  0.50000000  0.52222000  0.00000000  1
  Fe  Fe5  1  0.00000000  0.01154800  0.50000000  1
  W  W6  1  0.00000000  0.02629500  0.00000000  1
  W  W7  1  0.50000000  0.51217600  0.50000000  1
  O  O8  1  0.75240100  0.76510800  0.50000000  1
  O  O9  1  0.50000000  0.52964700  0.74621700  1
  O  O10  1  0.25410800  0.78549000  0.00000000  1
  O  O11  1  0.50000000  0.52964700  0.25378300  1
  O  O12  1  0.74589200  0.78549000  0.00000000  1
  O  O13  1  0.76176400  0.28716800  0.00000000  1
  O  O14  1  0.00000000  0.02727900  0.25121300  1
  O  O15  1  0.24813200  0.26493700  0.50000000  1
  O  O16  1  0.75186800  0.26493700  0.50000000  1
  O  O17  1  0.24759900  0.76510800  0.50000000  1
  O  O18  1  0.00000000  0.02727900  0.74878700  1
  O  O19  1  0.23823600  0.28716800  0.00000000  1
