# generated using pymatgen
data_BaMnGaF7
_symmetry_space_group_name_H-M   'P 1'
_cell_length_a   7.50317801
_cell_length_b   7.50317801
_cell_length_c   14.91317126
_cell_angle_alpha   88.92432754
_cell_angle_beta   88.92432754
_cell_angle_gamma   41.99318626
_symmetry_Int_Tables_number   1
_chemical_formula_structural   BaMnGaF7
_chemical_formula_sum   'Ba4 Mn4 Ga4 F28'
_cell_volume   561.59885776
_cell_formula_units_Z   4
loop_
 _symmetry_equiv_pos_site_id
 _symmetry_equiv_pos_as_xyz
  1  'x, y, z'
loop_
 _atom_site_type_symbol
 _atom_site_label
 _atom_site_symmetry_multiplicity
 _atom_site_fract_x
 _atom_site_fract_y
 _atom_site_fract_z
 _atom_site_occupancy
  Ba  Ba0  1  0.76624400  0.85495000  0.62160000  1
  Ba  Ba1  1  0.85495000  0.76624400  0.12160000  1
  Ba  Ba2  1  0.14505000  0.23375600  0.87840000  1
  Ba  Ba3  1  0.23375600  0.14505000  0.37840000  1
  Mn  Mn4  1  0.45500100  0.54499900  0.75000000  1
  Mn  Mn5  1  0.50000000  0.50000000  0.50000000  1
  Mn  Mn6  1  0.54499900  0.45500100  0.25000000  1
  Mn  Mn7  1  0.50000000  0.50000000  0.00000000  1
  Ga  Ga8  1  0.11555100  0.12296500  0.12559600  1
  Ga  Ga9  1  0.12296500  0.11555100  0.62559600  1
  Ga  Ga10  1  0.87703500  0.88444900  0.37440400  1
  Ga  Ga11  1  0.88444900  0.87703500  0.87440400  1
  F  F12  1  0.42773900  0.83003100  0.54645800  1
  F  F13  1  0.63948200  0.47394100  0.87148200  1
  F  F14  1  0.05013800  0.62083400  0.77812500  1
  F  F15  1  0.89511000  0.11609100  0.34140700  1
  F  F16  1  0.62083400  0.05013800  0.27812500  1
  F  F17  1  0.36051800  0.52605900  0.12851800  1
  F  F18  1  0.57226100  0.16996900  0.45354200  1
  F  F19  1  0.69464200  0.80922200  0.91057200  1
  F  F20  1  0.47394100  0.63948200  0.37148200  1
  F  F21  1  0.39843900  0.84185900  0.20272300  1
  F  F22  1  0.37916600  0.94986200  0.72187500  1
  F  F23  1  0.19077800  0.30535800  0.58942800  1
  F  F24  1  0.88390900  0.10489000  0.15859300  1
  F  F25  1  0.16996900  0.57226100  0.95354200  1
  F  F26  1  0.52605900  0.36051800  0.62851800  1
  F  F27  1  0.30535800  0.19077800  0.08942800  1
  F  F28  1  0.74714800  0.08869200  0.98049800  1
  F  F29  1  0.08869200  0.74714800  0.48049800  1
  F  F30  1  0.25285200  0.91130800  0.01950200  1
  F  F31  1  0.60156100  0.15814100  0.79727700  1
  F  F32  1  0.11609100  0.89511000  0.84140700  1
  F  F33  1  0.10489000  0.88390900  0.65859300  1
  F  F34  1  0.94986200  0.37916600  0.22187500  1
  F  F35  1  0.15814100  0.60156100  0.29727700  1
  F  F36  1  0.91130800  0.25285200  0.51950200  1
  F  F37  1  0.84185900  0.39843900  0.70272300  1
  F  F38  1  0.83003100  0.42773900  0.04645800  1
  F  F39  1  0.80922200  0.69464200  0.41057200  1
