# generated using pymatgen
data_Rb2FeC5N6O
_symmetry_space_group_name_H-M   'P 1'
_cell_length_a   5.64784600
_cell_length_b   12.54747900
_cell_length_c   15.98057800
_cell_angle_alpha   90.00000000
_cell_angle_beta   90.00000000
_cell_angle_gamma   90.00000000
_symmetry_Int_Tables_number   1
_chemical_formula_structural   Rb2FeC5N6O
_chemical_formula_sum   'Rb8 Fe4 C20 N24 O4'
_cell_volume   1132.48330138
_cell_formula_units_Z   4
loop_
 _symmetry_equiv_pos_site_id
 _symmetry_equiv_pos_as_xyz
  1  'x, y, z'
loop_
 _atom_site_type_symbol
 _atom_site_label
 _atom_site_symmetry_multiplicity
 _atom_site_fract_x
 _atom_site_fract_y
 _atom_site_fract_z
 _atom_site_occupancy
  Rb  Rb0  1  0.97872800  0.68330900  0.89242300  1
  Rb  Rb1  1  0.47872800  0.81669100  0.10757700  1
  Rb  Rb2  1  0.02127200  0.18330900  0.60757700  1
  Rb  Rb3  1  0.52127200  0.31669100  0.39242300  1
  Rb  Rb4  1  0.02841400  0.13173200  0.14679000  1
  Rb  Rb5  1  0.52841400  0.36826800  0.85321000  1
  Rb  Rb6  1  0.47158600  0.86826800  0.64679000  1
  Rb  Rb7  1  0.97158600  0.63173200  0.35321000  1
  Fe  Fe8  1  0.23145300  0.53054900  0.62022800  1
  Fe  Fe9  1  0.26854700  0.46945100  0.12022800  1
  Fe  Fe10  1  0.73145300  0.96945100  0.37977200  1
  Fe  Fe11  1  0.76854700  0.03054900  0.87977200  1
  C  C12  1  0.57417100  0.04519800  0.46799700  1
  C  C13  1  0.43577400  0.58613800  0.70652400  1
  C  C14  1  0.08483100  0.44332800  0.70433900  1
  C  C15  1  0.06422600  0.41386200  0.20652400  1
  C  C16  1  0.94609900  0.08819400  0.38600200  1
  C  C17  1  0.92582900  0.95480200  0.96799700  1
  C  C18  1  0.06836000  0.40086800  0.03853300  1
  C  C19  1  0.42582900  0.54519800  0.03200300  1
  C  C20  1  0.43164000  0.59913200  0.53853300  1
  C  C21  1  0.05390100  0.58819400  0.11399800  1
  C  C22  1  0.56422600  0.08613800  0.79347600  1
  C  C23  1  0.58483100  0.05667200  0.29566100  1
  C  C24  1  0.44609900  0.41180600  0.61399800  1
  C  C25  1  0.93164000  0.90086800  0.46146700  1
  C  C26  1  0.93577400  0.91386200  0.29347600  1
  C  C27  1  0.55390100  0.91180600  0.88600200  1
  C  C28  1  0.91516900  0.94332800  0.79566100  1
  C  C29  1  0.56836000  0.09913200  0.96146700  1
  C  C30  1  0.07417100  0.45480200  0.53200300  1
  C  C31  1  0.41516900  0.55667200  0.20433900  1
  N  N32  1  0.46096900  0.37010500  0.12512700  1
  N  N33  1  0.53903100  0.87010500  0.37487300  1
  N  N34  1  0.93050100  0.66317100  0.11000100  1
  N  N35  1  0.96096900  0.12989500  0.87487300  1
  N  N36  1  0.51660500  0.59155400  0.97696900  1
  N  N37  1  0.01660500  0.90844600  0.02303100  1
  N  N38  1  0.94743000  0.35489300  0.99093800  1
  N  N39  1  0.55569600  0.62211600  0.75942900  1
  N  N40  1  0.49475900  0.61165000  0.25671400  1
  N  N41  1  0.43050100  0.83682900  0.88999900  1
  N  N42  1  0.98339500  0.40844600  0.47696900  1
  N  N43  1  0.94430400  0.37788400  0.25942900  1
  N  N44  1  0.44430400  0.12211600  0.74057100  1
  N  N45  1  0.99475900  0.88835000  0.74328600  1
  N  N46  1  0.44743000  0.14510700  0.00906200  1
  N  N47  1  0.05257000  0.85489300  0.50906200  1
  N  N48  1  0.56949900  0.33682900  0.61000100  1
  N  N49  1  0.05569600  0.87788400  0.24057100  1
  N  N50  1  0.06949900  0.16317100  0.38999900  1
  N  N51  1  0.50524100  0.11165000  0.24328600  1
  N  N52  1  0.48339500  0.09155400  0.52303100  1
  N  N53  1  0.55257000  0.64510700  0.49093800  1
  N  N54  1  0.03903100  0.62989500  0.62512700  1
  N  N55  1  0.00524100  0.38835000  0.75671400  1
  O  O56  1  0.40866900  0.79971900  0.37066300  1
  O  O57  1  0.09133100  0.20028100  0.87066300  1
  O  O58  1  0.59133100  0.29971900  0.12933700  1
  O  O59  1  0.90866900  0.70028100  0.62933700  1
