# generated using pymatgen
data_H4N2O3
_symmetry_space_group_name_H-M   'P 1'
_cell_length_a   4.27749167
_cell_length_b   4.27749167
_cell_length_c   4.56884900
_cell_angle_alpha   87.85234423
_cell_angle_beta   87.85234423
_cell_angle_gamma   90.61006177
_symmetry_Int_Tables_number   1
_chemical_formula_structural   H4N2O3
_chemical_formula_sum   'H4 N2 O3'
_cell_volume   83.47245394
_cell_formula_units_Z   1
loop_
 _symmetry_equiv_pos_site_id
 _symmetry_equiv_pos_as_xyz
  1  'x, y, z'
loop_
 _atom_site_type_symbol
 _atom_site_label
 _atom_site_symmetry_multiplicity
 _atom_site_fract_x
 _atom_site_fract_y
 _atom_site_fract_z
 _atom_site_occupancy
  H  H0  1  0.23616700  0.76383300  0.00000000  1
  H  H1  1  0.69756500  0.30243500  0.00000000  1
  H  H2  1  0.92127200  0.66234900  0.37268700  1
  H  H3  1  0.33765100  0.07872800  0.62731300  1
  N  N4  1  0.06180800  0.93819200  0.00000000  1
  N  N5  1  0.59310000  0.40690000  0.50000000  1
  O  O6  1  0.53613100  0.46386900  0.00000000  1
  O  O7  1  0.90293100  0.44733100  0.46303700  1
  O  O8  1  0.55266900  0.09706900  0.53696300  1
