# generated using pymatgen
data_NaV2(PO7)2
_symmetry_space_group_name_H-M   'P 1'
_cell_length_a   6.27352996
_cell_length_b   6.29319854
_cell_length_c   7.16703040
_cell_angle_alpha   100.52942978
_cell_angle_beta   93.29774948
_cell_angle_gamma   90.09102080
_symmetry_Int_Tables_number   1
_chemical_formula_structural   NaV2(PO7)2
_chemical_formula_sum   'Na1 V2 P2 O14'
_cell_volume   277.71197948
_cell_formula_units_Z   1
loop_
 _symmetry_equiv_pos_site_id
 _symmetry_equiv_pos_as_xyz
  1  'x, y, z'
loop_
 _atom_site_type_symbol
 _atom_site_label
 _atom_site_symmetry_multiplicity
 _atom_site_fract_x
 _atom_site_fract_y
 _atom_site_fract_z
 _atom_site_occupancy
  Na  Na0  1  0.74933200  0.10721300  0.65625600  1
  V  V1  1  0.41286500  0.10867500  0.11951700  1
  V  V2  1  0.91423500  0.63429700  0.24859000  1
  P  P3  1  0.91012600  0.11913300  0.17153500  1
  P  P4  1  0.40743100  0.62509200  0.16691100  1
  O  O5  1  0.45067000  0.15189400  0.34997400  1
  O  O6  1  0.90337300  0.58257800  0.02197900  1
  O  O7  1  0.39184900  0.39766500  0.04739100  1
  O  O8  1  0.71196400  0.10053400  0.03043600  1
  O  O9  1  0.41025000  0.79020500  0.03432800  1
  O  O10  1  0.10306200  0.08075400  0.05013400  1
  O  O11  1  0.21642900  0.66683400  0.30319200  1
  O  O12  1  0.61630500  0.64878100  0.30138600  1
  O  O13  1  0.92195400  0.34808300  0.30540300  1
  O  O14  1  0.90098700  0.95644200  0.31310600  1
  O  O15  1  0.33416000  0.10344400  0.70944100  1
  O  O16  1  0.86831600  0.70736200  0.63631100  1
  O  O17  1  0.19192500  0.23095300  0.68482700  1
  O  O18  1  0.74556800  0.56726200  0.67078200  1
