# generated using pymatgen
data_FeHO2
_symmetry_space_group_name_H-M   'P 1'
_cell_length_a   11.02345256
_cell_length_b   5.95477667
_cell_length_c   10.97242749
_cell_angle_alpha   94.20262426
_cell_angle_beta   90.77416086
_cell_angle_gamma   84.70870923
_symmetry_Int_Tables_number   1
_chemical_formula_structural   FeHO2
_chemical_formula_sum   'Fe16 H16 O32'
_cell_volume   715.24009851
_cell_formula_units_Z   16
loop_
 _symmetry_equiv_pos_site_id
 _symmetry_equiv_pos_as_xyz
  1  'x, y, z'
loop_
 _atom_site_type_symbol
 _atom_site_label
 _atom_site_symmetry_multiplicity
 _atom_site_fract_x
 _atom_site_fract_y
 _atom_site_fract_z
 _atom_site_occupancy
  Fe  Fe0  1  0.35757200  0.04840000  0.08852400  1
  Fe  Fe1  1  0.14466800  0.98339900  0.64910800  1
  Fe  Fe2  1  0.85963600  0.28526500  0.57923400  1
  Fe  Fe3  1  0.69483200  0.25226700  0.10322400  1
  Fe  Fe4  1  0.67532800  0.97088400  0.83189200  1
  Fe  Fe5  1  0.86495100  0.98369900  0.29958100  1
  Fe  Fe6  1  0.17343600  0.21911700  0.38716800  1
  Fe  Fe7  1  0.34627200  0.22305300  0.81429000  1
  Fe  Fe8  1  0.33629600  0.51045400  0.09747400  1
  Fe  Fe9  1  0.15213600  0.50421900  0.65625800  1
  Fe  Fe10  1  0.84460500  0.82700200  0.58989800  1
  Fe  Fe11  1  0.70241500  0.74537700  0.12261400  1
  Fe  Fe12  1  0.67978600  0.47255200  0.82834600  1
  Fe  Fe13  1  0.88068900  0.50673100  0.29994500  1
  Fe  Fe14  1  0.17838800  0.71174200  0.36669900  1
  Fe  Fe15  1  0.39042000  0.72188600  0.80641200  1
  H  H16  1  0.01994600  0.98987500  0.45005700  1
  H  H17  1  0.36219000  0.95166500  0.59233800  1
  H  H18  1  0.53021000  0.24866700  0.92228700  1
  H  H19  1  0.94394100  0.23776400  0.10552900  1
  H  H20  1  0.68364200  0.14511600  0.64177200  1
  H  H21  1  0.63440400  0.97295900  0.33063700  1
  H  H22  1  0.19246700  0.33316600  0.20504500  1
  H  H23  1  0.49980200  0.23489700  0.23025000  1
  H  H24  1  0.10155900  0.23546700  0.85066300  1
  H  H25  1  0.38367500  0.43661200  0.59828200  1
  H  H26  1  0.80764300  0.65432700  0.75033800  1
  H  H27  1  0.99804300  0.53312100  0.50732800  1
  H  H28  1  0.64176000  0.48364600  0.31967500  1
  H  H29  1  0.20767200  0.85942400  0.18011800  1
  H  H30  1  0.49987600  0.72848600  0.04353600  1
  H  H31  1  0.11350200  0.78765000  0.85750100  1
  O  O32  1  0.27204700  0.96004600  0.36595500  1
  O  O33  1  0.04878000  0.97986000  0.36372800  1
  O  O34  1  0.32920300  0.95698500  0.67473000  1
  O  O35  1  0.33197500  0.97507300  0.92003300  1
  O  O36  1  0.76824800  0.20601700  0.84860200  1
  O  O37  1  0.53401000  0.19726600  0.83505800  1
  O  O38  1  0.88015900  0.24163800  0.16621000  1
  O  O39  1  0.84386100  0.27703000  0.40521300  1
  O  O40  1  0.68949500  0.97981700  0.65223000  1
  O  O41  1  0.97335300  0.02880800  0.61877800  1
  O  O42  1  0.67546500  0.00604000  0.25708200  1
  O  O43  1  0.67209800  0.97501900  0.00707000  1
  O  O44  1  0.21757900  0.25807000  0.12523800  1
  O  O45  1  0.47580000  0.27021600  0.14691600  1
  O  O46  1  0.15158500  0.23946600  0.77866300  1
  O  O47  1  0.16311400  0.21913500  0.55267300  1
  O  O48  1  0.27186000  0.44121300  0.37491800  1
  O  O49  1  0.05616800  0.47639200  0.35185200  1
  O  O50  1  0.34578300  0.46314500  0.67833700  1
  O  O51  1  0.34321000  0.49913600  0.92298200  1
  O  O52  1  0.81171000  0.75170300  0.82765300  1
  O  O53  1  0.56419300  0.72970000  0.81170800  1
  O  O54  1  0.87313800  0.71607100  0.17668400  1
  O  O55  1  0.83770200  0.75392000  0.41774100  1
  O  O56  1  0.72657800  0.44566900  0.66053600  1
  O  O57  1  0.97197900  0.54010900  0.59514400  1
  O  O58  1  0.68514200  0.49585900  0.24497700  1
  O  O59  1  0.65804700  0.50276300  0.00188300  1
  O  O60  1  0.19907600  0.69918400  0.18654000  1
  O  O61  1  0.45118300  0.76297300  0.11873300  1
  O  O62  1  0.14436400  0.76187800  0.77477600  1
  O  O63  1  0.16572200  0.73694600  0.53537700  1
