# generated using pymatgen
data_Al(HO)3
_symmetry_space_group_name_H-M   'P 1'
_cell_length_a   5.06290200
_cell_length_b   5.14666669
_cell_length_c   5.59663896
_cell_angle_alpha   64.62146756
_cell_angle_beta   64.60593928
_cell_angle_gamma   61.43879846
_symmetry_Int_Tables_number   1
_chemical_formula_structural   Al(HO)3
_chemical_formula_sum   'Al2 H6 O6'
_cell_volume   111.02131559
_cell_formula_units_Z   2
loop_
 _symmetry_equiv_pos_site_id
 _symmetry_equiv_pos_as_xyz
  1  'x, y, z'
loop_
 _atom_site_type_symbol
 _atom_site_label
 _atom_site_symmetry_multiplicity
 _atom_site_fract_x
 _atom_site_fract_y
 _atom_site_fract_z
 _atom_site_occupancy
  Al  Al0  1  0.32521400  0.33310500  0.00670500  1
  Al  Al1  1  0.67478600  0.66689500  0.99329500  1
  H  H2  1  0.49747200  0.84620400  0.40525900  1
  H  H3  1  0.50252800  0.15379600  0.59474100  1
  H  H4  1  0.15273200  0.62530300  0.36684900  1
  H  H5  1  0.84726800  0.37469700  0.63315100  1
  H  H6  1  0.89303400  0.13613500  0.22861900  1
  H  H7  1  0.10696600  0.86386500  0.77138100  1
  O  O8  1  0.56586400  0.93617700  0.20747900  1
  O  O9  1  0.43413600  0.06382300  0.79252100  1
  O  O10  1  0.31234000  0.55433100  0.20929400  1
  O  O11  1  0.68766000  0.44566900  0.79070600  1
  O  O12  1  0.91984200  0.31375300  0.22323200  1
  O  O13  1  0.08015800  0.68624700  0.77676800  1
