# generated using pymatgen
data_Ta2H4O7
_symmetry_space_group_name_H-M   'P 1'
_cell_length_a   7.35230398
_cell_length_b   7.35230398
_cell_length_c   7.35230398
_cell_angle_alpha   60.00000000
_cell_angle_beta   60.00000000
_cell_angle_gamma   60.00000000
_symmetry_Int_Tables_number   1
_chemical_formula_structural   Ta2H4O7
_chemical_formula_sum   'Ta4 H8 O14'
_cell_volume   281.03173562
_cell_formula_units_Z   2
loop_
 _symmetry_equiv_pos_site_id
 _symmetry_equiv_pos_as_xyz
  1  'x, y, z'
loop_
 _atom_site_type_symbol
 _atom_site_label
 _atom_site_symmetry_multiplicity
 _atom_site_fract_x
 _atom_site_fract_y
 _atom_site_fract_z
 _atom_site_occupancy
  Ta  Ta0  1  0.62500000  0.12500000  0.12500000  1
  Ta  Ta1  1  0.12500000  0.62500000  0.12500000  1
  Ta  Ta2  1  0.12500000  0.12500000  0.62500000  1
  Ta  Ta3  1  0.12500000  0.12500000  0.12500000  1
  H  H4  1  0.32487600  0.55837500  0.55837500  1
  H  H5  1  0.55837500  0.55837500  0.32487600  1
  H  H6  1  0.55837500  0.55837500  0.55837500  1
  H  H7  1  0.55837500  0.32487600  0.55837500  1
  H  H8  1  0.69162500  0.69162500  0.69162500  1
  H  H9  1  0.69162500  0.92512400  0.69162500  1
  H  H10  1  0.69162500  0.69162500  0.92512400  1
  H  H11  1  0.92512400  0.69162500  0.69162500  1
  O  O12  1  0.80279500  0.80279500  0.19720500  1
  O  O13  1  0.19720500  0.19720500  0.80279500  1
  O  O14  1  0.80279500  0.19720500  0.80279500  1
  O  O15  1  0.19720500  0.80279500  0.19720500  1
  O  O16  1  0.19720500  0.80279500  0.80279500  1
  O  O17  1  0.80279500  0.19720500  0.19720500  1
  O  O18  1  0.44720500  0.44720500  0.05279500  1
  O  O19  1  0.05279500  0.05279500  0.44720500  1
  O  O20  1  0.44720500  0.05279500  0.44720500  1
  O  O21  1  0.05279500  0.44720500  0.05279500  1
  O  O22  1  0.05279500  0.44720500  0.44720500  1
  O  O23  1  0.44720500  0.05279500  0.05279500  1
  O  O24  1  0.50000000  0.50000000  0.50000000  1
  O  O25  1  0.75000000  0.75000000  0.75000000  1
