# generated using pymatgen
data_Zn(HO)2
_symmetry_space_group_name_H-M   'P 1'
_cell_length_a   3.22582597
_cell_length_b   3.22582597
_cell_length_c   4.58002886
_cell_angle_alpha   88.60649999
_cell_angle_beta   88.60649999
_cell_angle_gamma   62.06249738
_symmetry_Int_Tables_number   1
_chemical_formula_structural   Zn(HO)2
_chemical_formula_sum   'Zn1 H2 O2'
_cell_volume   42.08831983
_cell_formula_units_Z   1
loop_
 _symmetry_equiv_pos_site_id
 _symmetry_equiv_pos_as_xyz
  1  'x, y, z'
loop_
 _atom_site_type_symbol
 _atom_site_label
 _atom_site_symmetry_multiplicity
 _atom_site_fract_x
 _atom_site_fract_y
 _atom_site_fract_z
 _atom_site_occupancy
  Zn  Zn0  1  0.01654700  0.98345300  0.00000000  1
  H  H1  1  0.56213000  0.87280400  0.56904900  1
  H  H2  1  0.12719600  0.43787000  0.43095100  1
  O  O3  1  0.66348100  0.72968100  0.76348500  1
  O  O4  1  0.27031900  0.33651900  0.23651500  1
