# generated using pymatgen
data_Zn(HO)2
_symmetry_space_group_name_H-M   'P 1'
_cell_length_a   5.43770400
_cell_length_b   5.95784000
_cell_length_c   6.33826800
_cell_angle_alpha   90.00000000
_cell_angle_beta   90.00000000
_cell_angle_gamma   90.00000000
_symmetry_Int_Tables_number   1
_chemical_formula_structural   Zn(HO)2
_chemical_formula_sum   'Zn4 H8 O8'
_cell_volume   205.34068078
_cell_formula_units_Z   4
loop_
 _symmetry_equiv_pos_site_id
 _symmetry_equiv_pos_as_xyz
  1  'x, y, z'
loop_
 _atom_site_type_symbol
 _atom_site_label
 _atom_site_symmetry_multiplicity
 _atom_site_fract_x
 _atom_site_fract_y
 _atom_site_fract_z
 _atom_site_occupancy
  Zn  Zn0  1  0.88398800  0.54900000  0.21242400  1
  Zn  Zn1  1  0.11601200  0.04900000  0.28757600  1
  Zn  Zn2  1  0.38398800  0.95100000  0.78757600  1
  Zn  Zn3  1  0.61601200  0.45100000  0.71242400  1
  H  H4  1  0.33457300  0.40095900  0.27971300  1
  H  H5  1  0.66542700  0.90095900  0.22028700  1
  H  H6  1  0.83457300  0.09904100  0.72028700  1
  H  H7  1  0.16542700  0.59904100  0.77971300  1
  H  H8  1  0.81659800  0.77551800  0.89793800  1
  H  H9  1  0.18340200  0.27551800  0.60206200  1
  H  H10  1  0.31659800  0.72448200  0.10206200  1
  H  H11  1  0.68340200  0.22448200  0.39793800  1
  O  O12  1  0.18305400  0.36522600  0.19896600  1
  O  O13  1  0.81694600  0.86522600  0.30103400  1
  O  O14  1  0.68305400  0.13477400  0.80103400  1
  O  O15  1  0.31694600  0.63477400  0.69896600  1
  O  O16  1  0.85205400  0.61450000  0.89684400  1
  O  O17  1  0.14794600  0.11450000  0.60315600  1
  O  O18  1  0.35205400  0.88550000  0.10315600  1
  O  O19  1  0.64794600  0.38550000  0.39684400  1
