# generated using pymatgen
data_H4N2O3
_symmetry_space_group_name_H-M   'P 1'
_cell_length_a   7.05982300
_cell_length_b   8.25617700
_cell_length_c   8.62154500
_cell_angle_alpha   90.00000000
_cell_angle_beta   90.00000000
_cell_angle_gamma   90.00000000
_symmetry_Int_Tables_number   1
_chemical_formula_structural   H4N2O3
_chemical_formula_sum   'H16 N8 O12'
_cell_volume   502.52527179
_cell_formula_units_Z   4
loop_
 _symmetry_equiv_pos_site_id
 _symmetry_equiv_pos_as_xyz
  1  'x, y, z'
loop_
 _atom_site_type_symbol
 _atom_site_label
 _atom_site_symmetry_multiplicity
 _atom_site_fract_x
 _atom_site_fract_y
 _atom_site_fract_z
 _atom_site_occupancy
  H  H0  1  0.00009800  0.42720100  0.21781900  1
  H  H1  1  0.56868900  0.10821600  0.81547200  1
  H  H2  1  0.44309300  0.96790200  0.76053600  1
  H  H3  1  0.50009800  0.57279900  0.78218100  1
  H  H4  1  0.94309300  0.03209800  0.23946400  1
  H  H5  1  0.06868900  0.89178400  0.18452800  1
  H  H6  1  0.94309300  0.46790200  0.73946400  1
  H  H7  1  0.06868900  0.60821600  0.68452800  1
  H  H8  1  0.50009800  0.92720100  0.28218100  1
  H  H9  1  0.56868900  0.39178400  0.31547200  1
  H  H10  1  0.44309300  0.53209800  0.26053600  1
  H  H11  1  0.00009800  0.07279900  0.71781900  1
  H  H12  1  0.24041400  0.98449200  0.45390600  1
  H  H13  1  0.24041400  0.51550800  0.95390600  1
  H  H14  1  0.74041400  0.01550800  0.54609400  1
  H  H15  1  0.74041400  0.48449200  0.04609400  1
  N  N16  1  0.19808100  0.33162700  0.33836100  1
  N  N17  1  0.19808100  0.16837300  0.83836100  1
  N  N18  1  0.69808100  0.66837300  0.66163900  1
  N  N19  1  0.69808100  0.83162700  0.16163900  1
  N  N20  1  0.73896200  0.13975400  0.52087600  1
  N  N21  1  0.73896200  0.36024600  0.02087600  1
  N  N22  1  0.23896200  0.86024600  0.47912400  1
  N  N23  1  0.23896200  0.63975400  0.97912400  1
  O  O24  1  0.00369800  0.37909800  0.32278200  1
  O  O25  1  0.57535300  0.99663200  0.77896200  1
  O  O26  1  0.50369800  0.62090200  0.67721800  1
  O  O27  1  0.07535300  0.00336800  0.22103800  1
  O  O28  1  0.07535300  0.49663200  0.72103800  1
  O  O29  1  0.50369800  0.87909800  0.17721800  1
  O  O30  1  0.57535300  0.50336800  0.27896200  1
  O  O31  1  0.00369800  0.12090200  0.82278200  1
  O  O32  1  0.22130100  0.25646300  0.45473600  1
  O  O33  1  0.22130100  0.24353700  0.95473600  1
  O  O34  1  0.72130100  0.74353700  0.54526400  1
  O  O35  1  0.72130100  0.75646300  0.04526400  1
