# generated using pymatgen
data_HNO
_symmetry_space_group_name_H-M   'P 1'
_cell_length_a   4.76233249
_cell_length_b   4.76233249
_cell_length_c   6.60770632
_cell_angle_alpha   66.75870341
_cell_angle_beta   66.75870341
_cell_angle_gamma   70.21631783
_symmetry_Int_Tables_number   1
_chemical_formula_structural   HNO
_chemical_formula_sum   'H4 N4 O4'
_cell_volume   123.52636354
_cell_formula_units_Z   4
loop_
 _symmetry_equiv_pos_site_id
 _symmetry_equiv_pos_as_xyz
  1  'x, y, z'
loop_
 _atom_site_type_symbol
 _atom_site_label
 _atom_site_symmetry_multiplicity
 _atom_site_fract_x
 _atom_site_fract_y
 _atom_site_fract_z
 _atom_site_occupancy
  H  H0  1  0.24165400  0.21899000  0.96605100  1
  H  H1  1  0.21899000  0.24165400  0.46605100  1
  H  H2  1  0.70126500  0.82786600  0.99571800  1
  H  H3  1  0.82786600  0.70126500  0.49571800  1
  N  N4  1  0.59858200  0.39341200  0.74465400  1
  N  N5  1  0.39341200  0.59858200  0.24465400  1
  N  N6  1  0.80036900  0.16370400  0.75759500  1
  N  N7  1  0.16370400  0.80036900  0.25759500  1
  O  O8  1  0.27425500  0.43278700  0.86899400  1
  O  O9  1  0.43278700  0.27425500  0.36899400  1
  O  O10  1  0.70173900  0.60863800  0.10626900  1
  O  O11  1  0.60863800  0.70173900  0.60626900  1
