# generated using pymatgen
data_Sc(HO)3
_symmetry_space_group_name_H-M   'P 1'
_cell_length_a   6.90167794
_cell_length_b   6.90167794
_cell_length_c   6.90167812
_cell_angle_alpha   109.63087887
_cell_angle_beta   109.63087887
_cell_angle_gamma   109.63088582
_symmetry_Int_Tables_number   1
_chemical_formula_structural   Sc(HO)3
_chemical_formula_sum   'Sc4 H12 O12'
_cell_volume   251.56379797
_cell_formula_units_Z   4
loop_
 _symmetry_equiv_pos_site_id
 _symmetry_equiv_pos_as_xyz
  1  'x, y, z'
loop_
 _atom_site_type_symbol
 _atom_site_label
 _atom_site_symmetry_multiplicity
 _atom_site_fract_x
 _atom_site_fract_y
 _atom_site_fract_z
 _atom_site_occupancy
  Sc  Sc0  1  0.50000000  0.50000000  0.50000000  1
  Sc  Sc1  1  0.00000000  0.00000000  0.50000000  1
  Sc  Sc2  1  0.50000000  0.00000000  0.00000000  1
  Sc  Sc3  1  0.00000000  0.50000000  0.00000000  1
  H  H4  1  0.04900000  0.30572500  0.35432900  1
  H  H5  1  0.95100000  0.69427500  0.64567100  1
  H  H6  1  0.82042800  0.44293400  0.26353000  1
  H  H7  1  0.17957200  0.55706600  0.73647000  1
  H  H8  1  0.64567100  0.95100000  0.69427500  1
  H  H9  1  0.35432900  0.04900000  0.30572500  1
  H  H10  1  0.73647000  0.17957200  0.55706600  1
  H  H11  1  0.26353000  0.82042800  0.44293400  1
  H  H12  1  0.44293400  0.26353000  0.82042800  1
  H  H13  1  0.55706600  0.73647000  0.17957200  1
  H  H14  1  0.30572500  0.35432900  0.04900000  1
  H  H15  1  0.69427500  0.64567100  0.95100000  1
  O  O16  1  0.17300900  0.31012900  0.48440200  1
  O  O17  1  0.82699100  0.68987100  0.51559800  1
  O  O18  1  0.82239100  0.31694400  0.14359700  1
  O  O19  1  0.17760900  0.68305600  0.85640300  1
  O  O20  1  0.51559800  0.82699100  0.68987100  1
  O  O21  1  0.48440200  0.17300900  0.31012900  1
  O  O22  1  0.85640300  0.17760900  0.68305600  1
  O  O23  1  0.14359700  0.82239100  0.31694400  1
  O  O24  1  0.31694400  0.14359700  0.82239100  1
  O  O25  1  0.68305600  0.85640300  0.17760900  1
  O  O26  1  0.31012900  0.48440200  0.17300900  1
  O  O27  1  0.68987100  0.51559800  0.82699100  1
