# generated using pymatgen
data_TeHO3
_symmetry_space_group_name_H-M   'P 1'
_cell_length_a   8.34849800
_cell_length_b   4.95951600
_cell_length_c   11.71524491
_cell_angle_alpha   88.80759974
_cell_angle_beta   90.00000000
_cell_angle_gamma   90.00000000
_symmetry_Int_Tables_number   1
_chemical_formula_structural   TeHO3
_chemical_formula_sum   'Te8 H8 O24'
_cell_volume   484.95892857
_cell_formula_units_Z   8
loop_
 _symmetry_equiv_pos_site_id
 _symmetry_equiv_pos_as_xyz
  1  'x, y, z'
loop_
 _atom_site_type_symbol
 _atom_site_label
 _atom_site_symmetry_multiplicity
 _atom_site_fract_x
 _atom_site_fract_y
 _atom_site_fract_z
 _atom_site_occupancy
  Te  Te0  1  0.78719400  0.98776700  0.60897800  1
  Te  Te1  1  0.71530900  0.48623300  0.38040100  1
  Te  Te2  1  0.28469100  0.48623300  0.88040100  1
  Te  Te3  1  0.21280600  0.98776700  0.10897800  1
  Te  Te4  1  0.89758200  0.81520700  0.92924700  1
  Te  Te5  1  0.58998100  0.38208600  0.07437100  1
  Te  Te6  1  0.41001900  0.38208600  0.57437100  1
  Te  Te7  1  0.10241800  0.81520700  0.42924700  1
  H  H8  1  0.01661100  0.22940000  0.70350600  1
  H  H9  1  0.58643600  0.92280300  0.31674500  1
  H  H10  1  0.41356400  0.92280300  0.81674500  1
  H  H11  1  0.98338900  0.22940000  0.20350600  1
  H  H12  1  0.72288800  0.98401500  0.14283100  1
  H  H13  1  0.27711200  0.98401500  0.64283100  1
  H  H14  1  0.74981100  0.54805200  0.71865900  1
  H  H15  1  0.25018900  0.54805200  0.21865900  1
  O  O16  1  0.98954800  0.80442200  0.57812200  1
  O  O17  1  0.51785300  0.29824900  0.42650900  1
  O  O18  1  0.48214700  0.29824900  0.92650900  1
  O  O19  1  0.01045200  0.80442200  0.07812200  1
  O  O20  1  0.84168500  0.22238300  0.47607700  1
  O  O21  1  0.66671100  0.72448900  0.51482400  1
  O  O22  1  0.33328900  0.72448900  0.01482400  1
  O  O23  1  0.15831500  0.22238300  0.97607700  1
  O  O24  1  0.90009200  0.21344500  0.71780900  1
  O  O25  1  0.59901800  0.74325400  0.28425400  1
  O  O26  1  0.40098200  0.74325400  0.78425400  1
  O  O27  1  0.09990800  0.21344500  0.21780900  1
  O  O28  1  0.91985600  0.66620900  0.34717200  1
  O  O29  1  0.60320800  0.19182200  0.65421700  1
  O  O30  1  0.39679200  0.19182200  0.15421700  1
  O  O31  1  0.08014400  0.66620900  0.84717200  1
  O  O32  1  0.79739700  0.48468700  0.97099400  1
  O  O33  1  0.68560500  0.01920700  0.06320200  1
  O  O34  1  0.31439500  0.01920700  0.56320200  1
  O  O35  1  0.20260300  0.48468700  0.47099400  1
  O  O36  1  0.75228100  0.73980600  0.74067900  1
  O  O37  1  0.73633600  0.27612900  0.24849300  1
  O  O38  1  0.26366400  0.27612900  0.74849300  1
  O  O39  1  0.24771900  0.73980600  0.24067900  1
