# generated using pymatgen
data_H6N4O9
_symmetry_space_group_name_H-M   'P 1'
_cell_length_a   13.22286600
_cell_length_b   4.97651200
_cell_length_c   6.86048725
_cell_angle_alpha   89.18840989
_cell_angle_beta   90.00000000
_cell_angle_gamma   90.00000000
_symmetry_Int_Tables_number   1
_chemical_formula_structural   H6N4O9
_chemical_formula_sum   'H12 N8 O18'
_cell_volume   451.40050752
_cell_formula_units_Z   2
loop_
 _symmetry_equiv_pos_site_id
 _symmetry_equiv_pos_as_xyz
  1  'x, y, z'
loop_
 _atom_site_type_symbol
 _atom_site_label
 _atom_site_symmetry_multiplicity
 _atom_site_fract_x
 _atom_site_fract_y
 _atom_site_fract_z
 _atom_site_occupancy
  H  H0  1  0.97950500  0.63834700  0.13669100  1
  H  H1  1  0.47950500  0.36165300  0.86330900  1
  H  H2  1  0.98547100  0.09659300  0.73394000  1
  H  H3  1  0.98064600  0.50654900  0.62930700  1
  H  H4  1  0.48064600  0.49345100  0.37069300  1
  H  H5  1  0.48547100  0.90340700  0.26606000  1
  H  H6  1  0.58500200  0.92646700  0.13542300  1
  H  H7  1  0.08500200  0.07353300  0.86457700  1
  H  H8  1  0.15416400  0.32657000  0.10331400  1
  H  H9  1  0.84693800  0.15487600  0.09682900  1
  H  H10  1  0.34693800  0.84512400  0.90317100  1
  H  H11  1  0.65416400  0.67343000  0.89668600  1
  N  N12  1  0.52402200  0.79951000  0.15949100  1
  N  N13  1  0.02402200  0.20049000  0.84050900  1
  N  N14  1  0.02605100  0.69043800  0.40110200  1
  N  N15  1  0.52605100  0.30956200  0.59889800  1
  N  N16  1  0.26489800  0.14244400  0.21734900  1
  N  N17  1  0.74246300  0.37113400  0.19823900  1
  N  N18  1  0.24246300  0.62886600  0.80176100  1
  N  N19  1  0.76489800  0.85755600  0.78265100  1
  O  O20  1  0.98400100  0.79523400  0.22184300  1
  O  O21  1  0.48400100  0.20476600  0.77815700  1
  O  O22  1  0.07784800  0.84772900  0.49384600  1
  O  O23  1  0.94497100  0.55335800  0.50623000  1
  O  O24  1  0.44497100  0.44664200  0.49377000  1
  O  O25  1  0.57784800  0.15227100  0.50615400  1
  O  O26  1  0.29231500  0.98939000  0.34614900  1
  O  O27  1  0.71867300  0.53031600  0.32232100  1
  O  O28  1  0.21867300  0.46968400  0.67767900  1
  O  O29  1  0.79231500  0.01061000  0.65385100  1
  O  O30  1  0.31474800  0.23634700  0.07999400  1
  O  O31  1  0.69052000  0.27990100  0.06445300  1
  O  O32  1  0.19052000  0.72009900  0.93554700  1
  O  O33  1  0.81474800  0.76365300  0.92000600  1
  O  O34  1  0.16315800  0.21987000  0.22496000  1
  O  O35  1  0.84259900  0.28028900  0.20706300  1
  O  O36  1  0.34259900  0.71971100  0.79293700  1
  O  O37  1  0.66315800  0.78013000  0.77504000  1
