# generated using pymatgen
data_Te(HO)6
_symmetry_space_group_name_H-M   'P 1'
_cell_length_a   5.45482300
_cell_length_b   5.52978642
_cell_length_c   5.72655170
_cell_angle_alpha   116.17440881
_cell_angle_beta   116.41188188
_cell_angle_gamma   91.15443061
_symmetry_Int_Tables_number   1
_chemical_formula_structural   Te(HO)6
_chemical_formula_sum   'Te1 H6 O6'
_cell_volume   133.71670812
_cell_formula_units_Z   1
loop_
 _symmetry_equiv_pos_site_id
 _symmetry_equiv_pos_as_xyz
  1  'x, y, z'
loop_
 _atom_site_type_symbol
 _atom_site_label
 _atom_site_symmetry_multiplicity
 _atom_site_fract_x
 _atom_site_fract_y
 _atom_site_fract_z
 _atom_site_occupancy
  Te  Te0  1  0.99229600  0.99577800  0.99937500  1
  H  H1  1  0.39928600  0.22321400  0.00623300  1
  H  H2  1  0.81221300  0.78140500  0.45768200  1
  H  H3  1  0.76643000  0.38068200  0.97367400  1
  H  H4  1  0.58158300  0.75052500  0.97362900  1
  H  H5  1  0.16489000  0.17287400  0.53466400  1
  H  H6  1  0.21262100  0.59983600  0.99248100  1
  O  O7  1  0.19535600  0.23088300  0.92874100  1
  O  O8  1  0.72885400  0.75787200  0.57026300  1
  O  O9  1  0.73042600  0.23245900  0.01622900  1
  O  O10  1  0.78719900  0.75869500  0.06368200  1
  O  O11  1  0.24362800  0.22370200  0.43202200  1
  O  O12  1  0.25750400  0.76436100  0.97651200  1
