# generated using pymatgen
data_H7NO6
_symmetry_space_group_name_H-M   'P 1'
_cell_length_a   15.24941300
_cell_length_b   3.59413000
_cell_length_c   9.97853482
_cell_angle_alpha   89.89170764
_cell_angle_beta   90.00000000
_cell_angle_gamma   90.00000000
_symmetry_Int_Tables_number   1
_chemical_formula_structural   H7NO6
_chemical_formula_sum   'H28 N4 O24'
_cell_volume   546.90627919
_cell_formula_units_Z   4
loop_
 _symmetry_equiv_pos_site_id
 _symmetry_equiv_pos_as_xyz
  1  'x, y, z'
loop_
 _atom_site_type_symbol
 _atom_site_label
 _atom_site_symmetry_multiplicity
 _atom_site_fract_x
 _atom_site_fract_y
 _atom_site_fract_z
 _atom_site_occupancy
  H  H0  1  0.71170000  0.97890500  0.56222400  1
  H  H1  1  0.27792100  0.41934300  0.90511600  1
  H  H2  1  0.77792100  0.58065700  0.09488400  1
  H  H3  1  0.21170000  0.02109500  0.43777600  1
  H  H4  1  0.94265500  0.00611200  0.84753100  1
  H  H5  1  0.44265500  0.99388800  0.15246900  1
  H  H6  1  0.68082900  0.30708800  0.47209000  1
  H  H7  1  0.56246700  0.94431100  0.54009500  1
  H  H8  1  0.40347700  0.47193100  0.95800300  1
  H  H9  1  0.32691400  0.77938200  0.00076100  1
  H  H10  1  0.90347700  0.52806900  0.04199700  1
  H  H11  1  0.82691400  0.22061800  0.99923900  1
  H  H12  1  0.06246700  0.05568900  0.45990500  1
  H  H13  1  0.18082900  0.69291200  0.52791000  1
  H  H14  1  0.98930400  0.09813300  0.56284600  1
  H  H15  1  0.03412800  0.63849000  0.08301000  1
  H  H16  1  0.03357000  0.55368700  0.92836200  1
  H  H17  1  0.53412800  0.36151000  0.91699000  1
  H  H18  1  0.53357000  0.44631300  0.07163800  1
  H  H19  1  0.48930400  0.90186700  0.43715400  1
  H  H20  1  0.93330600  0.02131700  0.34495800  1
  H  H21  1  0.85724900  0.74368000  0.31261500  1
  H  H22  1  0.11694500  0.60014200  0.29028900  1
  H  H23  1  0.15034400  0.30331700  0.18761200  1
  H  H24  1  0.65034400  0.69668300  0.81238800  1
  H  H25  1  0.61694500  0.39985800  0.70971100  1
  H  H26  1  0.35724900  0.25632000  0.68738500  1
  H  H27  1  0.43330600  0.97868300  0.65504200  1
  N  N28  1  0.84329300  0.90244100  0.72957300  1
  N  N29  1  0.16946600  0.43207600  0.76917500  1
  N  N30  1  0.66946600  0.56792400  0.23082500  1
  N  N31  1  0.34329300  0.09755900  0.27042700  1
  O  O32  1  0.83017600  0.78146200  0.61712600  1
  O  O33  1  0.20168300  0.31580000  0.88366800  1
  O  O34  1  0.70168300  0.68420000  0.11633200  1
  O  O35  1  0.33017600  0.21853800  0.38287400  1
  O  O36  1  0.79135900  0.94007100  0.82210300  1
  O  O37  1  0.22015700  0.48027300  0.67249800  1
  O  O38  1  0.72015700  0.51972700  0.32750200  1
  O  O39  1  0.29135900  0.05992900  0.17789700  1
  O  O40  1  0.93019700  0.02462800  0.74968900  1
  O  O41  1  0.08873600  0.48484400  0.76328400  1
  O  O42  1  0.58873600  0.51515600  0.23671600  1
  O  O43  1  0.43019700  0.97537200  0.25031100  1
  O  O44  1  0.66784600  0.17684900  0.55756600  1
  O  O45  1  0.33769400  0.52748200  0.96866400  1
  O  O46  1  0.83769400  0.47251800  0.03133600  1
  O  O47  1  0.16784600  0.82315100  0.44243400  1
  O  O48  1  0.00773600  0.19539200  0.47624700  1
  O  O49  1  0.99725300  0.66558000  0.99987800  1
  O  O50  1  0.49725300  0.33442000  0.00012200  1
  O  O51  1  0.50773600  0.80460800  0.52375300  1
  O  O52  1  0.88916800  0.95567800  0.27588900  1
  O  O53  1  0.10657100  0.49720900  0.20031200  1
  O  O54  1  0.60657100  0.50279100  0.79968800  1
  O  O55  1  0.38916800  0.04432200  0.72411100  1
