# generated using pymatgen
data_V3H5O8
_symmetry_space_group_name_H-M   'P 1'
_cell_length_a   9.81970901
_cell_length_b   9.81970901
_cell_length_c   4.81111524
_cell_angle_alpha   75.85825533
_cell_angle_beta   75.85825533
_cell_angle_gamma   18.19795309
_symmetry_Int_Tables_number   1
_chemical_formula_structural   V3H5O8
_chemical_formula_sum   'V3 H5 O8'
_cell_volume   140.37743351
_cell_formula_units_Z   1
loop_
 _symmetry_equiv_pos_site_id
 _symmetry_equiv_pos_as_xyz
  1  'x, y, z'
loop_
 _atom_site_type_symbol
 _atom_site_label
 _atom_site_symmetry_multiplicity
 _atom_site_fract_x
 _atom_site_fract_y
 _atom_site_fract_z
 _atom_site_occupancy
  V  V0  1  0.00125200  0.00125200  0.48154600  1
  V  V1  1  0.81925900  0.81925900  0.37769800  1
  V  V2  1  0.17951300  0.17951300  0.62284000  1
  H  H3  1  0.58315300  0.58315300  0.09738200  1
  H  H4  1  0.49533800  0.49533800  0.95733700  1
  H  H5  1  0.41321300  0.41321300  0.90576500  1
  H  H6  1  0.31159200  0.31159200  0.92571700  1
  H  H7  1  0.68856300  0.68856300  0.07218600  1
  O  O8  1  0.53033600  0.53033600  0.20076500  1
  O  O9  1  0.46786600  0.46786600  0.79425800  1
  O  O10  1  0.90609800  0.90609800  0.41939400  1
  O  O11  1  0.09286400  0.09286400  0.57735400  1
  O  O12  1  0.33910600  0.33910600  0.08008200  1
  O  O13  1  0.66274300  0.66274300  0.91240200  1
  O  O14  1  0.71699900  0.71699900  0.35715600  1
  O  O15  1  0.28270200  0.28270200  0.64038500  1
