# generated using pymatgen
data_Sr(H8O5)2
_symmetry_space_group_name_H-M   'P 1'
_cell_length_a   6.48935706
_cell_length_b   6.48935706
_cell_length_c   11.71760720
_cell_angle_alpha   89.26618706
_cell_angle_beta   89.26618706
_cell_angle_gamma   93.02513537
_symmetry_Int_Tables_number   1
_chemical_formula_structural   Sr(H8O5)2
_chemical_formula_sum   'Sr2 H32 O20'
_cell_volume   492.67603802
_cell_formula_units_Z   2
loop_
 _symmetry_equiv_pos_site_id
 _symmetry_equiv_pos_as_xyz
  1  'x, y, z'
loop_
 _atom_site_type_symbol
 _atom_site_label
 _atom_site_symmetry_multiplicity
 _atom_site_fract_x
 _atom_site_fract_y
 _atom_site_fract_z
 _atom_site_occupancy
  Sr  Sr0  1  0.97335600  0.99728500  0.74307800  1
  Sr  Sr1  1  0.99728500  0.97335600  0.24307800  1
  H  H2  1  0.41791000  0.92559000  0.63940600  1
  H  H3  1  0.26997100  0.83817000  0.54540100  1
  H  H4  1  0.62010100  0.26597900  0.64960300  1
  H  H5  1  0.70143800  0.14830700  0.54088200  1
  H  H6  1  0.07165300  0.39523700  0.58769200  1
  H  H7  1  0.28761600  0.40299000  0.65179300  1
  H  H8  1  0.95786900  0.62526800  0.64100400  1
  H  H9  1  0.68656000  0.59008600  0.65262300  1
  H  H10  1  0.39523700  0.07165300  0.08769200  1
  H  H11  1  0.40299000  0.28761600  0.15179300  1
  H  H12  1  0.59008600  0.68656000  0.15262300  1
  H  H13  1  0.62526800  0.95786900  0.14100400  1
  H  H14  1  0.26597900  0.62010100  0.14960300  1
  H  H15  1  0.14830700  0.70143800  0.04088200  1
  H  H16  1  0.92559000  0.41791000  0.13940600  1
  H  H17  1  0.83817000  0.26997100  0.04540100  1
  H  H18  1  0.61538000  0.05251300  0.37474100  1
  H  H19  1  0.62537100  0.29291300  0.34491000  1
  H  H20  1  0.36520300  0.73450000  0.35841200  1
  H  H21  1  0.32112200  0.97946600  0.38825300  1
  H  H22  1  0.69254200  0.63639700  0.35513900  1
  H  H23  1  0.81928700  0.70535800  0.46902800  1
  H  H24  1  0.08335900  0.34593100  0.40163700  1
  H  H25  1  0.30252700  0.36860200  0.33808000  1
  H  H26  1  0.63639700  0.69254200  0.85513900  1
  H  H27  1  0.70535800  0.81928700  0.96902800  1
  H  H28  1  0.34593100  0.08335900  0.90163700  1
  H  H29  1  0.36860200  0.30252700  0.83808000  1
  H  H30  1  0.97946600  0.32112200  0.88825300  1
  H  H31  1  0.73450000  0.36520300  0.85841200  1
  H  H32  1  0.05251300  0.61538000  0.87474100  1
  H  H33  1  0.29291300  0.62537100  0.84491000  1
  O  O34  1  0.53473000  0.47349100  0.68061000  1
  O  O35  1  0.47349100  0.53473000  0.18061000  1
  O  O36  1  0.47876200  0.52289000  0.30742400  1
  O  O37  1  0.52289000  0.47876200  0.80742400  1
  O  O38  1  0.27757000  0.86617100  0.62837000  1
  O  O39  1  0.68124000  0.12946800  0.62401200  1
  O  O40  1  0.13738500  0.35166600  0.65750400  1
  O  O41  1  0.83388100  0.69581400  0.62048200  1
  O  O42  1  0.35166600  0.13738500  0.15750400  1
  O  O43  1  0.69581400  0.83388100  0.12048200  1
  O  O44  1  0.12946800  0.68124000  0.12401200  1
  O  O45  1  0.86617100  0.27757000  0.12837000  1
  O  O46  1  0.70398800  0.17822700  0.37882300  1
  O  O47  1  0.26965000  0.83575300  0.39495200  1
  O  O48  1  0.81533600  0.72077700  0.38411900  1
  O  O49  1  0.18600500  0.26234100  0.36515200  1
  O  O50  1  0.72077700  0.81533600  0.88411900  1
  O  O51  1  0.26234100  0.18600500  0.86515200  1
  O  O52  1  0.83575300  0.26965000  0.89495200  1
  O  O53  1  0.17822700  0.70398800  0.87882300  1
