# generated using pymatgen
data_Ti(NbSe2)2
_symmetry_space_group_name_H-M   'P 1'
_cell_length_a   7.20305294
_cell_length_b   7.20305294
_cell_length_c   6.39055139
_cell_angle_alpha   65.55182516
_cell_angle_beta   65.55182516
_cell_angle_gamma   28.17154463
_symmetry_Int_Tables_number   1
_chemical_formula_structural   Ti(NbSe2)2
_chemical_formula_sum   'Ti1 Nb2 Se4'
_cell_volume   141.57118456
_cell_formula_units_Z   1
loop_
 _symmetry_equiv_pos_site_id
 _symmetry_equiv_pos_as_xyz
  1  'x, y, z'
loop_
 _atom_site_type_symbol
 _atom_site_label
 _atom_site_symmetry_multiplicity
 _atom_site_fract_x
 _atom_site_fract_y
 _atom_site_fract_z
 _atom_site_occupancy
  Ti  Ti0  1  0.00000000  0.00000000  0.00000000  1
  Nb  Nb1  1  0.25661100  0.25661100  0.67700100  1
  Nb  Nb2  1  0.74338900  0.74338900  0.32299900  1
  Se  Se3  1  0.89849000  0.89849000  0.44550400  1
  Se  Se4  1  0.10151000  0.10151000  0.55449600  1
  Se  Se5  1  0.63701800  0.63701800  0.02514400  1
  Se  Se6  1  0.36298200  0.36298200  0.97485600  1
