# generated using pymatgen
data_Lu(HO)3
_symmetry_space_group_name_H-M   'P 1'
_cell_length_a   7.11553575
_cell_length_b   7.11553575
_cell_length_c   7.11553586
_cell_angle_alpha   109.43327387
_cell_angle_beta   109.43327387
_cell_angle_gamma   109.43327708
_symmetry_Int_Tables_number   1
_chemical_formula_structural   Lu(HO)3
_chemical_formula_sum   'Lu4 H12 O12'
_cell_volume   277.72154700
_cell_formula_units_Z   4
loop_
 _symmetry_equiv_pos_site_id
 _symmetry_equiv_pos_as_xyz
  1  'x, y, z'
loop_
 _atom_site_type_symbol
 _atom_site_label
 _atom_site_symmetry_multiplicity
 _atom_site_fract_x
 _atom_site_fract_y
 _atom_site_fract_z
 _atom_site_occupancy
  Lu  Lu0  1  0.00000000  0.50000000  0.00000000  1
  Lu  Lu1  1  0.50000000  0.50000000  0.50000000  1
  Lu  Lu2  1  0.50000000  0.00000000  0.00000000  1
  Lu  Lu3  1  0.00000000  0.00000000  0.50000000  1
  H  H4  1  0.55766500  0.38745800  0.82946300  1
  H  H5  1  0.44233500  0.61254200  0.17053700  1
  H  H6  1  0.68072000  0.72876100  0.04812400  1
  H  H7  1  0.31928000  0.27123900  0.95187600  1
  H  H8  1  0.95187600  0.31928000  0.27123900  1
  H  H9  1  0.04812400  0.68072000  0.72876100  1
  H  H10  1  0.17053700  0.44233500  0.61254200  1
  H  H11  1  0.82946300  0.55766500  0.38745800  1
  H  H12  1  0.61254200  0.17053700  0.44233500  1
  H  H13  1  0.38745800  0.82946300  0.55766500  1
  H  H14  1  0.27123900  0.95187600  0.31928000  1
  H  H15  1  0.72876100  0.04812400  0.68072000  1
  O  O16  1  0.67883300  0.50962500  0.83021100  1
  O  O17  1  0.32116700  0.49037500  0.16978900  1
  O  O18  1  0.67924700  0.84960800  0.16887300  1
  O  O19  1  0.32075300  0.15039200  0.83112700  1
  O  O20  1  0.83112700  0.32075300  0.15039200  1
  O  O21  1  0.16887300  0.67924700  0.84960800  1
  O  O22  1  0.16978900  0.32116700  0.49037500  1
  O  O23  1  0.83021100  0.67883300  0.50962500  1
  O  O24  1  0.49037500  0.16978900  0.32116700  1
  O  O25  1  0.50962500  0.83021100  0.67883300  1
  O  O26  1  0.15039200  0.83112700  0.32075300  1
  O  O27  1  0.84960800  0.16887300  0.67924700  1
