# generated using pymatgen
data_H2W2O7
_symmetry_space_group_name_H-M   'P 1'
_cell_length_a   7.35320502
_cell_length_b   7.35320502
_cell_length_c   7.35320502
_cell_angle_alpha   119.62842943
_cell_angle_beta   119.62842943
_cell_angle_gamma   90.64479305
_symmetry_Int_Tables_number   1
_chemical_formula_structural   H2W2O7
_chemical_formula_sum   'H4 W4 O14'
_cell_volume   282.69462372
_cell_formula_units_Z   2
loop_
 _symmetry_equiv_pos_site_id
 _symmetry_equiv_pos_as_xyz
  1  'x, y, z'
loop_
 _atom_site_type_symbol
 _atom_site_label
 _atom_site_symmetry_multiplicity
 _atom_site_fract_x
 _atom_site_fract_y
 _atom_site_fract_z
 _atom_site_occupancy
  H  H0  1  0.34179000  0.84179000  0.50000000  1
  H  H1  1  0.15821000  0.65821000  0.50000000  1
  H  H2  1  0.40821000  0.40821000  0.00000000  1
  H  H3  1  0.59179000  0.59179000  0.00000000  1
  W  W4  1  0.87500000  0.12500000  0.25000000  1
  W  W5  1  0.87500000  0.62500000  0.75000000  1
  W  W6  1  0.87500000  0.12500000  0.75000000  1
  W  W7  1  0.37500000  0.12500000  0.25000000  1
  O  O8  1  0.18620900  0.18620900  0.00000000  1
  O  O9  1  0.81379100  0.81379100  0.00000000  1
  O  O10  1  0.18108000  0.81892000  0.00000000  1
  O  O11  1  0.81892000  0.18108000  0.00000000  1
  O  O12  1  0.18108000  0.18108000  0.36216000  1
  O  O13  1  0.81892000  0.81892000  0.63784000  1
  O  O14  1  0.56379100  0.06379100  0.50000000  1
  O  O15  1  0.93620900  0.43620900  0.50000000  1
  O  O16  1  0.56892000  0.43108000  0.50000000  1
  O  O17  1  0.93108000  0.06892000  0.50000000  1
  O  O18  1  0.56892000  0.06892000  0.13784000  1
  O  O19  1  0.93108000  0.43108000  0.86216000  1
  O  O20  1  0.25000000  0.75000000  0.50000000  1
  O  O21  1  0.50000000  0.50000000  0.00000000  1
