# generated using pymatgen
data_H5NO
_symmetry_space_group_name_H-M   'P 1'
_cell_length_a   4.90212100
_cell_length_b   6.00244700
_cell_length_c   8.76703400
_cell_angle_alpha   90.00000000
_cell_angle_beta   90.00000000
_cell_angle_gamma   90.00000000
_symmetry_Int_Tables_number   1
_chemical_formula_structural   H5NO
_chemical_formula_sum   'H20 N4 O4'
_cell_volume   257.96753374
_cell_formula_units_Z   4
loop_
 _symmetry_equiv_pos_site_id
 _symmetry_equiv_pos_as_xyz
  1  'x, y, z'
loop_
 _atom_site_type_symbol
 _atom_site_label
 _atom_site_symmetry_multiplicity
 _atom_site_fract_x
 _atom_site_fract_y
 _atom_site_fract_z
 _atom_site_occupancy
  H  H0  1  0.87414500  0.70952500  0.49610200  1
  H  H1  1  0.74245200  0.69899300  0.33078200  1
  H  H2  1  0.41920000  0.40480100  0.37121600  1
  H  H3  1  0.74209300  0.31271300  0.57098000  1
  H  H4  1  0.08466500  0.41224200  0.36689100  1
  H  H5  1  0.62585500  0.29047500  0.99610200  1
  H  H6  1  0.41533500  0.58775800  0.86689100  1
  H  H7  1  0.75790700  0.68728700  0.07098000  1
  H  H8  1  0.08080000  0.59519900  0.87121600  1
  H  H9  1  0.75754800  0.30100700  0.83078200  1
  H  H10  1  0.37414500  0.79047500  0.50389800  1
  H  H11  1  0.24245200  0.80100700  0.66921800  1
  H  H12  1  0.91920000  0.09519900  0.62878400  1
  H  H13  1  0.24209300  0.18728700  0.42902000  1
  H  H14  1  0.58466500  0.08775800  0.63310900  1
  H  H15  1  0.12585500  0.20952500  0.00389800  1
  H  H16  1  0.25754800  0.19899300  0.16921800  1
  H  H17  1  0.58080000  0.90480100  0.12878400  1
  H  H18  1  0.91533500  0.91224200  0.13310900  1
  H  H19  1  0.25790700  0.81271300  0.92902000  1
  N  N20  1  0.75029700  0.81069500  0.15175200  1
  N  N21  1  0.74970300  0.18930500  0.65175200  1
  N  N22  1  0.25029700  0.68930500  0.84824800  1
  N  N23  1  0.24970300  0.31069500  0.34824800  1
  O  O24  1  0.72580700  0.63533600  0.43877900  1
  O  O25  1  0.77419300  0.36466400  0.93877900  1
  O  O26  1  0.22580700  0.86466400  0.56122100  1
  O  O27  1  0.27419300  0.13533600  0.06122100  1
