# generated using pymatgen
data_SbHO3
_symmetry_space_group_name_H-M   'P 1'
_cell_length_a   7.36028607
_cell_length_b   7.36028607
_cell_length_c   7.36028607
_cell_angle_alpha   117.60664312
_cell_angle_beta   117.60664312
_cell_angle_gamma   94.19794549
_symmetry_Int_Tables_number   1
_chemical_formula_structural   SbHO3
_chemical_formula_sum   'Sb4 H4 O12'
_cell_volume   291.30180606
_cell_formula_units_Z   4
loop_
 _symmetry_equiv_pos_site_id
 _symmetry_equiv_pos_as_xyz
  1  'x, y, z'
loop_
 _atom_site_type_symbol
 _atom_site_label
 _atom_site_symmetry_multiplicity
 _atom_site_fract_x
 _atom_site_fract_y
 _atom_site_fract_z
 _atom_site_occupancy
  Sb  Sb0  1  0.87500000  0.62500000  0.75000000  1
  Sb  Sb1  1  0.37500000  0.12500000  0.25000000  1
  Sb  Sb2  1  0.87500000  0.12500000  0.75000000  1
  Sb  Sb3  1  0.87500000  0.12500000  0.25000000  1
  H  H4  1  0.69235800  0.69235800  0.00000000  1
  H  H5  1  0.30764200  0.30764200  0.00000000  1
  H  H6  1  0.05764200  0.55764200  0.50000000  1
  H  H7  1  0.44235800  0.94235800  0.50000000  1
  O  O8  1  0.81162500  0.18837500  0.00000000  1
  O  O9  1  0.18837500  0.81162500  0.00000000  1
  O  O10  1  0.18837500  0.18837500  0.37675100  1
  O  O11  1  0.81162500  0.81162500  0.62324900  1
  O  O12  1  0.78977500  0.78977500  0.00000000  1
  O  O13  1  0.21022500  0.21022500  0.00000000  1
  O  O14  1  0.93837500  0.06162500  0.50000000  1
  O  O15  1  0.56162500  0.43837500  0.50000000  1
  O  O16  1  0.56162500  0.06162500  0.12324900  1
  O  O17  1  0.93837500  0.43837500  0.87675100  1
  O  O18  1  0.96022500  0.46022500  0.50000000  1
  O  O19  1  0.53977500  0.03977500  0.50000000  1
