# generated using pymatgen
data_NaHO
_symmetry_space_group_name_H-M   'P 1'
_cell_length_a   3.64313400
_cell_length_b   3.38049600
_cell_length_c   5.64919792
_cell_angle_alpha   79.81485707
_cell_angle_beta   90.00000000
_cell_angle_gamma   90.00000000
_symmetry_Int_Tables_number   1
_chemical_formula_structural   NaHO
_chemical_formula_sum   'Na2 H2 O2'
_cell_volume   68.47689075
_cell_formula_units_Z   2
loop_
 _symmetry_equiv_pos_site_id
 _symmetry_equiv_pos_as_xyz
  1  'x, y, z'
loop_
 _atom_site_type_symbol
 _atom_site_label
 _atom_site_symmetry_multiplicity
 _atom_site_fract_x
 _atom_site_fract_y
 _atom_site_fract_z
 _atom_site_occupancy
  Na  Na0  1  0.00000000  0.08353200  0.69101600  1
  Na  Na1  1  0.50000000  0.89781200  0.26593000  1
  H  H2  1  0.00000000  0.45452100  0.11111600  1
  H  H3  1  0.50000000  0.47688700  0.62175900  1
  O  O4  1  0.00000000  0.38057600  0.28526700  1
  O  O5  1  0.50000000  0.64936600  0.74223900  1
