# generated using pymatgen
data_Al(HO)3
_symmetry_space_group_name_H-M   'P 1'
_cell_length_a   5.15616400
_cell_length_b   8.85796911
_cell_length_c   9.55002856
_cell_angle_alpha   91.34705447
_cell_angle_beta   91.16188458
_cell_angle_gamma   90.46451778
_symmetry_Int_Tables_number   1
_chemical_formula_structural   Al(HO)3
_chemical_formula_sum   'Al8 H24 O24'
_cell_volume   435.95352847
_cell_formula_units_Z   8
loop_
 _symmetry_equiv_pos_site_id
 _symmetry_equiv_pos_as_xyz
  1  'x, y, z'
loop_
 _atom_site_type_symbol
 _atom_site_label
 _atom_site_symmetry_multiplicity
 _atom_site_fract_x
 _atom_site_fract_y
 _atom_site_fract_z
 _atom_site_occupancy
  Al  Al0  1  0.98877700  0.32964500  0.51071900  1
  Al  Al1  1  0.01955200  0.66572500  0.49444600  1
  Al  Al2  1  0.52409300  0.83522000  0.49115500  1
  Al  Al3  1  0.48777300  0.16687400  0.50879400  1
  Al  Al4  1  0.97009400  0.82881800  0.99056200  1
  Al  Al5  1  0.02503400  0.16296800  0.01012300  1
  Al  Al6  1  0.52638000  0.33045900  0.01144200  1
  Al  Al7  1  0.46538100  0.66283300  0.99223900  1
  H  H8  1  0.82666300  0.02370800  0.40341100  1
  H  H9  1  0.23950800  0.98855900  0.65794100  1
  H  H10  1  0.73652400  0.48991100  0.66450300  1
  H  H11  1  0.32379500  0.47098200  0.39839000  1
  H  H12  1  0.15336000  0.14979800  0.30853700  1
  H  H13  1  0.87235600  0.86125100  0.68480400  1
  H  H14  1  0.43223000  0.59248700  0.60191900  1
  H  H15  1  0.65401600  0.34047300  0.30935600  1
  H  H16  1  0.16033700  0.86149500  0.30626100  1
  H  H17  1  0.78596400  0.22832900  0.71634800  1
  H  H18  1  0.27265000  0.25899400  0.71477800  1
  H  H19  1  0.66637800  0.62951700  0.30230900  1
  H  H20  1  0.31950800  0.96287300  0.10743900  1
  H  H21  1  0.74972400  0.02142400  0.82049700  1
  H  H22  1  0.33105300  0.46696300  0.79621500  1
  H  H23  1  0.81789100  0.53391800  0.10497700  1
  H  H24  1  0.15581700  0.66370100  0.19710400  1
  H  H25  1  0.94749000  0.40456800  0.89541800  1
  H  H26  1  0.42181700  0.07755700  0.89749100  1
  H  H27  1  0.65633300  0.84452900  0.19249400  1
  H  H28  1  0.27868000  0.77206800  0.78294900  1
  H  H29  1  0.67734700  0.13482400  0.19805100  1
  H  H30  1  0.17150700  0.36500300  0.19685100  1
  H  H31  1  0.82311200  0.64361800  0.80032500  1
  O  O32  1  0.63744300  0.01054200  0.38893400  1
  O  O33  1  0.40597500  0.99280700  0.61201100  1
  O  O34  1  0.90009900  0.50752200  0.61886900  1
  O  O35  1  0.13452500  0.48393700  0.39755700  1
  O  O36  1  0.16123800  0.16962700  0.40931700  1
  O  O37  1  0.84378600  0.81876700  0.59154700  1
  O  O38  1  0.33860500  0.68737100  0.60107100  1
  O  O39  1  0.65899000  0.32658000  0.41033300  1
  O  O40  1  0.22232500  0.79732500  0.38088000  1
  O  O41  1  0.79857600  0.19608100  0.61827200  1
  O  O42  1  0.30012100  0.30640900  0.62412400  1
  O  O43  1  0.71818000  0.68992600  0.38525700  1
  O  O44  1  0.13293600  0.98328100  0.10874400  1
  O  O45  1  0.88703400  0.00686500  0.88868400  1
  O  O46  1  0.37134000  0.47975600  0.89568100  1
  O  O47  1  0.63039900  0.51354900  0.11269400  1
  O  O48  1  0.14864000  0.66940400  0.09527400  1
  O  O49  1  0.84197400  0.31305000  0.90327800  1
  O  O50  1  0.34117100  0.17667500  0.90377800  1
  O  O51  1  0.64939600  0.82827000  0.09123100  1
  O  O52  1  0.27017900  0.79574600  0.88357500  1
  O  O53  1  0.73163200  0.19690200  0.12060500  1
  O  O54  1  0.23162200  0.29904400  0.12181300  1
  O  O55  1  0.76562100  0.69390900  0.88527200  1
