# generated using pymatgen
data_H3NO
_symmetry_space_group_name_H-M   'P 1'
_cell_length_a   4.72399100
_cell_length_b   4.64222100
_cell_length_c   7.16066291
_cell_angle_alpha   88.85495443
_cell_angle_beta   90.00000000
_cell_angle_gamma   90.00000000
_symmetry_Int_Tables_number   1
_chemical_formula_structural   H3NO
_chemical_formula_sum   'H12 N4 O4'
_cell_volume   157.00062104
_cell_formula_units_Z   4
loop_
 _symmetry_equiv_pos_site_id
 _symmetry_equiv_pos_as_xyz
  1  'x, y, z'
loop_
 _atom_site_type_symbol
 _atom_site_label
 _atom_site_symmetry_multiplicity
 _atom_site_fract_x
 _atom_site_fract_y
 _atom_site_fract_z
 _atom_site_occupancy
  H  H0  1  0.44909300  0.15082700  0.60422800  1
  H  H1  1  0.20233500  0.65564600  0.51639500  1
  H  H2  1  0.72080600  0.71741100  0.80240100  1
  H  H3  1  0.94909300  0.84917300  0.39577200  1
  H  H4  1  0.70233500  0.34435400  0.48360500  1
  H  H5  1  0.22080600  0.28258900  0.19759900  1
  H  H6  1  0.76203500  0.85656100  0.02259100  1
  H  H7  1  0.26730500  0.78048600  0.29430400  1
  H  H8  1  0.52230100  0.35275500  0.07545700  1
  H  H9  1  0.26203500  0.14343900  0.97740900  1
  H  H10  1  0.76730500  0.21951400  0.70569600  1
  H  H11  1  0.02230100  0.64724500  0.92454300  1
  N  N12  1  0.60380100  0.30714100  0.61420400  1
  N  N13  1  0.10380100  0.69285900  0.38579600  1
  N  N14  1  0.37510400  0.19324700  0.10204100  1
  N  N15  1  0.87510400  0.80675300  0.89795900  1
  O  O16  1  0.48075300  0.56319600  0.68393800  1
  O  O17  1  0.98075300  0.43680400  0.31606200  1
  O  O18  1  0.51165700  0.94504000  0.17965400  1
  O  O19  1  0.01165700  0.05496000  0.82034600  1
