# generated using pymatgen
data_Ba(HO)2
_symmetry_space_group_name_H-M   'P 1'
_cell_length_a   8.26256200
_cell_length_b   7.04470100
_cell_length_c   10.76271272
_cell_angle_alpha   57.28996213
_cell_angle_beta   90.00000000
_cell_angle_gamma   90.00000000
_symmetry_Int_Tables_number   1
_chemical_formula_structural   Ba(HO)2
_chemical_formula_sum   'Ba8 H16 O16'
_cell_volume   527.12046009
_cell_formula_units_Z   8
loop_
 _symmetry_equiv_pos_site_id
 _symmetry_equiv_pos_as_xyz
  1  'x, y, z'
loop_
 _atom_site_type_symbol
 _atom_site_label
 _atom_site_symmetry_multiplicity
 _atom_site_fract_x
 _atom_site_fract_y
 _atom_site_fract_z
 _atom_site_occupancy
  Ba  Ba0  1  0.86619200  0.33204100  0.90443900  1
  Ba  Ba1  1  0.63380800  0.33204100  0.40443900  1
  Ba  Ba2  1  0.13380800  0.66795900  0.09556100  1
  Ba  Ba3  1  0.36619200  0.66795900  0.59556100  1
  Ba  Ba4  1  0.96030900  0.96579400  0.32884100  1
  Ba  Ba5  1  0.53969100  0.96579400  0.82884100  1
  Ba  Ba6  1  0.03969100  0.03420600  0.67115900  1
  Ba  Ba7  1  0.46030900  0.03420600  0.17115900  1
  H  H8  1  0.98353500  0.57281200  0.61661800  1
  H  H9  1  0.51646500  0.57281200  0.11661800  1
  H  H10  1  0.01646500  0.42718800  0.38338200  1
  H  H11  1  0.48353500  0.42718800  0.88338200  1
  H  H12  1  0.19915300  0.23916700  0.17608400  1
  H  H13  1  0.30084700  0.23916700  0.67608400  1
  H  H14  1  0.80084700  0.76083300  0.82391600  1
  H  H15  1  0.69915300  0.76083300  0.32391600  1
  H  H16  1  0.18614600  0.18049100  0.92477100  1
  H  H17  1  0.31385400  0.18049100  0.42477100  1
  H  H18  1  0.81385400  0.81950900  0.07522900  1
  H  H19  1  0.68614600  0.81950900  0.57522900  1
  H  H20  1  0.24802800  0.55003800  0.39795300  1
  H  H21  1  0.25197200  0.55003800  0.89795300  1
  H  H22  1  0.75197200  0.44996200  0.60204700  1
  H  H23  1  0.74802800  0.44996200  0.10204700  1
  O  O24  1  0.03135500  0.69432500  0.62307800  1
  O  O25  1  0.46864500  0.69432500  0.12307800  1
  O  O26  1  0.96864500  0.30567500  0.37692200  1
  O  O27  1  0.53135500  0.30567500  0.87692200  1
  O  O28  1  0.14416600  0.27197100  0.08498600  1
  O  O29  1  0.35583400  0.27197100  0.58498600  1
  O  O30  1  0.85583400  0.72802900  0.91501400  1
  O  O31  1  0.64416600  0.72802900  0.41501400  1
  O  O32  1  0.15804400  0.11874000  0.86526500  1
  O  O33  1  0.34195600  0.11874000  0.36526500  1
  O  O34  1  0.84195600  0.88126000  0.13473500  1
  O  O35  1  0.65804400  0.88126000  0.63473500  1
  O  O36  1  0.19718800  0.69843800  0.33472100  1
  O  O37  1  0.30281200  0.69843800  0.83472100  1
  O  O38  1  0.80281200  0.30156200  0.66527900  1
  O  O39  1  0.69718800  0.30156200  0.16527900  1
