# generated using pymatgen
data_H2WO5
_symmetry_space_group_name_H-M   'P 1'
_cell_length_a   3.95383200
_cell_length_b   7.51197900
_cell_length_c   11.97228128
_cell_angle_alpha   70.82060855
_cell_angle_beta   90.00000000
_cell_angle_gamma   90.00000000
_symmetry_Int_Tables_number   1
_chemical_formula_structural   H2WO5
_chemical_formula_sum   'H8 W4 O20'
_cell_volume   335.85279543
_cell_formula_units_Z   4
loop_
 _symmetry_equiv_pos_site_id
 _symmetry_equiv_pos_as_xyz
  1  'x, y, z'
loop_
 _atom_site_type_symbol
 _atom_site_label
 _atom_site_symmetry_multiplicity
 _atom_site_fract_x
 _atom_site_fract_y
 _atom_site_fract_z
 _atom_site_occupancy
  H  H0  1  0.28108000  0.83554600  0.52742100  1
  H  H1  1  0.78108000  0.16445400  0.97257900  1
  H  H2  1  0.71892000  0.16445400  0.47257900  1
  H  H3  1  0.21892000  0.83554600  0.02742100  1
  H  H4  1  0.55776800  0.68383100  0.13960000  1
  H  H5  1  0.05776800  0.31616900  0.36040000  1
  H  H6  1  0.44223200  0.31616900  0.86040000  1
  H  H7  1  0.94223200  0.68383100  0.63960000  1
  W  W8  1  0.42857800  0.81071900  0.30581400  1
  W  W9  1  0.92857800  0.18928100  0.19418600  1
  W  W10  1  0.57142200  0.18928100  0.69418600  1
  W  W11  1  0.07142200  0.81071900  0.80581400  1
  O  O12  1  0.41512000  0.84378700  0.45210600  1
  O  O13  1  0.91512000  0.15621300  0.04789400  1
  O  O14  1  0.58488000  0.15621300  0.54789400  1
  O  O15  1  0.08488000  0.84378700  0.95210600  1
  O  O16  1  0.92860800  0.89414400  0.27946400  1
  O  O17  1  0.42860800  0.10585600  0.22053600  1
  O  O18  1  0.07139200  0.10585600  0.72053600  1
  O  O19  1  0.57139200  0.89414400  0.77946400  1
  O  O20  1  0.42927700  0.79564400  0.14169500  1
  O  O21  1  0.92927700  0.20435600  0.35830500  1
  O  O22  1  0.57072300  0.20435600  0.85830500  1
  O  O23  1  0.07072300  0.79564400  0.64169500  1
  O  O24  1  0.25354500  0.55035100  0.36569800  1
  O  O25  1  0.75354500  0.44964900  0.13430200  1
  O  O26  1  0.74645500  0.44964900  0.63430200  1
  O  O27  1  0.24645500  0.55035100  0.86569800  1
  O  O28  1  0.62351800  0.55967900  0.36022900  1
  O  O29  1  0.12351800  0.44032100  0.13977100  1
  O  O30  1  0.37648200  0.44032100  0.63977100  1
  O  O31  1  0.87648200  0.55967900  0.86022900  1
