# generated using pymatgen
data_Ba(HO)2
_symmetry_space_group_name_H-M   'P 1'
_cell_length_a   7.19180600
_cell_length_b   7.92372546
_cell_length_c   9.30348804
_cell_angle_alpha   90.87428064
_cell_angle_beta   96.09279989
_cell_angle_gamma   92.49200189
_symmetry_Int_Tables_number   1
_chemical_formula_structural   Ba(HO)2
_chemical_formula_sum   'Ba8 H16 O16'
_cell_volume   526.56889464
_cell_formula_units_Z   8
loop_
 _symmetry_equiv_pos_site_id
 _symmetry_equiv_pos_as_xyz
  1  'x, y, z'
loop_
 _atom_site_type_symbol
 _atom_site_label
 _atom_site_symmetry_multiplicity
 _atom_site_fract_x
 _atom_site_fract_y
 _atom_site_fract_z
 _atom_site_occupancy
  Ba  Ba0  1  0.24050200  0.86305200  0.90656300  1
  Ba  Ba1  1  0.72097500  0.63297300  0.39841400  1
  Ba  Ba2  1  0.77359200  0.10212100  0.09828500  1
  Ba  Ba3  1  0.25510100  0.37328300  0.62165000  1
  Ba  Ba4  1  0.30748500  0.97899200  0.33472200  1
  Ba  Ba5  1  0.79518800  0.54536400  0.83231000  1
  Ba  Ba6  1  0.72822100  0.04185100  0.68066500  1
  Ba  Ba7  1  0.18437300  0.46933400  0.18446000  1
  H  H8  1  0.19409100  0.96976400  0.62186100  1
  H  H9  1  0.66591500  0.49186300  0.11549600  1
  H  H10  1  0.82175000  0.03338700  0.38749500  1
  H  H11  1  0.13021000  0.39707800  0.89227500  1
  H  H12  1  0.42786800  0.22789000  0.16614600  1
  H  H13  1  0.70302700  0.35450900  0.56188300  1
  H  H14  1  0.57020200  0.78687300  0.81714600  1
  H  H15  1  0.07125900  0.72591700  0.33450700  1
  H  H16  1  0.14985700  0.17885000  0.96836600  1
  H  H17  1  0.57583000  0.26125400  0.38198100  1
  H  H18  1  0.91685400  0.74382600  0.12221900  1
  H  H19  1  0.40836300  0.73051500  0.60049200  1
  H  H20  1  0.94815100  0.25918800  0.40430300  1
  H  H21  1  0.48024400  0.25587300  0.89565300  1
  H  H22  1  0.03766500  0.75300600  0.59144800  1
  H  H23  1  0.53436100  0.73733600  0.09531200  1
  O  O24  1  0.31783300  0.02884400  0.62571400  1
  O  O25  1  0.79992000  0.47233200  0.12916100  1
  O  O26  1  0.69258800  0.98519700  0.38487200  1
  O  O27  1  0.16905700  0.51857700  0.88712300  1
  O  O28  1  0.38293800  0.15074300  0.08477300  1
  O  O29  1  0.83978400  0.36346000  0.58067500  1
  O  O30  1  0.62420600  0.84481000  0.90868300  1
  O  O31  1  0.11755400  0.66116500  0.41982200  1
  O  O32  1  0.02913200  0.17689900  0.90654600  1
  O  O33  1  0.46736300  0.33204300  0.37434900  1
  O  O34  1  0.02272400  0.82494600  0.14401400  1
  O  O35  1  0.51432700  0.66532200  0.63766600  1
  O  O36  1  0.02786200  0.20105200  0.34142400  1
  O  O37  1  0.56225000  0.28306900  0.82077700  1
  O  O38  1  0.97869800  0.80153300  0.67302400  1
  O  O39  1  0.45747600  0.70785200  0.17309800  1
