# generated using pymatgen
data_PH3O4
_symmetry_space_group_name_H-M   'P 1'
_cell_length_a   5.19689800
_cell_length_b   5.81023700
_cell_length_c   10.85223497
_cell_angle_alpha   85.44467921
_cell_angle_beta   90.00000000
_cell_angle_gamma   90.00000000
_symmetry_Int_Tables_number   1
_chemical_formula_structural   PH3O4
_chemical_formula_sum   'P4 H12 O16'
_cell_volume   326.65038247
_cell_formula_units_Z   4
loop_
 _symmetry_equiv_pos_site_id
 _symmetry_equiv_pos_as_xyz
  1  'x, y, z'
loop_
 _atom_site_type_symbol
 _atom_site_label
 _atom_site_symmetry_multiplicity
 _atom_site_fract_x
 _atom_site_fract_y
 _atom_site_fract_z
 _atom_site_occupancy
  P  P0  1  0.80356200  0.79208700  0.65756500  1
  P  P1  1  0.30356200  0.20791300  0.84243500  1
  P  P2  1  0.19643800  0.20791300  0.34243500  1
  P  P3  1  0.69643800  0.79208700  0.15756500  1
  H  H4  1  0.64611900  0.74467500  0.46987100  1
  H  H5  1  0.14611900  0.25532500  0.03012900  1
  H  H6  1  0.35388100  0.25532500  0.53012900  1
  H  H7  1  0.85388100  0.74467500  0.96987100  1
  H  H8  1  0.94022500  0.15142400  0.66750500  1
  H  H9  1  0.44022500  0.84857600  0.83249500  1
  H  H10  1  0.05977500  0.84857600  0.33249500  1
  H  H11  1  0.55977500  0.15142400  0.16750500  1
  H  H12  1  0.13912900  0.55507700  0.67353300  1
  H  H13  1  0.63912900  0.44492300  0.82646700  1
  H  H14  1  0.86087100  0.44492300  0.32646700  1
  H  H15  1  0.36087100  0.55507700  0.17353300  1
  O  O16  1  0.62704800  0.69052100  0.55709400  1
  O  O17  1  0.12704800  0.30947900  0.94290600  1
  O  O18  1  0.37295200  0.30947900  0.44290600  1
  O  O19  1  0.87295200  0.69052100  0.05709400  1
  O  O20  1  0.79683900  0.06032200  0.63012000  1
  O  O21  1  0.29683900  0.93967800  0.86988000  1
  O  O22  1  0.20316100  0.93967800  0.36988000  1
  O  O23  1  0.70316100  0.06032200  0.13012000  1
  O  O24  1  0.68947400  0.70907800  0.78242000  1
  O  O25  1  0.18947400  0.29092200  0.71758000  1
  O  O26  1  0.31052600  0.29092200  0.21758000  1
  O  O27  1  0.81052600  0.70907800  0.28242000  1
  O  O28  1  0.08998200  0.71903600  0.64186500  1
  O  O29  1  0.58998200  0.28096400  0.85813500  1
  O  O30  1  0.91001800  0.28096400  0.35813500  1
  O  O31  1  0.41001800  0.71903600  0.14186500  1
