# generated using pymatgen
data_Ti3H2O7
_symmetry_space_group_name_H-M   'P 1'
_cell_length_a   3.77610000
_cell_length_b   9.47234534
_cell_length_c   16.94106682
_cell_angle_alpha   98.25636181
_cell_angle_beta   95.90120623
_cell_angle_gamma   90.18679155
_symmetry_Int_Tables_number   1
_chemical_formula_structural   Ti3H2O7
_chemical_formula_sum   'Ti6 H4 O14'
_cell_volume   596.39857585
_cell_formula_units_Z   2
loop_
 _symmetry_equiv_pos_site_id
 _symmetry_equiv_pos_as_xyz
  1  'x, y, z'
loop_
 _atom_site_type_symbol
 _atom_site_label
 _atom_site_symmetry_multiplicity
 _atom_site_fract_x
 _atom_site_fract_y
 _atom_site_fract_z
 _atom_site_occupancy
  Ti  Ti0  1  0.23008500  0.20951700  0.45936300  1
  Ti  Ti1  1  0.76991500  0.79048300  0.54063700  1
  Ti  Ti2  1  0.21453300  0.52018000  0.42704100  1
  Ti  Ti3  1  0.78546700  0.47982000  0.57295900  1
  Ti  Ti4  1  0.21008400  0.82779200  0.40049900  1
  Ti  Ti5  1  0.78991600  0.17220800  0.59950100  1
  H  H6  1  0.01275600  0.80484700  0.23737700  1
  H  H7  1  0.09775500  0.96580200  0.27488900  1
  H  H8  1  0.98724400  0.19515300  0.76262300  1
  H  H9  1  0.90224500  0.03419800  0.72511100  1
  O  O10  1  0.20037200  0.03863900  0.40334700  1
  O  O11  1  0.79962800  0.96136100  0.59665300  1
  O  O12  1  0.19258000  0.33527400  0.38249800  1
  O  O13  1  0.80742000  0.66472600  0.61750200  1
  O  O14  1  0.17352400  0.64130200  0.34932500  1
  O  O15  1  0.82647600  0.35869800  0.65067500  1
  O  O16  1  0.18975100  0.86902100  0.27041000  1
  O  O17  1  0.81024900  0.13097900  0.72959000  1
  O  O18  1  0.28397800  0.15944200  0.57543500  1
  O  O19  1  0.71602200  0.84055800  0.42456500  1
  O  O20  1  0.26896000  0.45295900  0.53973700  1
  O  O21  1  0.73104000  0.54704100  0.46026300  1
  O  O22  1  0.25370400  0.75999700  0.50595000  1
  O  O23  1  0.74629600  0.24000300  0.49405000  1
