# generated using pymatgen
data_SrH4O3
_symmetry_space_group_name_H-M   'P 1'
_cell_length_a   3.80325900
_cell_length_b   5.78690440
_cell_length_c   7.18975231
_cell_angle_alpha   82.98054303
_cell_angle_beta   89.02859318
_cell_angle_gamma   82.06588739
_symmetry_Int_Tables_number   1
_chemical_formula_structural   SrH4O3
_chemical_formula_sum   'Sr2 H8 O6'
_cell_volume   155.55049013
_cell_formula_units_Z   2
loop_
 _symmetry_equiv_pos_site_id
 _symmetry_equiv_pos_as_xyz
  1  'x, y, z'
loop_
 _atom_site_type_symbol
 _atom_site_label
 _atom_site_symmetry_multiplicity
 _atom_site_fract_x
 _atom_site_fract_y
 _atom_site_fract_z
 _atom_site_occupancy
  Sr  Sr0  1  0.05082200  0.62065500  0.27758100  1
  Sr  Sr1  1  0.03869900  0.37049200  0.76459600  1
  H  H2  1  0.76822900  0.11472900  0.17321100  1
  H  H3  1  0.18943100  0.11069600  0.17985200  1
  H  H4  1  0.18381700  0.84271500  0.63694300  1
  H  H5  1  0.70768400  0.91550800  0.70382100  1
  H  H6  1  0.51631900  0.93586100  0.39047400  1
  H  H7  1  0.61483800  0.23990800  0.46233300  1
  H  H8  1  0.48662900  0.85411200  0.88498200  1
  H  H9  1  0.58722500  0.44617500  0.04101000  1
  O  O10  1  0.95971900  0.21675000  0.13066000  1
  O  O11  1  0.97328800  0.78794900  0.59000600  1
  O  O12  1  0.50020600  0.93054100  0.25578700  1
  O  O13  1  0.51931800  0.99634400  0.79491500  1
  O  O14  1  0.56267600  0.40077300  0.49354800  1
  O  O15  1  0.42401300  0.56519200  0.96550200  1
