# generated using pymatgen
data_H3NO
_symmetry_space_group_name_H-M   'P 1'
_cell_length_a   5.12448800
_cell_length_b   5.57050000
_cell_length_c   8.32417439
_cell_angle_alpha   85.44119159
_cell_angle_beta   86.45030453
_cell_angle_gamma   84.11241682
_symmetry_Int_Tables_number   1
_chemical_formula_structural   H3NO
_chemical_formula_sum   'H12 N4 O4'
_cell_volume   235.27374626
_cell_formula_units_Z   4
loop_
 _symmetry_equiv_pos_site_id
 _symmetry_equiv_pos_as_xyz
  1  'x, y, z'
loop_
 _atom_site_type_symbol
 _atom_site_label
 _atom_site_symmetry_multiplicity
 _atom_site_fract_x
 _atom_site_fract_y
 _atom_site_fract_z
 _atom_site_occupancy
  H  H0  1  0.65375100  0.32540700  0.09866000  1
  H  H1  1  0.43324000  0.76133000  0.73345900  1
  H  H2  1  0.36651900  0.37632200  0.05347700  1
  H  H3  1  0.12619500  0.58064700  0.42293200  1
  H  H4  1  0.80193400  0.92722800  0.77635100  1
  H  H5  1  0.82563700  0.61465100  0.47830800  1
  H  H6  1  0.40839600  0.26726200  0.59995000  1
  H  H7  1  0.60076700  0.22319800  0.45445400  1
  H  H8  1  0.25218700  0.99231600  0.45371100  1
  H  H9  1  0.74705300  0.90915800  0.86164100  1
  H  H10  1  0.12203100  0.85752200  0.04573100  1
  H  H11  1  0.99168100  0.69887200  0.18432200  1
  N  N12  1  0.35905000  0.85520600  0.52093600  1
  N  N13  1  0.95501600  0.42707800  0.75250800  1
  N  N14  1  0.02579200  0.31097100  0.85943300  1
  N  N15  1  0.32605600  0.89899600  0.66586100  1
  O  O16  1  0.50792200  0.24457800  0.06693600  1
  O  O17  1  0.95578600  0.66631000  0.39560700  1
  O  O18  1  0.48770700  0.35146400  0.50425000  1
  O  O19  1  0.06835100  0.69588100  0.07227700  1
