# generated using pymatgen
data_FeHO2
_symmetry_space_group_name_H-M   'P 1'
_cell_length_a   6.11941700
_cell_length_b   10.66591647
_cell_length_c   11.29527155
_cell_angle_alpha   90.07818418
_cell_angle_beta   93.09423486
_cell_angle_gamma   94.85061637
_symmetry_Int_Tables_number   1
_chemical_formula_structural   FeHO2
_chemical_formula_sum   'Fe16 H16 O32'
_cell_volume   733.50888441
_cell_formula_units_Z   16
loop_
 _symmetry_equiv_pos_site_id
 _symmetry_equiv_pos_as_xyz
  1  'x, y, z'
loop_
 _atom_site_type_symbol
 _atom_site_label
 _atom_site_symmetry_multiplicity
 _atom_site_fract_x
 _atom_site_fract_y
 _atom_site_fract_z
 _atom_site_occupancy
  Fe  Fe0  1  0.02837800  0.63597700  0.09827500  1
  Fe  Fe1  1  0.99379300  0.86030100  0.64695000  1
  Fe  Fe2  1  0.28389400  0.14120200  0.57436600  1
  Fe  Fe3  1  0.24676200  0.32938300  0.12386600  1
  Fe  Fe4  1  0.95281600  0.32202500  0.84015200  1
  Fe  Fe5  1  0.97827100  0.13521200  0.30417000  1
  Fe  Fe6  1  0.22323400  0.80820200  0.37560900  1
  Fe  Fe7  1  0.23318700  0.65597600  0.81990400  1
  Fe  Fe8  1  0.51375400  0.67104600  0.09574900  1
  Fe  Fe9  1  0.50269000  0.84051100  0.64443700  1
  Fe  Fe10  1  0.80854900  0.17442600  0.58617400  1
  Fe  Fe11  1  0.73688400  0.29059700  0.12047600  1
  Fe  Fe12  1  0.45308700  0.31091100  0.83040600  1
  Fe  Fe13  1  0.49487500  0.11966100  0.30282000  1
  Fe  Fe14  1  0.70578300  0.80512700  0.35889000  1
  Fe  Fe15  1  0.73678300  0.62105600  0.81824100  1
  H  H16  1  0.98848600  0.97472200  0.44554100  1
  H  H17  1  0.96043800  0.61347000  0.61564800  1
  H  H18  1  0.26331600  0.46845000  0.92429200  1
  H  H19  1  0.19941700  0.07869200  0.10382300  1
  H  H20  1  0.12691600  0.32734200  0.64903200  1
  H  H21  1  0.99944000  0.38407700  0.31483900  1
  H  H22  1  0.32123300  0.84091900  0.16694000  1
  H  H23  1  0.31198500  0.55148100  0.24162700  1
  H  H24  1  0.28116300  0.89898900  0.85039600  1
  H  H25  1  0.45180700  0.60109100  0.61900000  1
  H  H26  1  0.66005900  0.13747000  0.77075500  1
  H  H27  1  0.54480800  0.00278000  0.50745100  1
  H  H28  1  0.53620100  0.36996800  0.31828400  1
  H  H29  1  0.86349500  0.80551100  0.16506600  1
  H  H30  1  0.69876200  0.49418500  0.04148400  1
  H  H31  1  0.76368000  0.90135400  0.84223700  1
  O  O32  1  0.97645100  0.70677600  0.33844700  1
  O  O33  1  0.98205600  0.94836900  0.36097600  1
  O  O34  1  0.97296800  0.65724200  0.69145600  1
  O  O35  1  0.99386900  0.66376100  0.92189100  1
  O  O36  1  0.19535000  0.21632900  0.84580000  1
  O  O37  1  0.23006600  0.46430400  0.83868500  1
  O  O38  1  0.22192900  0.13429700  0.17282200  1
  O  O39  1  0.25562700  0.16588000  0.40854400  1
  O  O40  1  0.96655900  0.32680900  0.65757500  1
  O  O41  1  0.02950100  0.04193500  0.61585600  1
  O  O42  1  0.00299400  0.32449200  0.24980900  1
  O  O43  1  0.98148400  0.33108000  0.02006900  1
  O  O44  1  0.26475200  0.78296200  0.10385800  1
  O  O45  1  0.28397400  0.52897700  0.15654700  1
  O  O46  1  0.26450100  0.84870900  0.77755200  1
  O  O47  1  0.23215200  0.82180900  0.54664400  1
  O  O48  1  0.42946800  0.69288200  0.34663700  1
  O  O49  1  0.46023100  0.93547700  0.34421500  1
  O  O50  1  0.47572500  0.65076100  0.69137400  1
  O  O51  1  0.50516100  0.66571100  0.92681000  1
  O  O52  1  0.69356200  0.18667000  0.84278000  1
  O  O53  1  0.71178900  0.44073300  0.82671500  1
  O  O54  1  0.72731500  0.12080900  0.18080400  1
  O  O55  1  0.74820400  0.16420900  0.41212500  1
  O  O56  1  0.42075400  0.28067100  0.65999000  1
  O  O57  1  0.53312600  0.03072200  0.59114700  1
  O  O58  1  0.50758100  0.31638100  0.24838000  1
  O  O59  1  0.48286800  0.32669400  0.01433100  1
  O  O60  1  0.70572000  0.80498900  0.17363400  1
  O  O61  1  0.73553400  0.54161400  0.11594500  1
  O  O62  1  0.75564800  0.85155600  0.76956200  1
  O  O63  1  0.73517200  0.81988200  0.53616300  1
