# generated using pymatgen
data_Ti3H2O7
_symmetry_space_group_name_H-M   'P 1'
_cell_length_a   8.31655307
_cell_length_b   8.31655307
_cell_length_c   9.29680581
_cell_angle_alpha   78.83766617
_cell_angle_beta   78.83766617
_cell_angle_gamma   26.28647867
_symmetry_Int_Tables_number   1
_chemical_formula_structural   Ti3H2O7
_chemical_formula_sum   'Ti6 H4 O14'
_cell_volume   279.08125870
_cell_formula_units_Z   2
loop_
 _symmetry_equiv_pos_site_id
 _symmetry_equiv_pos_as_xyz
  1  'x, y, z'
loop_
 _atom_site_type_symbol
 _atom_site_label
 _atom_site_symmetry_multiplicity
 _atom_site_fract_x
 _atom_site_fract_y
 _atom_site_fract_z
 _atom_site_occupancy
  Ti  Ti0  1  0.77229800  0.77229800  0.21233600  1
  Ti  Ti1  1  0.22711900  0.22711900  0.78410800  1
  Ti  Ti2  1  0.83214000  0.83214000  0.51535400  1
  Ti  Ti3  1  0.17720600  0.17720600  0.48503000  1
  Ti  Ti4  1  0.87357000  0.87357000  0.82246600  1
  Ti  Ti5  1  0.12068000  0.12068000  0.16671100  1
  H  H6  1  0.02103300  0.02103300  0.46364100  1
  H  H7  1  0.99996100  0.99996100  0.96630900  1
  H  H8  1  0.04665500  0.04665500  0.78777500  1
  H  H9  1  0.95565900  0.95565900  0.21110200  1
  O  O10  1  0.83253000  0.83253000  0.03063200  1
  O  O11  1  0.16797200  0.16797200  0.96476400  1
  O  O12  1  0.86557000  0.86557000  0.31615000  1
  O  O13  1  0.13417900  0.13417900  0.68194000  1
  O  O14  1  0.92090600  0.92090600  0.60768200  1
  O  O15  1  0.07832600  0.07832600  0.40108500  1
  O  O16  1  0.99076200  0.99076200  0.86156400  1
  O  O17  1  0.01219100  0.01219100  0.14017000  1
  O  O18  1  0.65177400  0.65177400  0.17729800  1
  O  O19  1  0.34691000  0.34691000  0.82104400  1
  O  O20  1  0.70648500  0.70648500  0.45867200  1
  O  O21  1  0.29490300  0.29490300  0.54489500  1
  O  O22  1  0.75997300  0.75997300  0.74948500  1
  O  O23  1  0.23833900  0.23833900  0.25464600  1
