# generated using pymatgen
data_Si2H2O3
_symmetry_space_group_name_H-M   'P 1'
_cell_length_a   8.47771500
_cell_length_b   10.43123858
_cell_length_c   12.39390091
_cell_angle_alpha   82.18130796
_cell_angle_beta   70.24206384
_cell_angle_gamma   68.76962758
_symmetry_Int_Tables_number   1
_chemical_formula_structural   Si2H2O3
_chemical_formula_sum   'Si20 H20 O30'
_cell_volume   961.38418227
_cell_formula_units_Z   10
loop_
 _symmetry_equiv_pos_site_id
 _symmetry_equiv_pos_as_xyz
  1  'x, y, z'
loop_
 _atom_site_type_symbol
 _atom_site_label
 _atom_site_symmetry_multiplicity
 _atom_site_fract_x
 _atom_site_fract_y
 _atom_site_fract_z
 _atom_site_occupancy
  Si  Si0  1  0.54561100  0.14040200  0.13198700  1
  Si  Si1  1  0.31788100  0.31493900  0.38679800  1
  Si  Si2  1  0.43737100  0.88587100  0.86272600  1
  Si  Si3  1  0.67856700  0.65092600  0.65043400  1
  Si  Si4  1  0.85397600  0.88802700  0.30018000  1
  Si  Si5  1  0.55473700  0.56269800  0.23109400  1
  Si  Si6  1  0.17107800  0.11874800  0.74055800  1
  Si  Si7  1  0.55065600  0.40747200  0.80646800  1
  Si  Si8  1  0.19996100  0.98638600  0.21652400  1
  Si  Si9  1  0.91927800  0.50122200  0.28641700  1
  Si  Si10  1  0.82866300  0.00750500  0.78935200  1
  Si  Si11  1  0.09873700  0.49071600  0.69703600  1
  Si  Si12  1  0.92989700  0.25774700  0.47627700  1
  Si  Si13  1  0.27723500  0.22661400  0.06181500  1
  Si  Si14  1  0.05839200  0.77228200  0.52909400  1
  Si  Si15  1  0.86950100  0.69152000  0.96163200  1
  Si  Si16  1  0.59340000  0.12073300  0.52021600  1
  Si  Si17  1  0.69514200  0.36844900  0.98668900  1
  Si  Si18  1  0.41333300  0.85880600  0.47431200  1
  Si  Si19  1  0.23701100  0.63063300  0.01654400  1
  H  H20  1  0.81957800  0.98496500  0.08977800  1
  H  H21  1  0.33050300  0.54767500  0.39321500  1
  H  H22  1  0.83933900  0.40520200  0.14046800  1
  H  H23  1  0.36353400  0.52164100  0.66236500  1
  H  H24  1  0.05100800  0.83698400  0.86719000  1
  H  H25  1  0.03647800  0.73117100  0.72876400  1
  H  H26  1  0.61376000  0.33973000  0.48245000  1
  H  H27  1  0.96246000  0.25087100  0.02757400  1
  H  H28  1  0.18504300  0.85785500  0.04692200  1
  H  H29  1  0.57720300  0.61243900  0.50376800  1
  H  H30  1  0.60651400  0.16012400  0.29584800  1
  H  H31  1  0.37332500  0.83348400  0.70201700  1
  H  H32  1  0.84559800  0.10807700  0.34702900  1
  H  H33  1  0.42567900  0.52931700  0.09770500  1
  H  H34  1  0.16392600  0.94123300  0.62571500  1
  H  H35  1  0.38311200  0.65089400  0.82139300  1
  H  H36  1  0.01401700  0.21946300  0.27950000  1
  H  H37  1  0.19364200  0.43665200  0.14809300  1
  H  H38  1  0.82183800  0.97359400  0.60057100  1
  H  H39  1  0.99799500  0.46163500  0.90369800  1
  O  O40  1  0.70722100  0.98972400  0.14963300  1
  O  O41  1  0.42802400  0.47021600  0.34882100  1
  O  O42  1  0.28269900  0.02209900  0.83036900  1
  O  O43  1  0.63033900  0.50552100  0.69590400  1
  O  O44  1  0.04060000  0.92194100  0.21516600  1
  O  O45  1  0.77614000  0.44561100  0.22023300  1
  O  O46  1  0.99081200  0.06385300  0.78288900  1
  O  O47  1  0.32065300  0.44325000  0.67717000  1
  O  O48  1  0.16280800  0.11589400  0.11605300  1
  O  O49  1  0.86471300  0.41279400  0.40868600  1
  O  O50  1  0.95277200  0.82434800  0.84938200  1
  O  O51  1  0.08052700  0.67288700  0.65992800  1
  O  O52  1  0.68753100  0.25387200  0.51005600  1
  O  O53  1  0.89554600  0.34705600  0.01211700  1
  O  O54  1  0.26458700  0.78305700  0.47862100  1
  O  O55  1  0.02505000  0.66771900  0.02562600  1
  O  O56  1  0.67476600  0.21766900  0.03684600  1
  O  O57  1  0.41869300  0.22701100  0.48142500  1
  O  O58  1  0.25114600  0.79956200  0.97883900  1
  O  O59  1  0.56164000  0.69562800  0.54052500  1
  O  O60  1  0.50529200  0.21414700  0.26394900  1
  O  O61  1  0.44921200  0.77437000  0.75230300  1
  O  O62  1  0.74664100  0.06604900  0.36267600  1
  O  O63  1  0.55042800  0.47708900  0.11317100  1
  O  O64  1  0.28732500  0.93349700  0.61624700  1
  O  O65  1  0.36150100  0.57280600  0.87569900  1
  O  O66  1  0.00281800  0.15397000  0.34418300  1
  O  O67  1  0.13614200  0.36550300  0.18029400  1
  O  O68  1  0.93150500  0.92674800  0.62377000  1
  O  O69  1  0.00553600  0.54541900  0.85556300  1
