# generated using pymatgen
data_V3(HO4)2
_symmetry_space_group_name_H-M   'P 1'
_cell_length_a   17.22373300
_cell_length_b   3.69245300
_cell_length_c   10.03830613
_cell_angle_alpha   69.80935367
_cell_angle_beta   90.00000000
_cell_angle_gamma   90.00000000
_symmetry_Int_Tables_number   1
_chemical_formula_structural   V3(HO4)2
_chemical_formula_sum   'V12 H8 O32'
_cell_volume   599.18347006
_cell_formula_units_Z   4
loop_
 _symmetry_equiv_pos_site_id
 _symmetry_equiv_pos_as_xyz
  1  'x, y, z'
loop_
 _atom_site_type_symbol
 _atom_site_label
 _atom_site_symmetry_multiplicity
 _atom_site_fract_x
 _atom_site_fract_y
 _atom_site_fract_z
 _atom_site_occupancy
  V  V0  1  0.45828300  0.37408500  0.37340100  1
  V  V1  1  0.95828300  0.62591500  0.12659900  1
  V  V2  1  0.54171700  0.62591500  0.62659900  1
  V  V3  1  0.04171700  0.37408500  0.87340100  1
  V  V4  1  0.65339400  0.29895200  0.44609600  1
  V  V5  1  0.15339400  0.70104800  0.05390400  1
  V  V6  1  0.34660600  0.70104800  0.55390400  1
  V  V7  1  0.84660600  0.29895200  0.94609600  1
  V  V8  1  0.05253300  0.33165900  0.41506400  1
  V  V9  1  0.55253300  0.66834100  0.08493600  1
  V  V10  1  0.94746700  0.66834100  0.58493600  1
  V  V11  1  0.44746700  0.33165900  0.91506400  1
  H  H12  1  0.73555600  0.28148400  0.66492900  1
  H  H13  1  0.23555600  0.71851600  0.83507100  1
  H  H14  1  0.26444400  0.71851600  0.33507100  1
  H  H15  1  0.76444400  0.28148400  0.16492900  1
  H  H16  1  0.18468700  0.18929900  0.54575200  1
  H  H17  1  0.68468700  0.81070100  0.95424800  1
  H  H18  1  0.81531300  0.81070100  0.45424800  1
  H  H19  1  0.31531300  0.18929900  0.04575200  1
  O  O20  1  0.54327100  0.18087800  0.56977200  1
  O  O21  1  0.04327100  0.81912200  0.93022800  1
  O  O22  1  0.45672900  0.81912200  0.43022800  1
  O  O23  1  0.95672900  0.18087800  0.06977200  1
  O  O24  1  0.40670600  0.51582000  0.22807200  1
  O  O25  1  0.90670600  0.48418000  0.27192800  1
  O  O26  1  0.59329400  0.48418000  0.77192800  1
  O  O27  1  0.09329400  0.51582000  0.72807200  1
  O  O28  1  0.37481300  0.22407900  0.52898100  1
  O  O29  1  0.87481300  0.77592100  0.97101900  1
  O  O30  1  0.62518700  0.77592100  0.47101900  1
  O  O31  1  0.12518700  0.22407900  0.02898100  1
  O  O32  1  0.55489800  0.45802100  0.29139700  1
  O  O33  1  0.05489800  0.54197900  0.20860300  1
  O  O34  1  0.44510200  0.54197900  0.70860300  1
  O  O35  1  0.94510200  0.45802100  0.79139700  1
  O  O36  1  0.71479200  0.39771400  0.31354100  1
  O  O37  1  0.21479200  0.60228600  0.18645900  1
  O  O38  1  0.28520800  0.60228600  0.68645900  1
  O  O39  1  0.78520800  0.39771400  0.81354100  1
  O  O40  1  0.71646200  0.16620200  0.59578600  1
  O  O41  1  0.21646200  0.83379800  0.90421400  1
  O  O42  1  0.28353800  0.83379800  0.40421400  1
  O  O43  1  0.78353800  0.16620200  0.09578600  1
  O  O44  1  0.98151800  0.17761100  0.57527000  1
  O  O45  1  0.48151800  0.82238900  0.92473000  1
  O  O46  1  0.01848200  0.82238900  0.42473000  1
  O  O47  1  0.51848200  0.17761100  0.07527000  1
  O  O48  1  0.14965600  0.28872000  0.46457800  1
  O  O49  1  0.64965600  0.71128000  0.03542200  1
  O  O50  1  0.85034400  0.71128000  0.53542200  1
  O  O51  1  0.35034400  0.28872000  0.96457800  1
