# generated using pymatgen
data_Si2H2O3
_symmetry_space_group_name_H-M   'P 1'
_cell_length_a   9.22679900
_cell_length_b   10.69753227
_cell_length_c   12.03240435
_cell_angle_alpha   75.71607010
_cell_angle_beta   67.57272000
_cell_angle_gamma   64.61071008
_symmetry_Int_Tables_number   1
_chemical_formula_structural   Si2H2O3
_chemical_formula_sum   'Si20 H20 O30'
_cell_volume   986.85723296
_cell_formula_units_Z   10
loop_
 _symmetry_equiv_pos_site_id
 _symmetry_equiv_pos_as_xyz
  1  'x, y, z'
loop_
 _atom_site_type_symbol
 _atom_site_label
 _atom_site_symmetry_multiplicity
 _atom_site_fract_x
 _atom_site_fract_y
 _atom_site_fract_z
 _atom_site_occupancy
  Si  Si0  1  0.32777800  0.88347600  0.10516700  1
  Si  Si1  1  0.30803800  0.62478700  0.38520500  1
  Si  Si2  1  0.67659700  0.12986600  0.88477100  1
  Si  Si3  1  0.68594300  0.38448600  0.60251500  1
  Si  Si4  1  0.87840000  0.09532100  0.26280600  1
  Si  Si5  1  0.27974300  0.39117100  0.23673200  1
  Si  Si6  1  0.09207600  0.89140600  0.73429000  1
  Si  Si7  1  0.76607500  0.59725300  0.76658300  1
  Si  Si8  1  0.64531000  0.00237600  0.20265900  1
  Si  Si9  1  0.78285200  0.50560600  0.30568700  1
  Si  Si10  1  0.39969500  0.00132700  0.80786200  1
  Si  Si11  1  0.15545700  0.50095400  0.70768200  1
  Si  Si12  1  0.63534900  0.76809400  0.46064800  1
  Si  Si13  1  0.85403200  0.73843200  0.04225900  1
  Si  Si14  1  0.36726500  0.23792300  0.54360100  1
  Si  Si15  1  0.13501900  0.26243800  0.96377300  1
  Si  Si16  1  0.87119400  0.85239700  0.52981200  1
  Si  Si17  1  0.22063200  0.65136800  0.99023700  1
  Si  Si18  1  0.13970700  0.15134100  0.48734700  1
  Si  Si19  1  0.74482100  0.35077700  0.03161200  1
  H  H20  1  0.13942700  0.09922500  0.12744400  1
  H  H21  1  0.17999700  0.47637600  0.41933700  1
  H  H22  1  0.90445800  0.95582400  0.91248100  1
  H  H23  1  0.64174600  0.59707900  0.62683200  1
  H  H24  1  0.09275900  0.35105700  0.18854000  1
  H  H25  1  0.36526600  0.85391000  0.68577900  1
  H  H26  1  0.35889700  0.81259200  0.93583900  1
  H  H27  1  0.13019800  0.68293700  0.57212600  1
  H  H28  1  0.61951300  0.17706100  0.07390400  1
  H  H29  1  0.89415000  0.30950600  0.43280100  1
  H  H30  1  0.45423300  0.73635900  0.23783700  1
  H  H31  1  0.57000700  0.23951600  0.73553400  1
  H  H32  1  0.88815000  0.07401000  0.46056300  1
  H  H33  1  0.42942500  0.44451300  0.04034000  1
  H  H34  1  0.08855700  0.94443800  0.53684300  1
  H  H35  1  0.57540100  0.57414000  0.96156800  1
  H  H36  1  0.42806300  0.97730000  0.38939600  1
  H  H37  1  0.76867900  0.52452200  0.11313700  1
  H  H38  1  0.59161200  0.02174800  0.61737300  1
  H  H39  1  0.20929100  0.46894300  0.89677800  1
  O  O40  1  0.12249200  0.00801000  0.16677400  1
  O  O41  1  0.20423200  0.53471300  0.34234400  1
  O  O42  1  0.91194500  0.02796700  0.84247600  1
  O  O43  1  0.71116100  0.50585900  0.66359600  1
  O  O44  1  0.81609200  0.98830500  0.23326600  1
  O  O45  1  0.07717100  0.41963600  0.23891000  1
  O  O46  1  0.26315700  0.92135700  0.73788700  1
  O  O47  1  0.96442300  0.49274800  0.73803700  1
  O  O48  1  0.71351200  0.86666900  0.12675200  1
  O  O49  1  0.73354400  0.64657100  0.36303900  1
  O  O50  1  0.25074800  0.14179700  0.86547200  1
  O  O51  1  0.29240200  0.36446300  0.63075100  1
  O  O52  1  0.80926300  0.79155800  0.45143700  1
  O  O53  1  0.02703700  0.70049800  0.08534700  1
  O  O54  1  0.18668000  0.20360300  0.58222000  1
  O  O55  1  0.94556400  0.29190100  0.95398100  1
  O  O56  1  0.29838400  0.77605900  0.01846200  1
  O  O57  1  0.11182600  0.73448600  0.48793000  1
  O  O58  1  0.66547700  0.23582800  0.98760300  1
  O  O59  1  0.90852200  0.27458300  0.51505100  1
  O  O60  1  0.33840400  0.74947700  0.24617600  1
  O  O61  1  0.66484700  0.25239400  0.74373400  1
  O  O62  1  0.90862600  0.00058900  0.41486100  1
  O  O63  1  0.32610000  0.50722900  0.09294900  1
  O  O64  1  0.07622200  0.00728200  0.58994100  1
  O  O65  1  0.67741200  0.50223100  0.91644000  1
  O  O66  1  0.54861300  0.91876400  0.35470700  1
  O  O67  1  0.77419700  0.58785800  0.15806000  1
  O  O68  1  0.47759200  0.08368900  0.66249200  1
  O  O69  1  0.18238400  0.41136800  0.86059000  1
