# generated using pymatgen
data_Ca2In4Au3
_symmetry_space_group_name_H-M   'P 1'
_cell_length_a   4.50697400
_cell_length_b   12.98678800
_cell_length_c   14.95548000
_cell_angle_alpha   90.00000000
_cell_angle_beta   90.00000000
_cell_angle_gamma   90.00000000
_symmetry_Int_Tables_number   1
_chemical_formula_structural   Ca2In4Au3
_chemical_formula_sum   'Ca8 In16 Au12'
_cell_volume   875.36093261
_cell_formula_units_Z   4
loop_
 _symmetry_equiv_pos_site_id
 _symmetry_equiv_pos_as_xyz
  1  'x, y, z'
loop_
 _atom_site_type_symbol
 _atom_site_label
 _atom_site_symmetry_multiplicity
 _atom_site_fract_x
 _atom_site_fract_y
 _atom_site_fract_z
 _atom_site_occupancy
  Ca  Ca0  1  0.75000000  0.21312000  0.51950100  1
  Ca  Ca1  1  0.75000000  0.41578400  0.29098900  1
  Ca  Ca2  1  0.25000000  0.78687900  0.48049900  1
  Ca  Ca3  1  0.25000000  0.71312100  0.98049900  1
  Ca  Ca4  1  0.75000000  0.28688000  0.01950100  1
  Ca  Ca5  1  0.25000000  0.58421600  0.70901100  1
  Ca  Ca6  1  0.75000000  0.08421600  0.79098900  1
  Ca  Ca7  1  0.25000000  0.91578400  0.20901100  1
  In  In8  1  0.75000000  0.71634600  0.31948700  1
  In  In9  1  0.25000000  0.21634600  0.18051300  1
  In  In10  1  0.75000000  0.36944000  0.80418900  1
  In  In11  1  0.25000000  0.41330700  0.49541100  1
  In  In12  1  0.75000000  0.96022400  0.57114000  1
  In  In13  1  0.75000000  0.78365400  0.81948700  1
  In  In14  1  0.25000000  0.28365400  0.68051300  1
  In  In15  1  0.75000000  0.53977600  0.07114000  1
  In  In16  1  0.75000000  0.58669300  0.50458900  1
  In  In17  1  0.25000000  0.03977600  0.42886000  1
  In  In18  1  0.75000000  0.91330700  0.00458900  1
  In  In19  1  0.25000000  0.63056000  0.19581100  1
  In  In20  1  0.25000000  0.46022400  0.92886000  1
  In  In21  1  0.75000000  0.13056000  0.30418900  1
  In  In22  1  0.25000000  0.08669300  0.99541100  1
  In  In23  1  0.25000000  0.86944000  0.69581100  1
  Au  Au24  1  0.75000000  0.75391700  0.12914000  1
  Au  Au25  1  0.75000000  0.92004600  0.37441900  1
  Au  Au26  1  0.25000000  0.07995400  0.62558100  1
  Au  Au27  1  0.75000000  0.74608300  0.62914000  1
  Au  Au28  1  0.75000000  0.57995400  0.87441900  1
  Au  Au29  1  0.25000000  0.91751000  0.87786700  1
  Au  Au30  1  0.75000000  0.41751000  0.62213300  1
  Au  Au31  1  0.25000000  0.24608300  0.87086000  1
  Au  Au32  1  0.25000000  0.58249000  0.37786700  1
  Au  Au33  1  0.25000000  0.25391700  0.37086000  1
  Au  Au34  1  0.75000000  0.08249000  0.12213300  1
  Au  Au35  1  0.25000000  0.42004600  0.12558100  1
