# generated using pymatgen
data_Na2Ti2Si2O11
_symmetry_space_group_name_H-M   'P 1'
_cell_length_a   5.40495500
_cell_length_b   7.09436859
_cell_length_c   12.35318788
_cell_angle_alpha   93.54464372
_cell_angle_beta   97.40996605
_cell_angle_gamma   90.27310696
_symmetry_Int_Tables_number   1
_chemical_formula_structural   Na2Ti2Si2O11
_chemical_formula_sum   'Na4 Ti4 Si4 O22'
_cell_volume   468.78653576
_cell_formula_units_Z   2
loop_
 _symmetry_equiv_pos_site_id
 _symmetry_equiv_pos_as_xyz
  1  'x, y, z'
loop_
 _atom_site_type_symbol
 _atom_site_label
 _atom_site_symmetry_multiplicity
 _atom_site_fract_x
 _atom_site_fract_y
 _atom_site_fract_z
 _atom_site_occupancy
  Na  Na0  1  0.81607900  0.33089600  0.20698100  1
  Na  Na1  1  0.18065900  0.66816400  0.79837600  1
  Na  Na2  1  0.74439300  0.11440800  0.49081300  1
  Na  Na3  1  0.25144700  0.88703500  0.51550800  1
  Ti  Ti4  1  0.83095800  0.82474400  0.26426600  1
  Ti  Ti5  1  0.77783900  0.61263800  0.50677400  1
  Ti  Ti6  1  0.17143000  0.17512600  0.74195500  1
  Ti  Ti7  1  0.22024000  0.38690500  0.49883700  1
  Si  Si8  1  0.32153500  0.12286500  0.28052100  1
  Si  Si9  1  0.34529800  0.55313400  0.26930900  1
  Si  Si10  1  0.67642500  0.87639000  0.72440400  1
  Si  Si11  1  0.65593100  0.44626800  0.73659500  1
  O  O12  1  0.32222400  0.32816400  0.22336200  1
  O  O13  1  0.40455700  0.56311200  0.40679800  1
  O  O14  1  0.34072100  0.16722100  0.41457300  1
  O  O15  1  0.38655300  0.80593800  0.00029900  1
  O  O16  1  0.59237400  0.43573700  0.59917500  1
  O  O17  1  0.91166900  0.39924800  0.41963100  1
  O  O18  1  0.13675000  0.19473000  0.59636900  1
  O  O19  1  0.07957000  0.64511900  0.22785600  1
  O  O20  1  0.05243600  0.02603600  0.23498600  1
  O  O21  1  0.61219300  0.83854700  0.02010400  1
  O  O22  1  0.86615100  0.80505200  0.40987400  1
  O  O23  1  0.65321500  0.83216300  0.59027000  1
  O  O24  1  0.08499600  0.60028700  0.58645300  1
  O  O25  1  0.92468400  0.35731900  0.77624400  1
  O  O26  1  0.58527300  0.63084100  0.21779300  1
  O  O27  1  0.94583800  0.97437200  0.76757900  1
  O  O28  1  0.42077700  0.36612500  0.79069900  1
  O  O29  1  0.57019800  0.01379200  0.25301600  1
  O  O30  1  0.42911800  0.98410900  0.75472200  1
  O  O31  1  0.67966300  0.67141200  0.78194400  1
  O  O32  1  0.09116000  0.16152600  0.98545800  1
  O  O33  1  0.87724200  0.20127700  0.00185500  1
