# generated using pymatgen
data_Fe3C9Se2O9
_symmetry_space_group_name_H-M   'P 1'
_cell_length_a   6.83787000
_cell_length_b   9.24919726
_cell_length_c   13.13652296
_cell_angle_alpha   94.02188344
_cell_angle_beta   94.43545899
_cell_angle_gamma   111.00583358
_symmetry_Int_Tables_number   1
_chemical_formula_structural   Fe3C9Se2O9
_chemical_formula_sum   'Fe6 C18 Se4 O18'
_cell_volume   768.99515617
_cell_formula_units_Z   2
loop_
 _symmetry_equiv_pos_site_id
 _symmetry_equiv_pos_as_xyz
  1  'x, y, z'
loop_
 _atom_site_type_symbol
 _atom_site_label
 _atom_site_symmetry_multiplicity
 _atom_site_fract_x
 _atom_site_fract_y
 _atom_site_fract_z
 _atom_site_occupancy
  Fe  Fe0  1  0.07535300  0.73201900  0.33954800  1
  Fe  Fe1  1  0.21582500  0.80371700  0.15782700  1
  Fe  Fe2  1  0.92464700  0.26798100  0.66045200  1
  Fe  Fe3  1  0.37152200  0.09488200  0.25467400  1
  Fe  Fe4  1  0.78417500  0.19628300  0.84217300  1
  Fe  Fe5  1  0.62847800  0.90511800  0.74532600  1
  C  C6  1  0.20472700  0.38300000  0.67955100  1
  C  C7  1  0.59302200  0.27421000  0.88342100  1
  C  C8  1  0.79527300  0.61700000  0.32044900  1
  C  C9  1  0.29481400  0.22710800  0.17759000  1
  C  C10  1  0.60119400  0.80267500  0.62214900  1
  C  C11  1  0.91465200  0.18354800  0.53367900  1
  C  C12  1  0.22264800  0.91309600  0.05170800  1
  C  C13  1  0.08534800  0.81645200  0.46632100  1
  C  C14  1  0.39880600  0.19732500  0.37785100  1
  C  C15  1  0.99531900  0.62938000  0.11689200  1
  C  C16  1  0.77735200  0.08690400  0.94829200  1
  C  C17  1  0.70518600  0.77289200  0.82241000  1
  C  C18  1  0.14250500  0.56658600  0.37103300  1
  C  C19  1  0.64591900  0.18130100  0.23099100  1
  C  C20  1  0.35408100  0.81869900  0.76900900  1
  C  C21  1  0.40697800  0.72579000  0.11657900  1
  C  C22  1  0.00468100  0.37062000  0.88310800  1
  C  C23  1  0.85749500  0.43341400  0.62896700  1
  Se  Se24  1  0.43408600  0.87899400  0.31936200  1
  Se  Se25  1  0.00999100  0.92729400  0.24791000  1
  Se  Se26  1  0.56591400  0.12100600  0.68063800  1
  Se  Se27  1  0.99000900  0.07270600  0.75209000  1
  O  O28  1  0.22201900  0.97649000  0.97813200  1
  O  O29  1  0.57865000  0.73971900  0.54008900  1
  O  O30  1  0.90362300  0.12712100  0.45063800  1
  O  O31  1  0.75205600  0.68786700  0.87045800  1
  O  O32  1  0.81967900  0.54006500  0.60604800  1
  O  O33  1  0.14555300  0.48372000  0.91543800  1
  O  O34  1  0.77798100  0.02351000  0.02186800  1
  O  O35  1  0.42135000  0.26028100  0.45991100  1
  O  O36  1  0.47147400  0.32418700  0.91192500  1
  O  O37  1  0.61626100  0.54343300  0.30941200  1
  O  O38  1  0.38373900  0.45656700  0.69058800  1
  O  O39  1  0.85444700  0.51628000  0.08456200  1
  O  O40  1  0.24794400  0.31213300  0.12954200  1
  O  O41  1  0.18032100  0.45993500  0.39395200  1
  O  O42  1  0.82188400  0.24155000  0.21945600  1
  O  O43  1  0.52852600  0.67581300  0.08807500  1
  O  O44  1  0.17811600  0.75845000  0.78054400  1
  O  O45  1  0.09637700  0.87287900  0.54936200  1
