# generated using pymatgen
data_RhC2IO2
_symmetry_space_group_name_H-M   'P 1'
_cell_length_a   9.72047700
_cell_length_b   9.53865500
_cell_length_c   14.11290824
_cell_angle_alpha   53.94979860
_cell_angle_beta   90.00000000
_cell_angle_gamma   90.00000000
_symmetry_Int_Tables_number   1
_chemical_formula_structural   RhC2IO2
_chemical_formula_sum   'Rh8 C16 I8 O16'
_cell_volume   1057.96709859
_cell_formula_units_Z   8
loop_
 _symmetry_equiv_pos_site_id
 _symmetry_equiv_pos_as_xyz
  1  'x, y, z'
loop_
 _atom_site_type_symbol
 _atom_site_label
 _atom_site_symmetry_multiplicity
 _atom_site_fract_x
 _atom_site_fract_y
 _atom_site_fract_z
 _atom_site_occupancy
  Rh  Rh0  1  0.78996000  0.78949300  0.31268700  1
  Rh  Rh1  1  0.44147600  0.77244000  0.36935800  1
  Rh  Rh2  1  0.71004000  0.78949300  0.81268700  1
  Rh  Rh3  1  0.21004000  0.21050700  0.68731300  1
  Rh  Rh4  1  0.94147600  0.22756000  0.13064200  1
  Rh  Rh5  1  0.28996000  0.21050700  0.18731300  1
  Rh  Rh6  1  0.05852400  0.77244000  0.86935800  1
  Rh  Rh7  1  0.55852400  0.22756000  0.63064200  1
  C  C8  1  0.64380700  0.27469000  0.49715600  1
  C  C9  1  0.69044000  0.35498000  0.64529400  1
  C  C10  1  0.35619300  0.72531000  0.50284400  1
  C  C11  1  0.14380700  0.72531000  0.00284400  1
  C  C12  1  0.93099300  0.72802800  0.41925100  1
  C  C13  1  0.56900700  0.72802800  0.91925100  1
  C  C14  1  0.37642300  0.32514000  0.24088700  1
  C  C15  1  0.30956000  0.64502000  0.35470600  1
  C  C16  1  0.19044000  0.64502000  0.85470600  1
  C  C17  1  0.06900700  0.27197200  0.58074900  1
  C  C18  1  0.62357700  0.67486000  0.75911300  1
  C  C19  1  0.85619300  0.27469000  0.99715600  1
  C  C20  1  0.43099300  0.27197200  0.08074900  1
  C  C21  1  0.12357700  0.32514000  0.74088700  1
  C  C22  1  0.80956000  0.35498000  0.14529400  1
  C  C23  1  0.87642300  0.67486000  0.25911300  1
  I  I24  1  0.07256600  0.15506100  0.32577800  1
  I  I25  1  0.42743400  0.15506100  0.82577800  1
  I  I26  1  0.57256600  0.84493900  0.17422200  1
  I  I27  1  0.64597400  0.94145600  0.39467700  1
  I  I28  1  0.92743400  0.84493900  0.67422200  1
  I  I29  1  0.14597400  0.05854400  0.10532300  1
  I  I30  1  0.85402600  0.94145600  0.89467700  1
  I  I31  1  0.35402600  0.05854400  0.60532300  1
  O  O32  1  0.52036700  0.31893000  0.01396300  1
  O  O33  1  0.47963300  0.68107000  0.98603700  1
  O  O34  1  0.72569800  0.43553200  0.15175100  1
  O  O35  1  0.97963300  0.31893000  0.51396300  1
  O  O36  1  0.79924400  0.30373200  0.91507300  1
  O  O37  1  0.20075600  0.69626800  0.08492700  1
  O  O38  1  0.22569800  0.56446800  0.34824900  1
  O  O39  1  0.77430200  0.43553200  0.65175100  1
  O  O40  1  0.29924400  0.69626800  0.58492700  1
  O  O41  1  0.56873800  0.60150900  0.72722600  1
  O  O42  1  0.27430200  0.56446800  0.84824900  1
  O  O43  1  0.70075600  0.30373200  0.41507300  1
  O  O44  1  0.02036700  0.68107000  0.48603700  1
  O  O45  1  0.06873800  0.39849100  0.77277400  1
  O  O46  1  0.93126200  0.60150900  0.22722600  1
  O  O47  1  0.43126200  0.39849100  0.27277400  1
