# generated using pymatgen
data_Mg(ClO3)2
_symmetry_space_group_name_H-M   'P 1'
_cell_length_a   6.07863738
_cell_length_b   6.07863738
_cell_length_c   4.45662812
_cell_angle_alpha   87.29072060
_cell_angle_beta   87.29072060
_cell_angle_gamma   75.68966825
_symmetry_Int_Tables_number   1
_chemical_formula_structural   Mg(ClO3)2
_chemical_formula_sum   'Mg1 Cl2 O6'
_cell_volume   159.27598546
_cell_formula_units_Z   1
loop_
 _symmetry_equiv_pos_site_id
 _symmetry_equiv_pos_as_xyz
  1  'x, y, z'
loop_
 _atom_site_type_symbol
 _atom_site_label
 _atom_site_symmetry_multiplicity
 _atom_site_fract_x
 _atom_site_fract_y
 _atom_site_fract_z
 _atom_site_occupancy
  Mg  Mg0  1  0.00000000  0.00000000  0.00000000  1
  Cl  Cl1  1  0.31333800  0.31333800  0.19287600  1
  Cl  Cl2  1  0.68666200  0.68666200  0.80712400  1
  O  O3  1  0.20976300  0.20976300  0.91907000  1
  O  O4  1  0.79023700  0.79023700  0.08093000  1
  O  O5  1  0.79247000  0.17887100  0.64205300  1
  O  O6  1  0.17887100  0.79247000  0.64205300  1
  O  O7  1  0.20753000  0.82112900  0.35794700  1
  O  O8  1  0.82112900  0.20753000  0.35794700  1
