# generated using pymatgen
data_CSO
_symmetry_space_group_name_H-M   'P 1'
_cell_length_a   4.46375393
_cell_length_b   4.46375393
_cell_length_c   4.24497155
_cell_angle_alpha   82.65867367
_cell_angle_beta   82.65867367
_cell_angle_gamma   108.72855761
_symmetry_Int_Tables_number   1
_chemical_formula_structural   CSO
_chemical_formula_sum   'C1 S1 O1'
_cell_volume   78.15272544
_cell_formula_units_Z   1
loop_
 _symmetry_equiv_pos_site_id
 _symmetry_equiv_pos_as_xyz
  1  'x, y, z'
loop_
 _atom_site_type_symbol
 _atom_site_label
 _atom_site_symmetry_multiplicity
 _atom_site_fract_x
 _atom_site_fract_y
 _atom_site_fract_z
 _atom_site_occupancy
  C  C0  1  0.58038700  0.58038700  0.75165500  1
  S  S1  1  0.31168200  0.31168200  0.00149500  1
  O  O2  1  0.78374200  0.78374200  0.56357100  1
