# generated using pymatgen
data_H4N2O3
_symmetry_space_group_name_H-M   'P 1'
_cell_length_a   5.76611400
_cell_length_b   5.76611400
_cell_length_c   4.93644700
_cell_angle_alpha   90.00000000
_cell_angle_beta   90.00000000
_cell_angle_gamma   90.00000000
_symmetry_Int_Tables_number   1
_chemical_formula_structural   H4N2O3
_chemical_formula_sum   'H8 N4 O6'
_cell_volume   164.12733867
_cell_formula_units_Z   2
loop_
 _symmetry_equiv_pos_site_id
 _symmetry_equiv_pos_as_xyz
  1  'x, y, z'
loop_
 _atom_site_type_symbol
 _atom_site_label
 _atom_site_symmetry_multiplicity
 _atom_site_fract_x
 _atom_site_fract_y
 _atom_site_fract_z
 _atom_site_occupancy
  H  H0  1  0.35518900  0.51901000  0.37870900  1
  H  H1  1  0.85518900  0.98099000  0.62129100  1
  H  H2  1  0.64481100  0.48099000  0.37870900  1
  H  H3  1  0.14481100  0.01901000  0.62129100  1
  H  H4  1  0.51901000  0.64481100  0.62129100  1
  H  H5  1  0.01901000  0.85518900  0.37870900  1
  H  H6  1  0.48099000  0.35518900  0.62129100  1
  H  H7  1  0.98099000  0.14481100  0.37870900  1
  N  N8  1  0.50000000  0.50000000  0.50000000  1
  N  N9  1  0.00000000  0.00000000  0.50000000  1
  N  N10  1  0.50000000  0.00000000  0.02180800  1
  N  N11  1  0.00000000  0.50000000  0.97819200  1
  O  O12  1  0.50000000  0.00000000  0.27694000  1
  O  O13  1  0.00000000  0.50000000  0.72306000  1
  O  O14  1  0.86420900  0.36420900  0.10668600  1
  O  O15  1  0.36420900  0.13579100  0.89331400  1
  O  O16  1  0.13579100  0.63579100  0.10668600  1
  O  O17  1  0.63579100  0.86420900  0.89331400  1
