# generated using pymatgen
data_NaH4CNO2
_symmetry_space_group_name_H-M   'P 1'
_cell_length_a   10.89076700
_cell_length_b   6.15340500
_cell_length_c   6.82790132
_cell_angle_alpha   79.04766240
_cell_angle_beta   90.00000000
_cell_angle_gamma   90.00000000
_symmetry_Int_Tables_number   1
_chemical_formula_structural   NaH4CNO2
_chemical_formula_sum   'Na4 H16 C4 N4 O8'
_cell_volume   449.23940983
_cell_formula_units_Z   4
loop_
 _symmetry_equiv_pos_site_id
 _symmetry_equiv_pos_as_xyz
  1  'x, y, z'
loop_
 _atom_site_type_symbol
 _atom_site_label
 _atom_site_symmetry_multiplicity
 _atom_site_fract_x
 _atom_site_fract_y
 _atom_site_fract_z
 _atom_site_occupancy
  Na  Na0  1  0.34955300  0.94100300  0.43508100  1
  Na  Na1  1  0.84955300  0.05899700  0.06491900  1
  Na  Na2  1  0.65044700  0.05899700  0.56491900  1
  Na  Na3  1  0.15044700  0.94100300  0.93508100  1
  H  H4  1  0.98755200  0.64586600  0.21625500  1
  H  H5  1  0.48755200  0.35413400  0.28374500  1
  H  H6  1  0.01244800  0.35413400  0.78374500  1
  H  H7  1  0.51244800  0.64586600  0.71625500  1
  H  H8  1  0.05661500  0.81830500  0.31859900  1
  H  H9  1  0.55661500  0.18169500  0.18140100  1
  H  H10  1  0.94338500  0.18169500  0.68140100  1
  H  H11  1  0.44338500  0.81830500  0.81859900  1
  H  H12  1  0.23872800  0.37315700  0.22295100  1
  H  H13  1  0.73872800  0.62684300  0.27704900  1
  H  H14  1  0.76127200  0.62684300  0.77704900  1
  H  H15  1  0.26127200  0.37315700  0.72295100  1
  H  H16  1  0.29456700  0.22947500  0.08704300  1
  H  H17  1  0.79456700  0.77052500  0.41295700  1
  H  H18  1  0.70543300  0.77052500  0.91295700  1
  H  H19  1  0.20543300  0.22947500  0.58704300  1
  C  C20  1  0.34314000  0.74334100  0.12157700  1
  C  C21  1  0.84314000  0.25665900  0.37842300  1
  C  C22  1  0.65686000  0.25665900  0.87842300  1
  C  C23  1  0.15686000  0.74334100  0.62157700  1
  N  N24  1  0.41064900  0.61479700  0.21554400  1
  N  N25  1  0.91064900  0.38520300  0.28445600  1
  N  N26  1  0.58935100  0.38520300  0.78445600  1
  N  N27  1  0.08935100  0.61479700  0.71554400  1
  O  O28  1  0.23404900  0.22362300  0.19305800  1
  O  O29  1  0.73404900  0.77637700  0.30694200  1
  O  O30  1  0.76595100  0.77637700  0.80694200  1
  O  O31  1  0.26595100  0.22362300  0.69305800  1
  O  O32  1  0.01778300  0.80209700  0.19273100  1
  O  O33  1  0.51778300  0.19790300  0.30726900  1
  O  O34  1  0.98221700  0.19790300  0.80726900  1
  O  O35  1  0.48221700  0.80209700  0.69273100  1
