# generated using pymatgen
data_NaSeO3
_symmetry_space_group_name_H-M   'P 1'
_cell_length_a   11.80637855
_cell_length_b   11.80637855
_cell_length_c   10.87838634
_cell_angle_alpha   89.19880081
_cell_angle_beta   89.19880081
_cell_angle_gamma   31.88170065
_symmetry_Int_Tables_number   1
_chemical_formula_structural   NaSeO3
_chemical_formula_sum   'Na8 Se8 O24'
_cell_volume   800.79869008
_cell_formula_units_Z   8
loop_
 _symmetry_equiv_pos_site_id
 _symmetry_equiv_pos_as_xyz
  1  'x, y, z'
loop_
 _atom_site_type_symbol
 _atom_site_label
 _atom_site_symmetry_multiplicity
 _atom_site_fract_x
 _atom_site_fract_y
 _atom_site_fract_z
 _atom_site_occupancy
  Na  Na0  1  0.21692900  0.23231900  0.35234600  1
  Na  Na1  1  0.76768100  0.78307200  0.14765400  1
  Na  Na2  1  0.78307200  0.76768100  0.64765400  1
  Na  Na3  1  0.23231900  0.21692900  0.85234600  1
  Na  Na4  1  0.35874500  0.90744900  0.12891400  1
  Na  Na5  1  0.09255100  0.64125500  0.37108600  1
  Na  Na6  1  0.64125500  0.09255100  0.87108600  1
  Na  Na7  1  0.90744900  0.35874500  0.62891400  1
  Se  Se8  1  0.60831300  0.73231800  0.41743300  1
  Se  Se9  1  0.26768200  0.39168700  0.08256700  1
  Se  Se10  1  0.39168700  0.26768200  0.58256700  1
  Se  Se11  1  0.73231800  0.60831300  0.91743300  1
  Se  Se12  1  0.16109000  0.96436600  0.38924900  1
  Se  Se13  1  0.03563400  0.83891000  0.11075100  1
  Se  Se14  1  0.83891000  0.03563400  0.61075100  1
  Se  Se15  1  0.96436600  0.16109000  0.88924900  1
  O  O16  1  0.49229700  0.88751400  0.53902000  1
  O  O17  1  0.11248600  0.50770300  0.96098000  1
  O  O18  1  0.50770300  0.11248600  0.46098000  1
  O  O19  1  0.88751400  0.49229700  0.03902000  1
  O  O20  1  0.86950000  0.49680400  0.44387900  1
  O  O21  1  0.50319600  0.13050000  0.05612100  1
  O  O22  1  0.13050000  0.50319600  0.55612100  1
  O  O23  1  0.49680400  0.86950000  0.94387900  1
  O  O24  1  0.55800200  0.84781400  0.28694700  1
  O  O25  1  0.15218600  0.44199800  0.21305300  1
  O  O26  1  0.44199800  0.15218600  0.71305300  1
  O  O27  1  0.84781400  0.55800200  0.78694700  1
  O  O28  1  0.05817400  0.08195900  0.52541300  1
  O  O29  1  0.91804100  0.94182600  0.97458700  1
  O  O30  1  0.94182600  0.91804100  0.47458700  1
  O  O31  1  0.08195900  0.05817400  0.02541300  1
  O  O32  1  0.12723500  0.10522700  0.29685400  1
  O  O33  1  0.89477300  0.87276500  0.20314600  1
  O  O34  1  0.87276500  0.89477300  0.70314600  1
  O  O35  1  0.10522700  0.12723500  0.79685400  1
  O  O36  1  0.50178100  0.68763700  0.39823000  1
  O  O37  1  0.31236300  0.49821900  0.10177000  1
  O  O38  1  0.49821900  0.31236300  0.60177000  1
  O  O39  1  0.68763700  0.50178100  0.89823000  1
