# generated using pymatgen
data_Mn2SnC10(BrO5)2
_symmetry_space_group_name_H-M   'P 1'
_cell_length_a   7.76168000
_cell_length_b   15.46234900
_cell_length_c   17.11457422
_cell_angle_alpha   69.52850887
_cell_angle_beta   90.00000000
_cell_angle_gamma   90.00000000
_symmetry_Int_Tables_number   1
_chemical_formula_structural   Mn2SnC10(BrO5)2
_chemical_formula_sum   'Mn8 Sn4 C40 Br8 O40'
_cell_volume   1924.26846537
_cell_formula_units_Z   4
loop_
 _symmetry_equiv_pos_site_id
 _symmetry_equiv_pos_as_xyz
  1  'x, y, z'
loop_
 _atom_site_type_symbol
 _atom_site_label
 _atom_site_symmetry_multiplicity
 _atom_site_fract_x
 _atom_site_fract_y
 _atom_site_fract_z
 _atom_site_occupancy
  Mn  Mn0  1  0.85260100  0.82257700  0.36108100  1
  Mn  Mn1  1  0.35450700  0.63782900  0.11232000  1
  Mn  Mn2  1  0.64739900  0.82257700  0.86108100  1
  Mn  Mn3  1  0.85450700  0.36217100  0.38768000  1
  Mn  Mn4  1  0.35260100  0.17742300  0.13891900  1
  Mn  Mn5  1  0.14549300  0.63782900  0.61232000  1
  Mn  Mn6  1  0.14739900  0.17742300  0.63891900  1
  Mn  Mn7  1  0.64549300  0.36217100  0.88768000  1
  Sn  Sn8  1  0.63976800  0.24073700  0.04765000  1
  Sn  Sn9  1  0.36023200  0.75926300  0.95235000  1
  Sn  Sn10  1  0.13976800  0.75926300  0.45235000  1
  Sn  Sn11  1  0.86023200  0.24073700  0.54765000  1
  C  C12  1  0.68524700  0.42781200  0.42164400  1
  C  C13  1  0.48652900  0.87786200  0.77653000  1
  C  C14  1  0.14232000  0.55089500  0.71729800  1
  C  C15  1  0.63397900  0.92267700  0.89908400  1
  C  C16  1  0.35768000  0.55089500  0.21729800  1
  C  C17  1  0.33131400  0.12925600  0.70828500  1
  C  C18  1  0.01933400  0.28654000  0.36443500  1
  C  C19  1  0.47615900  0.42152000  0.92724000  1
  C  C20  1  0.68111400  0.29056600  0.36411000  1
  C  C21  1  0.81475300  0.42781200  0.92164400  1
  C  C22  1  0.85758900  0.71459300  0.33636200  1
  C  C23  1  0.36602100  0.07732300  0.10091600  1
  C  C24  1  0.86602100  0.92267700  0.39908400  1
  C  C25  1  0.48066600  0.28654000  0.86443500  1
  C  C26  1  0.64232000  0.44910500  0.78270200  1
  C  C27  1  0.51933400  0.71346000  0.13556500  1
  C  C28  1  0.31888600  0.70943400  0.63589000  1
  C  C29  1  0.51347100  0.12213800  0.22347000  1
  C  C30  1  0.72038600  0.75981400  0.45468900  1
  C  C31  1  0.18111400  0.70943400  0.13589000  1
  C  C32  1  0.27961400  0.24018600  0.54531100  1
  C  C33  1  0.81888600  0.29056600  0.86411000  1
  C  C34  1  0.02384100  0.42152000  0.42724000  1
  C  C35  1  0.83131400  0.87074400  0.79171500  1
  C  C36  1  0.77961400  0.75981400  0.95468900  1
  C  C37  1  0.64241100  0.71459300  0.83636200  1
  C  C38  1  0.16868600  0.12925600  0.20828500  1
  C  C39  1  0.98652900  0.12213800  0.72347000  1
  C  C40  1  0.97615900  0.57848000  0.57276000  1
  C  C41  1  0.14241100  0.28540700  0.66363800  1
  C  C42  1  0.31475300  0.57218800  0.57835600  1
  C  C43  1  0.66868600  0.87074400  0.29171500  1
  C  C44  1  0.35758900  0.28540700  0.16363800  1
  C  C45  1  0.85768000  0.44910500  0.28270200  1
  C  C46  1  0.18524700  0.57218800  0.07835600  1
  C  C47  1  0.98066600  0.71346000  0.63556500  1
  C  C48  1  0.52384100  0.57848000  0.07276000  1
  C  C49  1  0.01347100  0.87786200  0.27653000  1
  C  C50  1  0.13397900  0.07732300  0.60091600  1
  C  C51  1  0.22038600  0.24018600  0.04531100  1
  Br  Br52  1  0.82491400  0.09829000  0.06030000  1
  Br  Br53  1  0.32491400  0.90171000  0.43970000  1
  Br  Br54  1  0.17605300  0.69063400  0.86163700  1
  Br  Br55  1  0.82394700  0.30936600  0.13836300  1
  Br  Br56  1  0.32394700  0.69063400  0.36163700  1
  Br  Br57  1  0.17508600  0.90171000  0.93970000  1
  Br  Br58  1  0.67605300  0.30936600  0.63836300  1
  Br  Br59  1  0.67508600  0.09829000  0.56030000  1
  O  O60  1  0.12974500  0.01690900  0.57635600  1
  O  O61  1  0.61098300  0.08824100  0.27619900  1
  O  O62  1  0.35753800  0.28098800  0.48634700  1
  O  O63  1  0.14053600  0.49345600  0.78249100  1
  O  O64  1  0.12140600  0.24033000  0.34930000  1
  O  O65  1  0.35617700  0.35313700  0.17795900  1
  O  O66  1  0.55697000  0.90170700  0.24595300  1
  O  O67  1  0.14246200  0.28098800  0.98634700  1
  O  O68  1  0.94303000  0.90170700  0.74595300  1
  O  O69  1  0.85753800  0.71901200  0.01365300  1
  O  O70  1  0.91843300  0.47174000  0.93820600  1
  O  O71  1  0.92556000  0.24826600  0.84731700  1
  O  O72  1  0.87025500  0.98309100  0.42364400  1
  O  O73  1  0.62974500  0.98309100  0.92364400  1
  O  O74  1  0.41843300  0.52826000  0.56179400  1
  O  O75  1  0.64053600  0.50654400  0.71750900  1
  O  O76  1  0.14382300  0.35313700  0.67795900  1
  O  O77  1  0.62140600  0.75967000  0.15070000  1
  O  O78  1  0.57444000  0.24826600  0.34731700  1
  O  O79  1  0.85946400  0.50654400  0.21750900  1
  O  O80  1  0.87193300  0.54142500  0.54779000  1
  O  O81  1  0.62806700  0.54142500  0.04779000  1
  O  O82  1  0.88901700  0.08824100  0.77619900  1
  O  O83  1  0.64246200  0.71901200  0.51365300  1
  O  O84  1  0.85617700  0.64686300  0.32204100  1
  O  O85  1  0.35946400  0.49345600  0.28249100  1
  O  O86  1  0.37859400  0.24033000  0.84930000  1
  O  O87  1  0.87859400  0.75967000  0.65070000  1
  O  O88  1  0.42556000  0.75173400  0.65268300  1
  O  O89  1  0.44303000  0.09829300  0.75404700  1
  O  O90  1  0.58156700  0.47174000  0.43820600  1
  O  O91  1  0.05697000  0.09829300  0.25404700  1
  O  O92  1  0.07444000  0.75173400  0.15268300  1
  O  O93  1  0.11098300  0.91175900  0.22380100  1
  O  O94  1  0.38901700  0.91175900  0.72380100  1
  O  O95  1  0.37025500  0.01690900  0.07635600  1
  O  O96  1  0.12806700  0.45857500  0.45221000  1
  O  O97  1  0.37193300  0.45857500  0.95221000  1
  O  O98  1  0.64382300  0.64686300  0.82204100  1
  O  O99  1  0.08156700  0.52826000  0.06179400  1
