# generated using pymatgen
data_BaC2S2(OF)6
_symmetry_space_group_name_H-M   'P 1'
_cell_length_a   11.40834550
_cell_length_b   11.40834550
_cell_length_c   9.80940797
_cell_angle_alpha   75.31838338
_cell_angle_beta   75.31838338
_cell_angle_gamma   25.21521792
_symmetry_Int_Tables_number   1
_chemical_formula_structural   BaC2S2(OF)6
_chemical_formula_sum   'Ba2 C4 S4 O12 F12'
_cell_volume   525.23537359
_cell_formula_units_Z   2
loop_
 _symmetry_equiv_pos_site_id
 _symmetry_equiv_pos_as_xyz
  1  'x, y, z'
loop_
 _atom_site_type_symbol
 _atom_site_label
 _atom_site_symmetry_multiplicity
 _atom_site_fract_x
 _atom_site_fract_y
 _atom_site_fract_z
 _atom_site_occupancy
  Ba  Ba0  1  0.03351100  0.96648900  0.25000000  1
  Ba  Ba1  1  0.96648900  0.03351100  0.75000000  1
  C  C2  1  0.56968700  0.77120000  0.93953400  1
  C  C3  1  0.77120000  0.56968700  0.43953400  1
  C  C4  1  0.43031300  0.22880000  0.06046600  1
  C  C5  1  0.22880000  0.43031300  0.56046600  1
  S  S6  1  0.58402600  0.59028500  0.46475000  1
  S  S7  1  0.40971500  0.41597400  0.03525000  1
  S  S8  1  0.59028500  0.58402600  0.96475000  1
  S  S9  1  0.41597400  0.40971500  0.53525000  1
  O  O10  1  0.22608100  0.59779300  0.15104700  1
  O  O11  1  0.69833700  0.19354300  0.03939000  1
  O  O12  1  0.19354300  0.69833700  0.53939000  1
  O  O13  1  0.40220700  0.77391900  0.34895300  1
  O  O14  1  0.30166300  0.80645700  0.96061000  1
  O  O15  1  0.59779300  0.22608100  0.65104700  1
  O  O16  1  0.77391900  0.40220700  0.84895300  1
  O  O17  1  0.30643800  0.55406100  0.89388600  1
  O  O18  1  0.44593900  0.69356200  0.60611400  1
  O  O19  1  0.80645700  0.30166300  0.46061000  1
  O  O20  1  0.69356200  0.44593900  0.10611400  1
  O  O21  1  0.55406100  0.30643800  0.39388600  1
  F  F22  1  0.59200500  0.82076400  0.44507000  1
  F  F23  1  0.53116000  0.08619700  0.18692700  1
  F  F24  1  0.17923600  0.40799500  0.05493000  1
  F  F25  1  0.05047100  0.60072000  0.45699000  1
  F  F26  1  0.60072000  0.05047100  0.95699000  1
  F  F27  1  0.91380300  0.46884000  0.31307300  1
  F  F28  1  0.39928000  0.94952900  0.04301000  1
  F  F29  1  0.46884000  0.91380300  0.81307300  1
  F  F30  1  0.82076400  0.59200500  0.94507000  1
  F  F31  1  0.08619700  0.53116000  0.68692700  1
  F  F32  1  0.94952900  0.39928000  0.54301000  1
  F  F33  1  0.40799500  0.17923600  0.55493000  1
