# generated using pymatgen
data_AlF3
_symmetry_space_group_name_H-M   'P 1'
_cell_length_a   3.45923700
_cell_length_b   4.82228738
_cell_length_c   5.45061101
_cell_angle_alpha   73.26188447
_cell_angle_beta   71.65863912
_cell_angle_gamma   69.06896617
_symmetry_Int_Tables_number   1
_chemical_formula_structural   AlF3
_chemical_formula_sum   'Al2 F6'
_cell_volume   79.01309968
_cell_formula_units_Z   2
loop_
 _symmetry_equiv_pos_site_id
 _symmetry_equiv_pos_as_xyz
  1  'x, y, z'
loop_
 _atom_site_type_symbol
 _atom_site_label
 _atom_site_symmetry_multiplicity
 _atom_site_fract_x
 _atom_site_fract_y
 _atom_site_fract_z
 _atom_site_occupancy
  Al  Al0  1  0.28578100  0.49367200  0.50495700  1
  Al  Al1  1  0.30001100  0.87115100  0.99435800  1
  F  F2  1  0.19742700  0.28270200  0.83343100  1
  F  F3  1  0.46864600  0.77498300  0.68827400  1
  F  F4  1  0.78087800  0.90228900  0.00449100  1
  F  F5  1  0.84743700  0.37042700  0.48389100  1
  F  F6  1  0.10782000  0.88436400  0.34677200  1
  F  F7  1  0.45772800  0.46327500  0.15669000  1
