# generated using pymatgen
data_Na2FeCu(CN)6
_symmetry_space_group_name_H-M   'P 1'
_cell_length_a   7.87680110
_cell_length_b   5.83829300
_cell_length_c   7.46875636
_cell_angle_alpha   90.00000000
_cell_angle_beta   109.96527900
_cell_angle_gamma   90.00000000
_symmetry_Int_Tables_number   1
_chemical_formula_structural   Na2FeCu(CN)6
_chemical_formula_sum   'Na2 Fe1 Cu1 C6 N6'
_cell_volume   322.82382132
_cell_formula_units_Z   1
loop_
 _symmetry_equiv_pos_site_id
 _symmetry_equiv_pos_as_xyz
  1  'x, y, z'
loop_
 _atom_site_type_symbol
 _atom_site_label
 _atom_site_symmetry_multiplicity
 _atom_site_fract_x
 _atom_site_fract_y
 _atom_site_fract_z
 _atom_site_occupancy
  Na  Na0  1  0.50000000  0.00000000  0.50000000  1
  Na  Na1  1  0.00000000  0.00000000  0.50000000  1
  Fe  Fe2  1  0.50000000  0.50000000  0.00000000  1
  Cu  Cu3  1  0.00000000  0.00000000  0.00000000  1
  C  C4  1  0.67621600  0.30047600  0.97545800  1
  C  C5  1  0.67621600  0.69952400  0.97545800  1
  C  C6  1  0.32378400  0.69952400  0.02454200  1
  C  C7  1  0.32378400  0.30047600  0.02454200  1
  C  C8  1  0.38061100  0.50000000  0.73467800  1
  C  C9  1  0.61938900  0.50000000  0.26532200  1
  N  N10  1  0.80754900  0.21802200  0.96049700  1
  N  N11  1  0.80754900  0.78197800  0.96049700  1
  N  N12  1  0.19245100  0.78197800  0.03950300  1
  N  N13  1  0.19245100  0.21802200  0.03950300  1
  N  N14  1  0.29948800  0.50000000  0.56866000  1
  N  N15  1  0.70051200  0.50000000  0.43134000  1
