# generated using pymatgen
data_Fe4P2O9
_symmetry_space_group_name_H-M   'P 1'
_cell_length_a   11.42507700
_cell_length_b   6.66623800
_cell_length_c   9.52567577
_cell_angle_alpha   75.66209258
_cell_angle_beta   90.00000000
_cell_angle_gamma   90.00000000
_symmetry_Int_Tables_number   1
_chemical_formula_structural   Fe4P2O9
_chemical_formula_sum   'Fe16 P8 O36'
_cell_volume   702.89949603
_cell_formula_units_Z   4
loop_
 _symmetry_equiv_pos_site_id
 _symmetry_equiv_pos_as_xyz
  1  'x, y, z'
loop_
 _atom_site_type_symbol
 _atom_site_label
 _atom_site_symmetry_multiplicity
 _atom_site_fract_x
 _atom_site_fract_y
 _atom_site_fract_z
 _atom_site_occupancy
  Fe  Fe0  1  0.13408100  0.53024900  0.68221400  1
  Fe  Fe1  1  0.59459900  0.95476600  0.88264800  1
  Fe  Fe2  1  0.11886900  0.77130600  0.25164300  1
  Fe  Fe3  1  0.89644500  0.81946100  0.03479600  1
  Fe  Fe4  1  0.09459900  0.04523400  0.61735200  1
  Fe  Fe5  1  0.36591900  0.53024900  0.18221400  1
  Fe  Fe6  1  0.60355500  0.81946100  0.53479600  1
  Fe  Fe7  1  0.86591900  0.46975100  0.31778600  1
  Fe  Fe8  1  0.39644500  0.18053900  0.46520400  1
  Fe  Fe9  1  0.10355500  0.18053900  0.96520400  1
  Fe  Fe10  1  0.40540100  0.04523400  0.11735200  1
  Fe  Fe11  1  0.61886900  0.22869400  0.24835700  1
  Fe  Fe12  1  0.90540100  0.95476600  0.38264800  1
  Fe  Fe13  1  0.88113100  0.22869400  0.74835700  1
  Fe  Fe14  1  0.38113100  0.77130600  0.75164300  1
  Fe  Fe15  1  0.63408100  0.46975100  0.81778600  1
  P  P16  1  0.86989500  0.75973600  0.68477600  1
  P  P17  1  0.32894200  0.70326800  0.42562900  1
  P  P18  1  0.13010500  0.24026400  0.31522400  1
  P  P19  1  0.36989500  0.24026400  0.81522400  1
  P  P20  1  0.17105800  0.70326800  0.92562900  1
  P  P21  1  0.63010500  0.75973600  0.18477600  1
  P  P22  1  0.82894200  0.29673200  0.07437100  1
  P  P23  1  0.67105800  0.29673200  0.57437100  1
  O  O24  1  0.39274900  0.50457600  0.41819700  1
  O  O25  1  0.33081700  0.46148700  0.74258200  1
  O  O26  1  0.59520600  0.16403300  0.49315000  1
  O  O27  1  0.78590000  0.86233500  0.55711700  1
  O  O28  1  0.61930300  0.89144100  0.29777200  1
  O  O29  1  0.40479400  0.83596700  0.50685000  1
  O  O30  1  0.55895500  0.75198000  0.76744500  1
  O  O31  1  0.19274500  0.82195100  0.76162600  1
  O  O32  1  0.28590000  0.13766500  0.94288300  1
  O  O33  1  0.49209500  0.23046400  0.89586400  1
  O  O34  1  0.11930300  0.10855900  0.20222800  1
  O  O35  1  0.83081700  0.53851300  0.75741800  1
  O  O36  1  0.50790500  0.76953600  0.10413600  1
  O  O37  1  0.05895500  0.24802000  0.73255500  1
  O  O38  1  0.94104500  0.75198000  0.26744500  1
  O  O39  1  0.79767300  0.32778400  0.51571700  1
  O  O40  1  0.69274500  0.17804900  0.73837400  1
  O  O41  1  0.00790500  0.23046400  0.39586400  1
  O  O42  1  0.60725100  0.49542400  0.58180300  1
  O  O43  1  0.80725500  0.17804900  0.23837400  1
  O  O44  1  0.99209500  0.76953600  0.60413600  1
  O  O45  1  0.16918300  0.46148700  0.24258200  1
  O  O46  1  0.71410000  0.86233500  0.05711700  1
  O  O47  1  0.10725100  0.50457600  0.91819700  1
  O  O48  1  0.88069700  0.89144100  0.79777200  1
  O  O49  1  0.30725500  0.82195100  0.26162600  1
  O  O50  1  0.09520600  0.83596700  0.00685000  1
  O  O51  1  0.44104500  0.24802000  0.23255500  1
  O  O52  1  0.38069700  0.10855900  0.70222800  1
  O  O53  1  0.89274900  0.49542400  0.08180300  1
  O  O54  1  0.21410000  0.13766500  0.44288300  1
  O  O55  1  0.20232700  0.67221600  0.48428300  1
  O  O56  1  0.70232700  0.32778400  0.01571700  1
  O  O57  1  0.90479400  0.16403300  0.99315000  1
  O  O58  1  0.66918300  0.53851300  0.25741800  1
  O  O59  1  0.29767300  0.67221600  0.98428300  1
