# generated using pymatgen
data_Sc9Ni5Ge8
_symmetry_space_group_name_H-M   'P 1'
_cell_length_a   11.59931793
_cell_length_b   11.59931793
_cell_length_c   11.59931793
_cell_angle_alpha   160.52948716
_cell_angle_beta   133.95113754
_cell_angle_gamma   50.44208816
_symmetry_Int_Tables_number   1
_chemical_formula_structural   Sc9Ni5Ge8
_chemical_formula_sum   'Sc9 Ni5 Ge8'
_cell_volume   373.50369808
_cell_formula_units_Z   1
loop_
 _symmetry_equiv_pos_site_id
 _symmetry_equiv_pos_as_xyz
  1  'x, y, z'
loop_
 _atom_site_type_symbol
 _atom_site_label
 _atom_site_symmetry_multiplicity
 _atom_site_fract_x
 _atom_site_fract_y
 _atom_site_fract_z
 _atom_site_occupancy
  Sc  Sc0  1  0.22008400  0.41471900  0.80536500  1
  Sc  Sc1  1  0.72766400  0.72766400  0.00000000  1
  Sc  Sc2  1  0.60935500  0.41471900  0.19463500  1
  Sc  Sc3  1  0.10758300  0.10758300  0.00000000  1
  Sc  Sc4  1  0.77991600  0.58528100  0.19463500  1
  Sc  Sc5  1  0.39064500  0.58528100  0.80536500  1
  Sc  Sc6  1  0.89241700  0.89241700  0.00000000  1
  Sc  Sc7  1  0.27233600  0.27233600  0.00000000  1
  Sc  Sc8  1  0.50000000  0.00000000  0.50000000  1
  Ni  Ni9  1  0.07929200  0.80438100  0.27491200  1
  Ni  Ni10  1  0.92070800  0.19561900  0.72508800  1
  Ni  Ni11  1  0.52946900  0.80438100  0.72508800  1
  Ni  Ni12  1  0.00000000  0.50000000  0.50000000  1
  Ni  Ni13  1  0.47053100  0.19561900  0.27491200  1
  Ge  Ge14  1  0.67080600  0.30862800  0.36217700  1
  Ge  Ge15  1  0.18727000  0.00000000  0.18727000  1
  Ge  Ge16  1  0.36637100  0.86637100  0.50000000  1
  Ge  Ge17  1  0.05354900  0.69137200  0.36217700  1
  Ge  Ge18  1  0.81273000  0.00000000  0.81273000  1
  Ge  Ge19  1  0.32919400  0.69137200  0.63782300  1
  Ge  Ge20  1  0.63362900  0.13362900  0.50000000  1
  Ge  Ge21  1  0.94645100  0.30862800  0.63782300  1
