# generated using pymatgen
data_CeErS3
_symmetry_space_group_name_H-M   'P 1'
_cell_length_a   3.95232400
_cell_length_b   16.46592700
_cell_length_c   21.16864600
_cell_angle_alpha   90.00000000
_cell_angle_beta   90.00000000
_cell_angle_gamma   90.00000000
_symmetry_Int_Tables_number   1
_chemical_formula_structural   CeErS3
_chemical_formula_sum   'Ce12 Er12 S36'
_cell_volume   1377.62750656
_cell_formula_units_Z   12
loop_
 _symmetry_equiv_pos_site_id
 _symmetry_equiv_pos_as_xyz
  1  'x, y, z'
loop_
 _atom_site_type_symbol
 _atom_site_label
 _atom_site_symmetry_multiplicity
 _atom_site_fract_x
 _atom_site_fract_y
 _atom_site_fract_z
 _atom_site_occupancy
  Ce  Ce0  1  0.75000000  0.83643400  0.24525900  1
  Ce  Ce1  1  0.75000000  0.33643400  0.25474100  1
  Ce  Ce2  1  0.75000000  0.17021300  0.41290800  1
  Ce  Ce3  1  0.25000000  0.19572600  0.07809100  1
  Ce  Ce4  1  0.25000000  0.69572600  0.42190900  1
  Ce  Ce5  1  0.75000000  0.80427400  0.92190900  1
  Ce  Ce6  1  0.75000000  0.30427400  0.57809100  1
  Ce  Ce7  1  0.25000000  0.66356600  0.74525900  1
  Ce  Ce8  1  0.75000000  0.67021300  0.08709200  1
  Ce  Ce9  1  0.25000000  0.16356600  0.75474100  1
  Ce  Ce10  1  0.25000000  0.82978700  0.58709200  1
  Ce  Ce11  1  0.25000000  0.32978700  0.91290800  1
  Er  Er12  1  0.75000000  0.55575300  0.56991900  1
  Er  Er13  1  0.25000000  0.56614500  0.92088500  1
  Er  Er14  1  0.25000000  0.94424700  0.06991900  1
  Er  Er15  1  0.75000000  0.43385500  0.07911500  1
  Er  Er16  1  0.25000000  0.09521500  0.24847700  1
  Er  Er17  1  0.75000000  0.93385500  0.42088500  1
  Er  Er18  1  0.75000000  0.90478500  0.75152300  1
  Er  Er19  1  0.25000000  0.44424700  0.43008100  1
  Er  Er20  1  0.75000000  0.05575300  0.93008100  1
  Er  Er21  1  0.75000000  0.40478500  0.74847700  1
  Er  Er22  1  0.25000000  0.06614500  0.57911500  1
  Er  Er23  1  0.25000000  0.59521500  0.25152300  1
  S  S24  1  0.25000000  0.46167800  0.81821400  1
  S  S25  1  0.75000000  0.78949900  0.48400400  1
  S  S26  1  0.25000000  0.43868200  0.55916800  1
  S  S27  1  0.25000000  0.44478500  0.30460100  1
  S  S28  1  0.25000000  0.04530200  0.44726000  1
  S  S29  1  0.75000000  0.77070300  0.67800100  1
  S  S30  1  0.75000000  0.34001300  0.43557700  1
  S  S31  1  0.75000000  0.95469800  0.55274000  1
  S  S32  1  0.75000000  0.17983200  0.18261200  1
  S  S33  1  0.25000000  0.71050100  0.98400400  1
  S  S34  1  0.75000000  0.55521500  0.69539900  1
  S  S35  1  0.25000000  0.54530200  0.05274000  1
  S  S36  1  0.75000000  0.64698900  0.85091100  1
  S  S37  1  0.75000000  0.56131800  0.44083200  1
  S  S38  1  0.25000000  0.21050100  0.51599600  1
  S  S39  1  0.75000000  0.28949900  0.01599600  1
  S  S40  1  0.75000000  0.05521500  0.80460100  1
  S  S41  1  0.25000000  0.94478500  0.19539900  1
  S  S42  1  0.25000000  0.96167800  0.68178600  1
  S  S43  1  0.25000000  0.72929700  0.17800100  1
  S  S44  1  0.25000000  0.22929700  0.32199900  1
  S  S45  1  0.25000000  0.35301100  0.14908900  1
  S  S46  1  0.25000000  0.65998700  0.56442300  1
  S  S47  1  0.75000000  0.14698900  0.64908900  1
  S  S48  1  0.25000000  0.82016800  0.81738800  1
  S  S49  1  0.75000000  0.27070300  0.82199900  1
  S  S50  1  0.25000000  0.32016800  0.68261200  1
  S  S51  1  0.75000000  0.84001300  0.06442300  1
  S  S52  1  0.75000000  0.53832200  0.18178600  1
  S  S53  1  0.25000000  0.15998700  0.93557700  1
  S  S54  1  0.75000000  0.45469800  0.94726000  1
  S  S55  1  0.25000000  0.93868200  0.94083200  1
  S  S56  1  0.75000000  0.03832200  0.31821400  1
  S  S57  1  0.75000000  0.67983200  0.31738800  1
  S  S58  1  0.75000000  0.06131800  0.05916800  1
  S  S59  1  0.25000000  0.85301100  0.35091100  1
