# generated using pymatgen
data_Ca2PI
_symmetry_space_group_name_H-M   'P 1'
_cell_length_a   4.20792600
_cell_length_b   4.25899410
_cell_length_c   7.95166961
_cell_angle_alpha   94.39611011
_cell_angle_beta   87.89100626
_cell_angle_gamma   119.56342296
_symmetry_Int_Tables_number   1
_chemical_formula_structural   Ca2PI
_chemical_formula_sum   'Ca2 P1 I1'
_cell_volume   123.58848270
_cell_formula_units_Z   1
loop_
 _symmetry_equiv_pos_site_id
 _symmetry_equiv_pos_as_xyz
  1  'x, y, z'
loop_
 _atom_site_type_symbol
 _atom_site_label
 _atom_site_symmetry_multiplicity
 _atom_site_fract_x
 _atom_site_fract_y
 _atom_site_fract_z
 _atom_site_occupancy
  Ca  Ca0  1  0.34633400  0.70857100  0.68220100  1
  Ca  Ca1  1  0.68665900  0.33424200  0.31537000  1
  P  P2  1  0.01816600  0.02360600  0.49997900  1
  I  I3  1  0.94884000  0.93358200  0.00245000  1
