# generated using pymatgen
data_MgSiO3
_symmetry_space_group_name_H-M   'P 1'
_cell_length_a   7.60627103
_cell_length_b   7.60627103
_cell_length_c   6.07452322
_cell_angle_alpha   77.31131133
_cell_angle_beta   77.31131133
_cell_angle_gamma   102.34594832
_symmetry_Int_Tables_number   1
_chemical_formula_structural   MgSiO3
_chemical_formula_sum   'Mg4 Si4 O12'
_cell_volume   321.55778474
_cell_formula_units_Z   4
loop_
 _symmetry_equiv_pos_site_id
 _symmetry_equiv_pos_as_xyz
  1  'x, y, z'
loop_
 _atom_site_type_symbol
 _atom_site_label
 _atom_site_symmetry_multiplicity
 _atom_site_fract_x
 _atom_site_fract_y
 _atom_site_fract_z
 _atom_site_occupancy
  Mg  Mg0  1  0.97148500  0.02851500  0.75000000  1
  Mg  Mg1  1  0.23145100  0.76854900  0.75000000  1
  Mg  Mg2  1  0.02851500  0.97148500  0.25000000  1
  Mg  Mg3  1  0.76854900  0.23145100  0.25000000  1
  Si  Si4  1  0.61173900  0.90382700  0.72160400  1
  Si  Si5  1  0.09617300  0.38826100  0.77839600  1
  Si  Si6  1  0.90382700  0.61173900  0.22160400  1
  Si  Si7  1  0.38826100  0.09617300  0.27839600  1
  O  O8  1  0.31479500  0.62128900  0.17691000  1
  O  O9  1  0.62128900  0.31479500  0.67691000  1
  O  O10  1  0.69758100  0.92306000  0.93465500  1
  O  O11  1  0.07694000  0.30241900  0.56534500  1
  O  O12  1  0.68520500  0.37871100  0.82309000  1
  O  O13  1  0.79061400  0.01384700  0.48252300  1
  O  O14  1  0.37871100  0.68520500  0.32309000  1
  O  O15  1  0.20938600  0.98615300  0.51747700  1
  O  O16  1  0.92306000  0.69758100  0.43465500  1
  O  O17  1  0.30241900  0.07694000  0.06534500  1
  O  O18  1  0.01384700  0.79061400  0.98252300  1
  O  O19  1  0.98615300  0.20938600  0.01747700  1
