# generated using pymatgen
data_GaFe2Co
_symmetry_space_group_name_H-M   'P 1'
_cell_length_a   4.07973743
_cell_length_b   4.07973743
_cell_length_c   4.07973743
_cell_angle_alpha   60.00000000
_cell_angle_beta   60.00000000
_cell_angle_gamma   60.00000000
_symmetry_Int_Tables_number   1
_chemical_formula_structural   GaFe2Co
_chemical_formula_sum   'Ga1 Fe2 Co1'
_cell_volume   48.01552040
_cell_formula_units_Z   1
loop_
 _symmetry_equiv_pos_site_id
 _symmetry_equiv_pos_as_xyz
  1  'x, y, z'
loop_
 _atom_site_type_symbol
 _atom_site_label
 _atom_site_symmetry_multiplicity
 _atom_site_fract_x
 _atom_site_fract_y
 _atom_site_fract_z
 _atom_site_occupancy
  Ga  Ga0  1  0.50000000  0.50000000  0.50000000  1
  Fe  Fe1  1  0.75000000  0.75000000  0.75000000  1
  Fe  Fe2  1  0.25000000  0.25000000  0.25000000  1
  Co  Co3  1  0.00000000  0.00000000  0.00000000  1
