# generated using pymatgen
data_Si3O7
_symmetry_space_group_name_H-M   'P 1'
_cell_length_a   8.95400100
_cell_length_b   8.99040839
_cell_length_c   9.09105598
_cell_angle_alpha   99.15562635
_cell_angle_beta   109.02557570
_cell_angle_gamma   96.78018742
_symmetry_Int_Tables_number   1
_chemical_formula_structural   Si3O7
_chemical_formula_sum   'Si6 O14'
_cell_volume   671.62257261
_cell_formula_units_Z   2
loop_
 _symmetry_equiv_pos_site_id
 _symmetry_equiv_pos_as_xyz
  1  'x, y, z'
loop_
 _atom_site_type_symbol
 _atom_site_label
 _atom_site_symmetry_multiplicity
 _atom_site_fract_x
 _atom_site_fract_y
 _atom_site_fract_z
 _atom_site_occupancy
  Si  Si0  1  0.58638600  0.92933100  0.09985000  1
  Si  Si1  1  0.81418700  0.70530900  0.01451400  1
  Si  Si2  1  0.89342300  0.08931800  0.37316400  1
  Si  Si3  1  0.10180500  0.68827500  0.30797200  1
  Si  Si4  1  0.00591500  0.33622200  0.21062300  1
  Si  Si5  1  0.71017700  0.35592700  0.92146000  1
  O  O6  1  0.10304300  0.26898100  0.09717400  1
  O  O7  1  0.99673800  0.22845200  0.33987000  1
  O  O8  1  0.70350000  0.06108800  0.25540800  1
  O  O9  1  0.95170300  0.98334100  0.48892200  1
  O  O10  1  0.09727400  0.50615300  0.31477400  1
  O  O11  1  0.53905800  0.23769700  0.84922600  1
  O  O12  1  0.91538700  0.75979600  0.91064300  1
  O  O13  1  0.69539200  0.83461800  0.02315700  1
  O  O14  1  0.69616800  0.53741500  0.93597000  1
  O  O15  1  0.77988600  0.29635800  0.78124800  1
  O  O16  1  0.24648800  0.75996700  0.25416700  1
  O  O17  1  0.92229800  0.70710100  0.19930800  1
  O  O18  1  0.82155200  0.33156000  0.09656000  1
  O  O19  1  0.17185000  0.79796300  0.48787000  1
