# generated using pymatgen
data_MoO2
_symmetry_space_group_name_H-M   'P 1'
_cell_length_a   6.23180100
_cell_length_b   6.24051193
_cell_length_c   6.39065079
_cell_angle_alpha   118.26972041
_cell_angle_beta   117.96172761
_cell_angle_gamma   91.42424315
_symmetry_Int_Tables_number   1
_chemical_formula_structural   MoO2
_chemical_formula_sum   'Mo4 O8'
_cell_volume   183.33605857
_cell_formula_units_Z   4
loop_
 _symmetry_equiv_pos_site_id
 _symmetry_equiv_pos_as_xyz
  1  'x, y, z'
loop_
 _atom_site_type_symbol
 _atom_site_label
 _atom_site_symmetry_multiplicity
 _atom_site_fract_x
 _atom_site_fract_y
 _atom_site_fract_z
 _atom_site_occupancy
  Mo  Mo0  1  0.50000000  0.50000000  0.00000000  1
  Mo  Mo1  1  0.50000000  0.50000000  0.50000000  1
  Mo  Mo2  1  0.00000000  0.50000000  0.50000000  1
  Mo  Mo3  1  0.50000000  0.00000000  0.00000000  1
  O  O4  1  0.73115900  0.68969800  0.45108900  1
  O  O5  1  0.72149000  0.25973400  0.44906100  1
  O  O6  1  0.26884100  0.31030200  0.54891100  1
  O  O7  1  0.26359100  0.72126800  0.95223600  1
  O  O8  1  0.27851000  0.74026600  0.55093900  1
  O  O9  1  0.68964000  0.73006400  0.94858100  1
  O  O10  1  0.73640900  0.27873200  0.04776400  1
  O  O11  1  0.31036000  0.26993600  0.05141900  1
