# generated using pymatgen
data_Ba5Er8Zn4O21
_symmetry_space_group_name_H-M   'P 1'
_cell_length_a   10.17599942
_cell_length_b   10.17599942
_cell_length_c   10.17599942
_cell_angle_alpha   94.53468317
_cell_angle_beta   94.53468317
_cell_angle_gamma   147.33863708
_symmetry_Int_Tables_number   1
_chemical_formula_structural   Ba5Er8Zn4O21
_chemical_formula_sum   'Ba5 Er8 Zn4 O21'
_cell_volume   545.72865754
_cell_formula_units_Z   1
loop_
 _symmetry_equiv_pos_site_id
 _symmetry_equiv_pos_as_xyz
  1  'x, y, z'
loop_
 _atom_site_type_symbol
 _atom_site_label
 _atom_site_symmetry_multiplicity
 _atom_site_fract_x
 _atom_site_fract_y
 _atom_site_fract_z
 _atom_site_occupancy
  Ba  Ba0  1  0.53549300  0.86007300  0.39556500  1
  Ba  Ba1  1  0.86007300  0.46450700  0.32458000  1
  Ba  Ba2  1  0.13992700  0.53549300  0.67542000  1
  Ba  Ba3  1  0.46450700  0.13992700  0.60443500  1
  Ba  Ba4  1  0.00000000  0.00000000  0.00000000  1
  Er  Er5  1  0.41123800  0.64163500  0.05287300  1
  Er  Er6  1  0.64163500  0.58876200  0.23039700  1
  Er  Er7  1  0.35836500  0.41123800  0.76960300  1
  Er  Er8  1  0.58876200  0.35836500  0.94712700  1
  Er  Er9  1  0.24751900  0.83182300  0.07934200  1
  Er  Er10  1  0.83182300  0.75248100  0.58430400  1
  Er  Er11  1  0.16817700  0.24751900  0.41569600  1
  Er  Er12  1  0.75248100  0.16817700  0.92065800  1
  Zn  Zn13  1  0.04058900  0.75007300  0.79066200  1
  Zn  Zn14  1  0.75007300  0.95941100  0.70948400  1
  Zn  Zn15  1  0.24992700  0.04058900  0.29051600  1
  Zn  Zn16  1  0.95941100  0.24992700  0.20933800  1
  O  O17  1  0.89960000  0.49425600  0.89215000  1
  O  O18  1  0.49425600  0.60210600  0.59465500  1
  O  O19  1  0.00745000  0.89960000  0.40534500  1
  O  O20  1  0.60210600  0.00745000  0.10785000  1
  O  O21  1  0.10040000  0.50574400  0.10785000  1
  O  O22  1  0.50574400  0.39789400  0.40534500  1
  O  O23  1  0.99255000  0.10040000  0.59465500  1
  O  O24  1  0.39789400  0.99255000  0.89215000  1
  O  O25  1  0.07348000  0.29921900  0.87086000  1
  O  O26  1  0.29921900  0.42835900  0.22573900  1
  O  O27  1  0.20262000  0.07348000  0.77426100  1
  O  O28  1  0.42835900  0.20262000  0.12914000  1
  O  O29  1  0.92652000  0.70078100  0.12914000  1
  O  O30  1  0.70078100  0.57164100  0.77426100  1
  O  O31  1  0.79738000  0.92652000  0.22573900  1
  O  O32  1  0.57164100  0.79738000  0.87086000  1
  O  O33  1  0.62898300  0.03880600  0.66778900  1
  O  O34  1  0.50000000  0.50000000  0.00000000  1
  O  O35  1  0.37101700  0.96119400  0.33221100  1
  O  O36  1  0.96119400  0.62898300  0.59017700  1
  O  O37  1  0.03880600  0.37101700  0.40982300  1
