# generated using pymatgen
data_Na2LaPS2O7
_symmetry_space_group_name_H-M   'P 1'
_cell_length_a   5.42719600
_cell_length_b   9.82527900
_cell_length_c   14.92277853
_cell_angle_alpha   87.94883938
_cell_angle_beta   90.00000000
_cell_angle_gamma   90.00000000
_symmetry_Int_Tables_number   1
_chemical_formula_structural   Na2LaPS2O7
_chemical_formula_sum   'Na8 La4 P4 S8 O28'
_cell_volume   795.22813137
_cell_formula_units_Z   4
loop_
 _symmetry_equiv_pos_site_id
 _symmetry_equiv_pos_as_xyz
  1  'x, y, z'
loop_
 _atom_site_type_symbol
 _atom_site_label
 _atom_site_symmetry_multiplicity
 _atom_site_fract_x
 _atom_site_fract_y
 _atom_site_fract_z
 _atom_site_occupancy
  Na  Na0  1  0.00000000  0.50000000  0.00000000  1
  Na  Na1  1  0.00117900  0.81984400  0.59756600  1
  Na  Na2  1  0.50000000  0.00000000  0.50000000  1
  Na  Na3  1  0.99882100  0.18015600  0.40243400  1
  Na  Na4  1  0.50117900  0.68015600  0.40243400  1
  Na  Na5  1  0.50000000  0.00000000  0.00000000  1
  Na  Na6  1  0.49882100  0.31984400  0.59756600  1
  Na  Na7  1  0.00000000  0.50000000  0.50000000  1
  La  La8  1  0.46787000  0.97140600  0.77881300  1
  La  La9  1  0.96787000  0.52859400  0.22118700  1
  La  La10  1  0.03213000  0.47140600  0.77881300  1
  La  La11  1  0.53213000  0.02859400  0.22118700  1
  P  P12  1  0.52437100  0.31539200  0.84955600  1
  P  P13  1  0.47562900  0.68460800  0.15044400  1
  P  P14  1  0.97562900  0.81539200  0.84955600  1
  P  P15  1  0.02437100  0.18460800  0.15044400  1
  S  S16  1  0.98490800  0.84044500  0.23940600  1
  S  S17  1  0.48596900  0.35083500  0.37059800  1
  S  S18  1  0.48490800  0.65955500  0.76059400  1
  S  S19  1  0.51403100  0.64916500  0.62940200  1
  S  S20  1  0.51509200  0.34044500  0.23940600  1
  S  S21  1  0.01403100  0.85083500  0.37059800  1
  S  S22  1  0.98596900  0.14916500  0.62940200  1
  S  S23  1  0.01509200  0.15955500  0.76059400  1
  O  O24  1  0.23140900  0.62475800  0.11354100  1
  O  O25  1  0.98833700  0.65900600  0.87032600  1
  O  O26  1  0.48833700  0.84099400  0.12967400  1
  O  O27  1  0.01772900  0.15411700  0.25445100  1
  O  O28  1  0.73190900  0.10092800  0.60620700  1
  O  O29  1  0.76859100  0.37524200  0.88645900  1
  O  O30  1  0.98227100  0.84588300  0.74554900  1
  O  O31  1  0.29738600  0.38810300  0.88998900  1
  O  O32  1  0.47371500  0.78724700  0.58450400  1
  O  O33  1  0.23190900  0.39907200  0.39379300  1
  O  O34  1  0.01166300  0.34099400  0.12967400  1
  O  O35  1  0.73140900  0.87524200  0.88645900  1
  O  O36  1  0.51166300  0.15900600  0.87032600  1
  O  O37  1  0.17242500  0.05215800  0.59354400  1
  O  O38  1  0.20261400  0.88810300  0.88998900  1
  O  O39  1  0.97371500  0.71275300  0.41549600  1
  O  O40  1  0.26859100  0.12475800  0.11354100  1
  O  O41  1  0.82757500  0.94784200  0.40645600  1
  O  O42  1  0.70261400  0.61189700  0.11001100  1
  O  O43  1  0.48227100  0.65411700  0.25445100  1
  O  O44  1  0.51772900  0.34588300  0.74554900  1
  O  O45  1  0.79738600  0.11189700  0.11001100  1
  O  O46  1  0.26809100  0.89907200  0.39379300  1
  O  O47  1  0.32757500  0.55215800  0.59354400  1
  O  O48  1  0.02628500  0.28724700  0.58450400  1
  O  O49  1  0.67242500  0.44784200  0.40645600  1
  O  O50  1  0.76809100  0.60092800  0.60620700  1
  O  O51  1  0.52628500  0.21275300  0.41549600  1
