# generated using pymatgen
data_Yb8Si11
_symmetry_space_group_name_H-M   'P 1'
_cell_length_a   13.04595409
_cell_length_b   13.04595409
_cell_length_c   13.04595409
_cell_angle_alpha   160.52014044
_cell_angle_beta   145.45913167
_cell_angle_gamma   39.96109427
_symmetry_Int_Tables_number   1
_chemical_formula_structural   Yb8Si11
_chemical_formula_sum   'Yb8 Si11'
_cell_volume   419.22826616
_cell_formula_units_Z   1
loop_
 _symmetry_equiv_pos_site_id
 _symmetry_equiv_pos_as_xyz
  1  'x, y, z'
loop_
 _atom_site_type_symbol
 _atom_site_label
 _atom_site_symmetry_multiplicity
 _atom_site_fract_x
 _atom_site_fract_y
 _atom_site_fract_z
 _atom_site_occupancy
  Yb  Yb0  1  0.42752200  0.42752200  0.00000000  1
  Yb  Yb1  1  0.92468700  0.42468700  0.50000000  1
  Yb  Yb2  1  0.70025300  0.70025300  0.00000000  1
  Yb  Yb3  1  0.19739400  0.69739400  0.50000000  1
  Yb  Yb4  1  0.54613300  0.29464400  0.25148900  1
  Yb  Yb5  1  0.04315500  0.29464400  0.74851100  1
  Yb  Yb6  1  0.81859400  0.56867000  0.24992400  1
  Yb  Yb7  1  0.31874600  0.56867000  0.75007600  1
  Si  Si8  1  0.10539000  0.10539000  0.00000000  1
  Si  Si9  1  0.13755400  0.88437600  0.25317800  1
  Si  Si10  1  0.41457400  0.16780100  0.24677200  1
  Si  Si11  1  0.92102900  0.16780100  0.75322800  1
  Si  Si12  1  0.82790000  0.82790000  0.00000000  1
  Si  Si13  1  0.63119800  0.88437600  0.74682200  1
  Si  Si14  1  0.61234000  0.11234000  0.50000000  1
  Si  Si15  1  0.76373200  0.98020500  0.78352600  1
  Si  Si16  1  0.51606700  0.01606700  0.50000000  1
  Si  Si17  1  0.19667900  0.98020500  0.21647400  1
  Si  Si18  1  0.32537900  0.82537900  0.50000000  1
