# generated using pymatgen
data_Yb11(Sm2Se11)2
_symmetry_space_group_name_H-M   'P 1'
_cell_length_a   21.38754223
_cell_length_b   21.38754223
_cell_length_c   11.89913294
_cell_angle_alpha   82.49778359
_cell_angle_beta   82.49778359
_cell_angle_gamma   11.34934201
_symmetry_Int_Tables_number   1
_chemical_formula_structural   Yb11(Sm2Se11)2
_chemical_formula_sum   'Yb11 Sm4 Se22'
_cell_volume   1061.86791926
_cell_formula_units_Z   1
loop_
 _symmetry_equiv_pos_site_id
 _symmetry_equiv_pos_as_xyz
  1  'x, y, z'
loop_
 _atom_site_type_symbol
 _atom_site_label
 _atom_site_symmetry_multiplicity
 _atom_site_fract_x
 _atom_site_fract_y
 _atom_site_fract_z
 _atom_site_occupancy
  Yb  Yb0  1  0.06279900  0.06279900  0.16282300  1
  Yb  Yb1  1  0.93720100  0.93720100  0.83717700  1
  Yb  Yb2  1  0.20129000  0.20129000  0.52281700  1
  Yb  Yb3  1  0.46119700  0.46119700  0.20170500  1
  Yb  Yb4  1  0.73336900  0.73336900  0.86140700  1
  Yb  Yb5  1  0.66112200  0.66112200  0.18073700  1
  Yb  Yb6  1  0.26663100  0.26663100  0.13859300  1
  Yb  Yb7  1  0.00000000  0.00000000  0.50000000  1
  Yb  Yb8  1  0.79871000  0.79871000  0.47718300  1
  Yb  Yb9  1  0.33887800  0.33887800  0.81926300  1
  Yb  Yb10  1  0.53880300  0.53880300  0.79829500  1
  Sm  Sm11  1  0.37451100  0.37451100  0.15923100  1
  Sm  Sm12  1  0.10910500  0.10910500  0.49813800  1
  Sm  Sm13  1  0.62548900  0.62548900  0.84076900  1
  Sm  Sm14  1  0.89089500  0.89089500  0.50186200  1
  Se  Se15  1  0.85912700  0.85912700  0.98839400  1
  Se  Se16  1  0.26407100  0.26407100  0.37918300  1
  Se  Se17  1  0.27534700  0.27534700  0.89642900  1
  Se  Se18  1  0.99987600  0.99987600  0.73557600  1
  Se  Se19  1  0.00012400  0.00012400  0.26442400  1
  Se  Se20  1  0.14087300  0.14087300  0.01160600  1
  Se  Se21  1  0.55170600  0.55170600  0.50481300  1
  Se  Se22  1  0.73592900  0.73592900  0.62081700  1
  Se  Se23  1  0.72465300  0.72465300  0.10357100  1
  Se  Se24  1  0.91160700  0.91160700  0.25184500  1
  Se  Se25  1  0.83447200  0.83447200  0.66731600  1
  Se  Se26  1  0.43507800  0.43507800  0.99377000  1
  Se  Se27  1  0.41214100  0.41214100  0.67356500  1
  Se  Se28  1  0.58785900  0.58785900  0.32643500  1
  Se  Se29  1  0.16552800  0.16552800  0.33268400  1
  Se  Se30  1  0.82032500  0.82032500  0.16175200  1
  Se  Se31  1  0.64678300  0.64678300  0.58692400  1
  Se  Se32  1  0.35321700  0.35321700  0.41307600  1
  Se  Se33  1  0.44829400  0.44829400  0.49518700  1
  Se  Se34  1  0.17967500  0.17967500  0.83824800  1
  Se  Se35  1  0.08839300  0.08839300  0.74815500  1
  Se  Se36  1  0.56492200  0.56492200  0.00623000  1
