# generated using pymatgen
data_SiO2
_symmetry_space_group_name_H-M   'P 1'
_cell_length_a   8.71701700
_cell_length_b   14.84844500
_cell_length_c   19.15093000
_cell_angle_alpha   90.00000000
_cell_angle_beta   90.00000000
_cell_angle_gamma   90.00000000
_symmetry_Int_Tables_number   1
_chemical_formula_structural   SiO2
_chemical_formula_sum   'Si36 O72'
_cell_volume   2478.78429816
_cell_formula_units_Z   36
loop_
 _symmetry_equiv_pos_site_id
 _symmetry_equiv_pos_as_xyz
  1  'x, y, z'
loop_
 _atom_site_type_symbol
 _atom_site_label
 _atom_site_symmetry_multiplicity
 _atom_site_fract_x
 _atom_site_fract_y
 _atom_site_fract_z
 _atom_site_occupancy
  Si  Si0  1  0.79565900  0.63157100  0.64867100  1
  Si  Si1  1  0.70434100  0.13157100  0.35132900  1
  Si  Si2  1  0.79565900  0.36842900  0.85132900  1
  Si  Si3  1  0.70434100  0.86842900  0.14867100  1
  Si  Si4  1  0.20434100  0.36842900  0.35132900  1
  Si  Si5  1  0.29565900  0.86842900  0.64867100  1
  Si  Si6  1  0.20434100  0.63157100  0.14867100  1
  Si  Si7  1  0.29565900  0.13157100  0.85132900  1
  Si  Si8  1  0.58043100  0.49232200  0.60109200  1
  Si  Si9  1  0.91956900  0.99232200  0.39890800  1
  Si  Si10  1  0.58043100  0.50767800  0.89890800  1
  Si  Si11  1  0.91956900  0.00767800  0.10109200  1
  Si  Si12  1  0.41956900  0.50767800  0.39890800  1
  Si  Si13  1  0.08043100  0.00767800  0.60109200  1
  Si  Si14  1  0.41956900  0.49232200  0.10109200  1
  Si  Si15  1  0.08043100  0.99232200  0.89890800  1
  Si  Si16  1  0.40947500  0.21906800  0.41003200  1
  Si  Si17  1  0.09052500  0.71906800  0.58996800  1
  Si  Si18  1  0.40947500  0.78093200  0.08996800  1
  Si  Si19  1  0.09052500  0.28093200  0.91003200  1
  Si  Si20  1  0.59052500  0.78093200  0.58996800  1
  Si  Si21  1  0.90947500  0.28093200  0.41003200  1
  Si  Si22  1  0.59052500  0.21906800  0.91003200  1
  Si  Si23  1  0.90947500  0.71906800  0.08996800  1
  Si  Si24  1  0.62110100  0.37083500  0.47455700  1
  Si  Si25  1  0.87889900  0.87083500  0.52544300  1
  Si  Si26  1  0.62110100  0.62916500  0.02544300  1
  Si  Si27  1  0.87889900  0.12916500  0.97455700  1
  Si  Si28  1  0.37889900  0.62916500  0.52544300  1
  Si  Si29  1  0.12110100  0.12916500  0.47455700  1
  Si  Si30  1  0.37889900  0.37083500  0.97455700  1
  Si  Si31  1  0.12110100  0.87083500  0.02544300  1
  Si  Si32  1  0.82798200  0.00000000  0.25000000  1
  Si  Si33  1  0.67201800  0.50000000  0.75000000  1
  Si  Si34  1  0.17201800  0.00000000  0.75000000  1
  Si  Si35  1  0.32798200  0.50000000  0.25000000  1
  O  O36  1  0.72814900  0.55990000  0.59096500  1
  O  O37  1  0.77185100  0.05990000  0.40903500  1
  O  O38  1  0.72814900  0.44010000  0.90903500  1
  O  O39  1  0.77185100  0.94010000  0.09096500  1
  O  O40  1  0.27185100  0.44010000  0.40903500  1
  O  O41  1  0.22814900  0.94010000  0.59096500  1
  O  O42  1  0.27185100  0.55990000  0.09096500  1
  O  O43  1  0.22814900  0.05990000  0.90903500  1
  O  O44  1  0.60699700  0.40081300  0.55632900  1
  O  O45  1  0.89300300  0.90081300  0.44367100  1
  O  O46  1  0.60699700  0.59918700  0.94367100  1
  O  O47  1  0.89300300  0.09918700  0.05632900  1
  O  O48  1  0.39300300  0.59918700  0.44367100  1
  O  O49  1  0.10699700  0.09918700  0.55632900  1
  O  O50  1  0.39300300  0.40081300  0.05632900  1
  O  O51  1  0.10699700  0.90081300  0.94367100  1
  O  O52  1  0.50642000  0.28648100  0.46039000  1
  O  O53  1  0.99358000  0.78648100  0.53961000  1
  O  O54  1  0.50642000  0.71351900  0.03961000  1
  O  O55  1  0.99358000  0.21351900  0.96039000  1
  O  O56  1  0.49358000  0.71351900  0.53961000  1
  O  O57  1  0.00642000  0.21351900  0.46039000  1
  O  O58  1  0.49358000  0.28648100  0.96039000  1
  O  O59  1  0.00642000  0.78648100  0.03961000  1
  O  O60  1  0.30754000  0.27658900  0.35391900  1
  O  O61  1  0.19246000  0.77658900  0.64608100  1
  O  O62  1  0.30754000  0.72341100  0.14608100  1
  O  O63  1  0.19246000  0.22341100  0.85391900  1
  O  O64  1  0.69246000  0.72341100  0.64608100  1
  O  O65  1  0.80754000  0.22341100  0.35391900  1
  O  O66  1  0.69246000  0.27658900  0.85391900  1
  O  O67  1  0.80754000  0.77658900  0.14608100  1
  O  O68  1  0.77977300  0.58470200  0.72565100  1
  O  O69  1  0.72022700  0.08470200  0.27434900  1
  O  O70  1  0.77977300  0.41529800  0.77434900  1
  O  O71  1  0.72022700  0.91529800  0.22565100  1
  O  O72  1  0.22022700  0.41529800  0.27434900  1
  O  O73  1  0.27977300  0.91529800  0.72565100  1
  O  O74  1  0.22022700  0.58470200  0.22565100  1
  O  O75  1  0.27977300  0.08470200  0.77434900  1
  O  O76  1  0.56444900  0.46879400  0.68429600  1
  O  O77  1  0.93555100  0.96879400  0.31570400  1
  O  O78  1  0.56444900  0.53120600  0.81570400  1
  O  O79  1  0.93555100  0.03120600  0.18429600  1
  O  O80  1  0.43555100  0.53120600  0.31570400  1
  O  O81  1  0.06444900  0.03120600  0.68429600  1
  O  O82  1  0.43555100  0.46879400  0.18429600  1
  O  O83  1  0.06444900  0.96879400  0.81570400  1
  O  O84  1  0.57459200  0.45612800  0.42476400  1
  O  O85  1  0.92540800  0.95612800  0.57523600  1
  O  O86  1  0.57459200  0.54387200  0.07523600  1
  O  O87  1  0.92540800  0.04387200  0.92476400  1
  O  O88  1  0.42540800  0.54387200  0.57523600  1
  O  O89  1  0.07459200  0.04387200  0.42476400  1
  O  O90  1  0.42540800  0.45612800  0.92476400  1
  O  O91  1  0.07459200  0.95612800  0.07523600  1
  O  O92  1  0.97385600  0.65350500  0.63261500  1
  O  O93  1  0.52614400  0.15350500  0.36738500  1
  O  O94  1  0.97385600  0.34649500  0.86738500  1
  O  O95  1  0.52614400  0.84649500  0.13261500  1
  O  O96  1  0.02614400  0.34649500  0.36738500  1
  O  O97  1  0.47385600  0.84649500  0.63261500  1
  O  O98  1  0.02614400  0.65350500  0.13261500  1
  O  O99  1  0.47385600  0.15350500  0.86738500  1
  O  O100  1  0.29697800  0.15784700  0.45817500  1
  O  O101  1  0.20302200  0.65784700  0.54182500  1
  O  O102  1  0.29697800  0.84215300  0.04182500  1
  O  O103  1  0.20302200  0.34215300  0.95817500  1
  O  O104  1  0.70302200  0.84215300  0.54182500  1
  O  O105  1  0.79697800  0.34215300  0.45817500  1
  O  O106  1  0.70302200  0.15784700  0.95817500  1
  O  O107  1  0.79697800  0.65784700  0.04182500  1
