# generated using pymatgen
data_BaZn(SeO3)2
_symmetry_space_group_name_H-M   'P 1'
_cell_length_a   13.72921100
_cell_length_b   5.93992500
_cell_length_c   8.76549068
_cell_angle_alpha   84.05677228
_cell_angle_beta   90.00000000
_cell_angle_gamma   90.00000000
_symmetry_Int_Tables_number   1
_chemical_formula_structural   BaZn(SeO3)2
_chemical_formula_sum   'Ba4 Zn4 Se8 O24'
_cell_volume   710.98777944
_cell_formula_units_Z   4
loop_
 _symmetry_equiv_pos_site_id
 _symmetry_equiv_pos_as_xyz
  1  'x, y, z'
loop_
 _atom_site_type_symbol
 _atom_site_label
 _atom_site_symmetry_multiplicity
 _atom_site_fract_x
 _atom_site_fract_y
 _atom_site_fract_z
 _atom_site_occupancy
  Ba  Ba0  1  0.29729500  0.27565400  0.76758400  1
  Ba  Ba1  1  0.20270500  0.27565400  0.26758400  1
  Ba  Ba2  1  0.70270500  0.72434600  0.23241600  1
  Ba  Ba3  1  0.79729500  0.72434600  0.73241600  1
  Zn  Zn4  1  0.63603000  0.17098400  0.54192300  1
  Zn  Zn5  1  0.36397000  0.82901600  0.45807700  1
  Zn  Zn6  1  0.13603000  0.82901600  0.95807700  1
  Zn  Zn7  1  0.86397000  0.17098400  0.04192300  1
  Se  Se8  1  0.49061800  0.22634300  0.25392300  1
  Se  Se9  1  0.99061800  0.77365700  0.24607700  1
  Se  Se10  1  0.35656200  0.73399400  0.08917400  1
  Se  Se11  1  0.00938200  0.22634300  0.75392300  1
  Se  Se12  1  0.64343800  0.26600600  0.91082600  1
  Se  Se13  1  0.85656200  0.26600600  0.41082600  1
  Se  Se14  1  0.50938200  0.77365700  0.74607700  1
  Se  Se15  1  0.14343800  0.73399400  0.58917400  1
  O  O16  1  0.66845400  0.33981600  0.71744800  1
  O  O17  1  0.80775800  0.50176200  0.47795500  1
  O  O18  1  0.19224200  0.49823800  0.52204500  1
  O  O19  1  0.57411800  0.35284800  0.37005000  1
  O  O20  1  0.42588200  0.64715200  0.62995000  1
  O  O21  1  0.07411800  0.64715200  0.12995000  1
  O  O22  1  0.33154600  0.66018400  0.28255200  1
  O  O23  1  0.39185500  0.14755700  0.37474400  1
  O  O24  1  0.92588200  0.35284800  0.87005000  1
  O  O25  1  0.95885500  0.97233500  0.73193100  1
  O  O26  1  0.60814500  0.85244300  0.62525600  1
  O  O27  1  0.69224200  0.50176200  0.97795500  1
  O  O28  1  0.54114500  0.97233500  0.23193100  1
  O  O29  1  0.76816600  0.05690800  0.46288300  1
  O  O30  1  0.83154600  0.33981600  0.21744800  1
  O  O31  1  0.04114500  0.02766500  0.26806900  1
  O  O32  1  0.30775800  0.49823800  0.02204500  1
  O  O33  1  0.89185500  0.85244300  0.12525600  1
  O  O34  1  0.73183400  0.05690800  0.96288300  1
  O  O35  1  0.23183400  0.94309200  0.53711700  1
  O  O36  1  0.26816600  0.94309200  0.03711700  1
  O  O37  1  0.45885500  0.02766500  0.76806900  1
  O  O38  1  0.10814500  0.14755700  0.87474400  1
  O  O39  1  0.16845400  0.66018400  0.78255200  1
