# generated using pymatgen
data_Ca3SiO5
_symmetry_space_group_name_H-M   'P 1'
_cell_length_a   11.74047400
_cell_length_b   13.76901639
_cell_length_c   14.32939163
_cell_angle_alpha   104.86428716
_cell_angle_beta   90.12681188
_cell_angle_gamma   94.38732701
_symmetry_Int_Tables_number   1
_chemical_formula_structural   Ca3SiO5
_chemical_formula_sum   'Ca54 Si18 O90'
_cell_volume   2231.76467051
_cell_formula_units_Z   18
loop_
 _symmetry_equiv_pos_site_id
 _symmetry_equiv_pos_as_xyz
  1  'x, y, z'
loop_
 _atom_site_type_symbol
 _atom_site_label
 _atom_site_symmetry_multiplicity
 _atom_site_fract_x
 _atom_site_fract_y
 _atom_site_fract_z
 _atom_site_occupancy
  Ca  Ca0  1  0.63974300  0.71067400  0.94560900  1
  Ca  Ca1  1  0.71056100  0.97360100  0.00384700  1
  Ca  Ca2  1  0.64417700  0.72241300  0.18011100  1
  Ca  Ca3  1  0.12726800  0.18369600  0.91912100  1
  Ca  Ca4  1  0.62205800  0.71129200  0.41405300  1
  Ca  Ca5  1  0.13845200  0.18526400  0.42667900  1
  Ca  Ca6  1  0.53489700  0.14898700  0.90819700  1
  Ca  Ca7  1  0.94632900  0.38202100  0.83403500  1
  Ca  Ca8  1  0.37794200  0.28870800  0.58594700  1
  Ca  Ca9  1  0.19304900  0.48345700  0.75305000  1
  Ca  Ca10  1  0.36025700  0.28932600  0.05439100  1
  Ca  Ca11  1  0.61787700  0.69607100  0.65260900  1
  Ca  Ca12  1  0.64568800  0.34742200  0.84727700  1
  Ca  Ca13  1  0.87273200  0.81630400  0.08087900  1
  Ca  Ca14  1  0.02010500  0.99036800  0.26065500  1
  Ca  Ca15  1  0.86154800  0.81473600  0.57332100  1
  Ca  Ca16  1  0.38212300  0.30392900  0.34739100  1
  Ca  Ca17  1  0.80695100  0.51654300  0.24695000  1
  Ca  Ca18  1  0.67779400  0.33342900  0.32172500  1
  Ca  Ca19  1  0.70123700  0.95927000  0.48750800  1
  Ca  Ca20  1  0.05367100  0.61797900  0.16596500  1
  Ca  Ca21  1  0.81012800  0.18460200  0.67220800  1
  Ca  Ca22  1  0.00000000  0.00000000  0.00000000  1
  Ca  Ca23  1  0.97989500  0.00963200  0.73934500  1
  Ca  Ca24  1  0.64948200  0.33437100  0.08190600  1
  Ca  Ca25  1  0.21408500  0.46541500  0.24129800  1
  Ca  Ca26  1  0.29876300  0.04073000  0.51249200  1
  Ca  Ca27  1  0.84587400  0.16940500  0.16562900  1
  Ca  Ca28  1  0.18987200  0.81539800  0.32779200  1
  Ca  Ca29  1  0.96641600  0.36778500  0.33433400  1
  Ca  Ca30  1  0.46249000  0.84918900  0.58458100  1
  Ca  Ca31  1  0.32220600  0.66657100  0.67827500  1
  Ca  Ca32  1  0.35582300  0.27758700  0.81988900  1
  Ca  Ca33  1  0.30343500  0.02344300  0.27681200  1
  Ca  Ca34  1  0.03358400  0.63221500  0.66566600  1
  Ca  Ca35  1  0.46510300  0.85101300  0.09180300  1
  Ca  Ca36  1  0.28943900  0.02639900  0.99615300  1
  Ca  Ca37  1  0.00000000  0.00000000  0.50000000  1
  Ca  Ca38  1  0.50000000  0.50000000  0.00000000  1
  Ca  Ca39  1  0.66751400  0.35078800  0.58940100  1
  Ca  Ca40  1  0.96843200  0.37570300  0.10400600  1
  Ca  Ca41  1  0.95106300  0.37576200  0.60312200  1
  Ca  Ca42  1  0.69656500  0.97655700  0.72318800  1
  Ca  Ca43  1  0.27553500  0.03089800  0.76321100  1
  Ca  Ca44  1  0.33248600  0.64921200  0.41059900  1
  Ca  Ca45  1  0.72446500  0.96910200  0.23678900  1
  Ca  Ca46  1  0.78591500  0.53458500  0.75870200  1
  Ca  Ca47  1  0.35431200  0.65257800  0.15272300  1
  Ca  Ca48  1  0.53751000  0.15081100  0.41541900  1
  Ca  Ca49  1  0.50000000  0.50000000  0.50000000  1
  Ca  Ca50  1  0.03156800  0.62429700  0.89599400  1
  Ca  Ca51  1  0.04893700  0.62423800  0.39687800  1
  Ca  Ca52  1  0.15412600  0.83059500  0.83437100  1
  Ca  Ca53  1  0.35051800  0.66562900  0.91809400  1
  Si  Si54  1  0.50646900  0.49563600  0.75269800  1
  Si  Si55  1  0.12605000  0.21687700  0.67843100  1
  Si  Si56  1  0.19136600  0.44906900  0.49747100  1
  Si  Si57  1  0.87395000  0.78312300  0.32156900  1
  Si  Si58  1  0.80011900  0.54633600  0.01845600  1
  Si  Si59  1  0.16021400  0.81815200  0.07900200  1
  Si  Si60  1  0.82980200  0.16598600  0.41651600  1
  Si  Si61  1  0.47386600  0.87164300  0.34390900  1
  Si  Si62  1  0.15274000  0.20455400  0.18146000  1
  Si  Si63  1  0.49353100  0.50436400  0.24730200  1
  Si  Si64  1  0.47590700  0.87804300  0.84407100  1
  Si  Si65  1  0.19988100  0.45366400  0.98154400  1
  Si  Si66  1  0.52409300  0.12195700  0.15592900  1
  Si  Si67  1  0.83978600  0.18184800  0.92099800  1
  Si  Si68  1  0.52613400  0.12835700  0.65609100  1
  Si  Si69  1  0.80863400  0.55093100  0.50252900  1
  Si  Si70  1  0.84726000  0.79544600  0.81854000  1
  Si  Si71  1  0.17019800  0.83401400  0.58348400  1
  O  O72  1  0.89588800  0.99995500  0.14030300  1
  O  O73  1  0.58189700  0.51602600  0.66076700  1
  O  O74  1  0.17982800  0.75891500  0.47397400  1
  O  O75  1  0.49554400  0.32426700  0.94482500  1
  O  O76  1  0.16081000  0.88646700  0.19229900  1
  O  O77  1  0.89054900  0.52622300  0.09776400  1
  O  O78  1  0.04860500  0.73218300  0.05892000  1
  O  O79  1  0.10945100  0.47377700  0.90223600  1
  O  O80  1  0.28181900  0.91889200  0.60538200  1
  O  O81  1  0.14497000  0.47298200  0.08972400  1
  O  O82  1  0.94830200  0.10573100  0.40255000  1
  O  O83  1  0.55804900  0.33804100  0.45123600  1
  O  O84  1  0.96718100  0.73815000  0.80535300  1
  O  O85  1  0.82017200  0.24108500  0.52602600  1
  O  O86  1  0.34706900  0.92009200  0.85196500  1
  O  O87  1  0.83919000  0.11353300  0.80770100  1
  O  O88  1  0.61175500  0.44606200  0.23908700  1
  O  O89  1  0.48840500  0.80751500  0.73300100  1
  O  O90  1  0.50445600  0.67573300  0.05517500  1
  O  O91  1  0.17439100  0.52653800  0.60441700  1
  O  O92  1  0.85978200  0.85244700  0.24480300  1
  O  O93  1  0.22232500  0.64305700  0.26900700  1
  O  O94  1  0.51185200  0.19169700  0.07842900  1
  O  O95  1  0.58511700  0.53571800  0.85348500  1
  O  O96  1  0.38756000  0.13704600  0.67525500  1
  O  O97  1  0.82735400  0.23251400  0.33575900  1
  O  O98  1  0.38824500  0.55393800  0.76091300  1
  O  O99  1  0.86282400  0.85869500  0.43026100  1
  O  O100  1  0.14720200  0.89322100  0.00657900  1
  O  O101  1  0.77272500  0.68875500  0.30213400  1
  O  O102  1  0.39690800  0.83199200  0.24318600  1
  O  O103  1  0.80245000  0.33441800  0.18174200  1
  O  O104  1  0.85503000  0.52701800  0.91027600  1
  O  O105  1  0.44347000  0.98956900  0.39006000  1
  O  O106  1  0.31311500  0.53139400  0.98264700  1
  O  O107  1  0.68688500  0.46860600  0.01735300  1
  O  O108  1  0.84007800  0.01461100  0.60807700  1
  O  O109  1  0.95139500  0.26781700  0.94108000  1
  O  O110  1  0.82560900  0.47346200  0.39558300  1
  O  O111  1  0.77767500  0.35694300  0.73099300  1
  O  O112  1  0.19755000  0.66558200  0.81825800  1
  O  O113  1  0.68401300  0.59873200  0.50156800  1
  O  O114  1  0.66309200  0.82341200  0.56673000  1
  O  O115  1  0.41488300  0.46428200  0.14651500  1
  O  O116  1  0.65293100  0.07990800  0.14803500  1
  O  O117  1  0.99972100  0.73588900  0.30745300  1
  O  O118  1  0.99103500  0.50542700  0.74101100  1
  O  O119  1  0.71818100  0.08110800  0.39461800  1
  O  O120  1  0.14021800  0.14755300  0.75519700  1
  O  O121  1  0.60309200  0.16800800  0.75681400  1
  O  O122  1  0.48028400  0.37220400  0.73392900  1
  O  O123  1  0.23306600  0.33574600  0.94872100  1
  O  O124  1  0.57851000  0.97337800  0.86953500  1
  O  O125  1  0.84242700  0.86014600  0.93355200  1
  O  O126  1  0.33337700  0.14510200  0.90645900  1
  O  O127  1  0.85279800  0.10677900  0.99342100  1
  O  O128  1  0.72081300  0.23854700  0.94203600  1
  O  O129  1  0.00027900  0.26411100  0.69254700  1
  O  O130  1  0.15757300  0.13985400  0.06644800  1
  O  O131  1  0.08548300  0.35614000  0.47241400  1
  O  O132  1  0.76693400  0.66425400  0.05127900  1
  O  O133  1  0.18267800  0.51130300  0.41371500  1
  O  O134  1  0.41810300  0.48397400  0.33923300  1
  O  O135  1  0.10411200  0.00004500  0.85969700  1
  O  O136  1  0.15843900  0.12999700  0.25497800  1
  O  O137  1  0.42149000  0.02662200  0.13046500  1
  O  O138  1  0.48814800  0.80830300  0.92157100  1
  O  O139  1  0.00896500  0.49457300  0.25898900  1
  O  O140  1  0.81732200  0.48869700  0.58628500  1
  O  O141  1  0.51971600  0.62779600  0.26607100  1
  O  O142  1  0.55653000  0.01043100  0.60994000  1
  O  O143  1  0.05169800  0.89426900  0.59745000  1
  O  O144  1  0.51159500  0.19248500  0.26699900  1
  O  O145  1  0.15992200  0.98538900  0.39192300  1
  O  O146  1  0.22727500  0.31124500  0.69786600  1
  O  O147  1  0.17264600  0.76748600  0.66424100  1
  O  O148  1  0.44195100  0.66195900  0.54876400  1
  O  O149  1  0.26189500  0.29172400  0.20739100  1
  O  O150  1  0.13717600  0.14130500  0.56973900  1
  O  O151  1  0.03281900  0.26185000  0.19464700  1
  O  O152  1  0.84156100  0.87000300  0.74502200  1
  O  O153  1  0.43995700  0.80294900  0.41995100  1
  O  O154  1  0.61244000  0.86295400  0.32474500  1
  O  O155  1  0.73810500  0.70827600  0.79260900  1
  O  O156  1  0.91451700  0.64386000  0.52758600  1
  O  O157  1  0.31598700  0.40126800  0.49843200  1
  O  O158  1  0.27918700  0.76145300  0.05796400  1
  O  O159  1  0.66662300  0.85489800  0.09354100  1
  O  O160  1  0.33690800  0.17658800  0.43327000  1
  O  O161  1  0.56004300  0.19705100  0.58004900  1
