# generated using pymatgen
data_Mo3NO9
_symmetry_space_group_name_H-M   'P 1'
_cell_length_a   11.27375401
_cell_length_b   11.27381957
_cell_length_c   3.75970800
_cell_angle_alpha   89.99874873
_cell_angle_beta   89.99951228
_cell_angle_gamma   120.00480918
_symmetry_Int_Tables_number   1
_chemical_formula_structural   Mo3NO9
_chemical_formula_sum   'Mo6 N2 O18'
_cell_volume   413.81224190
_cell_formula_units_Z   2
loop_
 _symmetry_equiv_pos_site_id
 _symmetry_equiv_pos_as_xyz
  1  'x, y, z'
loop_
 _atom_site_type_symbol
 _atom_site_label
 _atom_site_symmetry_multiplicity
 _atom_site_fract_x
 _atom_site_fract_y
 _atom_site_fract_z
 _atom_site_occupancy
  Mo  Mo0  1  0.89265200  0.35751700  0.25001000  1
  Mo  Mo1  1  0.46489300  0.10736900  0.24999400  1
  Mo  Mo2  1  0.64249200  0.53514500  0.24998700  1
  Mo  Mo3  1  0.10719800  0.64284400  0.74998700  1
  Mo  Mo4  1  0.53562100  0.89278500  0.75000400  1
  Mo  Mo5  1  0.35714600  0.46434000  0.75001000  1
  N  N6  1  0.00000300  0.00000500  0.39744600  1
  N  N7  1  0.00000300  0.00000500  0.10259800  1
  O  O8  1  0.72252900  0.22443300  0.25001200  1
  O  O9  1  0.50190600  0.27747500  0.24998700  1
  O  O10  1  0.77555000  0.49808700  0.24999300  1
  O  O11  1  0.27742700  0.77556400  0.74998600  1
  O  O12  1  0.49813500  0.72257100  0.75000800  1
  O  O13  1  0.22445400  0.50187100  0.75000300  1
  O  O14  1  0.98198400  0.27280500  0.25001600  1
  O  O15  1  0.29083600  0.01800100  0.24999700  1
  O  O16  1  0.72724100  0.70920100  0.24994700  1
  O  O17  1  0.01827300  0.72800000  0.74998300  1
  O  O18  1  0.70971500  0.98174300  0.74999900  1
  O  O19  1  0.27194700  0.29024500  0.75004600  1
  O  O20  1  0.07652600  0.57461200  0.24999400  1
  O  O21  1  0.49805800  0.92344500  0.25000200  1
  O  O22  1  0.42538300  0.50189600  0.25000600  1
  O  O23  1  0.92331600  0.42564900  0.75000400  1
  O  O24  1  0.50236100  0.07671200  0.74999500  1
  O  O25  1  0.57435200  0.49768100  0.74998800  1
