# generated using pymatgen
data_SiO2
_symmetry_space_group_name_H-M   'P 1'
_cell_length_a   11.16430670
_cell_length_b   11.16430670
_cell_length_c   11.16430670
_cell_angle_alpha   101.64037774
_cell_angle_beta   101.64037774
_cell_angle_gamma   126.61703903
_symmetry_Int_Tables_number   1
_chemical_formula_structural   SiO2
_chemical_formula_sum   'Si16 O32'
_cell_volume   997.88537486
_cell_formula_units_Z   16
loop_
 _symmetry_equiv_pos_site_id
 _symmetry_equiv_pos_as_xyz
  1  'x, y, z'
loop_
 _atom_site_type_symbol
 _atom_site_label
 _atom_site_symmetry_multiplicity
 _atom_site_fract_x
 _atom_site_fract_y
 _atom_site_fract_z
 _atom_site_occupancy
  Si  Si0  1  0.26572800  0.42243000  0.37760500  1
  Si  Si1  1  0.88812200  0.26572800  0.84329700  1
  Si  Si2  1  0.42243000  0.04482500  0.15670300  1
  Si  Si3  1  0.95517500  0.57757000  0.84329700  1
  Si  Si4  1  0.73427200  0.11187800  0.15670300  1
  Si  Si5  1  0.04482500  0.88812200  0.62239500  1
  Si  Si6  1  0.11187800  0.95517500  0.37760500  1
  Si  Si7  1  0.57757000  0.73427200  0.62239500  1
  Si  Si8  1  0.73427200  0.57757000  0.62239500  1
  Si  Si9  1  0.11187800  0.73427200  0.15670300  1
  Si  Si10  1  0.57757000  0.95517500  0.84329700  1
  Si  Si11  1  0.04482500  0.42243000  0.15670300  1
  Si  Si12  1  0.26572800  0.88812200  0.84329700  1
  Si  Si13  1  0.95517500  0.11187800  0.37760500  1
  Si  Si14  1  0.88812200  0.04482500  0.62239500  1
  Si  Si15  1  0.42243000  0.26572800  0.37760500  1
  O  O16  1  0.35639500  0.35639500  0.34269700  1
  O  O17  1  0.01369800  0.35639500  0.00000000  1
  O  O18  1  0.35639500  0.01369800  0.00000000  1
  O  O19  1  0.98630200  0.64360500  0.00000000  1
  O  O20  1  0.64360500  0.98630200  0.00000000  1
  O  O21  1  0.01369800  0.01369800  0.65730300  1
  O  O22  1  0.98630200  0.98630200  0.34269700  1
  O  O23  1  0.64360500  0.64360500  0.65730300  1
  O  O24  1  0.12286800  0.29914200  0.42201000  1
  O  O25  1  0.70085800  0.12286800  0.82372600  1
  O  O26  1  0.29914200  0.87713200  0.17627400  1
  O  O27  1  0.12286800  0.70085800  0.82372600  1
  O  O28  1  0.87713200  0.29914200  0.17627400  1
  O  O29  1  0.87713200  0.70085800  0.57799000  1
  O  O30  1  0.29914200  0.12286800  0.42201000  1
  O  O31  1  0.70085800  0.87713200  0.57799000  1
  O  O32  1  0.18785700  0.43269500  0.24483700  1
  O  O33  1  0.94302000  0.18785700  0.75516300  1
  O  O34  1  0.43269500  0.18785700  0.24483700  1
  O  O35  1  0.81214300  0.56730500  0.75516300  1
  O  O36  1  0.81214300  0.05698000  0.24483700  1
  O  O37  1  0.18785700  0.94302000  0.75516300  1
  O  O38  1  0.05698000  0.81214300  0.24483700  1
  O  O39  1  0.56730500  0.81214300  0.75516300  1
  O  O40  1  0.39681500  0.60318500  0.50000000  1
  O  O41  1  0.89681500  0.39681500  0.79362900  1
  O  O42  1  0.60318500  0.10318500  0.20637100  1
  O  O43  1  0.10318500  0.89681500  0.50000000  1
  O  O44  1  0.60318500  0.39681500  0.50000000  1
  O  O45  1  0.10318500  0.60318500  0.20637100  1
  O  O46  1  0.39681500  0.89681500  0.79362900  1
  O  O47  1  0.89681500  0.10318500  0.50000000  1
