# generated using pymatgen
data_C2SeN2
_symmetry_space_group_name_H-M   'P 1'
_cell_length_a   6.91503600
_cell_length_b   8.33960400
_cell_length_c   13.77060500
_cell_angle_alpha   90.00000000
_cell_angle_beta   90.00000000
_cell_angle_gamma   90.00000000
_symmetry_Int_Tables_number   1
_chemical_formula_structural   C2SeN2
_chemical_formula_sum   'C16 Se8 N16'
_cell_volume   794.13236371
_cell_formula_units_Z   8
loop_
 _symmetry_equiv_pos_site_id
 _symmetry_equiv_pos_as_xyz
  1  'x, y, z'
loop_
 _atom_site_type_symbol
 _atom_site_label
 _atom_site_symmetry_multiplicity
 _atom_site_fract_x
 _atom_site_fract_y
 _atom_site_fract_z
 _atom_site_occupancy
  C  C0  1  0.72721700  0.69297900  0.36289900  1
  C  C1  1  0.40869900  0.10743300  0.88820700  1
  C  C2  1  0.22721700  0.30702100  0.13710100  1
  C  C3  1  0.27278300  0.30702100  0.63710100  1
  C  C4  1  0.72721700  0.19297900  0.13710100  1
  C  C5  1  0.59130100  0.39256700  0.38820700  1
  C  C6  1  0.90869900  0.39256700  0.88820700  1
  C  C7  1  0.09130100  0.60743300  0.11179300  1
  C  C8  1  0.40869900  0.60743300  0.61179300  1
  C  C9  1  0.09130100  0.10743300  0.38820700  1
  C  C10  1  0.90869900  0.89256700  0.61179300  1
  C  C11  1  0.77278300  0.19297900  0.63710100  1
  C  C12  1  0.22721700  0.80702100  0.36289900  1
  C  C13  1  0.59130100  0.89256700  0.11179300  1
  C  C14  1  0.77278300  0.69297900  0.86289900  1
  C  C15  1  0.27278300  0.80702100  0.86289900  1
  Se  Se16  1  0.33466900  0.51285000  0.12764700  1
  Se  Se17  1  0.66533100  0.48715000  0.87235300  1
  Se  Se18  1  0.16533100  0.01285000  0.87235300  1
  Se  Se19  1  0.33466900  0.01285000  0.37235300  1
  Se  Se20  1  0.66533100  0.98715000  0.62764700  1
  Se  Se21  1  0.83466900  0.98715000  0.12764700  1
  Se  Se22  1  0.16533100  0.51285000  0.62764700  1
  Se  Se23  1  0.83466900  0.48715000  0.37235300  1
  N  N24  1  0.16432300  0.17718800  0.13991600  1
  N  N25  1  0.33567700  0.17718800  0.63991600  1
  N  N26  1  0.16432300  0.67718800  0.36008400  1
  N  N27  1  0.83567700  0.82281200  0.86008400  1
  N  N28  1  0.94734200  0.17843100  0.40031800  1
  N  N29  1  0.05265800  0.82156900  0.59968200  1
  N  N30  1  0.55265800  0.17843100  0.90031800  1
  N  N31  1  0.83567700  0.32281200  0.63991600  1
  N  N32  1  0.55265800  0.67843100  0.59968200  1
  N  N33  1  0.66432300  0.82281200  0.36008400  1
  N  N34  1  0.05265800  0.32156900  0.90031800  1
  N  N35  1  0.44734200  0.82156900  0.09968200  1
  N  N36  1  0.66432300  0.32281200  0.13991600  1
  N  N37  1  0.33567700  0.67718800  0.86008400  1
  N  N38  1  0.44734200  0.32156900  0.40031800  1
  N  N39  1  0.94734200  0.67843100  0.09968200  1
