# generated using pymatgen
data_Ge3N4
_symmetry_space_group_name_H-M   'P 1'
_cell_length_a   4.89655500
_cell_length_b   5.95396500
_cell_length_c   10.10816700
_cell_angle_alpha   90.00000000
_cell_angle_beta   90.00000000
_cell_angle_gamma   90.00000000
_symmetry_Int_Tables_number   1
_chemical_formula_structural   Ge3N4
_chemical_formula_sum   'Ge12 N16'
_cell_volume   294.69266266
_cell_formula_units_Z   4
loop_
 _symmetry_equiv_pos_site_id
 _symmetry_equiv_pos_as_xyz
  1  'x, y, z'
loop_
 _atom_site_type_symbol
 _atom_site_label
 _atom_site_symmetry_multiplicity
 _atom_site_fract_x
 _atom_site_fract_y
 _atom_site_fract_z
 _atom_site_occupancy
  Ge  Ge0  1  0.55120800  0.75000000  0.09550900  1
  Ge  Ge1  1  0.94879200  0.75000000  0.59550900  1
  Ge  Ge2  1  0.05120800  0.25000000  0.40449100  1
  Ge  Ge3  1  0.51095500  0.25000000  0.22086500  1
  Ge  Ge4  1  0.50000000  0.00000000  0.50000000  1
  Ge  Ge5  1  0.48904500  0.75000000  0.77913500  1
  Ge  Ge6  1  0.44879200  0.25000000  0.90449100  1
  Ge  Ge7  1  0.00000000  0.00000000  0.00000000  1
  Ge  Ge8  1  0.01095500  0.75000000  0.27913500  1
  Ge  Ge9  1  0.98904500  0.25000000  0.72086500  1
  Ge  Ge10  1  0.00000000  0.50000000  0.00000000  1
  Ge  Ge11  1  0.50000000  0.50000000  0.50000000  1
  N  N12  1  0.67894100  0.25000000  0.40538700  1
  N  N13  1  0.75892200  0.50427900  0.66243800  1
  N  N14  1  0.74107800  0.50427900  0.16243800  1
  N  N15  1  0.25708400  0.25000000  0.06858600  1
  N  N16  1  0.74291600  0.75000000  0.93141400  1
  N  N17  1  0.75892200  0.99572100  0.66243800  1
  N  N18  1  0.24291600  0.25000000  0.56858600  1
  N  N19  1  0.74107800  0.99572100  0.16243800  1
  N  N20  1  0.25892200  0.00427900  0.83756200  1
  N  N21  1  0.75708400  0.75000000  0.43141400  1
  N  N22  1  0.82105900  0.25000000  0.90538700  1
  N  N23  1  0.17894100  0.75000000  0.09461300  1
  N  N24  1  0.25892200  0.49572100  0.83756200  1
  N  N25  1  0.32105900  0.75000000  0.59461300  1
  N  N26  1  0.24107800  0.00427900  0.33756200  1
  N  N27  1  0.24107800  0.49572100  0.33756200  1
