# generated using pymatgen
data_Na3SbS4O9
_symmetry_space_group_name_H-M   'P 1'
_cell_length_a   11.36281200
_cell_length_b   11.36281200
_cell_length_c   11.36281200
_cell_angle_alpha   90.00000000
_cell_angle_beta   90.00000000
_cell_angle_gamma   90.00000000
_symmetry_Int_Tables_number   1
_chemical_formula_structural   Na3SbS4O9
_chemical_formula_sum   'Na12 Sb4 S16 O36'
_cell_volume   1467.09238793
_cell_formula_units_Z   4
loop_
 _symmetry_equiv_pos_site_id
 _symmetry_equiv_pos_as_xyz
  1  'x, y, z'
loop_
 _atom_site_type_symbol
 _atom_site_label
 _atom_site_symmetry_multiplicity
 _atom_site_fract_x
 _atom_site_fract_y
 _atom_site_fract_z
 _atom_site_occupancy
  Na  Na0  1  0.26009600  0.76009600  0.73990400  1
  Na  Na1  1  0.76009600  0.73990400  0.26009600  1
  Na  Na2  1  0.73990400  0.26009600  0.76009600  1
  Na  Na3  1  0.23990400  0.23990400  0.23990400  1
  Na  Na4  1  0.09583000  0.59583000  0.90417000  1
  Na  Na5  1  0.59583000  0.90417000  0.09583000  1
  Na  Na6  1  0.90417000  0.09583000  0.59583000  1
  Na  Na7  1  0.40417000  0.40417000  0.40417000  1
  Na  Na8  1  0.89397500  0.39397500  0.10602500  1
  Na  Na9  1  0.39397500  0.10602500  0.89397500  1
  Na  Na10  1  0.10602500  0.89397500  0.39397500  1
  Na  Na11  1  0.60602500  0.60602500  0.60602500  1
  Sb  Sb12  1  0.51625600  0.01625600  0.48374400  1
  Sb  Sb13  1  0.01625600  0.48374400  0.51625600  1
  Sb  Sb14  1  0.48374400  0.51625600  0.01625600  1
  Sb  Sb15  1  0.98374400  0.98374400  0.98374400  1
  S  S16  1  0.62997600  0.12997600  0.37002400  1
  S  S17  1  0.12997600  0.37002400  0.62997600  1
  S  S18  1  0.37002400  0.62997600  0.12997600  1
  S  S19  1  0.87002400  0.87002400  0.87002400  1
  S  S20  1  0.62051600  0.01540300  0.74173600  1
  S  S21  1  0.25826400  0.12051600  0.48459700  1
  S  S22  1  0.51540300  0.75826400  0.37948400  1
  S  S23  1  0.12051600  0.48459700  0.25826400  1
  S  S24  1  0.75826400  0.37948400  0.51540300  1
  S  S25  1  0.01540300  0.74173600  0.62051600  1
  S  S26  1  0.37948400  0.51540300  0.75826400  1
  S  S27  1  0.74173600  0.62051600  0.01540300  1
  S  S28  1  0.48459700  0.25826400  0.12051600  1
  S  S29  1  0.87948400  0.98459700  0.24173600  1
  S  S30  1  0.24173600  0.87948400  0.98459700  1
  S  S31  1  0.98459700  0.24173600  0.87948400  1
  O  O32  1  0.59513100  0.10226300  0.83829000  1
  O  O33  1  0.16171000  0.09513100  0.39773700  1
  O  O34  1  0.60226300  0.66171000  0.40486900  1
  O  O35  1  0.09513100  0.39773700  0.16171000  1
  O  O36  1  0.66171000  0.40486900  0.60226300  1
  O  O37  1  0.10226300  0.83829000  0.59513100  1
  O  O38  1  0.40486900  0.60226300  0.66171000  1
  O  O39  1  0.83829000  0.59513100  0.10226300  1
  O  O40  1  0.39773700  0.16171000  0.09513100  1
  O  O41  1  0.90486900  0.89773700  0.33829000  1
  O  O42  1  0.33829000  0.90486900  0.89773700  1
  O  O43  1  0.89773700  0.33829000  0.90486900  1
  O  O44  1  0.55942500  0.83302400  0.28067500  1
  O  O45  1  0.71932500  0.05942500  0.66697600  1
  O  O46  1  0.33302400  0.21932500  0.44057500  1
  O  O47  1  0.05942500  0.66697600  0.71932500  1
  O  O48  1  0.21932500  0.44057500  0.33302400  1
  O  O49  1  0.83302400  0.28067500  0.55942500  1
  O  O50  1  0.44057500  0.33302400  0.21932500  1
  O  O51  1  0.28067500  0.55942500  0.83302400  1
  O  O52  1  0.66697600  0.71932500  0.05942500  1
  O  O53  1  0.94057500  0.16697600  0.78067500  1
  O  O54  1  0.78067500  0.94057500  0.16697600  1
  O  O55  1  0.16697600  0.78067500  0.94057500  1
  O  O56  1  0.15335100  0.00084100  0.95099400  1
  O  O57  1  0.04900600  0.65335100  0.49915900  1
  O  O58  1  0.50084100  0.54900600  0.84664900  1
  O  O59  1  0.65335100  0.49915900  0.04900600  1
  O  O60  1  0.54900600  0.84664900  0.50084100  1
  O  O61  1  0.00084100  0.95099400  0.15335100  1
  O  O62  1  0.84664900  0.50084100  0.54900600  1
  O  O63  1  0.95099400  0.15335100  0.00084100  1
  O  O64  1  0.49915900  0.04900600  0.65335100  1
  O  O65  1  0.34664900  0.99915900  0.45099400  1
  O  O66  1  0.45099400  0.34664900  0.99915900  1
  O  O67  1  0.99915900  0.45099400  0.34664900  1
