# generated using pymatgen
data_GdMn12
_symmetry_space_group_name_H-M   'P 1'
_cell_length_a   6.31867369
_cell_length_b   6.31867369
_cell_length_c   6.31867369
_cell_angle_alpha   97.69769504
_cell_angle_beta   97.69769504
_cell_angle_gamma   137.06335382
_symmetry_Int_Tables_number   1
_chemical_formula_structural   GdMn12
_chemical_formula_sum   'Gd1 Mn12'
_cell_volume   159.92559778
_cell_formula_units_Z   1
loop_
 _symmetry_equiv_pos_site_id
 _symmetry_equiv_pos_as_xyz
  1  'x, y, z'
loop_
 _atom_site_type_symbol
 _atom_site_label
 _atom_site_symmetry_multiplicity
 _atom_site_fract_x
 _atom_site_fract_y
 _atom_site_fract_z
 _atom_site_occupancy
  Gd  Gd0  1  0.00000000  0.00000000  0.00000000  1
  Mn  Mn1  1  0.00000000  0.36131100  0.36131100  1
  Mn  Mn2  1  0.50000000  0.72698900  0.22698900  1
  Mn  Mn3  1  0.72698900  0.50000000  0.22698900  1
  Mn  Mn4  1  0.27301100  0.50000000  0.77301100  1
  Mn  Mn5  1  0.50000000  0.00000000  0.00000000  1
  Mn  Mn6  1  0.50000000  0.27301100  0.77301100  1
  Mn  Mn7  1  0.63868900  0.00000000  0.63868900  1
  Mn  Mn8  1  0.00000000  0.63868900  0.63868900  1
  Mn  Mn9  1  0.50000000  0.50000000  0.50000000  1
  Mn  Mn10  1  0.36131100  0.00000000  0.36131100  1
  Mn  Mn11  1  0.00000000  0.00000000  0.50000000  1
  Mn  Mn12  1  0.00000000  0.50000000  0.00000000  1
