# generated using pymatgen
data_Na17In12Ga29
_symmetry_space_group_name_H-M   'P 1'
_cell_length_a   15.56943490
_cell_length_b   15.56943490
_cell_length_c   15.56943490
_cell_angle_alpha   60.00000000
_cell_angle_beta   60.00000000
_cell_angle_gamma   60.00000000
_symmetry_Int_Tables_number   1
_chemical_formula_structural   Na17In12Ga29
_chemical_formula_sum   'Na34 In24 Ga58'
_cell_volume   2668.72333037
_cell_formula_units_Z   2
loop_
 _symmetry_equiv_pos_site_id
 _symmetry_equiv_pos_as_xyz
  1  'x, y, z'
loop_
 _atom_site_type_symbol
 _atom_site_label
 _atom_site_symmetry_multiplicity
 _atom_site_fract_x
 _atom_site_fract_y
 _atom_site_fract_z
 _atom_site_occupancy
  Na  Na0  1  0.49609200  0.88432400  0.12349200  1
  Na  Na1  1  0.27511600  0.90829500  0.90829500  1
  Na  Na2  1  0.49609200  0.12349200  0.88432400  1
  Na  Na3  1  0.12349200  0.88432400  0.49609200  1
  Na  Na4  1  0.12650800  0.75390800  0.75390800  1
  Na  Na5  1  0.36567600  0.75390800  0.12650800  1
  Na  Na6  1  0.12349200  0.49609200  0.88432400  1
  Na  Na7  1  0.25000000  0.25000000  0.25000000  1
  Na  Na8  1  0.97488400  0.34170500  0.34170500  1
  Na  Na9  1  0.34170500  0.97488400  0.34170500  1
  Na  Na10  1  0.34170500  0.34170500  0.97488400  1
  Na  Na11  1  0.75390800  0.12650800  0.75390800  1
  Na  Na12  1  0.36567600  0.75390800  0.75390800  1
  Na  Na13  1  0.88432400  0.49609200  0.49609200  1
  Na  Na14  1  0.49609200  0.49609200  0.12349200  1
  Na  Na15  1  0.49609200  0.88432400  0.49609200  1
  Na  Na16  1  0.75390800  0.36567600  0.12650800  1
  Na  Na17  1  0.12650800  0.36567600  0.75390800  1
  Na  Na18  1  0.90829500  0.27511600  0.90829500  1
  Na  Na19  1  0.75390800  0.75390800  0.12650800  1
  Na  Na20  1  0.75390800  0.36567600  0.75390800  1
  Na  Na21  1  0.49609200  0.12349200  0.49609200  1
  Na  Na22  1  0.75390800  0.12650800  0.36567600  1
  Na  Na23  1  0.00000000  0.00000000  0.00000000  1
  Na  Na24  1  0.12349200  0.49609200  0.49609200  1
  Na  Na25  1  0.90829500  0.90829500  0.90829500  1
  Na  Na26  1  0.88432400  0.12349200  0.49609200  1
  Na  Na27  1  0.12650800  0.75390800  0.36567600  1
  Na  Na28  1  0.49609200  0.49609200  0.88432400  1
  Na  Na29  1  0.34170500  0.34170500  0.34170500  1
  Na  Na30  1  0.75390800  0.75390800  0.36567600  1
  Na  Na31  1  0.90829500  0.90829500  0.27511600  1
  Na  Na32  1  0.88432400  0.49609200  0.12349200  1
  Na  Na33  1  0.36567600  0.12650800  0.75390800  1
  In  In34  1  0.74267400  0.35329100  0.35329100  1
  In  In35  1  0.89670900  0.89670900  0.50732600  1
  In  In36  1  0.50732600  0.69925500  0.89670900  1
  In  In37  1  0.35329100  0.55074500  0.74267400  1
  In  In38  1  0.35329100  0.55074500  0.35329100  1
  In  In39  1  0.35329100  0.35329100  0.74267400  1
  In  In40  1  0.35329100  0.74267400  0.55074500  1
  In  In41  1  0.74267400  0.55074500  0.35329100  1
  In  In42  1  0.50732600  0.89670900  0.89670900  1
  In  In43  1  0.89670900  0.50732600  0.69925500  1
  In  In44  1  0.69925500  0.89670900  0.89670900  1
  In  In45  1  0.55074500  0.35329100  0.35329100  1
  In  In46  1  0.55074500  0.35329100  0.74267400  1
  In  In47  1  0.74267400  0.35329100  0.55074500  1
  In  In48  1  0.55074500  0.74267400  0.35329100  1
  In  In49  1  0.89670900  0.50732600  0.89670900  1
  In  In50  1  0.89670900  0.69925500  0.89670900  1
  In  In51  1  0.89670900  0.69925500  0.50732600  1
  In  In52  1  0.50732600  0.89670900  0.69925500  1
  In  In53  1  0.35329100  0.74267400  0.35329100  1
  In  In54  1  0.35329100  0.35329100  0.55074500  1
  In  In55  1  0.69925500  0.89670900  0.50732600  1
  In  In56  1  0.69925500  0.50732600  0.89670900  1
  In  In57  1  0.89670900  0.89670900  0.69925500  1
  Ga  Ga58  1  0.23487300  0.94269800  0.23487300  1
  Ga  Ga59  1  0.13117300  0.78366800  0.95398600  1
  Ga  Ga60  1  0.58517800  0.24446500  0.58517800  1
  Ga  Ga61  1  0.01512700  0.66244400  0.30730200  1
  Ga  Ga62  1  0.13117300  0.13117300  0.95398600  1
  Ga  Ga63  1  0.23487300  0.94269800  0.58755600  1
  Ga  Ga64  1  0.01512700  0.01512700  0.66244400  1
  Ga  Ga65  1  0.00553500  0.66482200  0.66482200  1
  Ga  Ga66  1  0.78366800  0.95398600  0.13117300  1
  Ga  Ga67  1  0.13117300  0.78366800  0.13117300  1
  Ga  Ga68  1  0.94269800  0.58755600  0.23487300  1
  Ga  Ga69  1  0.11882700  0.11882700  0.46633200  1
  Ga  Ga70  1  0.78366800  0.13117300  0.95398600  1
  Ga  Ga71  1  0.58517800  0.58517800  0.58517800  1
  Ga  Ga72  1  0.29601400  0.11882700  0.11882700  1
  Ga  Ga73  1  0.13117300  0.95398600  0.13117300  1
  Ga  Ga74  1  0.58755600  0.23487300  0.94269800  1
  Ga  Ga75  1  0.66244400  0.01512700  0.30730200  1
  Ga  Ga76  1  0.66482200  0.66482200  0.00553500  1
  Ga  Ga77  1  0.29601400  0.46633200  0.11882700  1
  Ga  Ga78  1  0.11882700  0.46633200  0.11882700  1
  Ga  Ga79  1  0.11882700  0.46633200  0.29601400  1
  Ga  Ga80  1  0.13117300  0.13117300  0.78366800  1
  Ga  Ga81  1  0.30730200  0.01512700  0.01512700  1
  Ga  Ga82  1  0.46633200  0.11882700  0.29601400  1
  Ga  Ga83  1  0.75000000  0.75000000  0.75000000  1
  Ga  Ga84  1  0.23487300  0.23487300  0.58755600  1
  Ga  Ga85  1  0.24446500  0.58517800  0.58517800  1
  Ga  Ga86  1  0.01512700  0.30730200  0.66244400  1
  Ga  Ga87  1  0.66482200  0.66482200  0.66482200  1
  Ga  Ga88  1  0.58755600  0.23487300  0.23487300  1
  Ga  Ga89  1  0.13117300  0.95398600  0.78366800  1
  Ga  Ga90  1  0.95398600  0.13117300  0.13117300  1
  Ga  Ga91  1  0.78366800  0.13117300  0.13117300  1
  Ga  Ga92  1  0.66482200  0.00553500  0.66482200  1
  Ga  Ga93  1  0.01512700  0.66244400  0.01512700  1
  Ga  Ga94  1  0.11882700  0.11882700  0.29601400  1
  Ga  Ga95  1  0.58517800  0.58517800  0.24446500  1
  Ga  Ga96  1  0.66244400  0.30730200  0.01512700  1
  Ga  Ga97  1  0.01512700  0.01512700  0.30730200  1
  Ga  Ga98  1  0.46633200  0.11882700  0.11882700  1
  Ga  Ga99  1  0.58755600  0.94269800  0.23487300  1
  Ga  Ga100  1  0.94269800  0.23487300  0.23487300  1
  Ga  Ga101  1  0.66244400  0.01512700  0.01512700  1
  Ga  Ga102  1  0.23487300  0.58755600  0.23487300  1
  Ga  Ga103  1  0.30730200  0.66244400  0.01512700  1
  Ga  Ga104  1  0.46633200  0.29601400  0.11882700  1
  Ga  Ga105  1  0.11882700  0.29601400  0.11882700  1
  Ga  Ga106  1  0.95398600  0.78366800  0.13117300  1
  Ga  Ga107  1  0.23487300  0.58755600  0.94269800  1
  Ga  Ga108  1  0.94269800  0.23487300  0.58755600  1
  Ga  Ga109  1  0.11882700  0.29601400  0.46633200  1
  Ga  Ga110  1  0.50000000  0.50000000  0.50000000  1
  Ga  Ga111  1  0.29601400  0.11882700  0.46633200  1
  Ga  Ga112  1  0.95398600  0.13117300  0.78366800  1
  Ga  Ga113  1  0.30730200  0.01512700  0.66244400  1
  Ga  Ga114  1  0.23487300  0.23487300  0.94269800  1
  Ga  Ga115  1  0.01512700  0.30730200  0.01512700  1
