# generated using pymatgen
data_Al2SiO5
_symmetry_space_group_name_H-M   'P 1'
_cell_length_a   5.33261400
_cell_length_b   8.57015000
_cell_length_c   8.62778456
_cell_angle_alpha   69.91458500
_cell_angle_beta   78.33358863
_cell_angle_gamma   79.25379010
_symmetry_Int_Tables_number   1
_chemical_formula_structural   Al2SiO5
_chemical_formula_sum   'Al8 Si4 O20'
_cell_volume   359.72312765
_cell_formula_units_Z   4
loop_
 _symmetry_equiv_pos_site_id
 _symmetry_equiv_pos_as_xyz
  1  'x, y, z'
loop_
 _atom_site_type_symbol
 _atom_site_label
 _atom_site_symmetry_multiplicity
 _atom_site_fract_x
 _atom_site_fract_y
 _atom_site_fract_z
 _atom_site_occupancy
  Al  Al0  1  0.22004700  0.82796200  0.68738000  1
  Al  Al1  1  0.73799200  0.99740300  0.05287200  1
  Al  Al2  1  0.32066000  0.18545900  0.19568200  1
  Al  Al3  1  0.67934000  0.81454100  0.80431800  1
  Al  Al4  1  0.11538000  0.82269500  0.33124500  1
  Al  Al5  1  0.26200800  0.00259700  0.94712800  1
  Al  Al6  1  0.88462000  0.17730500  0.66875500  1
  Al  Al7  1  0.77995300  0.17203800  0.31262000  1
  Si  Si8  1  0.58055300  0.60861200  0.57248500  1
  Si  Si9  1  0.02092500  0.55256800  0.66482400  1
  Si  Si10  1  0.97907500  0.44743200  0.33517600  1
  Si  Si11  1  0.41944700  0.39138800  0.42751500  1
  O  O12  1  0.00364900  0.64961500  0.79943700  1
  O  O13  1  0.40043500  0.14991100  0.99830700  1
  O  O14  1  0.65355300  0.23128200  0.51422900  1
  O  O15  1  0.59956500  0.85008900  0.00169300  1
  O  O16  1  0.94456200  0.12451700  0.87782200  1
  O  O17  1  0.51130900  0.67274700  0.74610000  1
  O  O18  1  0.48869100  0.32725300  0.25390000  1
  O  O19  1  0.87667600  0.70874900  0.50524900  1
  O  O20  1  0.99635100  0.35038500  0.20056300  1
  O  O21  1  0.67379900  0.53555300  0.38165300  1
  O  O22  1  0.12332400  0.29125100  0.49475100  1
  O  O23  1  0.91232200  0.95778600  0.67619900  1
  O  O24  1  0.32620100  0.46444700  0.61834700  1
  O  O25  1  0.34644700  0.76871800  0.48577100  1
  O  O26  1  0.05543800  0.87548300  0.12217800  1
  O  O27  1  0.80034900  0.43252600  0.68105200  1
  O  O28  1  0.08767800  0.04221400  0.32380100  1
  O  O29  1  0.19965100  0.56747400  0.31894800  1
  O  O30  1  0.62841700  0.04229900  0.24732800  1
  O  O31  1  0.37158300  0.95770100  0.75267200  1
