# generated using pymatgen
data_Na12B26O45
_symmetry_space_group_name_H-M   'P 1'
_cell_length_a   9.64101898
_cell_length_b   10.74558894
_cell_length_c   18.34975950
_cell_angle_alpha   107.03478757
_cell_angle_beta   105.23751835
_cell_angle_gamma   90.00576722
_symmetry_Int_Tables_number   1
_chemical_formula_structural   Na12B26O45
_chemical_formula_sum   'Na24 B52 O90'
_cell_volume   1747.57027231
_cell_formula_units_Z   2
loop_
 _symmetry_equiv_pos_site_id
 _symmetry_equiv_pos_as_xyz
  1  'x, y, z'
loop_
 _atom_site_type_symbol
 _atom_site_label
 _atom_site_symmetry_multiplicity
 _atom_site_fract_x
 _atom_site_fract_y
 _atom_site_fract_z
 _atom_site_occupancy
  Na  Na0  1  0.38947166  0.31057757  0.90835072  1
  Na  Na1  1  0.71877734  0.32198378  0.75358515  1
  Na  Na2  1  0.58799097  0.83656790  0.40705992  1
  Na  Na3  1  0.30583838  0.19727889  0.39892474  1
  Na  Na4  1  0.03575793  0.82382811  0.75360966  1
  Na  Na5  1  0.81489712  0.33221727  0.40592452  1
  Na  Na6  1  0.69584211  0.79836315  0.60050862  1
  Na  Na7  1  0.03876203  0.22454154  0.91340707  1
  Na  Na8  1  0.50669789  0.29807854  0.25712253  1
  Na  Na9  1  0.96492177  0.31484768  0.09026438  1
  Na  Na10  1  0.49641928  0.04156945  0.74502924  1
  Na  Na11  1  0.48207663  0.89932539  0.08984629  1
  Na  Na12  1  0.28204288  0.56916274  0.24623940  1
  Na  Na13  1  0.09282331  0.69830027  0.39836466  1
  Na  Na14  1  0.51831103  0.80857232  0.91026536  1
  Na  Na15  1  0.74755796  0.79814753  0.25392229  1
  Na  Na16  1  0.87644869  0.71966894  0.90906970  1
  Na  Na17  1  0.90507071  0.29949672  0.60229598  1
  Na  Na18  1  0.24816950  0.54632930  0.74556298  1
  Na  Na19  1  0.96622299  0.06874673  0.24603856  1
  Na  Na20  1  0.41034136  0.43022502  0.59278044  1
  Na  Na21  1  0.18627601  0.92685928  0.59333252  1
  Na  Na22  1  0.61118729  0.39760638  0.08893119  1
  Na  Na23  1  0.12425604  0.81402083  0.08938088  1
  B  B24  1  0.92204435  0.01598658  0.04764851  1
  B  B25  1  0.60311689  0.23145609  0.54015161  1
  B  B26  1  0.79208894  0.85464239  0.08706252  1
  B  B27  1  0.56720399  0.03749843  0.30835382  1
  B  B28  1  0.43132610  0.16236195  0.60534413  1
  B  B29  1  0.10474479  0.43335928  0.53515628  1
  B  B30  1  0.58183533  0.58601186  0.76491715  1
  B  B31  1  0.89355922  0.90021768  0.46641257  1
  B  B32  1  0.69156459  0.79233454  0.77064104  1
  B  B33  1  0.06323868  0.18932158  0.46055583  1
  B  B34  1  0.81773178  0.32108923  0.23496537  1
  B  B35  1  0.42841371  0.93313278  0.53418117  1
  B  B36  1  0.41661244  0.82119891  0.23454753  1
  B  B37  1  0.18296198  0.08587882  0.76572781  1
  B  B38  1  0.66027651  0.07181198  0.61047501  1
  B  B39  1  0.33942952  0.46016651  0.38755176  1
  B  B40  1  0.27163548  0.15298856  0.13046265  1
  B  B41  1  0.74116417  0.53799678  0.30833792  1
  B  B42  1  0.91868834  0.08769916  0.69739598  1
  B  B43  1  0.77791545  0.58637236  0.69682564  1
  B  B44  1  0.08098251  0.39041803  0.30246114  1
  B  B45  1  0.63988149  0.11739288  0.98605547  1
  B  B46  1  0.38221499  0.59898776  0.12343993  1
  B  B47  1  0.87337941  0.46578604  0.95220433  1
  B  B48  1  0.43286341  0.72852007  0.69070534  1
  B  B49  1  0.25735463  0.97456247  0.87666427  1
  B  B50  1  0.61899906  0.47455573  0.87618769  1
  B  B51  1  0.17367334  0.66227133  0.60556601  1
  B  B52  1  0.70277031  0.26568416  0.91190910  1
  B  B53  1  0.95006919  0.57186957  0.61130047  1
  B  B54  1  0.56880695  0.55687435  0.39383843  1
  B  B55  1  0.29759553  0.35447213  0.08807805  1
  B  B56  1  0.25879352  0.22714928  0.69125451  1
  B  B57  1  0.34545741  0.61930199  0.98727734  1
  B  B58  1  0.36065059  0.13068683  0.01399582  1
  B  B59  1  0.73087908  0.02190495  0.87042452  1
  B  B60  1  0.91880215  0.52212112  0.22827884  1
  B  B61  1  0.07878970  0.96824310  0.95218933  1
  B  B62  1  0.74301590  0.09934409  0.12336688  1
  B  B63  1  0.39504798  0.68926373  0.45891607  1
  B  B64  1  0.08094407  0.29295812  0.77135081  1
  B  B65  1  0.57180682  0.40050449  0.46533549  1
  B  B66  1  0.22189980  0.89114861  0.30324075  1
  B  B67  1  0.14050366  0.52325078  0.87114140  1
  B  B68  1  0.82542418  0.05572334  0.39434341  1
  B  B69  1  0.93594001  0.73115739  0.54120789  1
  B  B70  1  0.86039274  0.65220470  0.12894489  1
  B  B71  1  0.30930284  0.02256880  0.22906447  1
  B  B72  1  0.65412898  0.63174248  0.01319338  1
  B  B73  1  0.20718069  0.76717206  0.91278618  1
  B  B74  1  0.04945406  0.96077935  0.38920028  1
  B  B75  1  0.12710226  0.51508408  0.04806747  1
  O  O76  1  0.65582094  0.71333811  0.81675727  1
  O  O77  1  0.32285670  0.80357960  0.28699403  1
  O  O78  1  0.95118590  0.59561012  0.17822060  1
  O  O79  1  0.91917136  0.17397905  0.45489859  1
  O  O80  1  0.87939342  0.78386892  0.14037120  1
  O  O81  1  0.89203318  0.88849427  0.04304298  1
  O  O82  1  0.69601945  0.10760916  0.35384232  1
  O  O83  1  0.26354270  0.00089014  0.80504762  1
  O  O84  1  0.55432874  0.90274840  0.28972410  1
  O  O85  1  0.78532145  0.02382929  0.65593080  1
  O  O86  1  0.60442463  0.33228943  0.86496441  1
  O  O87  1  0.87216623  0.52236738  0.65705303  1
  O  O88  1  0.96391630  0.30334743  0.28724155  1
  O  O89  1  0.73728863  0.19659210  0.19557983  1
  O  O90  1  0.35260944  0.81103934  0.49416805  1
  O  O91  1  0.14058781  0.31116969  0.49591251  1
  O  O92  1  0.32904000  0.73917727  0.97436900  1
  O  O93  1  0.29121575  0.58770872  0.42690642  1
  O  O94  1  0.00217733  0.04762575  0.00084693  1
  O  O95  1  0.13594477  0.08847979  0.42839735  1
  O  O96  1  0.15262064  0.38808842  0.04474015  1
  O  O97  1  0.56434177  0.55150868  0.94392892  1
  O  O98  1  0.12917655  0.86687994  0.34400909  1
  O  O99  1  0.78631964  0.72231738  0.72148427  1
  O  O100  1  0.07950809  0.72078374  0.54571443  1
  O  O101  1  0.61991264  0.10756776  0.05562754  1
  O  O102  1  0.70659872  0.15973229  0.57051320  1
  O  O103  1  0.53398396  0.67483776  0.45368081  1
  O  O104  1  0.73674680  0.14204782  0.85863988  1
  O  O105  1  0.54174458  0.50103251  0.80455933  1
  O  O106  1  0.22071499  0.61879942  0.09837888  1
  O  O107  1  0.21514350  0.36587145  0.34206362  1
  O  O108  1  0.67563648  0.00761747  0.93162177  1
  O  O109  1  0.93570164  0.22408443  0.72264844  1
  O  O110  1  0.02679599  0.90464796  0.45315322  1
  O  O111  1  0.34316129  0.89692179  0.18259497  1
  O  O112  1  0.64079315  0.23703971  0.97252333  1
  O  O113  1  0.87907693  0.11951655  0.09862881  1
  O  O114  1  0.21521936  0.00280365  0.27914827  1
  O  O115  1  0.77257662  0.91680379  0.82089756  1
  O  O116  1  0.90805671  0.98213035  0.34087361  1
  O  O117  1  0.09140916  0.64258459  0.65931519  1
  O  O118  1  0.38043335  0.04941325  0.94509451  1
  O  O119  1  0.10769347  0.84524803  0.95672593  1
  O  O120  1  0.73632747  0.40283868  0.29077058  1
  O  O121  1  0.12033174  0.64349481  0.85986044  1
  O  O122  1  0.43725321  0.60830490  0.05589288  1
  O  O123  1  0.83826802  0.39615863  0.18253751  1
  O  O124  1  0.25623749  0.50905874  0.93243299  1
  O  O125  1  0.43330653  0.48242750  0.33998107  1
  O  O126  1  0.42523572  0.40334610  0.45111755  1
  O  O127  1  0.74053231  0.96779289  0.13414195  1
  O  O128  1  0.65718251  0.60825833  0.35307346  1
  O  O129  1  0.12055232  0.01931462  0.90053621  1
  O  O130  1  0.45885276  0.69711381  0.19534422  1
  O  O131  1  0.86326013  0.66041222  0.57219823  1
  O  O132  1  0.64709049  0.32041799  0.50706008  1
  O  O133  1  0.32754998  0.07699432  0.06984280  1
  O  O134  1  0.83294746  0.60344515  0.28173655  1
  O  O135  1  0.03597173  0.01652387  0.71330011  1
  O  O136  1  0.06298120  0.50225392  0.27834950  1
  O  O137  1  0.46469957  0.22204911  0.54550801  1
  O  O138  1  0.22874199  0.09814068  0.18000781  1
  O  O139  1  0.00023900  0.54438661  0.99983584  1
  O  O140  1  0.66982824  0.76479619  0.02593334  1
  O  O141  1  0.78641717  0.96980469  0.43734639  1
  O  O142  1  0.65078627  0.47188256  0.43772950  1
  O  O143  1  0.97132075  0.45153656  0.54756331  1
  O  O144  1  0.57459808  0.95056670  0.54717259  1
  O  O145  1  0.74341049  0.57700989  0.06813069  1
  O  O146  1  0.26631385  0.11135928  0.71067325  1
  O  O147  1  0.35025680  0.03296174  0.56168455  1
  O  O148  1  0.44355492  0.61304701  0.71031157  1
  O  O149  1  0.85911610  0.82034922  0.50793520  1
  O  O150  1  0.39653446  0.46775866  0.13435334  1
  O  O151  1  0.55291300  0.81856923  0.71521508  1
  O  O152  1  0.56745807  0.14189292  0.65868387  1
  O  O153  1  0.78054492  0.51768871  0.90044300  1
  O  O154  1  0.21116911  0.53280478  0.56272899  1
  O  O155  1  0.25927114  0.83195434  0.86530150  1
  O  O156  1  0.35645178  0.26396279  0.02615505  1
  O  O157  1  0.67440786  0.51532786  0.71147020  1
  O  O158  1  0.30427790  0.75364416  0.64522627  1
  O  O159  1  0.44854658  0.10375768  0.28345144  1
  O  O160  1  0.84704159  0.34348688  0.95687403  1
  O  O161  1  0.16469756  0.31805536  0.71631492  1
  O  O162  1  0.34188718  0.25274894  0.64614266  1
  O  O163  1  0.16175054  0.21392145  0.81774437  1
  O  O164  1  0.05093091  0.41838735  0.82009388  1
  O  O165  1  0.26514193  0.28455487  0.14183683  1
