# generated using pymatgen
data_Nd(MnSn)6
_symmetry_space_group_name_H-M   'P 1'
_cell_length_a   5.50269722
_cell_length_b   9.05269611
_cell_length_c   15.21419216
_cell_angle_alpha   107.32612328
_cell_angle_beta   100.42569306
_cell_angle_gamma   90.00443364
_symmetry_Int_Tables_number   1
_chemical_formula_structural   Nd(MnSn)6
_chemical_formula_sum   'Nd3 Mn18 Sn18'
_cell_volume   710.37346298
_cell_formula_units_Z   3
loop_
 _symmetry_equiv_pos_site_id
 _symmetry_equiv_pos_as_xyz
  1  'x, y, z'
loop_
 _atom_site_type_symbol
 _atom_site_label
 _atom_site_symmetry_multiplicity
 _atom_site_fract_x
 _atom_site_fract_y
 _atom_site_fract_z
 _atom_site_occupancy
  Nd  Nd0  1  0.32974500  0.82996100  0.66118100  1
  Nd  Nd1  1  0.66860000  0.16880900  0.33904300  1
  Nd  Nd2  1  0.99968400  0.99897000  0.00079100  1
  Mn  Mn3  1  0.16758200  0.41455200  0.33430100  1
  Mn  Mn4  1  0.33234600  0.83481700  0.16761800  1
  Mn  Mn5  1  0.66828400  0.66788900  0.83371500  1
  Mn  Mn6  1  0.50049300  0.75258000  0.00049200  1
  Mn  Mn7  1  0.16423100  0.16460300  0.83252100  1
  Mn  Mn8  1  0.83501100  0.33121400  0.16784600  1
  Mn  Mn9  1  0.82962900  0.07971100  0.66606500  1
  Mn  Mn10  1  0.16487800  0.66778200  0.83318400  1
  Mn  Mn11  1  0.49873700  0.99795700  0.50025000  1
  Mn  Mn12  1  0.50096000  0.24622300  0.00044400  1
  Mn  Mn13  1  0.99900200  0.99774700  0.50049800  1
  Mn  Mn14  1  0.00005700  0.49826100  0.49990000  1
  Mn  Mn15  1  0.83485500  0.83507800  0.16744100  1
  Mn  Mn16  1  0.83287500  0.58372200  0.66636100  1
  Mn  Mn17  1  0.33257700  0.33133600  0.16789600  1
  Mn  Mn18  1  0.16656200  0.91789800  0.33409400  1
  Mn  Mn19  1  0.66615600  0.16414000  0.83254300  1
  Mn  Mn20  1  0.49973200  0.49816200  0.50024600  1
  Sn  Sn21  1  0.00122400  0.33386300  0.00065300  1
  Sn  Sn22  1  0.88672000  0.88690800  0.77558700  1
  Sn  Sn23  1  0.11229700  0.11224900  0.22524300  1
  Sn  Sn24  1  0.22456400  0.22362200  0.45056700  1
  Sn  Sn25  1  0.44403100  0.44436500  0.88977300  1
  Sn  Sn26  1  0.10985100  0.60928700  0.21984900  1
  Sn  Sn27  1  0.78048400  0.27937800  0.56272200  1
  Sn  Sn28  1  0.88839300  0.38931900  0.78033500  1
  Sn  Sn29  1  0.21862600  0.71745000  0.43773200  1
  Sn  Sn30  1  0.33442000  0.49792500  0.66844700  1
  Sn  Sn31  1  0.55680700  0.05631200  0.11388700  1
  Sn  Sn32  1  0.66606000  0.50100700  0.33239200  1
  Sn  Sn33  1  0.44198700  0.94264500  0.88639900  1
  Sn  Sn34  1  0.33118700  0.16950200  0.66756100  1
  Sn  Sn35  1  0.77421200  0.77313000  0.55045100  1
  Sn  Sn36  1  0.66616700  0.82974000  0.33253500  1
  Sn  Sn37  1  0.55619700  0.55455300  0.11158700  1
  Sn  Sn38  1  0.00003500  0.66338100  0.00021600  1
