# generated using pymatgen
data_KLa(PO3)4
_symmetry_space_group_name_H-M   'P 1'
_cell_length_a   7.08786934
_cell_length_b   7.08786934
_cell_length_c   13.88453400
_cell_angle_alpha   90.00000000
_cell_angle_beta   90.00000000
_cell_angle_gamma   111.25852303
_symmetry_Int_Tables_number   1
_chemical_formula_structural   KLa(PO3)4
_chemical_formula_sum   'K2 La2 P8 O24'
_cell_volume   650.06557160
_cell_formula_units_Z   2
loop_
 _symmetry_equiv_pos_site_id
 _symmetry_equiv_pos_as_xyz
  1  'x, y, z'
loop_
 _atom_site_type_symbol
 _atom_site_label
 _atom_site_symmetry_multiplicity
 _atom_site_fract_x
 _atom_site_fract_y
 _atom_site_fract_z
 _atom_site_occupancy
  K  K0  1  0.81055800  0.18944200  0.23584600  1
  K  K1  1  0.18944200  0.81055800  0.73584600  1
  La  La2  1  0.61261200  0.38738800  0.75557000  1
  La  La3  1  0.38738800  0.61261200  0.25557000  1
  P  P4  1  0.86232200  0.75289300  0.94646100  1
  P  P5  1  0.29779000  0.06571800  0.15505800  1
  P  P6  1  0.75289300  0.86232200  0.44646100  1
  P  P7  1  0.06571800  0.29779000  0.65505800  1
  P  P8  1  0.70221000  0.93428200  0.65505800  1
  P  P9  1  0.24710700  0.13767800  0.94646100  1
  P  P10  1  0.93428200  0.70221000  0.15505800  1
  P  P11  1  0.13767800  0.24710700  0.44646100  1
  O  O12  1  0.41668100  0.94985600  0.19953900  1
  O  O13  1  0.30462600  0.17713700  0.46886200  1
  O  O14  1  0.33915900  0.27690200  0.19062500  1
  O  O15  1  0.17713700  0.30462600  0.96886200  1
  O  O16  1  0.05311800  0.32740000  0.54221900  1
  O  O17  1  0.16413300  0.41340500  0.37285000  1
  O  O18  1  0.41340500  0.16413300  0.87285000  1
  O  O19  1  0.69537400  0.82286300  0.96886200  1
  O  O20  1  0.83586700  0.58659500  0.87285000  1
  O  O21  1  0.67260000  0.94688200  0.54221900  1
  O  O22  1  0.32740000  0.05311800  0.04221900  1
  O  O23  1  0.27690200  0.33915900  0.69062500  1
  O  O24  1  0.06972900  0.93027100  0.90930800  1
  O  O25  1  0.82286300  0.69537400  0.46886200  1
  O  O26  1  0.58659500  0.83586700  0.37285000  1
  O  O27  1  0.72309800  0.66084100  0.19062500  1
  O  O28  1  0.05623800  0.94376200  0.17275000  1
  O  O29  1  0.58331900  0.05014400  0.69953900  1
  O  O30  1  0.05014400  0.58331900  0.19953900  1
  O  O31  1  0.94376200  0.05623800  0.67275000  1
  O  O32  1  0.93027100  0.06972900  0.40930800  1
  O  O33  1  0.94688200  0.67260000  0.04221900  1
  O  O34  1  0.94985600  0.41668100  0.69953900  1
  O  O35  1  0.66084100  0.72309800  0.69062500  1
