# generated using pymatgen
data_Mn(NO5)2
_symmetry_space_group_name_H-M   'P 1'
_cell_length_a   32.47123400
_cell_length_b   6.03833900
_cell_length_c   6.40319443
_cell_angle_alpha   63.71416224
_cell_angle_beta   90.00000000
_cell_angle_gamma   90.00000000
_symmetry_Int_Tables_number   1
_chemical_formula_structural   Mn(NO5)2
_chemical_formula_sum   'Mn4 N8 O40'
_cell_volume   1125.66647495
_cell_formula_units_Z   4
loop_
 _symmetry_equiv_pos_site_id
 _symmetry_equiv_pos_as_xyz
  1  'x, y, z'
loop_
 _atom_site_type_symbol
 _atom_site_label
 _atom_site_symmetry_multiplicity
 _atom_site_fract_x
 _atom_site_fract_y
 _atom_site_fract_z
 _atom_site_occupancy
  Mn  Mn0  1  0.62927500  0.45656100  0.15736100  1
  Mn  Mn1  1  0.87072500  0.45656100  0.65736100  1
  Mn  Mn2  1  0.37072500  0.54343900  0.84263900  1
  Mn  Mn3  1  0.12927500  0.54343900  0.34263900  1
  N  N4  1  0.52616800  0.97135200  0.26019800  1
  N  N5  1  0.97383200  0.97135200  0.76019800  1
  N  N6  1  0.47383200  0.02864800  0.73980200  1
  N  N7  1  0.02616800  0.02864800  0.23980200  1
  N  N8  1  0.70698700  0.85899100  0.51900300  1
  N  N9  1  0.79301300  0.85899100  0.01900300  1
  N  N10  1  0.29301300  0.14100900  0.48099700  1
  N  N11  1  0.20698700  0.14100900  0.98099700  1
  O  O12  1  0.56414600  0.93367700  0.27481800  1
  O  O13  1  0.93585400  0.93367700  0.77481800  1
  O  O14  1  0.43585400  0.06632300  0.72518200  1
  O  O15  1  0.06414600  0.06632300  0.22518200  1
  O  O16  1  0.51220100  0.17586900  0.23083300  1
  O  O17  1  0.98779900  0.17586900  0.73083300  1
  O  O18  1  0.48779900  0.82413100  0.76916700  1
  O  O19  1  0.01220100  0.82413100  0.26916700  1
  O  O20  1  0.50207900  0.80361600  0.27461500  1
  O  O21  1  0.99792100  0.80361600  0.77461500  1
  O  O22  1  0.49792100  0.19638400  0.72538500  1
  O  O23  1  0.00207900  0.19638400  0.22538500  1
  O  O24  1  0.66958600  0.90948500  0.51955800  1
  O  O25  1  0.83041400  0.90948500  0.01955800  1
  O  O26  1  0.33041400  0.09051500  0.48044200  1
  O  O27  1  0.16958600  0.09051500  0.98044200  1
  O  O28  1  0.71971500  0.65166300  0.66173000  1
  O  O29  1  0.78028500  0.65166300  0.16173000  1
  O  O30  1  0.28028500  0.34833700  0.33827000  1
  O  O31  1  0.21971500  0.34833700  0.83827000  1
  O  O32  1  0.73120500  0.01401500  0.37860600  1
  O  O33  1  0.76879500  0.01401500  0.87860600  1
  O  O34  1  0.26879500  0.98598500  0.62139400  1
  O  O35  1  0.23120500  0.98598500  0.12139400  1
  O  O36  1  0.64405300  0.24104900  0.08074100  1
  O  O37  1  0.85594700  0.24104900  0.58074100  1
  O  O38  1  0.35594700  0.75895100  0.91925900  1
  O  O39  1  0.14405300  0.75895100  0.41925900  1
  O  O40  1  0.59756800  0.62947100  0.95074500  1
  O  O41  1  0.90243200  0.62947100  0.45074500  1
  O  O42  1  0.40243200  0.37052900  0.04925500  1
  O  O43  1  0.09756800  0.37052900  0.54925500  1
  O  O44  1  0.60622600  0.33396900  0.40223700  1
  O  O45  1  0.89377400  0.33396900  0.90223700  1
  O  O46  1  0.39377400  0.66603100  0.59776300  1
  O  O47  1  0.10622600  0.66603100  0.09776300  1
  O  O48  1  0.66808900  0.61213000  0.16968400  1
  O  O49  1  0.83191100  0.61213000  0.66968400  1
  O  O50  1  0.33191100  0.38787000  0.83031600  1
  O  O51  1  0.16808900  0.38787000  0.33031600  1
