# generated using pymatgen
data_RbAuC2(SN)2
_symmetry_space_group_name_H-M   'P 1'
_cell_length_a   7.40940440
_cell_length_b   7.40940440
_cell_length_c   18.05169928
_cell_angle_alpha   73.22321541
_cell_angle_beta   73.22321541
_cell_angle_gamma   50.38955752
_symmetry_Int_Tables_number   1
_chemical_formula_structural   RbAuC2(SN)2
_chemical_formula_sum   'Rb4 Au4 C8 S8 N8'
_cell_volume   723.59686138
_cell_formula_units_Z   4
loop_
 _symmetry_equiv_pos_site_id
 _symmetry_equiv_pos_as_xyz
  1  'x, y, z'
loop_
 _atom_site_type_symbol
 _atom_site_label
 _atom_site_symmetry_multiplicity
 _atom_site_fract_x
 _atom_site_fract_y
 _atom_site_fract_z
 _atom_site_occupancy
  Rb  Rb0  1  0.19085200  0.16208300  0.43948700  1
  Rb  Rb1  1  0.83791700  0.80914800  0.06051300  1
  Rb  Rb2  1  0.16208300  0.19085200  0.93948700  1
  Rb  Rb3  1  0.80914800  0.83791700  0.56051300  1
  Au  Au4  1  0.66385100  0.33614900  0.25000000  1
  Au  Au5  1  0.33614900  0.66385100  0.75000000  1
  Au  Au6  1  0.16551400  0.83448600  0.25000000  1
  Au  Au7  1  0.83448600  0.16551400  0.75000000  1
  C  C8  1  0.58484500  0.45533800  0.58705000  1
  C  C9  1  0.82728300  0.71725800  0.35641800  1
  C  C10  1  0.17271700  0.28274200  0.64358200  1
  C  C11  1  0.54466200  0.41515500  0.91295000  1
  C  C12  1  0.41515500  0.54466200  0.41295000  1
  C  C13  1  0.28274200  0.17271700  0.14358200  1
  C  C14  1  0.71725800  0.82728300  0.85641800  1
  C  C15  1  0.45533800  0.58484500  0.08705000  1
  S  S16  1  0.70787400  0.33643400  0.11531100  1
  S  S17  1  0.00495200  0.36052700  0.72922700  1
  S  S18  1  0.33643400  0.70787400  0.61531100  1
  S  S19  1  0.29212600  0.66356600  0.88468900  1
  S  S20  1  0.63947300  0.99504800  0.77077300  1
  S  S21  1  0.36052700  0.00495200  0.22922700  1
  S  S22  1  0.66356600  0.29212600  0.38468900  1
  S  S23  1  0.99504800  0.63947300  0.27077300  1
  N  N24  1  0.76024400  0.28014700  0.56423600  1
  N  N25  1  0.28571700  0.23963400  0.58112500  1
  N  N26  1  0.71985300  0.23975600  0.93576400  1
  N  N27  1  0.76036600  0.71428300  0.91887500  1
  N  N28  1  0.23963400  0.28571700  0.08112500  1
  N  N29  1  0.28014700  0.76024400  0.06423600  1
  N  N30  1  0.71428300  0.76036600  0.41887500  1
  N  N31  1  0.23975600  0.71985300  0.43576400  1
