# generated using pymatgen
data_MgSiO3
_symmetry_space_group_name_H-M   'P 1'
_cell_length_a   5.25041400
_cell_length_b   9.19981200
_cell_length_c   18.57609700
_cell_angle_alpha   90.00000000
_cell_angle_beta   90.00000000
_cell_angle_gamma   90.00000000
_symmetry_Int_Tables_number   1
_chemical_formula_structural   MgSiO3
_chemical_formula_sum   'Mg16 Si16 O48'
_cell_volume   897.27790168
_cell_formula_units_Z   16
loop_
 _symmetry_equiv_pos_site_id
 _symmetry_equiv_pos_as_xyz
  1  'x, y, z'
loop_
 _atom_site_type_symbol
 _atom_site_label
 _atom_site_symmetry_multiplicity
 _atom_site_fract_x
 _atom_site_fract_y
 _atom_site_fract_z
 _atom_site_occupancy
  Mg  Mg0  1  0.93655600  0.49417500  0.85289500  1
  Mg  Mg1  1  0.91253800  0.16669200  0.89345000  1
  Mg  Mg2  1  0.58746200  0.66669200  0.10655000  1
  Mg  Mg3  1  0.08746200  0.33330800  0.39345000  1
  Mg  Mg4  1  0.41253800  0.33330800  0.89345000  1
  Mg  Mg5  1  0.56344400  0.99417500  0.14710500  1
  Mg  Mg6  1  0.91253800  0.66669200  0.60655000  1
  Mg  Mg7  1  0.93655600  0.99417500  0.64710500  1
  Mg  Mg8  1  0.58746200  0.16669200  0.39345000  1
  Mg  Mg9  1  0.43655600  0.00582500  0.85289500  1
  Mg  Mg10  1  0.56344400  0.49417500  0.35289500  1
  Mg  Mg11  1  0.06344400  0.00582500  0.35289500  1
  Mg  Mg12  1  0.08746200  0.83330800  0.10655000  1
  Mg  Mg13  1  0.06344400  0.50582500  0.14710500  1
  Mg  Mg14  1  0.43655600  0.50582500  0.64710500  1
  Mg  Mg15  1  0.41253800  0.83330800  0.60655000  1
  Si  Si16  1  0.07139400  0.23336000  0.22252300  1
  Si  Si17  1  0.42860600  0.23336000  0.72252300  1
  Si  Si18  1  0.27424900  0.65612500  0.47033700  1
  Si  Si19  1  0.22575100  0.15612500  0.52966300  1
  Si  Si20  1  0.57139400  0.26664000  0.22252300  1
  Si  Si21  1  0.92860600  0.76664000  0.77747700  1
  Si  Si22  1  0.72575100  0.84387500  0.97033700  1
  Si  Si23  1  0.72575100  0.34387500  0.52966300  1
  Si  Si24  1  0.77424900  0.84387500  0.47033700  1
  Si  Si25  1  0.22575100  0.65612500  0.97033700  1
  Si  Si26  1  0.77424900  0.34387500  0.02966300  1
  Si  Si27  1  0.07139400  0.73336000  0.27747700  1
  Si  Si28  1  0.57139400  0.76664000  0.27747700  1
  Si  Si29  1  0.27424900  0.15612500  0.02966300  1
  Si  Si30  1  0.42860600  0.73336000  0.77747700  1
  Si  Si31  1  0.92860600  0.26664000  0.72252300  1
  O  O32  1  0.24616100  0.65043000  0.05910900  1
  O  O33  1  0.25383900  0.65043000  0.55910900  1
  O  O34  1  0.04518400  0.76825300  0.44489200  1
  O  O35  1  0.95337300  0.29301200  0.81144300  1
  O  O36  1  0.75383900  0.84957000  0.55910900  1
  O  O37  1  0.33989000  0.62559300  0.29293100  1
  O  O38  1  0.33989000  0.12559300  0.20706900  1
  O  O39  1  0.45337300  0.70698800  0.68855700  1
  O  O40  1  0.68803400  0.62881600  0.80627200  1
  O  O41  1  0.16011000  0.62559300  0.79293100  1
  O  O42  1  0.83989000  0.87440700  0.29293100  1
  O  O43  1  0.25383900  0.15043000  0.94089100  1
  O  O44  1  0.16011000  0.12559300  0.70706900  1
  O  O45  1  0.31196600  0.37118400  0.19372800  1
  O  O46  1  0.73094200  0.49921100  0.57071600  1
  O  O47  1  0.24616100  0.15043000  0.44089100  1
  O  O48  1  0.45481600  0.76825300  0.94489200  1
  O  O49  1  0.54518400  0.23174700  0.05510800  1
  O  O50  1  0.81196600  0.12881600  0.19372800  1
  O  O51  1  0.31196600  0.87118400  0.30627200  1
  O  O52  1  0.18803400  0.87118400  0.80627200  1
  O  O53  1  0.81196600  0.62881600  0.30627200  1
  O  O54  1  0.95481600  0.23174700  0.55510800  1
  O  O55  1  0.76905800  0.49921100  0.07071600  1
  O  O56  1  0.68803400  0.12881600  0.69372800  1
  O  O57  1  0.74616100  0.34957000  0.44089100  1
  O  O58  1  0.04518400  0.26825300  0.05510800  1
  O  O59  1  0.04662700  0.20698800  0.31144300  1
  O  O60  1  0.54662700  0.79301200  0.18855700  1
  O  O61  1  0.54518400  0.73174700  0.44489200  1
  O  O62  1  0.66011000  0.87440700  0.79293100  1
  O  O63  1  0.23094200  0.00078900  0.57071600  1
  O  O64  1  0.26905800  0.50078900  0.42928400  1
  O  O65  1  0.75383900  0.34957000  0.94089100  1
  O  O66  1  0.23094200  0.50078900  0.92928400  1
  O  O67  1  0.26905800  0.00078900  0.07071600  1
  O  O68  1  0.54662700  0.29301200  0.31144300  1
  O  O69  1  0.95481600  0.73174700  0.94489200  1
  O  O70  1  0.74616100  0.84957000  0.05910900  1
  O  O71  1  0.45337300  0.20698800  0.81144300  1
  O  O72  1  0.45481600  0.26825300  0.55510800  1
  O  O73  1  0.76905800  0.99921100  0.42928400  1
  O  O74  1  0.04662700  0.70698800  0.18855700  1
  O  O75  1  0.66011000  0.37440700  0.70706900  1
  O  O76  1  0.95337300  0.79301200  0.68855700  1
  O  O77  1  0.73094200  0.99921100  0.92928400  1
  O  O78  1  0.18803400  0.37118400  0.69372800  1
  O  O79  1  0.83989000  0.37440700  0.20706900  1
