# generated using pymatgen
data_LaH3(CO2)3
_symmetry_space_group_name_H-M   'P 1'
_cell_length_a   6.42243882
_cell_length_b   6.42243882
_cell_length_c   6.42243855
_cell_angle_alpha   115.45490450
_cell_angle_beta   115.45490450
_cell_angle_gamma   115.45490120
_symmetry_Int_Tables_number   1
_chemical_formula_structural   LaH3(CO2)3
_chemical_formula_sum   'La1 H3 C3 O6'
_cell_volume   141.92444812
_cell_formula_units_Z   1
loop_
 _symmetry_equiv_pos_site_id
 _symmetry_equiv_pos_as_xyz
  1  'x, y, z'
loop_
 _atom_site_type_symbol
 _atom_site_label
 _atom_site_symmetry_multiplicity
 _atom_site_fract_x
 _atom_site_fract_y
 _atom_site_fract_z
 _atom_site_occupancy
  La  La0  1  0.00243000  0.00243000  0.00243000  1
  H  H1  1  0.38292800  0.86910600  0.38292800  1
  H  H2  1  0.38292800  0.38292800  0.86910600  1
  H  H3  1  0.86910600  0.38292800  0.38292800  1
  C  C4  1  0.61530900  0.15819800  0.61530900  1
  C  C5  1  0.61530900  0.61530900  0.15819800  1
  C  C6  1  0.15819800  0.61530900  0.61530900  1
  O  O7  1  0.88419800  0.29040800  0.88419800  1
  O  O8  1  0.88419800  0.88419800  0.29040800  1
  O  O9  1  0.29040800  0.88419800  0.88419800  1
  O  O10  1  0.59131400  0.33636100  0.59131400  1
  O  O11  1  0.59131400  0.59131400  0.33636100  1
  O  O12  1  0.33636100  0.59131400  0.59131400  1
