# generated using pymatgen
data_NaTi2SiH4O9
_symmetry_space_group_name_H-M   'P 1'
_cell_length_a   7.96596100
_cell_length_b   7.96596100
_cell_length_c   12.32802100
_cell_angle_alpha   90.00000000
_cell_angle_beta   90.00000000
_cell_angle_gamma   90.00000000
_symmetry_Int_Tables_number   1
_chemical_formula_structural   NaTi2SiH4O9
_chemical_formula_sum   'Na4 Ti8 Si4 H16 O36'
_cell_volume   782.29349180
_cell_formula_units_Z   4
loop_
 _symmetry_equiv_pos_site_id
 _symmetry_equiv_pos_as_xyz
  1  'x, y, z'
loop_
 _atom_site_type_symbol
 _atom_site_label
 _atom_site_symmetry_multiplicity
 _atom_site_fract_x
 _atom_site_fract_y
 _atom_site_fract_z
 _atom_site_occupancy
  Na  Na0  1  0.50000000  0.00000000  0.00000000  1
  Na  Na1  1  0.50000000  0.00000000  0.50000000  1
  Na  Na2  1  0.00000000  0.50000000  0.00000000  1
  Na  Na3  1  0.00000000  0.50000000  0.50000000  1
  Ti  Ti4  1  0.85312000  0.14688000  0.35039800  1
  Ti  Ti5  1  0.14688000  0.85312000  0.35039800  1
  Ti  Ti6  1  0.85312000  0.85312000  0.85039800  1
  Ti  Ti7  1  0.14688000  0.14688000  0.85039800  1
  Ti  Ti8  1  0.85312000  0.14688000  0.64960200  1
  Ti  Ti9  1  0.14688000  0.85312000  0.64960200  1
  Ti  Ti10  1  0.85312000  0.85312000  0.14960200  1
  Ti  Ti11  1  0.14688000  0.14688000  0.14960200  1
  Si  Si12  1  0.50000000  0.00000000  0.25000000  1
  Si  Si13  1  0.50000000  0.00000000  0.75000000  1
  Si  Si14  1  0.00000000  0.50000000  0.25000000  1
  Si  Si15  1  0.00000000  0.50000000  0.75000000  1
  H  H16  1  0.78849400  0.21150600  0.06333500  1
  H  H17  1  0.21150600  0.78849400  0.06333500  1
  H  H18  1  0.78849400  0.78849400  0.56333500  1
  H  H19  1  0.21150600  0.21150600  0.56333500  1
  H  H20  1  0.78849400  0.21150600  0.93666500  1
  H  H21  1  0.21150600  0.78849400  0.93666500  1
  H  H22  1  0.78849400  0.78849400  0.43666500  1
  H  H23  1  0.21150600  0.21150600  0.43666500  1
  H  H24  1  0.40149400  0.59850600  0.53017600  1
  H  H25  1  0.59850600  0.40149400  0.53017600  1
  H  H26  1  0.40149400  0.40149400  0.03017600  1
  H  H27  1  0.59850600  0.59850600  0.03017600  1
  H  H28  1  0.40149400  0.59850600  0.46982400  1
  H  H29  1  0.59850600  0.40149400  0.46982400  1
  H  H30  1  0.40149400  0.40149400  0.96982400  1
  H  H31  1  0.59850600  0.59850600  0.96982400  1
  O  O32  1  0.62067100  0.11342900  0.32956700  1
  O  O33  1  0.37932900  0.88657100  0.32956700  1
  O  O34  1  0.62067100  0.88657100  0.82956700  1
  O  O35  1  0.37932900  0.11342900  0.82956700  1
  O  O36  1  0.62067100  0.11342900  0.67043300  1
  O  O37  1  0.37932900  0.88657100  0.67043300  1
  O  O38  1  0.62067100  0.88657100  0.17043300  1
  O  O39  1  0.37932900  0.11342900  0.17043300  1
  O  O40  1  0.11342900  0.62067100  0.32956700  1
  O  O41  1  0.88657100  0.37932900  0.32956700  1
  O  O42  1  0.88657100  0.62067100  0.82956700  1
  O  O43  1  0.11342900  0.37932900  0.82956700  1
  O  O44  1  0.11342900  0.62067100  0.67043300  1
  O  O45  1  0.88657100  0.37932900  0.67043300  1
  O  O46  1  0.88657100  0.62067100  0.17043300  1
  O  O47  1  0.11342900  0.37932900  0.17043300  1
  O  O48  1  0.89615200  0.10384800  0.17314800  1
  O  O49  1  0.10384800  0.89615200  0.17314800  1
  O  O50  1  0.89615200  0.89615200  0.67314800  1
  O  O51  1  0.10384800  0.10384800  0.67314800  1
  O  O52  1  0.89615200  0.10384800  0.82685200  1
  O  O53  1  0.10384800  0.89615200  0.82685200  1
  O  O54  1  0.89615200  0.89615200  0.32685200  1
  O  O55  1  0.10384800  0.10384800  0.32685200  1
  O  O56  1  0.85952100  0.14047900  0.50000000  1
  O  O57  1  0.14047900  0.85952100  0.50000000  1
  O  O58  1  0.85952100  0.85952100  0.00000000  1
  O  O59  1  0.14047900  0.14047900  0.00000000  1
  O  O60  1  0.73462600  0.26537400  0.00000000  1
  O  O61  1  0.26537400  0.73462600  0.00000000  1
  O  O62  1  0.73462600  0.73462600  0.50000000  1
  O  O63  1  0.26537400  0.26537400  0.50000000  1
  O  O64  1  0.50000000  0.50000000  0.29982600  1
  O  O65  1  0.50000000  0.50000000  0.79982600  1
  O  O66  1  0.50000000  0.50000000  0.70017400  1
  O  O67  1  0.50000000  0.50000000  0.20017400  1
