# generated using pymatgen
data_Na2WO6
_symmetry_space_group_name_H-M   'P 1'
_cell_length_a   8.91531900
_cell_length_b   10.62367900
_cell_length_c   12.32531800
_cell_angle_alpha   90.00000000
_cell_angle_beta   90.00000000
_cell_angle_gamma   90.00000000
_symmetry_Int_Tables_number   1
_chemical_formula_structural   Na2WO6
_chemical_formula_sum   'Na16 W8 O48'
_cell_volume   1167.37384910
_cell_formula_units_Z   8
loop_
 _symmetry_equiv_pos_site_id
 _symmetry_equiv_pos_as_xyz
  1  'x, y, z'
loop_
 _atom_site_type_symbol
 _atom_site_label
 _atom_site_symmetry_multiplicity
 _atom_site_fract_x
 _atom_site_fract_y
 _atom_site_fract_z
 _atom_site_occupancy
  Na  Na0  1  0.73787400  0.41182500  0.33882100  1
  Na  Na1  1  0.23787400  0.08817500  0.66117900  1
  Na  Na2  1  0.26212600  0.91182500  0.16117900  1
  Na  Na3  1  0.76212600  0.58817500  0.83882100  1
  Na  Na4  1  0.26212600  0.58817500  0.66117900  1
  Na  Na5  1  0.76212600  0.91182500  0.33882100  1
  Na  Na6  1  0.73787400  0.08817500  0.83882100  1
  Na  Na7  1  0.23787400  0.41182500  0.16117900  1
  Na  Na8  1  0.66940500  0.51418300  0.56179900  1
  Na  Na9  1  0.16940500  0.98581700  0.43820100  1
  Na  Na10  1  0.33059500  0.01418300  0.93820100  1
  Na  Na11  1  0.83059500  0.48581700  0.06179900  1
  Na  Na12  1  0.33059500  0.48581700  0.43820100  1
  Na  Na13  1  0.83059500  0.01418300  0.56179900  1
  Na  Na14  1  0.66940500  0.98581700  0.06179900  1
  Na  Na15  1  0.16940500  0.51418300  0.93820100  1
  W  W16  1  0.06694900  0.18820200  0.99865700  1
  W  W17  1  0.56694900  0.31179800  0.00134300  1
  W  W18  1  0.93305100  0.68820200  0.50134300  1
  W  W19  1  0.43305100  0.81179800  0.49865700  1
  W  W20  1  0.93305100  0.81179800  0.00134300  1
  W  W21  1  0.43305100  0.68820200  0.99865700  1
  W  W22  1  0.06694900  0.31179800  0.49865700  1
  W  W23  1  0.56694900  0.18820200  0.50134300  1
  O  O24  1  0.87918600  0.12381600  0.00864600  1
  O  O25  1  0.37918600  0.37618400  0.99135400  1
  O  O26  1  0.12081400  0.62381600  0.49135400  1
  O  O27  1  0.62081400  0.87618400  0.50864600  1
  O  O28  1  0.12081400  0.87618400  0.99135400  1
  O  O29  1  0.62081400  0.62381600  0.00864600  1
  O  O30  1  0.87918600  0.37618400  0.50864600  1
  O  O31  1  0.37918600  0.12381600  0.49135400  1
  O  O32  1  0.19597200  0.11461000  0.09329100  1
  O  O33  1  0.69597200  0.38539000  0.90670900  1
  O  O34  1  0.80402800  0.61461000  0.40670900  1
  O  O35  1  0.30402800  0.88539000  0.59329100  1
  O  O36  1  0.80402800  0.88539000  0.90670900  1
  O  O37  1  0.30402800  0.61461000  0.09329100  1
  O  O38  1  0.19597200  0.38539000  0.59329100  1
  O  O39  1  0.69597200  0.11461000  0.40670900  1
  O  O40  1  0.05187100  0.35697300  0.03206100  1
  O  O41  1  0.55187100  0.14302700  0.96793900  1
  O  O42  1  0.94812900  0.85697300  0.46793900  1
  O  O43  1  0.44812900  0.64302700  0.53206100  1
  O  O44  1  0.94812900  0.64302700  0.96793900  1
  O  O45  1  0.44812900  0.85697300  0.03206100  1
  O  O46  1  0.05187100  0.14302700  0.53206100  1
  O  O47  1  0.55187100  0.35697300  0.46793900  1
  O  O48  1  0.96759100  0.18996800  0.24554300  1
  O  O49  1  0.46759100  0.31003200  0.75445700  1
  O  O50  1  0.03240900  0.68996800  0.25445700  1
  O  O51  1  0.53240900  0.81003200  0.74554300  1
  O  O52  1  0.03240900  0.81003200  0.75445700  1
  O  O53  1  0.53240900  0.68996800  0.24554300  1
  O  O54  1  0.96759100  0.31003200  0.74554300  1
  O  O55  1  0.46759100  0.18996800  0.25445700  1
  O  O56  1  0.99190700  0.08553700  0.28530900  1
  O  O57  1  0.49190700  0.41446300  0.71469100  1
  O  O58  1  0.00809300  0.58553700  0.21469100  1
  O  O59  1  0.50809300  0.91446300  0.78530900  1
  O  O60  1  0.00809300  0.91446300  0.71469100  1
  O  O61  1  0.50809300  0.58553700  0.28530900  1
  O  O62  1  0.99190700  0.41446300  0.78530900  1
  O  O63  1  0.49190700  0.08553700  0.21469100  1
  O  O64  1  0.64199500  0.34595200  0.13652100  1
  O  O65  1  0.14199500  0.15404800  0.86347900  1
  O  O66  1  0.35800500  0.84595200  0.36347900  1
  O  O67  1  0.85800500  0.65404800  0.63652100  1
  O  O68  1  0.35800500  0.65404800  0.86347900  1
  O  O69  1  0.85800500  0.84595200  0.13652100  1
  O  O70  1  0.64199500  0.15404800  0.63652100  1
  O  O71  1  0.14199500  0.34595200  0.36347900  1
