# generated using pymatgen
data_Sr11In7
_symmetry_space_group_name_H-M   'P 1'
_cell_length_a   12.64280196
_cell_length_b   12.64280196
_cell_length_c   12.64280196
_cell_angle_alpha   60.00000000
_cell_angle_beta   60.00000000
_cell_angle_gamma   60.00000000
_symmetry_Int_Tables_number   1
_chemical_formula_structural   Sr11In7
_chemical_formula_sum   'Sr22 In14'
_cell_volume   1428.94333655
_cell_formula_units_Z   2
loop_
 _symmetry_equiv_pos_site_id
 _symmetry_equiv_pos_as_xyz
  1  'x, y, z'
loop_
 _atom_site_type_symbol
 _atom_site_label
 _atom_site_symmetry_multiplicity
 _atom_site_fract_x
 _atom_site_fract_y
 _atom_site_fract_z
 _atom_site_occupancy
  Sr  Sr0  1  0.66653700  0.33346300  0.00000000  1
  Sr  Sr1  1  0.66653700  0.00000000  0.00000000  1
  Sr  Sr2  1  0.11242400  0.62919200  0.62919200  1
  Sr  Sr3  1  0.00000000  0.66653700  0.33346300  1
  Sr  Sr4  1  0.00000000  0.33346300  0.66653700  1
  Sr  Sr5  1  0.37080800  0.37080800  0.37080800  1
  Sr  Sr6  1  0.00000000  0.66653700  0.00000000  1
  Sr  Sr7  1  0.62919200  0.62919200  0.11242400  1
  Sr  Sr8  1  0.00000000  0.00000000  0.66653700  1
  Sr  Sr9  1  0.62919200  0.11242400  0.62919200  1
  Sr  Sr10  1  0.00000000  0.00000000  0.33346300  1
  Sr  Sr11  1  0.33346300  0.00000000  0.00000000  1
  Sr  Sr12  1  0.00000000  0.33346300  0.00000000  1
  Sr  Sr13  1  0.66653700  0.00000000  0.33346300  1
  Sr  Sr14  1  0.50000000  0.50000000  0.50000000  1
  Sr  Sr15  1  0.37080800  0.88757600  0.37080800  1
  Sr  Sr16  1  0.37080800  0.37080800  0.88757600  1
  Sr  Sr17  1  0.33346300  0.66653700  0.00000000  1
  Sr  Sr18  1  0.33346300  0.00000000  0.66653700  1
  Sr  Sr19  1  0.62919200  0.62919200  0.62919200  1
  Sr  Sr20  1  0.00000000  0.00000000  0.00000000  1
  Sr  Sr21  1  0.88757600  0.37080800  0.37080800  1
  In  In22  1  0.28187700  0.28187700  0.71812300  1
  In  In23  1  0.71812300  0.71812300  0.28187700  1
  In  In24  1  0.81070400  0.56788800  0.81070400  1
  In  In25  1  0.71812300  0.28187700  0.28187700  1
  In  In26  1  0.43211200  0.18929600  0.18929600  1
  In  In27  1  0.28187700  0.71812300  0.71812300  1
  In  In28  1  0.18929600  0.18929600  0.18929600  1
  In  In29  1  0.18929600  0.43211200  0.18929600  1
  In  In30  1  0.56788800  0.81070400  0.81070400  1
  In  In31  1  0.81070400  0.81070400  0.81070400  1
  In  In32  1  0.71812300  0.28187700  0.71812300  1
  In  In33  1  0.18929600  0.18929600  0.43211200  1
  In  In34  1  0.28187700  0.71812300  0.28187700  1
  In  In35  1  0.81070400  0.81070400  0.56788800  1
