# generated using pymatgen
data_CuH6(NO)4
_symmetry_space_group_name_H-M   'P 1'
_cell_length_a   4.44714100
_cell_length_b   5.67336053
_cell_length_c   6.15778627
_cell_angle_alpha   79.49483865
_cell_angle_beta   76.46323935
_cell_angle_gamma   79.96201078
_symmetry_Int_Tables_number   1
_chemical_formula_structural   CuH6(NO)4
_chemical_formula_sum   'Cu1 H6 N4 O4'
_cell_volume   147.10002574
_cell_formula_units_Z   1
loop_
 _symmetry_equiv_pos_site_id
 _symmetry_equiv_pos_as_xyz
  1  'x, y, z'
loop_
 _atom_site_type_symbol
 _atom_site_label
 _atom_site_symmetry_multiplicity
 _atom_site_fract_x
 _atom_site_fract_y
 _atom_site_fract_z
 _atom_site_occupancy
  Cu  Cu0  1  0.00000000  0.00000000  0.00000000  1
  H  H1  1  0.86940800  0.20930200  0.61880700  1
  H  H2  1  0.13059200  0.79069800  0.38119300  1
  H  H3  1  0.86573900  0.41779800  0.77542800  1
  H  H4  1  0.13426100  0.58220200  0.22457200  1
  H  H5  1  0.79875000  0.72183700  0.35405300  1
  H  H6  1  0.20125000  0.27816300  0.64594700  1
  N  N7  1  0.60583500  0.18932200  0.18399800  1
  N  N8  1  0.39416500  0.81067800  0.81600200  1
  N  N9  1  0.02067800  0.74608800  0.26821700  1
  N  N10  1  0.97932200  0.25391200  0.73178300  1
  O  O11  1  0.64173300  0.75057700  0.88997700  1
  O  O12  1  0.35826700  0.24942300  0.11002300  1
  O  O13  1  0.62055000  0.26075200  0.36234200  1
  O  O14  1  0.37945000  0.73924800  0.63765800  1
