# generated using pymatgen
data_Ba3NaBiO6
_symmetry_space_group_name_H-M   'P 1'
_cell_length_a   10.12032802
_cell_length_b   10.12032802
_cell_length_c   6.67055161
_cell_angle_alpha   85.46459529
_cell_angle_beta   85.46459529
_cell_angle_gamma   121.89796456
_symmetry_Int_Tables_number   1
_chemical_formula_structural   Ba3NaBiO6
_chemical_formula_sum   'Ba6 Na2 Bi2 O12'
_cell_volume   572.29198791
_cell_formula_units_Z   2
loop_
 _symmetry_equiv_pos_site_id
 _symmetry_equiv_pos_as_xyz
  1  'x, y, z'
loop_
 _atom_site_type_symbol
 _atom_site_label
 _atom_site_symmetry_multiplicity
 _atom_site_fract_x
 _atom_site_fract_y
 _atom_site_fract_z
 _atom_site_occupancy
  Ba  Ba0  1  0.56171700  0.82979900  0.25157600  1
  Ba  Ba1  1  0.28896900  0.71103100  0.75000000  1
  Ba  Ba2  1  0.17020100  0.43828300  0.24842400  1
  Ba  Ba3  1  0.43828300  0.17020100  0.74842400  1
  Ba  Ba4  1  0.71103100  0.28896900  0.25000000  1
  Ba  Ba5  1  0.82979900  0.56171700  0.75157600  1
  Na  Na6  1  0.52445400  0.47554600  0.25000000  1
  Na  Na7  1  0.47554600  0.52445400  0.75000000  1
  Bi  Bi8  1  0.00000000  0.00000000  0.50000000  1
  Bi  Bi9  1  0.00000000  0.00000000  0.00000000  1
  O  O10  1  0.62949900  0.40667600  0.50891000  1
  O  O11  1  0.82655100  0.85146100  0.28941400  1
  O  O12  1  0.01152600  0.56022700  0.06925800  1
  O  O13  1  0.37050100  0.59332400  0.49109000  1
  O  O14  1  0.17344900  0.14853900  0.71058600  1
  O  O15  1  0.98847400  0.43977300  0.93074200  1
  O  O16  1  0.85146100  0.82655100  0.78941400  1
  O  O17  1  0.56022700  0.01152600  0.56925800  1
  O  O18  1  0.40667600  0.62949900  0.00891000  1
  O  O19  1  0.14853900  0.17344900  0.21058600  1
  O  O20  1  0.43977300  0.98847400  0.43074200  1
  O  O21  1  0.59332400  0.37050100  0.99109000  1
