# generated using pymatgen
data_Mg(Hg11N3)2
_symmetry_space_group_name_H-M   'P 1'
_cell_length_a   11.45427325
_cell_length_b   11.45427325
_cell_length_c   11.45427325
_cell_angle_alpha   136.56118541
_cell_angle_beta   136.56118541
_cell_angle_gamma   63.11391677
_symmetry_Int_Tables_number   1
_chemical_formula_structural   Mg(Hg11N3)2
_chemical_formula_sum   'Mg1 Hg22 N6'
_cell_volume   701.47343790
_cell_formula_units_Z   1
loop_
 _symmetry_equiv_pos_site_id
 _symmetry_equiv_pos_as_xyz
  1  'x, y, z'
loop_
 _atom_site_type_symbol
 _atom_site_label
 _atom_site_symmetry_multiplicity
 _atom_site_fract_x
 _atom_site_fract_y
 _atom_site_fract_z
 _atom_site_occupancy
  Mg  Mg0  1  0.00000000  0.00000000  0.00000000  1
  Hg  Hg1  1  0.71728300  0.71728300  0.00000000  1
  Hg  Hg2  1  0.28271700  0.28271700  0.00000000  1
  Hg  Hg3  1  0.91714100  0.50661400  0.26768900  1
  Hg  Hg4  1  0.23892500  0.64945200  0.73231100  1
  Hg  Hg5  1  0.64945200  0.91714100  0.41052700  1
  Hg  Hg6  1  0.50661400  0.23892500  0.58947300  1
  Hg  Hg7  1  0.08285900  0.49338600  0.73231100  1
  Hg  Hg8  1  0.76107500  0.35054800  0.26768900  1
  Hg  Hg9  1  0.35054800  0.08285900  0.58947300  1
  Hg  Hg10  1  0.49338600  0.76107500  0.41052700  1
  Hg  Hg11  1  0.88201300  0.26208800  0.86131200  1
  Hg  Hg12  1  0.40077600  0.02070000  0.13868800  1
  Hg  Hg13  1  0.02070000  0.88201300  0.61992400  1
  Hg  Hg14  1  0.26208800  0.40077600  0.38007600  1
  Hg  Hg15  1  0.11798700  0.73791200  0.13868800  1
  Hg  Hg16  1  0.59922400  0.97930000  0.86131200  1
  Hg  Hg17  1  0.97930000  0.11798700  0.38007600  1
  Hg  Hg18  1  0.73791200  0.59922400  0.61992400  1
  Hg  Hg19  1  0.57423200  0.57423200  0.00000000  1
  Hg  Hg20  1  0.42576800  0.42576800  0.00000000  1
  Hg  Hg21  1  0.25000000  0.75000000  0.50000000  1
  Hg  Hg22  1  0.75000000  0.25000000  0.50000000  1
  N  N23  1  0.83104500  0.83104500  0.00000000  1
  N  N24  1  0.16895500  0.16895500  0.00000000  1
  N  N25  1  0.10120300  0.75483600  0.85603900  1
  N  N26  1  0.89879700  0.24516400  0.14396100  1
  N  N27  1  0.24516400  0.10120300  0.34636800  1
  N  N28  1  0.75483600  0.89879700  0.65363200  1
