# generated using pymatgen
data_Na3(CO4)2
_symmetry_space_group_name_H-M   'P 1'
_cell_length_a   10.76193232
_cell_length_b   10.76193232
_cell_length_c   9.82985483
_cell_angle_alpha   65.71903022
_cell_angle_beta   65.71903022
_cell_angle_gamma   18.84797612
_symmetry_Int_Tables_number   1
_chemical_formula_structural   Na3(CO4)2
_chemical_formula_sum   'Na6 C4 O16'
_cell_volume   334.32072095
_cell_formula_units_Z   2
loop_
 _symmetry_equiv_pos_site_id
 _symmetry_equiv_pos_as_xyz
  1  'x, y, z'
loop_
 _atom_site_type_symbol
 _atom_site_label
 _atom_site_symmetry_multiplicity
 _atom_site_fract_x
 _atom_site_fract_y
 _atom_site_fract_z
 _atom_site_occupancy
  Na  Na0  1  0.19031000  0.80969000  0.75000000  1
  Na  Na1  1  0.80969000  0.19031000  0.25000000  1
  Na  Na2  1  0.09514200  0.25100100  0.64070500  1
  Na  Na3  1  0.74899900  0.90485800  0.85929500  1
  Na  Na4  1  0.90485800  0.74899900  0.35929500  1
  Na  Na5  1  0.25100100  0.09514200  0.14070500  1
  C  C6  1  0.80102700  0.40097200  0.44324500  1
  C  C7  1  0.59902800  0.19897300  0.05675500  1
  C  C8  1  0.19897300  0.59902800  0.55675500  1
  C  C9  1  0.40097200  0.80102700  0.94324500  1
  O  O10  1  0.71511300  0.62700400  0.35976000  1
  O  O11  1  0.37299600  0.28488700  0.14024000  1
  O  O12  1  0.28488700  0.37299600  0.64024000  1
  O  O13  1  0.62700400  0.71511300  0.85976000  1
  O  O14  1  0.90422100  0.25510400  0.35152400  1
  O  O15  1  0.74489600  0.09577900  0.14847600  1
  O  O16  1  0.09577900  0.74489600  0.64847600  1
  O  O17  1  0.25510400  0.90422100  0.85152400  1
  O  O18  1  0.76916000  0.38373700  0.58224500  1
  O  O19  1  0.61626300  0.23084000  0.91775500  1
  O  O20  1  0.23084000  0.61626300  0.41775500  1
  O  O21  1  0.38373700  0.76916000  0.08224500  1
  O  O22  1  0.64406200  0.76683000  0.44841200  1
  O  O23  1  0.23317000  0.35593800  0.05158800  1
  O  O24  1  0.35593800  0.23317000  0.55158800  1
  O  O25  1  0.76683000  0.64406200  0.94841200  1
