# generated using pymatgen
data_CuAg3S2
_symmetry_space_group_name_H-M   'P 1'
_cell_length_a   8.54906506
_cell_length_b   8.54906506
_cell_length_c   8.54906506
_cell_angle_alpha   118.30031756
_cell_angle_beta   118.30031756
_cell_angle_gamma   92.97004325
_symmetry_Int_Tables_number   1
_chemical_formula_structural   CuAg3S2
_chemical_formula_sum   'Cu4 Ag12 S8'
_cell_volume   452.50830300
_cell_formula_units_Z   4
loop_
 _symmetry_equiv_pos_site_id
 _symmetry_equiv_pos_as_xyz
  1  'x, y, z'
loop_
 _atom_site_type_symbol
 _atom_site_label
 _atom_site_symmetry_multiplicity
 _atom_site_fract_x
 _atom_site_fract_y
 _atom_site_fract_z
 _atom_site_occupancy
  Cu  Cu0  1  0.34484500  0.34484500  0.00000000  1
  Cu  Cu1  1  0.65515500  0.65515500  0.00000000  1
  Cu  Cu2  1  0.09484500  0.59484500  0.50000000  1
  Cu  Cu3  1  0.40515500  0.90515500  0.50000000  1
  Ag  Ag4  1  0.42416600  0.55082800  0.43537200  1
  Ag  Ag5  1  0.11545600  0.98879500  0.56462800  1
  Ag  Ag6  1  0.44917200  0.88454400  0.87333800  1
  Ag  Ag7  1  0.32583400  0.69917200  0.06462800  1
  Ag  Ag8  1  0.30082800  0.36545600  0.62666200  1
  Ag  Ag9  1  0.01120500  0.57583400  0.12666200  1
  Ag  Ag10  1  0.87500000  0.12500000  0.25000000  1
  Ag  Ag11  1  0.63454400  0.26120500  0.93537200  1
  Ag  Ag12  1  0.73879500  0.67416600  0.37333800  1
  Ag  Ag13  1  0.87500000  0.12500000  0.75000000  1
  Ag  Ag14  1  0.87500000  0.62500000  0.75000000  1
  Ag  Ag15  1  0.37500000  0.12500000  0.25000000  1
  S  S16  1  0.65923900  0.89770900  0.73684800  1
  S  S17  1  0.07760900  0.34076100  0.23847000  1
  S  S18  1  0.67239100  0.90923900  0.26153000  1
  S  S19  1  0.64770900  0.41086100  0.73847000  1
  S  S20  1  0.10229100  0.83913900  0.76153000  1
  S  S21  1  0.58913900  0.32760900  0.23684800  1
  S  S22  1  0.16086100  0.92239100  0.26315200  1
  S  S23  1  0.09076100  0.35229100  0.76315200  1
