# generated using pymatgen
data_Dy3(Ge3Pt2)2
_symmetry_space_group_name_H-M   'P 1'
_cell_length_a   4.34664200
_cell_length_b   8.80429900
_cell_length_c   26.24637500
_cell_angle_alpha   90.00000000
_cell_angle_beta   90.00000000
_cell_angle_gamma   90.00000000
_symmetry_Int_Tables_number   1
_chemical_formula_structural   Dy3(Ge3Pt2)2
_chemical_formula_sum   'Dy12 Ge24 Pt16'
_cell_volume   1004.42608950
_cell_formula_units_Z   4
loop_
 _symmetry_equiv_pos_site_id
 _symmetry_equiv_pos_as_xyz
  1  'x, y, z'
loop_
 _atom_site_type_symbol
 _atom_site_label
 _atom_site_symmetry_multiplicity
 _atom_site_fract_x
 _atom_site_fract_y
 _atom_site_fract_z
 _atom_site_occupancy
  Dy  Dy0  1  0.75000000  0.37471200  0.78030300  1
  Dy  Dy1  1  0.75000000  0.13542600  0.90587000  1
  Dy  Dy2  1  0.75000000  0.61330900  0.90688800  1
  Dy  Dy3  1  0.75000000  0.88669100  0.40688800  1
  Dy  Dy4  1  0.75000000  0.12528800  0.28030300  1
  Dy  Dy5  1  0.75000000  0.36457400  0.40587000  1
  Dy  Dy6  1  0.25000000  0.11330900  0.59311200  1
  Dy  Dy7  1  0.25000000  0.62528800  0.21969700  1
  Dy  Dy8  1  0.25000000  0.63542600  0.59413000  1
  Dy  Dy9  1  0.25000000  0.87471200  0.71969700  1
  Dy  Dy10  1  0.25000000  0.86457400  0.09413000  1
  Dy  Dy11  1  0.25000000  0.38669100  0.09311200  1
  Ge  Ge12  1  0.25000000  0.12167700  0.00149800  1
  Ge  Ge13  1  0.75000000  0.87404900  0.63855100  1
  Ge  Ge14  1  0.75000000  0.12694100  0.14248300  1
  Ge  Ge15  1  0.25000000  0.37404900  0.86144900  1
  Ge  Ge16  1  0.25000000  0.27293100  0.21614300  1
  Ge  Ge17  1  0.75000000  0.87832300  0.99850200  1
  Ge  Ge18  1  0.75000000  0.12875600  0.50303600  1
  Ge  Ge19  1  0.25000000  0.12595100  0.36144900  1
  Ge  Ge20  1  0.75000000  0.77293100  0.28385700  1
  Ge  Ge21  1  0.25000000  0.87305900  0.85751700  1
  Ge  Ge22  1  0.25000000  0.97727700  0.21645300  1
  Ge  Ge23  1  0.25000000  0.52272300  0.71645300  1
  Ge  Ge24  1  0.75000000  0.62167700  0.49850200  1
  Ge  Ge25  1  0.75000000  0.62595100  0.13855100  1
  Ge  Ge26  1  0.25000000  0.22706900  0.71614300  1
  Ge  Ge27  1  0.75000000  0.37305900  0.64248300  1
  Ge  Ge28  1  0.25000000  0.62694100  0.35751700  1
  Ge  Ge29  1  0.75000000  0.02272300  0.78354700  1
  Ge  Ge30  1  0.75000000  0.72706900  0.78385700  1
  Ge  Ge31  1  0.75000000  0.37124400  0.00303600  1
  Ge  Ge32  1  0.25000000  0.37832300  0.50149800  1
  Ge  Ge33  1  0.25000000  0.62875600  0.99696400  1
  Ge  Ge34  1  0.75000000  0.47727700  0.28354700  1
  Ge  Ge35  1  0.25000000  0.87124400  0.49696400  1
  Pt  Pt36  1  0.25000000  0.62090500  0.44962600  1
  Pt  Pt37  1  0.25000000  0.62228300  0.81272800  1
  Pt  Pt38  1  0.25000000  0.87771700  0.31272800  1
  Pt  Pt39  1  0.75000000  0.12228300  0.68727200  1
  Pt  Pt40  1  0.25000000  0.12615900  0.81262900  1
  Pt  Pt41  1  0.75000000  0.62925600  0.04487900  1
  Pt  Pt42  1  0.25000000  0.37074400  0.95512100  1
  Pt  Pt43  1  0.25000000  0.37384100  0.31262900  1
  Pt  Pt44  1  0.75000000  0.62615900  0.68737100  1
  Pt  Pt45  1  0.25000000  0.87909500  0.94962600  1
  Pt  Pt46  1  0.75000000  0.37909500  0.55037400  1
  Pt  Pt47  1  0.25000000  0.12925600  0.45512100  1
  Pt  Pt48  1  0.75000000  0.87384100  0.18737100  1
  Pt  Pt49  1  0.75000000  0.12090500  0.05037400  1
  Pt  Pt50  1  0.75000000  0.87074400  0.54487900  1
  Pt  Pt51  1  0.75000000  0.37771700  0.18727200  1
