# generated using pymatgen
data_Zr4AlNi2
_symmetry_space_group_name_H-M   'P 1'
_cell_length_a   9.35415439
_cell_length_b   9.35415439
_cell_length_c   9.35415439
_cell_angle_alpha   60.00000000
_cell_angle_beta   60.00000000
_cell_angle_gamma   60.00000000
_symmetry_Int_Tables_number   1
_chemical_formula_structural   Zr4AlNi2
_chemical_formula_sum   'Zr16 Al4 Ni8'
_cell_volume   578.76012641
_cell_formula_units_Z   4
loop_
 _symmetry_equiv_pos_site_id
 _symmetry_equiv_pos_as_xyz
  1  'x, y, z'
loop_
 _atom_site_type_symbol
 _atom_site_label
 _atom_site_symmetry_multiplicity
 _atom_site_fract_x
 _atom_site_fract_y
 _atom_site_fract_z
 _atom_site_occupancy
  Zr  Zr0  1  0.73172300  0.26827700  0.73172300  1
  Zr  Zr1  1  0.12500000  0.12500000  0.12500000  1
  Zr  Zr2  1  0.98172300  0.98172300  0.51827700  1
  Zr  Zr3  1  0.26827700  0.26827700  0.73172300  1
  Zr  Zr4  1  0.98172300  0.51827700  0.51827700  1
  Zr  Zr5  1  0.26827700  0.73172300  0.73172300  1
  Zr  Zr6  1  0.51827700  0.98172300  0.51827700  1
  Zr  Zr7  1  0.73172300  0.26827700  0.26827700  1
  Zr  Zr8  1  0.73172300  0.73172300  0.26827700  1
  Zr  Zr9  1  0.98172300  0.51827700  0.98172300  1
  Zr  Zr10  1  0.51827700  0.51827700  0.98172300  1
  Zr  Zr11  1  0.62500000  0.12500000  0.12500000  1
  Zr  Zr12  1  0.12500000  0.62500000  0.12500000  1
  Zr  Zr13  1  0.12500000  0.12500000  0.62500000  1
  Zr  Zr14  1  0.26827700  0.73172300  0.26827700  1
  Zr  Zr15  1  0.51827700  0.98172300  0.98172300  1
  Al  Al16  1  0.12500000  0.62500000  0.62500000  1
  Al  Al17  1  0.62500000  0.62500000  0.12500000  1
  Al  Al18  1  0.62500000  0.12500000  0.62500000  1
  Al  Al19  1  0.62500000  0.62500000  0.62500000  1
  Ni  Ni20  1  0.21688000  0.92770700  0.92770700  1
  Ni  Ni21  1  0.32229300  0.03312000  0.32229300  1
  Ni  Ni22  1  0.92770700  0.92770700  0.92770700  1
  Ni  Ni23  1  0.32229300  0.32229300  0.03312000  1
  Ni  Ni24  1  0.92770700  0.92770700  0.21688000  1
  Ni  Ni25  1  0.32229300  0.32229300  0.32229300  1
  Ni  Ni26  1  0.92770700  0.21688000  0.92770700  1
  Ni  Ni27  1  0.03312000  0.32229300  0.32229300  1
