# generated using pymatgen
data_CdH2(CO2)2
_symmetry_space_group_name_H-M   'P 1'
_cell_length_a   6.82855452
_cell_length_b   6.82855452
_cell_length_c   12.62119160
_cell_angle_alpha   69.69271005
_cell_angle_beta   69.69271005
_cell_angle_gamma   55.50210222
_symmetry_Int_Tables_number   1
_chemical_formula_structural   CdH2(CO2)2
_chemical_formula_sum   'Cd4 H8 C8 O16'
_cell_volume   446.17110715
_cell_formula_units_Z   4
loop_
 _symmetry_equiv_pos_site_id
 _symmetry_equiv_pos_as_xyz
  1  'x, y, z'
loop_
 _atom_site_type_symbol
 _atom_site_label
 _atom_site_symmetry_multiplicity
 _atom_site_fract_x
 _atom_site_fract_y
 _atom_site_fract_z
 _atom_site_occupancy
  Cd  Cd0  1  0.17570000  0.19301000  0.44946000  1
  Cd  Cd1  1  0.80699000  0.82430000  0.05054000  1
  Cd  Cd2  1  0.82430000  0.80699000  0.55054000  1
  Cd  Cd3  1  0.19301000  0.17570000  0.94946000  1
  H  H4  1  0.82810600  0.93015400  0.27362000  1
  H  H5  1  0.06984600  0.17189400  0.22638000  1
  H  H6  1  0.17189400  0.06984600  0.72638000  1
  H  H7  1  0.93015400  0.82810600  0.77362000  1
  H  H8  1  0.44719000  0.49634300  0.63791700  1
  H  H9  1  0.50365700  0.55281000  0.86208300  1
  H  H10  1  0.55281000  0.50365700  0.36208300  1
  H  H11  1  0.49634300  0.44719000  0.13791700  1
  C  C12  1  0.93364500  0.73018700  0.28878200  1
  C  C13  1  0.26981300  0.06635500  0.21121800  1
  C  C14  1  0.06635500  0.26981300  0.71121800  1
  C  C15  1  0.73018700  0.93364500  0.78878200  1
  C  C16  1  0.36773300  0.68713600  0.59128300  1
  C  C17  1  0.31286400  0.63226700  0.90871700  1
  C  C18  1  0.63226700  0.31286400  0.40871700  1
  C  C19  1  0.68713600  0.36773300  0.09128300  1
  O  O20  1  0.99485300  0.62295900  0.38738900  1
  O  O21  1  0.37704100  0.00514700  0.11261100  1
  O  O22  1  0.00514700  0.37704100  0.61261100  1
  O  O23  1  0.62295900  0.99485300  0.88738900  1
  O  O24  1  0.98616200  0.62174000  0.21128100  1
  O  O25  1  0.37826000  0.01383800  0.28871900  1
  O  O26  1  0.01383800  0.37826000  0.78871900  1
  O  O27  1  0.62174000  0.98616200  0.71128100  1
  O  O28  1  0.17245400  0.78534700  0.55660800  1
  O  O29  1  0.21465300  0.82754600  0.94339200  1
  O  O30  1  0.82754600  0.21465300  0.44339200  1
  O  O31  1  0.78534700  0.17245500  0.05660800  1
  O  O32  1  0.47091800  0.80513700  0.57369700  1
  O  O33  1  0.19486300  0.52908200  0.92630300  1
  O  O34  1  0.52908200  0.19486300  0.42630300  1
  O  O35  1  0.80513700  0.47091800  0.07369700  1
