# generated using pymatgen
data_Rb2MgH4
_symmetry_space_group_name_H-M   'P 1'
_cell_length_a   7.31633100
_cell_length_b   10.83239800
_cell_length_c   13.22205000
_cell_angle_alpha   90.00000000
_cell_angle_beta   90.00000000
_cell_angle_gamma   90.00000000
_symmetry_Int_Tables_number   1
_chemical_formula_structural   Rb2MgH4
_chemical_formula_sum   'Rb8 Mg4 H16'
_cell_volume   1047.89254033
_cell_formula_units_Z   4
loop_
 _symmetry_equiv_pos_site_id
 _symmetry_equiv_pos_as_xyz
  1  'x, y, z'
loop_
 _atom_site_type_symbol
 _atom_site_label
 _atom_site_symmetry_multiplicity
 _atom_site_fract_x
 _atom_site_fract_y
 _atom_site_fract_z
 _atom_site_occupancy
  Rb  Rb0  1  0.25000000  0.11782300  0.05922700  1
  Rb  Rb1  1  0.25000000  0.61782300  0.44077300  1
  Rb  Rb2  1  0.75000000  0.88217700  0.94077300  1
  Rb  Rb3  1  0.75000000  0.38217700  0.55922700  1
  Rb  Rb4  1  0.25000000  0.43174100  0.81612000  1
  Rb  Rb5  1  0.25000000  0.93174100  0.68388000  1
  Rb  Rb6  1  0.75000000  0.56825900  0.18388000  1
  Rb  Rb7  1  0.75000000  0.06825900  0.31612000  1
  Mg  Mg8  1  0.25000000  0.77287400  0.92748100  1
  Mg  Mg9  1  0.25000000  0.27287400  0.57251900  1
  Mg  Mg10  1  0.75000000  0.22712600  0.07251900  1
  Mg  Mg11  1  0.75000000  0.72712600  0.42748100  1
  H  H12  1  0.25000000  0.60671000  0.95587100  1
  H  H13  1  0.25000000  0.10671000  0.54412900  1
  H  H14  1  0.75000000  0.39329000  0.04412900  1
  H  H15  1  0.75000000  0.89329000  0.45587100  1
  H  H16  1  0.25000000  0.87106700  0.04228700  1
  H  H17  1  0.25000000  0.37106700  0.45771300  1
  H  H18  1  0.75000000  0.12893300  0.95771300  1
  H  H19  1  0.75000000  0.62893300  0.54228700  1
  H  H20  1  0.05631400  0.82101900  0.84288000  1
  H  H21  1  0.44368600  0.32101900  0.65712000  1
  H  H22  1  0.55631400  0.17898100  0.15712000  1
  H  H23  1  0.94368600  0.67898100  0.34288000  1
  H  H24  1  0.94368600  0.17898100  0.15712000  1
  H  H25  1  0.55631400  0.67898100  0.34288000  1
  H  H26  1  0.44368600  0.82101900  0.84288000  1
  H  H27  1  0.05631400  0.32101900  0.65712000  1
