# generated using pymatgen
data_Na2Sn(H2N)6
_symmetry_space_group_name_H-M   'P 1'
_cell_length_a   8.31919048
_cell_length_b   8.31919048
_cell_length_c   8.31919051
_cell_angle_alpha   37.56226026
_cell_angle_beta   37.56226026
_cell_angle_gamma   37.56226205
_symmetry_Int_Tables_number   1
_chemical_formula_structural   Na2Sn(H2N)6
_chemical_formula_sum   'Na2 Sn1 H12 N6'
_cell_volume   191.92123715
_cell_formula_units_Z   1
loop_
 _symmetry_equiv_pos_site_id
 _symmetry_equiv_pos_as_xyz
  1  'x, y, z'
loop_
 _atom_site_type_symbol
 _atom_site_label
 _atom_site_symmetry_multiplicity
 _atom_site_fract_x
 _atom_site_fract_y
 _atom_site_fract_z
 _atom_site_occupancy
  Na  Na0  1  0.20440600  0.20440600  0.20440600  1
  Na  Na1  1  0.79559400  0.79559400  0.79559400  1
  Sn  Sn2  1  0.00000000  0.00000000  0.00000000  1
  H  H3  1  0.54093500  0.36395200  0.35853000  1
  H  H4  1  0.36395200  0.35853000  0.54093500  1
  H  H5  1  0.35853000  0.54093500  0.36395200  1
  H  H6  1  0.45906500  0.63604800  0.64147000  1
  H  H7  1  0.63604800  0.64147000  0.45906500  1
  H  H8  1  0.64147000  0.45906500  0.63604800  1
  H  H9  1  0.43466400  0.57637100  0.99889300  1
  H  H10  1  0.57637100  0.99889300  0.43466400  1
  H  H11  1  0.99889300  0.43466400  0.57637100  1
  H  H12  1  0.56533600  0.42362900  0.00110700  1
  H  H13  1  0.42362900  0.00110700  0.56533600  1
  H  H14  1  0.00110700  0.56533600  0.42362900  1
  N  N15  1  0.91867800  0.20369900  0.18938100  1
  N  N16  1  0.20369900  0.18938100  0.91867800  1
  N  N17  1  0.18938100  0.91867800  0.20369900  1
  N  N18  1  0.08132200  0.79630100  0.81061900  1
  N  N19  1  0.79630100  0.81061900  0.08132200  1
  N  N20  1  0.81061900  0.08132200  0.79630100  1
