# generated using pymatgen
data_K10Hf3Mo12PbO48
_symmetry_space_group_name_H-M   'P 1'
_cell_length_a   15.81019038
_cell_length_b   15.81019038
_cell_length_c   15.81019074
_cell_angle_alpha   37.85591494
_cell_angle_beta   37.85591494
_cell_angle_gamma   37.85591425
_symmetry_Int_Tables_number   1
_chemical_formula_structural   K10Hf3Mo12PbO48
_chemical_formula_sum   'K10 Hf3 Mo12 Pb1 O48'
_cell_volume   1335.61720437
_cell_formula_units_Z   1
loop_
 _symmetry_equiv_pos_site_id
 _symmetry_equiv_pos_as_xyz
  1  'x, y, z'
loop_
 _atom_site_type_symbol
 _atom_site_label
 _atom_site_symmetry_multiplicity
 _atom_site_fract_x
 _atom_site_fract_y
 _atom_site_fract_z
 _atom_site_occupancy
  K  K0  1  0.21043700  0.62316500  0.89180800  1
  K  K1  1  0.62316500  0.89180800  0.21043700  1
  K  K2  1  0.37683500  0.10819200  0.78956300  1
  K  K3  1  0.37608900  0.37608900  0.37608900  1
  K  K4  1  0.89180800  0.21043700  0.62316500  1
  K  K5  1  0.78956300  0.37683500  0.10819200  1
  K  K6  1  0.83485500  0.83485500  0.83485500  1
  K  K7  1  0.16514500  0.16514500  0.16514500  1
  K  K8  1  0.10819200  0.78956300  0.37683500  1
  K  K9  1  0.62391100  0.62391100  0.62391100  1
  Hf  Hf10  1  0.74385700  0.74385700  0.74385700  1
  Hf  Hf11  1  0.00000000  0.00000000  0.00000000  1
  Hf  Hf12  1  0.25614300  0.25614300  0.25614300  1
  Mo  Mo13  1  0.49977500  0.76819500  0.10995300  1
  Mo  Mo14  1  0.62547200  0.24340800  0.04962400  1
  Mo  Mo15  1  0.76819500  0.10995300  0.49977500  1
  Mo  Mo16  1  0.23180500  0.89004700  0.50022500  1
  Mo  Mo17  1  0.89004700  0.50022500  0.23180500  1
  Mo  Mo18  1  0.24340800  0.04962400  0.62547200  1
  Mo  Mo19  1  0.95037600  0.37452800  0.75659200  1
  Mo  Mo20  1  0.04962400  0.62547200  0.24340800  1
  Mo  Mo21  1  0.50022500  0.23180500  0.89004700  1
  Mo  Mo22  1  0.75659200  0.95037600  0.37452800  1
  Mo  Mo23  1  0.37452800  0.75659200  0.95037600  1
  Mo  Mo24  1  0.10995300  0.49977500  0.76819500  1
  Pb  Pb25  1  0.50000000  0.50000000  0.50000000  1
  O  O26  1  0.69629800  0.96205300  0.67275600  1
  O  O27  1  0.03144400  0.94963300  0.62155400  1
  O  O28  1  0.05036700  0.37844600  0.96855600  1
  O  O29  1  0.19288500  0.89613000  0.73088000  1
  O  O30  1  0.94963300  0.62155400  0.03144400  1
  O  O31  1  0.82690700  0.80883400  0.52527000  1
  O  O32  1  0.26912000  0.80711500  0.10387000  1
  O  O33  1  0.87759500  0.59495500  0.34329800  1
  O  O34  1  0.30886200  0.41544900  0.65025500  1
  O  O35  1  0.47473000  0.17309300  0.19116600  1
  O  O36  1  0.34974500  0.69113800  0.58455100  1
  O  O37  1  0.70868300  0.88041000  0.35733500  1
  O  O38  1  0.11959000  0.64266500  0.29131700  1
  O  O39  1  0.80883400  0.52527000  0.82690700  1
  O  O40  1  0.64266500  0.29131700  0.11959000  1
  O  O41  1  0.83848200  0.74607600  0.39845600  1
  O  O42  1  0.29131700  0.11959000  0.64266500  1
  O  O43  1  0.40504500  0.65670200  0.12240500  1
  O  O44  1  0.80711500  0.10387000  0.26912000  1
  O  O45  1  0.37844600  0.96855600  0.05036700  1
  O  O46  1  0.12240500  0.40504500  0.65670200  1
  O  O47  1  0.19116600  0.47473000  0.17309300  1
  O  O48  1  0.41544900  0.65025500  0.30886200  1
  O  O49  1  0.16151800  0.25392400  0.60154400  1
  O  O50  1  0.52527000  0.82690700  0.80883400  1
  O  O51  1  0.58455100  0.34974500  0.69113800  1
  O  O52  1  0.10387000  0.26912000  0.80711500  1
  O  O53  1  0.67275600  0.69629800  0.96205300  1
  O  O54  1  0.25392400  0.60154400  0.16151800  1
  O  O55  1  0.65025500  0.30886200  0.41544900  1
  O  O56  1  0.32724400  0.30370200  0.03794700  1
  O  O57  1  0.96855600  0.05036700  0.37844600  1
  O  O58  1  0.30370200  0.03794700  0.32724400  1
  O  O59  1  0.88041000  0.35733500  0.70868300  1
  O  O60  1  0.17309300  0.19116600  0.47473000  1
  O  O61  1  0.69113800  0.58455100  0.34974500  1
  O  O62  1  0.60154400  0.16151800  0.25392400  1
  O  O63  1  0.65670200  0.12240500  0.40504500  1
  O  O64  1  0.39845600  0.83848200  0.74607600  1
  O  O65  1  0.35733500  0.70868300  0.88041000  1
  O  O66  1  0.62155400  0.03144400  0.94963300  1
  O  O67  1  0.03794700  0.32724400  0.30370200  1
  O  O68  1  0.59495500  0.34329800  0.87759500  1
  O  O69  1  0.96205300  0.67275600  0.69629800  1
  O  O70  1  0.89613000  0.73088000  0.19288500  1
  O  O71  1  0.73088000  0.19288500  0.89613000  1
  O  O72  1  0.34329800  0.87759500  0.59495500  1
  O  O73  1  0.74607600  0.39845600  0.83848200  1
