# generated using pymatgen
data_BaMgH4
_symmetry_space_group_name_H-M   'P 1'
_cell_length_a   7.20063090
_cell_length_b   7.20063090
_cell_length_c   5.70762100
_cell_angle_alpha   90.00000000
_cell_angle_beta   90.00000000
_cell_angle_gamma   146.08738515
_symmetry_Int_Tables_number   1
_chemical_formula_structural   BaMgH4
_chemical_formula_sum   'Ba2 Mg2 H8'
_cell_volume   165.11033526
_cell_formula_units_Z   2
loop_
 _symmetry_equiv_pos_site_id
 _symmetry_equiv_pos_as_xyz
  1  'x, y, z'
loop_
 _atom_site_type_symbol
 _atom_site_label
 _atom_site_symmetry_multiplicity
 _atom_site_fract_x
 _atom_site_fract_y
 _atom_site_fract_z
 _atom_site_occupancy
  Ba  Ba0  1  0.63742700  0.36257300  0.75000000  1
  Ba  Ba1  1  0.36257300  0.63742700  0.25000000  1
  Mg  Mg2  1  0.90502500  0.09497500  0.75000000  1
  Mg  Mg3  1  0.09497500  0.90502500  0.25000000  1
  H  H4  1  0.81111300  0.18888700  0.99037800  1
  H  H5  1  0.18888700  0.81111300  0.00962200  1
  H  H6  1  0.81111300  0.18888700  0.50962200  1
  H  H7  1  0.18888700  0.81111300  0.49037800  1
  H  H8  1  0.41896400  0.58103600  0.75000000  1
  H  H9  1  0.58103600  0.41896400  0.25000000  1
  H  H10  1  0.00000000  0.00000000  0.00000000  1
  H  H11  1  0.00000000  0.00000000  0.50000000  1
