# generated using pymatgen
data_SiO2
_symmetry_space_group_name_H-M   'P 1'
_cell_length_a   15.90721817
_cell_length_b   15.90721817
_cell_length_c   15.90721817
_cell_angle_alpha   100.60947517
_cell_angle_beta   100.60947517
_cell_angle_gamma   129.18099375
_symmetry_Int_Tables_number   1
_chemical_formula_structural   SiO2
_chemical_formula_sum   'Si48 O96'
_cell_volume   2818.28903398
_cell_formula_units_Z   48
loop_
 _symmetry_equiv_pos_site_id
 _symmetry_equiv_pos_as_xyz
  1  'x, y, z'
loop_
 _atom_site_type_symbol
 _atom_site_label
 _atom_site_symmetry_multiplicity
 _atom_site_fract_x
 _atom_site_fract_y
 _atom_site_fract_z
 _atom_site_occupancy
  Si  Si0  1  0.92254500  0.07745500  0.00000000  1
  Si  Si1  1  0.94131900  0.85444900  0.52381400  1
  Si  Si2  1  0.33063600  0.41750500  0.47618600  1
  Si  Si3  1  0.71997800  0.26400100  0.69815700  1
  Si  Si4  1  0.58249500  0.66936400  0.52381400  1
  Si  Si5  1  0.57703800  0.43116000  0.30297300  1
  Si  Si6  1  0.56584400  0.26400100  0.54402200  1
  Si  Si7  1  0.14555100  0.05868100  0.47618600  1
  Si  Si8  1  0.72593600  0.87181400  0.30297300  1
  Si  Si9  1  0.07745500  0.07745500  0.15491100  1
  Si  Si10  1  0.69238400  0.07718400  0.76466900  1
  Si  Si11  1  0.92281600  0.68748600  0.61520100  1
  Si  Si12  1  0.73599900  0.43415600  0.45597800  1
  Si  Si13  1  0.97817800  0.28002200  0.54402200  1
  Si  Si14  1  0.56884000  0.87181400  0.14587800  1
  Si  Si15  1  0.71997800  0.02182200  0.45597800  1
  Si  Si16  1  0.07228500  0.68748600  0.76466900  1
  Si  Si17  1  0.58249500  0.05868100  0.91313000  1
  Si  Si18  1  0.68321200  0.68321200  0.36642500  1
  Si  Si19  1  0.57703800  0.27406400  0.14587800  1
  Si  Si20  1  0.92254500  0.92254500  0.84508900  1
  Si  Si21  1  0.68321200  0.31678800  0.00000000  1
  Si  Si22  1  0.07745500  0.92254500  0.00000000  1
  Si  Si23  1  0.73988500  0.67312700  0.68631300  1
  Si  Si24  1  0.31251400  0.07718400  0.38479900  1
  Si  Si25  1  0.31678800  0.68321200  0.00000000  1
  Si  Si26  1  0.92281600  0.30761600  0.23533100  1
  Si  Si27  1  0.32687300  0.01318600  0.06675800  1
  Si  Si28  1  0.73599900  0.28002200  0.30184300  1
  Si  Si29  1  0.12818600  0.27406400  0.69702700  1
  Si  Si30  1  0.97817800  0.43415600  0.69815700  1
  Si  Si31  1  0.72593600  0.42296200  0.85412200  1
  Si  Si32  1  0.32687300  0.26011500  0.31368700  1
  Si  Si33  1  0.31251400  0.92771500  0.23533100  1
  Si  Si34  1  0.07228500  0.30761600  0.38479900  1
  Si  Si35  1  0.73988500  0.05357200  0.06675800  1
  Si  Si36  1  0.31678800  0.31678800  0.63357500  1
  Si  Si37  1  0.98681400  0.67312700  0.93324200  1
  Si  Si38  1  0.94131900  0.41750500  0.08687000  1
  Si  Si39  1  0.94642800  0.01318600  0.68631300  1
  Si  Si40  1  0.69238400  0.92771500  0.61520100  1
  Si  Si41  1  0.14555100  0.66936400  0.08687000  1
  Si  Si42  1  0.56884000  0.42296200  0.69702700  1
  Si  Si43  1  0.98681400  0.05357200  0.31368700  1
  Si  Si44  1  0.33063600  0.85444900  0.91313000  1
  Si  Si45  1  0.12818600  0.43116000  0.85412200  1
  Si  Si46  1  0.94642800  0.26011500  0.93324200  1
  Si  Si47  1  0.56584400  0.02182200  0.30184300  1
  O  O48  1  0.82180900  0.39230100  0.05735700  1
  O  O49  1  0.02126500  0.11203400  0.09076900  1
  O  O50  1  0.02175100  0.55945000  0.70420600  1
  O  O51  1  0.97735400  0.99372400  0.77975800  1
  O  O52  1  0.60402400  0.03679800  0.81871400  1
  O  O53  1  0.07659200  0.67385400  0.00155900  1
  O  O54  1  0.61301700  0.22715100  0.61413400  1
  O  O55  1  0.05245500  0.25502400  0.59878400  1
  O  O56  1  0.83826800  0.16173200  0.50000000  1
  O  O57  1  0.00627600  0.78603500  0.98363000  1
  O  O58  1  0.44620000  0.55380000  0.50000000  1
  O  O59  1  0.83686900  0.17149200  0.16228800  1
  O  O60  1  0.67040500  0.74321000  0.29936800  1
  O  O61  1  0.21396500  0.99372400  0.01637000  1
  O  O62  1  0.23554800  0.66505600  0.05735700  1
  O  O63  1  0.82850800  0.99079600  0.66537700  1
  O  O64  1  0.21469000  0.39597600  0.43277300  1
  O  O65  1  0.07659200  0.07503300  0.40273800  1
  O  O66  1  0.82180900  0.76445200  0.42950800  1
  O  O67  1  0.04015500  0.34668000  0.30652500  1
  O  O68  1  0.44384200  0.74321000  0.07280500  1
  O  O69  1  0.68245500  0.14475600  0.70420600  1
  O  O70  1  0.21396500  0.19759500  0.22024200  1
  O  O71  1  0.02175100  0.31754500  0.46230100  1
  O  O72  1  0.05875700  0.14757800  0.70463700  1
  O  O73  1  0.66173200  0.16173200  0.32346400  1
  O  O74  1  0.65332000  0.95984500  0.69347500  1
  O  O75  1  0.92496700  0.32770500  0.00155900  1
  O  O76  1  0.80240500  0.02264600  0.01637000  1
  O  O77  1  0.66173200  0.33826800  0.50000000  1
  O  O78  1  0.05875700  0.35412000  0.91118000  1
  O  O79  1  0.65624000  0.25502400  0.20257000  1
  O  O80  1  0.44384200  0.37103700  0.70063200  1
  O  O81  1  0.14735200  0.36337700  0.78397600  1
  O  O82  1  0.00920400  0.17149200  0.33462300  1
  O  O83  1  0.02126500  0.93049600  0.90923100  1
  O  O84  1  0.62896300  0.55615800  0.29936800  1
  O  O85  1  0.63662300  0.85264800  0.21602400  1
  O  O86  1  0.21808400  0.03679800  0.43277300  1
  O  O87  1  0.97735400  0.19759500  0.98363000  1
  O  O88  1  0.23554800  0.17819100  0.57049200  1
  O  O89  1  0.21469000  0.78191600  0.81871400  1
  O  O90  1  0.54632900  0.34376000  0.59878400  1
  O  O91  1  0.65624000  0.45367100  0.40121600  1
  O  O92  1  0.25679000  0.55615800  0.92719500  1
  O  O93  1  0.32614600  0.32770500  0.40273800  1
  O  O94  1  0.61301700  0.99888300  0.38586600  1
  O  O95  1  0.05245500  0.45367100  0.79743000  1
  O  O96  1  0.88796600  0.97873500  0.90923100  1
  O  O97  1  0.54632900  0.94754500  0.20257000  1
  O  O98  1  0.62896300  0.32959500  0.07280500  1
  O  O99  1  0.96320200  0.78191600  0.56722700  1
  O  O100  1  0.00920400  0.67458100  0.83771200  1
  O  O101  1  0.77284900  0.38698300  0.38586600  1
  O  O102  1  0.85242200  0.55705900  0.91118000  1
  O  O103  1  0.44294100  0.35412000  0.29536300  1
  O  O104  1  0.64588000  0.94124300  0.08882000  1
  O  O105  1  0.67229500  0.07503300  0.99844100  1
  O  O106  1  0.60402400  0.78531000  0.56722700  1
  O  O107  1  0.05380000  0.94620000  0.50000000  1
  O  O108  1  0.80240500  0.78603500  0.77975800  1
  O  O109  1  0.82850800  0.16313100  0.83771200  1
  O  O110  1  0.85242200  0.94124300  0.29536300  1
  O  O111  1  0.00627600  0.02264600  0.22024200  1
  O  O112  1  0.04015500  0.73363000  0.69347500  1
  O  O113  1  0.32614600  0.92340800  0.99844100  1
  O  O114  1  0.64588000  0.55705900  0.70463700  1
  O  O115  1  0.32541900  0.99079600  0.16228800  1
  O  O116  1  0.68245500  0.97824900  0.53769900  1
  O  O117  1  0.44055000  0.97824900  0.29579400  1
  O  O118  1  0.32541900  0.16313100  0.33462300  1
  O  O119  1  0.33494400  0.39230100  0.57049200  1
  O  O120  1  0.92496700  0.92340800  0.59726200  1
  O  O121  1  0.21808400  0.78531000  0.18128600  1
  O  O122  1  0.05380000  0.55380000  0.10760000  1
  O  O123  1  0.74497600  0.94754500  0.40121600  1
  O  O124  1  0.57940100  0.36337700  0.21602400  1
  O  O125  1  0.25679000  0.32959500  0.70063200  1
  O  O126  1  0.74497600  0.34376000  0.79743000  1
  O  O127  1  0.83826800  0.33826800  0.67653600  1
  O  O128  1  0.96320200  0.39597600  0.18128600  1
  O  O129  1  0.26637000  0.95984500  0.30652500  1
  O  O130  1  0.67229500  0.67385400  0.59726200  1
  O  O131  1  0.67040500  0.37103700  0.92719500  1
  O  O132  1  0.60769900  0.17819100  0.94264300  1
  O  O133  1  0.60769900  0.66505600  0.42950800  1
  O  O134  1  0.85524400  0.31754500  0.29579400  1
  O  O135  1  0.44055000  0.14475600  0.46230100  1
  O  O136  1  0.85524400  0.55945000  0.53769900  1
  O  O137  1  0.63662300  0.42059900  0.78397600  1
  O  O138  1  0.44294100  0.14757800  0.08882000  1
  O  O139  1  0.00111700  0.38698300  0.61413400  1
  O  O140  1  0.33494400  0.76445200  0.94264300  1
  O  O141  1  0.44620000  0.94620000  0.89240000  1
  O  O142  1  0.83686900  0.67458100  0.66537700  1
  O  O143  1  0.06950400  0.97873500  0.09076900  1
