# generated using pymatgen
data_K5Te3
_symmetry_space_group_name_H-M   'P 1'
_cell_length_a   10.32944114
_cell_length_b   10.32944114
_cell_length_c   10.32944114
_cell_angle_alpha   95.69459711
_cell_angle_beta   95.69459711
_cell_angle_gamma   143.27819660
_symmetry_Int_Tables_number   1
_chemical_formula_structural   K5Te3
_chemical_formula_sum   'K10 Te6'
_cell_volume   625.44469713
_cell_formula_units_Z   2
loop_
 _symmetry_equiv_pos_site_id
 _symmetry_equiv_pos_as_xyz
  1  'x, y, z'
loop_
 _atom_site_type_symbol
 _atom_site_label
 _atom_site_symmetry_multiplicity
 _atom_site_fract_x
 _atom_site_fract_y
 _atom_site_fract_z
 _atom_site_occupancy
  K  K0  1  0.25000000  0.75000000  0.50000000  1
  K  K1  1  0.75000000  0.25000000  0.50000000  1
  K  K2  1  0.41186100  0.71874300  0.13060400  1
  K  K3  1  0.71874300  0.58813900  0.30688200  1
  K  K4  1  0.28125700  0.41186100  0.69311800  1
  K  K5  1  0.58813900  0.28125700  0.86939600  1
  K  K6  1  0.77568500  0.09144300  0.86712800  1
  K  K7  1  0.09144300  0.22431500  0.31575800  1
  K  K8  1  0.90855700  0.77568500  0.68424200  1
  K  K9  1  0.22431500  0.90855700  0.13287200  1
  Te  Te10  1  0.15611400  0.65469300  0.81080700  1
  Te  Te11  1  0.65469300  0.84388600  0.49857900  1
  Te  Te12  1  0.34530700  0.15611400  0.50142100  1
  Te  Te13  1  0.84388600  0.34530700  0.18919300  1
  Te  Te14  1  0.21882500  0.21882500  0.00000000  1
  Te  Te15  1  0.78117500  0.78117500  0.00000000  1
