# generated using pymatgen
data_H8C2IN
_symmetry_space_group_name_H-M   'P 1'
_cell_length_a   7.48798818
_cell_length_b   7.48798818
_cell_length_c   5.54765673
_cell_angle_alpha   75.24881134
_cell_angle_beta   75.24881134
_cell_angle_gamma   84.41977454
_symmetry_Int_Tables_number   1
_chemical_formula_structural   H8C2IN
_chemical_formula_sum   'H16 C4 I2 N2'
_cell_volume   290.71565726
_cell_formula_units_Z   2
loop_
 _symmetry_equiv_pos_site_id
 _symmetry_equiv_pos_as_xyz
  1  'x, y, z'
loop_
 _atom_site_type_symbol
 _atom_site_label
 _atom_site_symmetry_multiplicity
 _atom_site_fract_x
 _atom_site_fract_y
 _atom_site_fract_z
 _atom_site_occupancy
  H  H0  1  0.78210800  0.08468000  0.63379800  1
  H  H1  1  0.08468000  0.78210800  0.63379800  1
  H  H2  1  0.21789200  0.91532000  0.36620200  1
  H  H3  1  0.91532000  0.21789200  0.36620200  1
  H  H4  1  0.64446200  0.35827400  0.22114600  1
  H  H5  1  0.35827400  0.64446200  0.22114600  1
  H  H6  1  0.35553800  0.64172600  0.77885400  1
  H  H7  1  0.64172600  0.35553800  0.77885400  1
  H  H8  1  0.50309000  0.21888100  0.50543400  1
  H  H9  1  0.21888100  0.50309000  0.50543400  1
  H  H10  1  0.49691000  0.78111900  0.49456600  1
  H  H11  1  0.78111900  0.49691000  0.49456600  1
  H  H12  1  0.65377700  0.11128500  0.26981700  1
  H  H13  1  0.11128500  0.65377700  0.26981700  1
  H  H14  1  0.34622300  0.88871500  0.73018300  1
  H  H15  1  0.88871500  0.34622300  0.73018300  1
  C  C16  1  0.63623700  0.22589200  0.36409200  1
  C  C17  1  0.22589200  0.63623700  0.36409200  1
  C  C18  1  0.36376300  0.77410800  0.63590800  1
  C  C19  1  0.77410800  0.36376300  0.63590800  1
  I  I20  1  0.78287900  0.78287900  0.95754700  1
  I  I21  1  0.21712100  0.21712100  0.04245300  1
  N  N22  1  0.78667200  0.21332800  0.50000000  1
  N  N23  1  0.21332800  0.78667200  0.50000000  1
