# generated using pymatgen
data_Mn2In(CO)9
_symmetry_space_group_name_H-M   'P 1'
_cell_length_a   17.40717759
_cell_length_b   17.40717759
_cell_length_c   17.40717759
_cell_angle_alpha   133.12940061
_cell_angle_beta   133.12940061
_cell_angle_gamma   68.45100502
_symmetry_Int_Tables_number   1
_chemical_formula_structural   Mn2In(CO)9
_chemical_formula_sum   'Mn16 In8 C72 O72'
_cell_volume   2759.31674892
_cell_formula_units_Z   8
loop_
 _symmetry_equiv_pos_site_id
 _symmetry_equiv_pos_as_xyz
  1  'x, y, z'
loop_
 _atom_site_type_symbol
 _atom_site_label
 _atom_site_symmetry_multiplicity
 _atom_site_fract_x
 _atom_site_fract_y
 _atom_site_fract_z
 _atom_site_occupancy
  Mn  Mn0  1  0.33004500  0.29320300  0.67944700  1
  Mn  Mn1  1  0.79320300  0.61375600  0.96315900  1
  Mn  Mn2  1  0.66995500  0.70679700  0.32055300  1
  Mn  Mn3  1  0.27865100  0.02865100  0.25000000  1
  Mn  Mn4  1  0.47134900  0.22134900  0.25000000  1
  Mn  Mn5  1  0.16455400  0.91455400  0.25000000  1
  Mn  Mn6  1  0.72134900  0.97134900  0.75000000  1
  Mn  Mn7  1  0.58544600  0.33544600  0.25000000  1
  Mn  Mn8  1  0.52865100  0.77865100  0.75000000  1
  Mn  Mn9  1  0.83544600  0.08544600  0.75000000  1
  Mn  Mn10  1  0.88624400  0.34940300  0.17944700  1
  Mn  Mn11  1  0.20679700  0.38624400  0.03684100  1
  Mn  Mn12  1  0.41455400  0.66455400  0.75000000  1
  Mn  Mn13  1  0.84940300  0.16995500  0.46315900  1
  Mn  Mn14  1  0.11375600  0.65059700  0.82055300  1
  Mn  Mn15  1  0.15059700  0.83004500  0.53684100  1
  In  In16  1  0.83576400  0.16649600  0.94548300  1
  In  In17  1  0.39028100  0.33576400  0.16926800  1
  In  In18  1  0.33350400  0.77898700  0.66926800  1
  In  In19  1  0.27898700  0.10971900  0.44548300  1
  In  In20  1  0.66649600  0.22101300  0.33073200  1
  In  In21  1  0.72101300  0.89028100  0.55451700  1
  In  In22  1  0.60971900  0.66423600  0.83073200  1
  In  In23  1  0.16423600  0.83350400  0.05451700  1
  C  C24  1  0.34096700  0.22046700  0.20251300  1
  C  C25  1  0.02362600  0.86048700  0.43846700  1
  C  C26  1  0.39683100  0.96946900  0.31522600  1
  C  C27  1  0.71276100  0.47853900  0.83824000  1
  C  C28  1  0.07798000  0.41484100  0.93846700  1
  C  C29  1  0.28723900  0.52146100  0.16176000  1
  C  C30  1  0.48204700  0.86154700  0.70251300  1
  C  C31  1  0.09110300  0.69168700  0.43167500  1
  C  C32  1  0.63845300  0.84096700  0.62050000  1
  C  C33  1  0.53053100  0.34575600  0.42736100  1
  C  C34  1  0.90642000  0.21917800  0.87156200  1
  C  C35  1  0.19168700  0.26001200  0.60058400  1
  C  C36  1  0.36154700  0.15903300  0.37950000  1
  C  C37  1  0.74633500  0.31107500  0.09268800  1
  C  C38  1  0.53485900  0.40642000  0.18724300  1
  C  C39  1  0.84635200  0.75366500  0.06474000  1
  C  C40  1  0.02146100  0.35970000  0.23422100  1
  C  C41  1  0.15364800  0.24633500  0.93526000  1
  C  C42  1  0.19559100  0.43345200  0.16205800  1
  C  C43  1  0.90889700  0.30831300  0.56832500  1
  C  C44  1  0.77139400  0.03353300  0.33794200  1
  C  C45  1  0.60316900  0.03053100  0.68477400  1
  C  C46  1  0.65903300  0.77953300  0.79748700  1
  C  C47  1  0.37452100  0.21276100  0.73422100  1
  C  C48  1  0.93345200  0.27139400  0.23786000  1
  C  C49  1  0.14030000  0.87452100  0.66176000  1
  C  C50  1  0.53353300  0.69559100  0.26214000  1
  C  C51  1  0.46946900  0.65424400  0.57263900  1
  C  C52  1  0.15238400  0.96514100  0.37156200  1
  C  C53  1  0.06654800  0.72860600  0.76214000  1
  C  C54  1  0.62547900  0.78723900  0.26577900  1
  C  C55  1  0.96010300  0.03971100  0.83403600  1
  C  C56  1  0.41839500  0.10316900  0.07263900  1
  C  C57  1  0.92202000  0.58515900  0.06153300  1
  C  C58  1  0.71838800  0.65364800  0.40731200  1
  C  C59  1  0.23998800  0.34057200  0.93167500  1
  C  C60  1  0.36048700  0.42202000  0.83686100  1
  C  C61  1  0.22860600  0.96646700  0.66205800  1
  C  C62  1  0.80831300  0.73998800  0.39941600  1
  C  C63  1  0.29432500  0.87393300  0.33403600  1
  C  C64  1  0.37393300  0.53989700  0.57960700  1
  C  C65  1  0.27953300  0.98204700  0.12050000  1
  C  C66  1  0.03989700  0.96028900  0.16596400  1
  C  C67  1  0.46514100  0.59358000  0.81275700  1
  C  C68  1  0.72046700  0.01795300  0.87950000  1
  C  C69  1  0.84575600  0.91839500  0.81522600  1
  C  C70  1  0.08515900  0.52362600  0.66313900  1
  C  C71  1  0.76001200  0.65942800  0.06832500  1
  C  C72  1  0.91484100  0.47637400  0.33686100  1
  C  C73  1  0.46646700  0.30440900  0.73786000  1
  C  C74  1  0.81107500  0.21838800  0.56474000  1
  C  C75  1  0.70567500  0.12606700  0.66596400  1
  C  C76  1  0.62606700  0.46010300  0.42039300  1
  C  C77  1  0.46028900  0.79432500  0.92039300  1
  C  C78  1  0.63951300  0.57798000  0.16313900  1
  C  C79  1  0.58160500  0.89683100  0.92736100  1
  C  C80  1  0.18892500  0.78161200  0.43526000  1
  C  C81  1  0.84057200  0.40889700  0.10058400  1
  C  C82  1  0.85970000  0.12547900  0.33824000  1
  C  C83  1  0.84761600  0.03485900  0.62843800  1
  C  C84  1  0.80440900  0.56654800  0.83794200  1
  C  C85  1  0.25366500  0.68892500  0.90731200  1
  C  C86  1  0.09358000  0.78082200  0.12843800  1
  C  C87  1  0.97853900  0.64030000  0.76577900  1
  C  C88  1  0.28161200  0.34635200  0.59268800  1
  C  C89  1  0.28082200  0.65238400  0.68724300  1
  C  C90  1  0.53971100  0.20567500  0.07960700  1
  C  C91  1  0.51795300  0.13845300  0.29748700  1
  C  C92  1  0.15942800  0.59110300  0.89941600  1
  C  C93  1  0.97637400  0.13951300  0.56153300  1
  C  C94  1  0.71917800  0.34761600  0.31275700  1
  C  C95  1  0.15424400  0.08160500  0.18477400  1
  O  O96  1  0.45761400  0.91503000  0.67329100  1
  O  O97  1  0.43356800  0.57864000  0.46010700  1
  O  O98  1  0.56643200  0.42136000  0.53989300  1
  O  O99  1  0.41503000  0.24173900  0.45741700  1
  O  O100  1  0.62244900  0.49542100  0.06418200  1
  O  O101  1  0.80457300  0.36064100  0.35194100  1
  O  O102  1  0.38146700  0.02653900  0.96010700  1
  O  O103  1  0.28432200  0.95761400  0.04258300  1
  O  O104  1  0.71567800  0.04238600  0.95741700  1
  O  O105  1  0.00457900  0.56876100  0.12702800  1
  O  O106  1  0.81450200  0.44800800  0.05408000  1
  O  O107  1  0.59631800  0.83583000  0.22970300  1
  O  O108  1  0.74751600  0.61968900  0.46052100  1
  O  O109  1  0.26042100  0.31450200  0.86649300  1
  O  O110  1  0.04042900  0.01355000  0.88670300  1
  O  O111  1  0.19542700  0.63935900  0.64805900  1
  O  O112  1  0.25248400  0.38031100  0.53947900  1
  O  O113  1  0.89387300  0.63338400  0.72970300  1
  O  O114  1  0.13935900  0.99130000  0.44393200  1
  O  O115  1  0.47346100  0.93356800  0.35492800  1
  O  O116  1  0.18785800  0.46618800  0.24058700  1
  O  O117  1  0.33583000  0.60612700  0.23951100  1
  O  O118  1  0.92136000  0.88146700  0.85492800  1
  O  O119  1  0.72560100  0.94727000  0.25941300  1
  O  O120  1  0.03381200  0.77439900  0.72167000  1
  O  O121  1  0.11968900  0.15916800  0.87217200  1
  O  O122  1  0.52653900  0.06643200  0.64507200  1
  O  O123  1  0.66417000  0.39387300  0.76048900  1
  O  O124  1  0.86661600  0.09631800  0.26048900  1
  O  O125  1  0.25826100  0.21567800  0.17329100  1
  O  O126  1  0.54238600  0.08497000  0.32670900  1
  O  O127  1  0.94173300  0.87755100  0.37297200  1
  O  O128  1  0.86064100  0.00870000  0.55606800  1
  O  O129  1  0.34627400  0.45957100  0.47312000  1
  O  O130  1  0.21300400  0.75248400  0.37217200  1
  O  O131  1  0.65916800  0.28699600  0.03947900  1
  O  O132  1  0.89392800  0.76042100  0.44592000  1
  O  O133  1  0.37755100  0.50457900  0.93581800  1
  O  O134  1  0.65372600  0.54042900  0.52688000  1
  O  O135  1  0.05199200  0.60607200  0.36649300  1
  O  O136  1  0.74173900  0.78432200  0.82670900  1
  O  O137  1  0.78699600  0.24751600  0.62782800  1
  O  O138  1  0.93123900  0.55826700  0.43581800  1
  O  O139  1  0.04736800  0.69542700  0.05606800  1
  O  O140  1  0.96618800  0.22560100  0.27833000  1
  O  O141  1  0.55273000  0.31214200  0.77833000  1
  O  O142  1  0.81214200  0.53381200  0.75941300  1
  O  O143  1  0.37315300  0.84627400  0.38670300  1
  O  O144  1  0.61853300  0.97346100  0.03989300  1
  O  O145  1  0.13338400  0.90368200  0.73951100  1
  O  O146  1  0.40368200  0.16417000  0.77029700  1
  O  O147  1  0.99542100  0.43123900  0.87297200  1
  O  O148  1  0.07864000  0.11853300  0.14507200  1
  O  O149  1  0.49130000  0.54736800  0.85194100  1
  O  O150  1  0.27439900  0.05273000  0.74058700  1
  O  O151  1  0.34083200  0.71300400  0.96052100  1
  O  O152  1  0.10612700  0.36661600  0.27029700  1
  O  O153  1  0.48645000  0.87315300  0.02688000  1
  O  O154  1  0.73957900  0.68549800  0.13350700  1
  O  O155  1  0.05826700  0.12244900  0.62702800  1
  O  O156  1  0.62684700  0.15372600  0.61329700  1
  O  O157  1  0.50870000  0.45263200  0.14805900  1
  O  O158  1  0.95263200  0.30457300  0.94393200  1
  O  O159  1  0.95957100  0.98645000  0.11329700  1
  O  O160  1  0.51355000  0.12684700  0.97312000  1
  O  O161  1  0.94800800  0.39392800  0.63350700  1
  O  O162  1  0.58497000  0.75826100  0.54258300  1
  O  O163  1  0.18549800  0.55199200  0.94592000  1
  O  O164  1  0.44727000  0.68785800  0.22167000  1
  O  O165  1  0.88031100  0.84083200  0.12782800  1
  O  O166  1  0.06876100  0.44173300  0.56418200  1
  O  O167  1  0.10607200  0.23957900  0.55408000  1
