# generated using pymatgen
data_Nb6HI11
_symmetry_space_group_name_H-M   'P 1'
_cell_length_a   11.59629900
_cell_length_b   13.73478100
_cell_length_c   15.97126400
_cell_angle_alpha   90.00000000
_cell_angle_beta   90.00000000
_cell_angle_gamma   90.00000000
_symmetry_Int_Tables_number   1
_chemical_formula_structural   Nb6HI11
_chemical_formula_sum   'Nb24 H4 I44'
_cell_volume   2543.78517659
_cell_formula_units_Z   4
loop_
 _symmetry_equiv_pos_site_id
 _symmetry_equiv_pos_as_xyz
  1  'x, y, z'
loop_
 _atom_site_type_symbol
 _atom_site_label
 _atom_site_symmetry_multiplicity
 _atom_site_fract_x
 _atom_site_fract_y
 _atom_site_fract_z
 _atom_site_occupancy
  Nb  Nb0  1  0.91162200  0.27573600  0.60690100  1
  Nb  Nb1  1  0.41162200  0.72426400  0.39309900  1
  Nb  Nb2  1  0.41162200  0.22426400  0.10690100  1
  Nb  Nb3  1  0.91162200  0.77573600  0.89309900  1
  Nb  Nb4  1  0.11610500  0.22651000  0.40097500  1
  Nb  Nb5  1  0.61610500  0.77349000  0.59902500  1
  Nb  Nb6  1  0.61610500  0.27349000  0.90097500  1
  Nb  Nb7  1  0.11610500  0.72651000  0.09902500  1
  Nb  Nb8  1  0.87341000  0.17421500  0.45115200  1
  Nb  Nb9  1  0.37341000  0.82578500  0.54884800  1
  Nb  Nb10  1  0.37341000  0.32578500  0.95115200  1
  Nb  Nb11  1  0.87341000  0.67421500  0.04884800  1
  Nb  Nb12  1  0.14074300  0.33498900  0.54842300  1
  Nb  Nb13  1  0.64074300  0.66501100  0.45157700  1
  Nb  Nb14  1  0.64074300  0.16501100  0.04842300  1
  Nb  Nb15  1  0.14074300  0.83498900  0.95157700  1
  Nb  Nb16  1  0.07836500  0.12781600  0.55120300  1
  Nb  Nb17  1  0.57836500  0.87218400  0.44879700  1
  Nb  Nb18  1  0.57836500  0.37218400  0.05120300  1
  Nb  Nb19  1  0.07836500  0.62781600  0.94879700  1
  Nb  Nb20  1  0.93243900  0.36930400  0.44868700  1
  Nb  Nb21  1  0.43243900  0.63069600  0.55131300  1
  Nb  Nb22  1  0.43243900  0.13069600  0.94868700  1
  Nb  Nb23  1  0.93243900  0.86930400  0.05131300  1
  H  H24  1  0.00966600  0.25263600  0.50169300  1
  H  H25  1  0.50966600  0.74736400  0.49830700  1
  H  H26  1  0.50966600  0.24736400  0.00169300  1
  H  H27  1  0.00966600  0.75263600  0.99830700  1
  I  I28  1  0.85090800  0.07340000  0.61164400  1
  I  I29  1  0.35090800  0.92660000  0.38835600  1
  I  I30  1  0.35090800  0.42660000  0.11164400  1
  I  I31  1  0.85090800  0.57340000  0.88835600  1
  I  I32  1  0.15632400  0.43250100  0.38832300  1
  I  I33  1  0.65632400  0.56749900  0.61167700  1
  I  I34  1  0.65632400  0.06749900  0.88832300  1
  I  I35  1  0.15632400  0.93250100  0.11167700  1
  I  I36  1  0.97718200  0.47885700  0.60188300  1
  I  I37  1  0.47718200  0.52114300  0.39811700  1
  I  I38  1  0.47718200  0.02114300  0.10188300  1
  I  I39  1  0.97718200  0.97885700  0.89811700  1
  I  I40  1  0.03266800  0.02739200  0.39472800  1
  I  I41  1  0.53266800  0.97260800  0.60527200  1
  I  I42  1  0.53266800  0.47260800  0.89472800  1
  I  I43  1  0.03266800  0.52739200  0.10527200  1
  I  I44  1  0.10957400  0.23194800  0.70815700  1
  I  I45  1  0.60957400  0.76805200  0.29184300  1
  I  I46  1  0.60957400  0.26805200  0.20815700  1
  I  I47  1  0.10957400  0.73194800  0.79184300  1
  I  I48  1  0.92518800  0.26472200  0.29070700  1
  I  I49  1  0.42518800  0.73527800  0.70929300  1
  I  I50  1  0.42518800  0.23527800  0.79070700  1
  I  I51  1  0.92518800  0.76472200  0.20929300  1
  I  I52  1  0.70902000  0.31344500  0.51114500  1
  I  I53  1  0.20902000  0.68655500  0.48885500  1
  I  I54  1  0.20902000  0.18655500  0.01114500  1
  I  I55  1  0.70902000  0.81344500  0.98885500  1
  I  I56  1  0.30780000  0.18866500  0.51114800  1
  I  I57  1  0.80780000  0.81133500  0.48885200  1
  I  I58  1  0.80780000  0.31133500  0.01114800  1
  I  I59  1  0.30780000  0.68866500  0.98885200  1
  I  I60  1  0.17214000  0.94111700  0.61863000  1
  I  I61  1  0.67214000  0.05888300  0.38137000  1
  I  I62  1  0.67214000  0.55888300  0.11863000  1
  I  I63  1  0.17214000  0.44111700  0.88137000  1
  I  I64  1  0.82610700  0.54418900  0.37366300  1
  I  I65  1  0.32610700  0.45581100  0.62633700  1
  I  I66  1  0.32610700  0.95581100  0.87366300  1
  I  I67  1  0.82610700  0.04418900  0.12633700  1
  I  I68  1  0.78433600  0.31926700  0.76502900  1
  I  I69  1  0.28433600  0.68073300  0.23497100  1
  I  I70  1  0.28433600  0.18073300  0.26502900  1
  I  I71  1  0.78433600  0.81926700  0.73497100  1
