# generated using pymatgen
data_Ga2Fe2Bi2O9
_symmetry_space_group_name_H-M   'P 1'
_cell_length_a   5.97525300
_cell_length_b   7.95133700
_cell_length_c   8.32873700
_cell_angle_alpha   90.00000000
_cell_angle_beta   90.00000000
_cell_angle_gamma   90.00000000
_symmetry_Int_Tables_number   1
_chemical_formula_structural   Ga2Fe2Bi2O9
_chemical_formula_sum   'Ga4 Fe4 Bi4 O18'
_cell_volume   395.70870798
_cell_formula_units_Z   2
loop_
 _symmetry_equiv_pos_site_id
 _symmetry_equiv_pos_as_xyz
  1  'x, y, z'
loop_
 _atom_site_type_symbol
 _atom_site_label
 _atom_site_symmetry_multiplicity
 _atom_site_fract_x
 _atom_site_fract_y
 _atom_site_fract_z
 _atom_site_occupancy
  Ga  Ga0  1  0.50000000  0.64950700  0.83348800  1
  Ga  Ga1  1  0.50000000  0.85049300  0.33348800  1
  Ga  Ga2  1  0.50000000  0.14950700  0.66651200  1
  Ga  Ga3  1  0.50000000  0.35049300  0.16651200  1
  Fe  Fe4  1  0.74468100  0.50000000  0.50000000  1
  Fe  Fe5  1  0.25531900  0.00000000  0.00000000  1
  Fe  Fe6  1  0.74468100  0.00000000  0.00000000  1
  Fe  Fe7  1  0.25531900  0.50000000  0.50000000  1
  Bi  Bi8  1  0.00000000  0.66866300  0.16738300  1
  Bi  Bi9  1  0.00000000  0.33133700  0.83261700  1
  Bi  Bi10  1  0.00000000  0.16866300  0.33261700  1
  Bi  Bi11  1  0.00000000  0.83133700  0.66738300  1
  O  O12  1  0.24244300  0.62860600  0.70428800  1
  O  O13  1  0.75755700  0.37139400  0.29571200  1
  O  O14  1  0.24244300  0.12860600  0.79571200  1
  O  O15  1  0.00000000  0.35404600  0.56792700  1
  O  O16  1  0.00000000  0.64595400  0.43207300  1
  O  O17  1  0.75755700  0.12860600  0.79571200  1
  O  O18  1  0.24244300  0.37139400  0.29571200  1
  O  O19  1  0.50000000  0.00000000  0.50000000  1
  O  O20  1  0.75755700  0.87139400  0.20428800  1
  O  O21  1  0.00000000  0.85404600  0.93207300  1
  O  O22  1  0.50000000  0.37137000  0.59143900  1
  O  O23  1  0.50000000  0.87137000  0.90856100  1
  O  O24  1  0.00000000  0.14595400  0.06792700  1
  O  O25  1  0.50000000  0.12863000  0.09143900  1
  O  O26  1  0.50000000  0.50000000  0.00000000  1
  O  O27  1  0.50000000  0.62863000  0.40856100  1
  O  O28  1  0.75755700  0.62860600  0.70428800  1
  O  O29  1  0.24244300  0.87139400  0.20428800  1
