# generated using pymatgen
data_In7Cu10
_symmetry_space_group_name_H-M   'P 1'
_cell_length_a   9.20080047
_cell_length_b   9.20080047
_cell_length_c   6.78188204
_cell_angle_alpha   89.21138615
_cell_angle_beta   89.21138615
_cell_angle_gamma   81.24170814
_symmetry_Int_Tables_number   1
_chemical_formula_structural   In7Cu10
_chemical_formula_sum   'In14 Cu20'
_cell_volume   567.33057879
_cell_formula_units_Z   2
loop_
 _symmetry_equiv_pos_site_id
 _symmetry_equiv_pos_as_xyz
  1  'x, y, z'
loop_
 _atom_site_type_symbol
 _atom_site_label
 _atom_site_symmetry_multiplicity
 _atom_site_fract_x
 _atom_site_fract_y
 _atom_site_fract_z
 _atom_site_occupancy
  In  In0  1  0.12004700  0.56853200  0.61297200  1
  In  In1  1  0.53483400  0.53483400  0.71602800  1
  In  In2  1  0.84260800  0.29479900  0.80164800  1
  In  In3  1  0.87995300  0.43146800  0.38702800  1
  In  In4  1  0.23692100  0.23692100  0.93324800  1
  In  In5  1  0.70520100  0.15739200  0.19835200  1
  In  In6  1  0.16648300  0.16648300  0.50284000  1
  In  In7  1  0.15739200  0.70520100  0.19835200  1
  In  In8  1  0.43146800  0.87995300  0.38702800  1
  In  In9  1  0.83351700  0.83351700  0.49716000  1
  In  In10  1  0.29479900  0.84260800  0.80164800  1
  In  In11  1  0.46516600  0.46516600  0.28397200  1
  In  In12  1  0.76307900  0.76307900  0.06675200  1
  In  In13  1  0.56853200  0.12004700  0.61297200  1
  Cu  Cu14  1  0.21820500  0.99586100  0.15282300  1
  Cu  Cu15  1  0.70757500  0.48106700  0.06092600  1
  Cu  Cu16  1  0.11124200  0.88875800  0.50000000  1
  Cu  Cu17  1  0.81753600  0.59183500  0.72551400  1
  Cu  Cu18  1  0.78179500  0.00413900  0.84717700  1
  Cu  Cu19  1  0.48106700  0.70757500  0.06092600  1
  Cu  Cu20  1  0.40816500  0.18246400  0.27448600  1
  Cu  Cu21  1  0.88875800  0.11124200  0.50000000  1
  Cu  Cu22  1  0.29242500  0.51893300  0.93907400  1
  Cu  Cu23  1  0.00413900  0.78179500  0.84717700  1
  Cu  Cu24  1  0.18246400  0.40816500  0.27448600  1
  Cu  Cu25  1  0.95123200  0.95123200  0.16667300  1
  Cu  Cu26  1  0.00000000  0.50000000  0.00000000  1
  Cu  Cu27  1  0.64874200  0.64874200  0.39242900  1
  Cu  Cu28  1  0.59183500  0.81753600  0.72551400  1
  Cu  Cu29  1  0.99586100  0.21820500  0.15282300  1
  Cu  Cu30  1  0.51893300  0.29242500  0.93907400  1
  Cu  Cu31  1  0.04876800  0.04876800  0.83332700  1
  Cu  Cu32  1  0.50000000  0.00000000  0.00000000  1
  Cu  Cu33  1  0.35125800  0.35125800  0.60757100  1
