# generated using pymatgen
data_KDy(PO3)4
_symmetry_space_group_name_H-M   'P 1'
_cell_length_a   7.46993889
_cell_length_b   7.46993889
_cell_length_c   10.57753984
_cell_angle_alpha   78.86393700
_cell_angle_beta   78.86393700
_cell_angle_gamma   115.45823689
_symmetry_Int_Tables_number   1
_chemical_formula_structural   KDy(PO3)4
_chemical_formula_sum   'K2 Dy2 P8 O24'
_cell_volume   496.82601510
_cell_formula_units_Z   2
loop_
 _symmetry_equiv_pos_site_id
 _symmetry_equiv_pos_as_xyz
  1  'x, y, z'
loop_
 _atom_site_type_symbol
 _atom_site_label
 _atom_site_symmetry_multiplicity
 _atom_site_fract_x
 _atom_site_fract_y
 _atom_site_fract_z
 _atom_site_occupancy
  K  K0  1  0.18932100  0.81067900  0.25000000  1
  K  K1  1  0.81067900  0.18932100  0.75000000  1
  Dy  Dy2  1  0.12034100  0.87965900  0.75000000  1
  Dy  Dy3  1  0.87965900  0.12034100  0.25000000  1
  P  P4  1  0.62235000  0.28608600  0.49368500  1
  P  P5  1  0.71391400  0.37765000  0.00631500  1
  P  P6  1  0.37765000  0.71391400  0.50631500  1
  P  P7  1  0.28608600  0.62235000  0.99368500  1
  P  P8  1  0.30328200  0.24975000  0.94863300  1
  P  P9  1  0.75025000  0.69671800  0.55136700  1
  P  P10  1  0.69671800  0.75025000  0.05136700  1
  P  P11  1  0.24975000  0.30328200  0.44863300  1
  O  O12  1  0.80064300  0.29658100  0.39242300  1
  O  O13  1  0.70341900  0.19935700  0.10757700  1
  O  O14  1  0.19935700  0.70341900  0.60757700  1
  O  O15  1  0.29658100  0.80064300  0.89242300  1
  O  O16  1  0.48494500  0.09334100  0.61326100  1
  O  O17  1  0.90665900  0.51505500  0.88673900  1
  O  O18  1  0.51505500  0.90665900  0.38673900  1
  O  O19  1  0.09334100  0.48494500  0.11326100  1
  O  O20  1  0.49246100  0.35722300  0.41111000  1
  O  O21  1  0.64277700  0.50753900  0.08889000  1
  O  O22  1  0.50753900  0.64277700  0.58889000  1
  O  O23  1  0.35722300  0.49246100  0.91111000  1
  O  O24  1  0.17190300  0.24594700  0.33526600  1
  O  O25  1  0.75405300  0.82809700  0.16473400  1
  O  O26  1  0.82809700  0.75405300  0.66473400  1
  O  O27  1  0.24594700  0.17190300  0.83526600  1
  O  O28  1  0.13579600  0.16098900  0.59240000  1
  O  O29  1  0.83901100  0.86420400  0.90760000  1
  O  O30  1  0.86420400  0.83901100  0.40760000  1
  O  O31  1  0.16098900  0.13579600  0.09240000  1
  O  O32  1  0.27048000  0.52930600  0.44120100  1
  O  O33  1  0.47069400  0.72952000  0.05879900  1
  O  O34  1  0.72952000  0.47069400  0.55879900  1
  O  O35  1  0.52930600  0.27048000  0.94120100  1
