# generated using pymatgen
data_La6Ge11
_symmetry_space_group_name_H-M   'P 1'
_cell_length_a   14.36626300
_cell_length_b   8.83590600
_cell_length_c   15.68642092
_cell_angle_alpha   55.84589174
_cell_angle_beta   90.00000000
_cell_angle_gamma   90.00000000
_symmetry_Int_Tables_number   1
_chemical_formula_structural   La6Ge11
_chemical_formula_sum   'La24 Ge44'
_cell_volume   1647.79348716
_cell_formula_units_Z   4
loop_
 _symmetry_equiv_pos_site_id
 _symmetry_equiv_pos_as_xyz
  1  'x, y, z'
loop_
 _atom_site_type_symbol
 _atom_site_label
 _atom_site_symmetry_multiplicity
 _atom_site_fract_x
 _atom_site_fract_y
 _atom_site_fract_z
 _atom_site_occupancy
  La  La0  1  0.87546400  0.71501600  0.16476400  1
  La  La1  1  0.12248100  0.96342900  0.16834600  1
  La  La2  1  0.62328800  0.86777600  0.00239900  1
  La  La3  1  0.87847900  0.54889100  0.83251600  1
  La  La4  1  0.87602600  0.20586300  0.16459900  1
  La  La5  1  0.37602600  0.79413700  0.33540100  1
  La  La6  1  0.62248100  0.03657100  0.33165400  1
  La  La7  1  0.12328800  0.13222400  0.49760100  1
  La  La8  1  0.12397400  0.79413700  0.83540100  1
  La  La9  1  0.37847900  0.45110900  0.66748400  1
  La  La10  1  0.12152100  0.45110900  0.16748400  1
  La  La11  1  0.12453600  0.28498400  0.83523600  1
  La  La12  1  0.37546400  0.62459100  0.99569700  1
  La  La13  1  0.62397400  0.20586300  0.66459900  1
  La  La14  1  0.37671200  0.13222400  0.99760100  1
  La  La15  1  0.62453600  0.71501600  0.66476400  1
  La  La16  1  0.87546400  0.37540900  0.50430300  1
  La  La17  1  0.37546400  0.28498400  0.33523600  1
  La  La18  1  0.87751900  0.03657100  0.83165400  1
  La  La19  1  0.62453600  0.37540900  0.00430300  1
  La  La20  1  0.62152100  0.54889100  0.33251600  1
  La  La21  1  0.37751900  0.96342900  0.66834600  1
  La  La22  1  0.87671200  0.86777600  0.50239900  1
  La  La23  1  0.12453600  0.62459100  0.49569700  1
  Ge  Ge24  1  0.22169800  0.58107000  0.29357400  1
  Ge  Ge25  1  0.54824300  0.11795100  0.50345200  1
  Ge  Ge26  1  0.71235500  0.97511800  0.15110500  1
  Ge  Ge27  1  0.72169800  0.41893000  0.20642600  1
  Ge  Ge28  1  0.45678100  0.52236200  0.83472800  1
  Ge  Ge29  1  0.78764500  0.97511800  0.65110500  1
  Ge  Ge30  1  0.28764500  0.02488200  0.84889500  1
  Ge  Ge31  1  0.06983800  0.70558200  0.66636500  1
  Ge  Ge32  1  0.54286800  0.62665100  0.50161100  1
  Ge  Ge33  1  0.78569600  0.61092000  0.01536300  1
  Ge  Ge34  1  0.03733900  0.21061300  0.66695400  1
  Ge  Ge35  1  0.04824300  0.88204900  0.99654800  1
  Ge  Ge36  1  0.03813000  0.06004100  0.33354600  1
  Ge  Ge37  1  0.45713200  0.37334900  0.49838900  1
  Ge  Ge38  1  0.20976900  0.20966200  0.66634800  1
  Ge  Ge39  1  0.54321900  0.47763800  0.16527200  1
  Ge  Ge40  1  0.71430400  0.61092000  0.51536300  1
  Ge  Ge41  1  0.21235500  0.02488200  0.34889500  1
  Ge  Ge42  1  0.21430400  0.38908000  0.98463700  1
  Ge  Ge43  1  0.27830200  0.58107000  0.79357400  1
  Ge  Ge44  1  0.70976900  0.79033800  0.83365200  1
  Ge  Ge45  1  0.46187000  0.06004100  0.83354600  1
  Ge  Ge46  1  0.93016200  0.29441800  0.33363500  1
  Ge  Ge47  1  0.27653200  0.83539700  0.54050900  1
  Ge  Ge48  1  0.45175700  0.88204900  0.49654800  1
  Ge  Ge49  1  0.22346800  0.83539700  0.04050900  1
  Ge  Ge50  1  0.53733900  0.78938700  0.83304600  1
  Ge  Ge51  1  0.28569600  0.38908000  0.48463700  1
  Ge  Ge52  1  0.95175700  0.11795100  0.00345200  1
  Ge  Ge53  1  0.96266100  0.78938700  0.33304600  1
  Ge  Ge54  1  0.04321900  0.52236200  0.33472800  1
  Ge  Ge55  1  0.95713200  0.62665100  0.00161100  1
  Ge  Ge56  1  0.56983800  0.29441800  0.83363500  1
  Ge  Ge57  1  0.77653200  0.16460300  0.95949100  1
  Ge  Ge58  1  0.43016200  0.70558200  0.16636500  1
  Ge  Ge59  1  0.79023100  0.79033800  0.33365200  1
  Ge  Ge60  1  0.77830200  0.41893000  0.70642600  1
  Ge  Ge61  1  0.29023100  0.20966200  0.16634800  1
  Ge  Ge62  1  0.53813000  0.93995900  0.16645400  1
  Ge  Ge63  1  0.72346800  0.16460300  0.45949100  1
  Ge  Ge64  1  0.96187000  0.93995900  0.66645400  1
  Ge  Ge65  1  0.46266100  0.21061300  0.16695400  1
  Ge  Ge66  1  0.95678100  0.47763800  0.66527200  1
  Ge  Ge67  1  0.04286800  0.37334900  0.99838900  1
