# generated using pymatgen
data_Ca3Mg3(PO4)4
_symmetry_space_group_name_H-M   'P 1'
_cell_length_a   12.63209671
_cell_length_b   12.63209671
_cell_length_c   17.34095892
_cell_angle_alpha   80.85558923
_cell_angle_beta   80.85558923
_cell_angle_gamma   47.22137674
_symmetry_Int_Tables_number   1
_chemical_formula_structural   Ca3Mg3(PO4)4
_chemical_formula_sum   'Ca18 Mg18 P24 O96'
_cell_volume   2000.21929189
_cell_formula_units_Z   6
loop_
 _symmetry_equiv_pos_site_id
 _symmetry_equiv_pos_as_xyz
  1  'x, y, z'
loop_
 _atom_site_type_symbol
 _atom_site_label
 _atom_site_symmetry_multiplicity
 _atom_site_fract_x
 _atom_site_fract_y
 _atom_site_fract_z
 _atom_site_occupancy
  Ca  Ca0  1  0.88908100  0.79433200  0.43532500  1
  Ca  Ca1  1  0.95640900  0.17935600  0.41081600  1
  Ca  Ca2  1  0.53573700  0.83888100  0.56661200  1
  Ca  Ca3  1  0.17935600  0.95640900  0.91081600  1
  Ca  Ca4  1  0.11091900  0.20566800  0.56467500  1
  Ca  Ca5  1  0.49156600  0.33004000  0.60882100  1
  Ca  Ca6  1  0.33004000  0.49156600  0.10882100  1
  Ca  Ca7  1  0.16111900  0.46426300  0.93338800  1
  Ca  Ca8  1  0.66996000  0.50843400  0.89117900  1
  Ca  Ca9  1  0.83888100  0.53573700  0.06661200  1
  Ca  Ca10  1  0.82064400  0.04359100  0.08918400  1
  Ca  Ca11  1  0.46426300  0.16111900  0.43338800  1
  Ca  Ca12  1  0.20566800  0.11091900  0.06467500  1
  Ca  Ca13  1  0.10207100  0.89792900  0.75000000  1
  Ca  Ca14  1  0.04359100  0.82064400  0.58918400  1
  Ca  Ca15  1  0.89792900  0.10207100  0.25000000  1
  Ca  Ca16  1  0.50843400  0.66996000  0.39117900  1
  Ca  Ca17  1  0.79433200  0.88908100  0.93532500  1
  Mg  Mg18  1  0.36936000  0.10441600  0.87001900  1
  Mg  Mg19  1  0.04195200  0.74339200  0.23516400  1
  Mg  Mg20  1  0.74339200  0.04195200  0.73516400  1
  Mg  Mg21  1  0.63064000  0.89558400  0.12998100  1
  Mg  Mg22  1  0.95804800  0.25660800  0.76483600  1
  Mg  Mg23  1  0.14911600  0.38288500  0.72490300  1
  Mg  Mg24  1  0.89558400  0.63064000  0.62998100  1
  Mg  Mg25  1  0.50972400  0.32883700  0.94901800  1
  Mg  Mg26  1  0.32883700  0.50972400  0.44901800  1
  Mg  Mg27  1  0.38288500  0.14911600  0.22490300  1
  Mg  Mg28  1  0.10441600  0.36936000  0.37001900  1
  Mg  Mg29  1  0.42638000  0.57362000  0.25000000  1
  Mg  Mg30  1  0.85088400  0.61711500  0.27509700  1
  Mg  Mg31  1  0.49027600  0.67116300  0.05098200  1
  Mg  Mg32  1  0.67116300  0.49027600  0.55098200  1
  Mg  Mg33  1  0.25660800  0.95804800  0.26483600  1
  Mg  Mg34  1  0.57362000  0.42638000  0.75000000  1
  Mg  Mg35  1  0.61711500  0.85088400  0.77509700  1
  P  P36  1  0.04834100  0.27815200  0.22409200  1
  P  P37  1  0.72184800  0.95165900  0.27590800  1
  P  P38  1  0.71790400  0.55827900  0.71352900  1
  P  P39  1  0.30415700  0.06487600  0.39958000  1
  P  P40  1  0.95165900  0.72184800  0.77590800  1
  P  P41  1  0.28209600  0.44172100  0.28647100  1
  P  P42  1  0.64779900  0.35529000  0.09577800  1
  P  P43  1  0.16473000  0.88861500  0.12077800  1
  P  P44  1  0.83527000  0.11138500  0.87922200  1
  P  P45  1  0.35529000  0.64779900  0.59577800  1
  P  P46  1  0.44172100  0.28209600  0.78647100  1
  P  P47  1  0.64471000  0.35220100  0.40422200  1
  P  P48  1  0.81602400  0.57270000  0.47520300  1
  P  P49  1  0.27815200  0.04834100  0.72409200  1
  P  P50  1  0.11138500  0.83527000  0.37922200  1
  P  P51  1  0.42730000  0.18397600  0.02479700  1
  P  P52  1  0.35220100  0.64471000  0.90422200  1
  P  P53  1  0.57270000  0.81602400  0.97520300  1
  P  P54  1  0.55827900  0.71790400  0.21352900  1
  P  P55  1  0.06487600  0.30415700  0.89958000  1
  P  P56  1  0.88861500  0.16473000  0.62077800  1
  P  P57  1  0.69584300  0.93512400  0.60042000  1
  P  P58  1  0.93512400  0.69584300  0.10042000  1
  P  P59  1  0.18397600  0.42730000  0.52479700  1
  O  O60  1  0.22885800  0.79573300  0.62903600  1
  O  O61  1  0.83120900  0.02372600  0.82763700  1
  O  O62  1  0.11047900  0.95652700  0.34168600  1
  O  O63  1  0.65047700  0.06292100  0.63934100  1
  O  O64  1  0.97866400  0.22317500  0.27300300  1
  O  O65  1  0.82036800  0.86367900  0.07962100  1
  O  O66  1  0.42840000  0.73331400  0.25713200  1
  O  O67  1  0.15718300  0.33154800  0.84410200  1
  O  O68  1  0.95652700  0.11047900  0.84168600  1
  O  O69  1  0.62007100  0.62530400  0.14278700  1
  O  O70  1  0.06292100  0.65047700  0.13934100  1
  O  O71  1  0.77114200  0.20426700  0.37096400  1
  O  O72  1  0.21799300  0.14655300  0.21762600  1
  O  O73  1  0.61813200  0.98271500  0.52571500  1
  O  O74  1  0.49350900  0.87250200  0.18637100  1
  O  O75  1  0.87796300  0.42631100  0.51987800  1
  O  O76  1  0.12203700  0.57368900  0.48012200  1
  O  O77  1  0.86367900  0.82036800  0.57962100  1
  O  O78  1  0.66145600  0.82680100  0.02052900  1
  O  O79  1  0.35101500  0.33124800  0.22376400  1
  O  O80  1  0.87482600  0.02577000  0.95960500  1
  O  O81  1  0.68905800  0.27009000  0.88268100  1
  O  O82  1  0.12517400  0.97423000  0.04039500  1
  O  O83  1  0.33756200  0.34819800  0.03001000  1
  O  O84  1  0.98221700  0.60274700  0.73393600  1
  O  O85  1  0.55132300  0.47078600  0.33913000  1
  O  O86  1  0.88952100  0.04347300  0.65831400  1
  O  O87  1  0.59727300  0.29137900  0.05843900  1
  O  O88  1  0.22317500  0.97866400  0.77300300  1
  O  O89  1  0.38186800  0.01728500  0.47428500  1
  O  O90  1  0.73331400  0.42840000  0.75713200  1
  O  O91  1  0.32609300  0.00276600  0.63915600  1
  O  O92  1  0.33854400  0.17319900  0.97947100  1
  O  O93  1  0.04347300  0.88952100  0.15831400  1
  O  O94  1  0.17319900  0.33854400  0.47947100  1
  O  O95  1  0.12749800  0.50649100  0.31362900  1
  O  O96  1  0.57160000  0.26668600  0.74286800  1
  O  O97  1  0.65180200  0.66243800  0.46999000  1
  O  O98  1  0.31094200  0.72991000  0.11731900  1
  O  O99  1  0.01728500  0.38186800  0.97428500  1
  O  O100  1  0.37469600  0.37992900  0.35721300  1
  O  O101  1  0.87250200  0.49350900  0.68637100  1
  O  O102  1  0.78200700  0.85344700  0.78237400  1
  O  O103  1  0.44867700  0.52921400  0.66087000  1
  O  O104  1  0.70862100  0.40272700  0.44156100  1
  O  O105  1  0.93707900  0.34952300  0.86065900  1
  O  O106  1  0.40272700  0.70862100  0.94156100  1
  O  O107  1  0.97423000  0.12517400  0.54039500  1
  O  O108  1  0.42631100  0.87796300  0.01987800  1
  O  O109  1  0.37992900  0.37469600  0.85721300  1
  O  O110  1  0.66243800  0.65180200  0.96999000  1
  O  O111  1  0.34952300  0.93707900  0.36065900  1
  O  O112  1  0.97627400  0.16879100  0.67236300  1
  O  O113  1  0.02133600  0.77682500  0.72699700  1
  O  O114  1  0.62530400  0.62007100  0.64278700  1
  O  O115  1  0.01778300  0.39725300  0.26606400  1
  O  O116  1  0.67390700  0.99723400  0.36084400  1
  O  O117  1  0.16879100  0.97627400  0.17236300  1
  O  O118  1  0.64898500  0.66875200  0.77623600  1
  O  O119  1  0.60274700  0.98221700  0.23393600  1
  O  O120  1  0.33124800  0.35101500  0.72376400  1
  O  O121  1  0.77682500  0.02133600  0.22699700  1
  O  O122  1  0.39725300  0.01778300  0.76606400  1
  O  O123  1  0.45366700  0.65223100  0.53184000  1
  O  O124  1  0.20426700  0.77114200  0.87096400  1
  O  O125  1  0.65223100  0.45366700  0.03184000  1
  O  O126  1  0.44790700  0.10757500  0.10737500  1
  O  O127  1  0.02372600  0.83120900  0.32763700  1
  O  O128  1  0.26668600  0.57160000  0.24286800  1
  O  O129  1  0.66845200  0.84281700  0.65589800  1
  O  O130  1  0.29137900  0.59727300  0.55843900  1
  O  O131  1  0.99723400  0.67390700  0.86084400  1
  O  O132  1  0.50649100  0.12749800  0.81362900  1
  O  O133  1  0.98271500  0.61813200  0.02571500  1
  O  O134  1  0.52921400  0.44867700  0.16087000  1
  O  O135  1  0.13632100  0.17963200  0.42037900  1
  O  O136  1  0.55209300  0.89242500  0.89262500  1
  O  O137  1  0.14655300  0.21799300  0.71762600  1
  O  O138  1  0.85344700  0.78200700  0.28237400  1
  O  O139  1  0.47078600  0.55132400  0.83913000  1
  O  O140  1  0.33154800  0.15718300  0.34410200  1
  O  O141  1  0.84281700  0.66845200  0.15589800  1
  O  O142  1  0.54633300  0.34776900  0.46816000  1
  O  O143  1  0.57368900  0.12203700  0.98012200  1
  O  O144  1  0.89242500  0.55209300  0.39262500  1
  O  O145  1  0.79573300  0.22885800  0.12903600  1
  O  O146  1  0.66875200  0.64898500  0.27623600  1
  O  O147  1  0.02577000  0.87482600  0.45960500  1
  O  O148  1  0.10757500  0.44790700  0.60737500  1
  O  O149  1  0.34819800  0.33756200  0.53001000  1
  O  O150  1  0.27009000  0.68905800  0.38268100  1
  O  O151  1  0.82680100  0.66145600  0.52052900  1
  O  O152  1  0.72991000  0.31094200  0.61731900  1
  O  O153  1  0.00276600  0.32609300  0.13915600  1
  O  O154  1  0.17963200  0.13632100  0.92037900  1
  O  O155  1  0.34776900  0.54633300  0.96816000  1
