# generated using pymatgen
data_CoAg(CO)4
_symmetry_space_group_name_H-M   'P 1'
_cell_length_a   10.78647784
_cell_length_b   10.78647784
_cell_length_c   6.40419909
_cell_angle_alpha   86.80000099
_cell_angle_beta   86.80000099
_cell_angle_gamma   112.53003606
_symmetry_Int_Tables_number   1
_chemical_formula_structural   CoAg(CO)4
_chemical_formula_sum   'Co4 Ag4 C16 O16'
_cell_volume   684.76260241
_cell_formula_units_Z   4
loop_
 _symmetry_equiv_pos_site_id
 _symmetry_equiv_pos_as_xyz
  1  'x, y, z'
loop_
 _atom_site_type_symbol
 _atom_site_label
 _atom_site_symmetry_multiplicity
 _atom_site_fract_x
 _atom_site_fract_y
 _atom_site_fract_z
 _atom_site_occupancy
  Co  Co0  1  0.29686900  0.70313100  0.50000000  1
  Co  Co1  1  0.22896200  0.22896200  0.28151300  1
  Co  Co2  1  0.70313100  0.29686900  0.50000000  1
  Co  Co3  1  0.77103800  0.77103800  0.71848700  1
  Ag  Ag4  1  0.69600100  0.52744700  0.59446300  1
  Ag  Ag5  1  0.47255300  0.30399900  0.40553700  1
  Ag  Ag6  1  0.30399900  0.47255300  0.40553700  1
  Ag  Ag7  1  0.52744700  0.69600100  0.59446300  1
  C  C8  1  0.19871200  0.19871200  0.55982000  1
  C  C9  1  0.59834900  0.25238100  0.73968800  1
  C  C10  1  0.66128400  0.66128400  0.92779800  1
  C  C11  1  0.74761900  0.40165100  0.26031200  1
  C  C12  1  0.33871600  0.33871600  0.07220200  1
  C  C13  1  0.92768700  0.77015600  0.78944500  1
  C  C14  1  0.13686700  0.66304400  0.40125300  1
  C  C15  1  0.66304400  0.13686700  0.40125300  1
  C  C16  1  0.77015600  0.92768700  0.78944500  1
  C  C17  1  0.25238100  0.59834900  0.73968800  1
  C  C18  1  0.33695600  0.86313300  0.59874700  1
  C  C19  1  0.40165100  0.74761900  0.26031200  1
  C  C20  1  0.07231300  0.22984400  0.21055500  1
  C  C21  1  0.22984400  0.07231300  0.21055500  1
  C  C22  1  0.86313300  0.33695600  0.59874700  1
  C  C23  1  0.80128800  0.80128800  0.44018000  1
  O  O24  1  0.21159100  0.53988000  0.90369200  1
  O  O25  1  0.39650100  0.39650100  0.91396700  1
  O  O26  1  0.03430100  0.64248400  0.33340100  1
  O  O27  1  0.22802600  0.97045400  0.15915400  1
  O  O28  1  0.64248400  0.03430100  0.33340100  1
  O  O29  1  0.83460200  0.83460200  0.26286000  1
  O  O30  1  0.16539800  0.16539800  0.73714000  1
  O  O31  1  0.78840900  0.46012000  0.09630800  1
  O  O32  1  0.97045400  0.22802600  0.15915400  1
  O  O33  1  0.77197400  0.02954600  0.84084600  1
  O  O34  1  0.60349900  0.60349900  0.08603300  1
  O  O35  1  0.35751600  0.96569900  0.66659900  1
  O  O36  1  0.53988000  0.21159100  0.90369200  1
  O  O37  1  0.02954600  0.77197400  0.84084600  1
  O  O38  1  0.96569900  0.35751600  0.66659900  1
  O  O39  1  0.46012000  0.78840900  0.09630800  1
