# generated using pymatgen
data_Co3Ge(CO)10
_symmetry_space_group_name_H-M   'P 1'
_cell_length_a   8.79618000
_cell_length_b   9.28224185
_cell_length_c   22.20795193
_cell_angle_alpha   95.67277445
_cell_angle_beta   96.66690601
_cell_angle_gamma   117.70247991
_symmetry_Int_Tables_number   1
_chemical_formula_structural   Co3Ge(CO)10
_chemical_formula_sum   'Co12 Ge4 C40 O40'
_cell_volume   1570.27833000
_cell_formula_units_Z   4
loop_
 _symmetry_equiv_pos_site_id
 _symmetry_equiv_pos_as_xyz
  1  'x, y, z'
loop_
 _atom_site_type_symbol
 _atom_site_label
 _atom_site_symmetry_multiplicity
 _atom_site_fract_x
 _atom_site_fract_y
 _atom_site_fract_z
 _atom_site_occupancy
  Co  Co0  1  0.78723800  0.62024200  0.92908800  1
  Co  Co1  1  0.21276200  0.37975800  0.07091200  1
  Co  Co2  1  0.98229000  0.25544600  0.13812000  1
  Co  Co3  1  0.34194200  0.75515700  0.23539500  1
  Co  Co4  1  0.16398700  0.44219900  0.38494400  1
  Co  Co5  1  0.83601300  0.55780100  0.61505600  1
  Co  Co6  1  0.01771000  0.74455400  0.86188000  1
  Co  Co7  1  0.48098300  0.41419300  0.74632900  1
  Co  Co8  1  0.59371900  0.26404000  0.56982200  1
  Co  Co9  1  0.51901700  0.58580700  0.25367100  1
  Co  Co10  1  0.65805800  0.24484300  0.76460500  1
  Co  Co11  1  0.40628100  0.73596000  0.43017800  1
  Ge  Ge12  1  0.65724600  0.37772400  0.67821300  1
  Ge  Ge13  1  0.26159400  0.48819400  0.17934100  1
  Ge  Ge14  1  0.73840600  0.51180600  0.82065900  1
  Ge  Ge15  1  0.34275400  0.62227600  0.32178700  1
  C  C16  1  0.52816700  0.61347200  0.73446500  1
  C  C17  1  0.64796100  0.70697800  0.90734600  1
  C  C18  1  0.80190100  0.10906800  0.08076000  1
  C  C19  1  0.12188700  0.26054600  0.33679800  1
  C  C20  1  0.29807700  0.27741200  0.68877400  1
  C  C21  1  0.85986400  0.26599300  0.75310900  1
  C  C22  1  0.94642600  0.88363700  0.83474500  1
  C  C23  1  0.63436800  0.86570800  0.44298800  1
  C  C24  1  0.36563200  0.13429200  0.55701200  1
  C  C25  1  0.63995200  0.17659200  0.83607800  1
  C  C26  1  0.48191000  0.06148500  0.71895500  1
  C  C27  1  0.40711200  0.52872200  0.42376400  1
  C  C28  1  0.12163600  0.68376300  0.80997100  1
  C  C29  1  0.70192300  0.72258800  0.31122600  1
  C  C30  1  0.01408200  0.51593500  0.63551200  1
  C  C31  1  0.68866500  0.13900600  0.59283700  1
  C  C32  1  0.14013600  0.73400700  0.24689100  1
  C  C33  1  0.09968500  0.24298100  0.99954700  1
  C  C34  1  0.47183300  0.38652800  0.26553500  1
  C  C35  1  0.64911400  0.43641700  0.95352000  1
  C  C36  1  0.35203900  0.29302200  0.09265400  1
  C  C37  1  0.31133500  0.86099400  0.40716300  1
  C  C38  1  0.87836400  0.31623700  0.19002900  1
  C  C39  1  0.90031500  0.75701900  0.00045300  1
  C  C40  1  0.63109900  0.63614300  0.19090600  1
  C  C41  1  0.19809900  0.89093200  0.91924000  1
  C  C42  1  0.36050000  0.73824900  0.50645000  1
  C  C43  1  0.36004800  0.82340800  0.16392200  1
  C  C44  1  0.51809000  0.93851500  0.28104500  1
  C  C45  1  0.02001900  0.41472500  0.08184500  1
  C  C46  1  0.63950000  0.26175100  0.49355000  1
  C  C47  1  0.36890100  0.36385700  0.80909400  1
  C  C48  1  0.87811300  0.73945400  0.66320200  1
  C  C49  1  0.90068100  0.63280900  0.54638600  1
  C  C50  1  0.09931900  0.36719100  0.45361400  1
  C  C51  1  0.35088600  0.56358300  0.04648000  1
  C  C52  1  0.59288800  0.47127800  0.57623600  1
  C  C53  1  0.05357400  0.11636300  0.16525500  1
  C  C54  1  0.97998100  0.58527500  0.91815500  1
  C  C55  1  0.98591800  0.48406500  0.36448800  1
  O  O56  1  0.50429100  0.47539400  0.43424100  1
  O  O57  1  0.25266000  0.94490800  0.39414700  1
  O  O58  1  0.93949800  0.67900500  0.50119300  1
  O  O59  1  0.29245800  0.32949900  0.84919300  1
  O  O60  1  0.36571400  0.94160100  0.69019900  1
  O  O61  1  0.74734000  0.05509200  0.60585300  1
  O  O62  1  0.55644600  0.32669700  0.97490200  1
  O  O63  1  0.70754200  0.67050100  0.15080700  1
  O  O64  1  0.97392500  0.84646400  0.04661200  1
  O  O65  1  0.90056300  0.97521000  0.82000100  1
  O  O66  1  0.02607500  0.15353600  0.95338800  1
  O  O67  1  0.68797600  0.02043900  0.04139600  1
  O  O68  1  0.04894600  0.50868500  0.93412400  1
  O  O69  1  0.79830200  0.34602100  0.22226800  1
  O  O70  1  0.82703900  0.81007500  0.34678300  1
  O  O71  1  0.78235500  0.95704600  0.45741000  1
  O  O72  1  0.44355400  0.67330300  0.02509800  1
  O  O73  1  0.98985200  0.26813800  0.74699700  1
  O  O74  1  0.21764500  0.04295400  0.54259000  1
  O  O75  1  0.91780000  0.86623600  0.69229500  1
  O  O76  1  0.17296100  0.18992500  0.65321700  1
  O  O77  1  0.45230200  0.25850700  0.27411800  1
  O  O78  1  0.01014800  0.73186200  0.25300300  1
  O  O79  1  0.06050200  0.32099500  0.49880700  1
  O  O80  1  0.49570900  0.52460600  0.56575900  1
  O  O81  1  0.36772100  0.87842900  0.11906600  1
  O  O82  1  0.31202400  0.97956100  0.95860400  1
  O  O83  1  0.08220000  0.13376400  0.30770500  1
  O  O84  1  0.63227900  0.12157100  0.88093400  1
  O  O85  1  0.54769800  0.74149300  0.72588200  1
  O  O86  1  0.09943700  0.02479000  0.17999900  1
  O  O87  1  0.44246200  0.23775200  0.10606300  1
  O  O88  1  0.63428600  0.05839900  0.30980100  1
  O  O89  1  0.95105400  0.49131500  0.06587600  1
  O  O90  1  0.86875300  0.50800200  0.35409700  1
  O  O91  1  0.32882100  0.74309500  0.55546700  1
  O  O92  1  0.67117900  0.25690500  0.44453300  1
  O  O93  1  0.55753800  0.76224800  0.89393700  1
  O  O94  1  0.13124700  0.49199800  0.64590300  1
  O  O95  1  0.20169800  0.65397900  0.77773200  1
