# generated using pymatgen
data_SbP3C(NCl5)3
_symmetry_space_group_name_H-M   'P 1'
_cell_length_a   9.81586200
_cell_length_b   12.09649506
_cell_length_c   13.86164496
_cell_angle_alpha   84.28020149
_cell_angle_beta   87.90881865
_cell_angle_gamma   72.82558291
_symmetry_Int_Tables_number   1
_chemical_formula_structural   SbP3C(NCl5)3
_chemical_formula_sum   'Sb2 P6 C2 N6 Cl30'
_cell_volume   1564.63498600
_cell_formula_units_Z   2
loop_
 _symmetry_equiv_pos_site_id
 _symmetry_equiv_pos_as_xyz
  1  'x, y, z'
loop_
 _atom_site_type_symbol
 _atom_site_label
 _atom_site_symmetry_multiplicity
 _atom_site_fract_x
 _atom_site_fract_y
 _atom_site_fract_z
 _atom_site_occupancy
  Sb  Sb0  1  0.72624900  0.75518300  0.71154400  1
  Sb  Sb1  1  0.27375100  0.24481700  0.28845600  1
  P  P2  1  0.87035800  0.19619100  0.66629000  1
  P  P3  1  0.59172100  0.72105800  0.21024800  1
  P  P4  1  0.22116800  0.78829300  0.01399400  1
  P  P5  1  0.40827900  0.27894200  0.78975200  1
  P  P6  1  0.12964200  0.80380900  0.33371000  1
  P  P7  1  0.77883200  0.21170700  0.98600600  1
  C  C8  1  0.31191200  0.76565300  0.19047100  1
  C  C9  1  0.68808800  0.23434700  0.80952900  1
  N  N10  1  0.20262100  0.78946000  0.12858100  1
  N  N11  1  0.71300700  0.22825500  0.71154500  1
  N  N12  1  0.44694500  0.73699800  0.15674100  1
  N  N13  1  0.28699300  0.77174500  0.28845500  1
  N  N14  1  0.79737900  0.21054000  0.87141900  1
  N  N15  1  0.55305500  0.26300200  0.84325900  1
  Cl  Cl16  1  0.98324300  0.68843600  0.69969700  1
  Cl  Cl17  1  0.97149400  0.17116500  0.04313600  1
  Cl  Cl18  1  0.59679600  0.83863400  0.29996700  1
  Cl  Cl19  1  0.33043100  0.63761300  0.96656700  1
  Cl  Cl20  1  0.31620900  0.38338800  0.46433700  1
  Cl  Cl21  1  0.26428300  0.27484900  0.89300900  1
  Cl  Cl22  1  0.67437000  0.56819400  0.28734500  1
  Cl  Cl23  1  0.31133900  0.90559800  0.95049100  1
  Cl  Cl24  1  0.83541300  0.19105600  0.52512300  1
  Cl  Cl25  1  0.29621700  0.10479600  0.16671100  1
  Cl  Cl26  1  0.64326700  0.30873500  0.29384500  1
  Cl  Cl27  1  0.70378300  0.89520400  0.83328900  1
  Cl  Cl28  1  0.64711700  0.46734700  0.58843600  1
  Cl  Cl29  1  0.68866100  0.09440200  0.04950900  1
  Cl  Cl30  1  0.36766500  0.85410300  0.68216100  1
  Cl  Cl31  1  0.01675700  0.31156400  0.30030300  1
  Cl  Cl32  1  0.16458700  0.80894400  0.47487700  1
  Cl  Cl33  1  0.40320400  0.16136600  0.70003300  1
  Cl  Cl34  1  0.66956900  0.36238700  0.03343300  1
  Cl  Cl35  1  0.71396100  0.58121900  0.83546600  1
  Cl  Cl36  1  0.02850600  0.82883500  0.95686400  1
  Cl  Cl37  1  0.28603900  0.41878100  0.16453400  1
  Cl  Cl38  1  0.35288300  0.53265300  0.41156400  1
  Cl  Cl39  1  0.35673300  0.69126500  0.70615500  1
  Cl  Cl40  1  0.68379100  0.61661200  0.53566300  1
  Cl  Cl41  1  0.63233500  0.14589700  0.31783900  1
  Cl  Cl42  1  0.29640600  0.09327000  0.44154600  1
  Cl  Cl43  1  0.73571700  0.72515100  0.10699100  1
  Cl  Cl44  1  0.32563000  0.43180600  0.71265500  1
  Cl  Cl45  1  0.70359400  0.90673000  0.55845400  1
