# generated using pymatgen
data_Os6C17S2O17
_symmetry_space_group_name_H-M   'P 1'
_cell_length_a   11.42126100
_cell_length_b   14.79696200
_cell_length_c   17.70686500
_cell_angle_alpha   90.00000000
_cell_angle_beta   90.00000000
_cell_angle_gamma   90.00000000
_symmetry_Int_Tables_number   1
_chemical_formula_structural   Os6C17S2O17
_chemical_formula_sum   'Os24 C68 S8 O68'
_cell_volume   2992.45956542
_cell_formula_units_Z   4
loop_
 _symmetry_equiv_pos_site_id
 _symmetry_equiv_pos_as_xyz
  1  'x, y, z'
loop_
 _atom_site_type_symbol
 _atom_site_label
 _atom_site_symmetry_multiplicity
 _atom_site_fract_x
 _atom_site_fract_y
 _atom_site_fract_z
 _atom_site_occupancy
  Os  Os0  1  0.03744600  0.50964400  0.92572700  1
  Os  Os1  1  0.75314600  0.09093400  0.09660600  1
  Os  Os2  1  0.62629000  0.80661400  0.10545600  1
  Os  Os3  1  0.54525000  0.93302200  0.68444800  1
  Os  Os4  1  0.27545800  0.56832900  0.80296700  1
  Os  Os5  1  0.87371000  0.19338600  0.60545600  1
  Os  Os6  1  0.97600200  0.09420700  0.73100500  1
  Os  Os7  1  0.45475000  0.43302200  0.81555200  1
  Os  Os8  1  0.96255400  0.00964400  0.57427300  1
  Os  Os9  1  0.12629000  0.69338600  0.89454400  1
  Os  Os10  1  0.77545800  0.93167100  0.19703300  1
  Os  Os11  1  0.22454200  0.43167100  0.30296700  1
  Os  Os12  1  0.24685400  0.59093400  0.40339400  1
  Os  Os13  1  0.25314600  0.40906600  0.90339400  1
  Os  Os14  1  0.72454200  0.06832900  0.69703300  1
  Os  Os15  1  0.02399800  0.59420700  0.76899500  1
  Os  Os16  1  0.53744600  0.99035600  0.07427300  1
  Os  Os17  1  0.04525000  0.56697800  0.31555200  1
  Os  Os18  1  0.37371000  0.30661400  0.39454400  1
  Os  Os19  1  0.95475000  0.06697800  0.18444800  1
  Os  Os20  1  0.52399800  0.90579300  0.23100500  1
  Os  Os21  1  0.74685400  0.90906600  0.59660600  1
  Os  Os22  1  0.46255400  0.49035600  0.42572700  1
  Os  Os23  1  0.47600200  0.40579300  0.26899500  1
  C  C24  1  0.12836000  0.62660400  0.23267100  1
  C  C25  1  0.43722100  0.98828000  0.75267800  1
  C  C26  1  0.34556300  0.37873800  0.98726700  1
  C  C27  1  0.63131800  0.37233700  0.29164100  1
  C  C28  1  0.89540000  0.84563300  0.18996700  1
  C  C29  1  0.11711600  0.97319200  0.59661500  1
  C  C30  1  0.38288400  0.02680800  0.09661500  1
  C  C31  1  0.06607300  0.39280000  0.97649000  1
  C  C32  1  0.65443700  0.87873800  0.51273300  1
  C  C33  1  0.03165400  0.02911500  0.81797700  1
  C  C34  1  0.44766700  0.29897900  0.21367100  1
  C  C35  1  0.94766700  0.20102100  0.78632900  1
  C  C36  1  0.98643200  0.76214100  0.89230400  1
  C  C37  1  0.55233300  0.79897900  0.28632900  1
  C  C38  1  0.51325700  0.50250600  0.90194400  1
  C  C39  1  0.56607300  0.10720000  0.02351000  1
  C  C40  1  0.51821800  0.42914400  0.51250900  1
  C  C41  1  0.13131800  0.12766300  0.70835900  1
  C  C42  1  0.74188100  0.21430500  0.12002300  1
  C  C43  1  0.98674300  0.49749400  0.40194400  1
  C  C44  1  0.05521700  0.16798400  0.16361400  1
  C  C45  1  0.20690700  0.43372100  0.19764000  1
  C  C46  1  0.88288400  0.47319200  0.90338500  1
  C  C47  1  0.17307800  0.75092400  0.98700700  1
  C  C48  1  0.82692200  0.25092400  0.51299300  1
  C  C49  1  0.01821800  0.07085600  0.48749100  1
  C  C50  1  0.96834600  0.52911500  0.68202300  1
  C  C51  1  0.06277900  0.01172000  0.25267800  1
  C  C52  1  0.48178200  0.92914400  0.98749100  1
  C  C53  1  0.61711600  0.52680800  0.40338500  1
  C  C54  1  0.43392700  0.60720000  0.47649000  1
  C  C55  1  0.93722100  0.51172000  0.24732200  1
  C  C56  1  0.01325700  0.99749400  0.09805600  1
  C  C57  1  0.44478300  0.83201600  0.66361400  1
  C  C58  1  0.37164000  0.37339600  0.73267100  1
  C  C59  1  0.46834600  0.97088500  0.31797700  1
  C  C60  1  0.70172800  0.71661700  0.16226400  1
  C  C61  1  0.24188100  0.28569500  0.87997700  1
  C  C62  1  0.94478300  0.66798400  0.33638600  1
  C  C63  1  0.25811900  0.71430500  0.37997700  1
  C  C64  1  0.48674300  0.00250600  0.59805600  1
  C  C65  1  0.29827200  0.21661700  0.33773600  1
  C  C66  1  0.87164000  0.12660400  0.26732900  1
  C  C67  1  0.01356800  0.26214100  0.60769600  1
  C  C68  1  0.15443700  0.62126200  0.48726700  1
  C  C69  1  0.79309300  0.93372100  0.30236000  1
  C  C70  1  0.67307800  0.74907600  0.01299300  1
  C  C71  1  0.60460000  0.15436700  0.68996700  1
  C  C72  1  0.48643200  0.73785900  0.10769600  1
  C  C73  1  0.05233300  0.70102100  0.71367100  1
  C  C74  1  0.32692200  0.24907600  0.48700700  1
  C  C75  1  0.62836000  0.87339600  0.76732900  1
  C  C76  1  0.51356800  0.23785900  0.39230400  1
  C  C77  1  0.86868200  0.62766300  0.79164100  1
  C  C78  1  0.79827200  0.28338300  0.66226400  1
  C  C79  1  0.29309300  0.56627900  0.69764000  1
  C  C80  1  0.93392700  0.89280000  0.52351000  1
  C  C81  1  0.39540000  0.65436700  0.81003300  1
  C  C82  1  0.84556300  0.12126200  0.01273300  1
  C  C83  1  0.98178200  0.57085600  0.01250900  1
  C  C84  1  0.36868200  0.87233700  0.20835900  1
  C  C85  1  0.70690700  0.06627900  0.80236000  1
  C  C86  1  0.20172800  0.78338300  0.83773600  1
  C  C87  1  0.56277900  0.48828000  0.74732200  1
  C  C88  1  0.75811900  0.78569500  0.62002300  1
  C  C89  1  0.10460000  0.34563300  0.31003300  1
  C  C90  1  0.55521700  0.33201600  0.83638600  1
  C  C91  1  0.53165400  0.47088500  0.18202300  1
  S  S92  1  0.24376800  0.56764000  0.94374700  1
  S  S93  1  0.11787900  0.45120600  0.80060200  1
  S  S94  1  0.25623200  0.43236000  0.44374700  1
  S  S95  1  0.88212100  0.95120600  0.69939800  1
  S  S96  1  0.74376800  0.93236000  0.05625300  1
  S  S97  1  0.38212100  0.54879400  0.30060200  1
  S  S98  1  0.75623200  0.06764000  0.55625300  1
  S  S99  1  0.61787900  0.04879400  0.19939800  1
  O  O100  1  0.12522000  0.97492400  0.29392700  1
  O  O101  1  0.06681400  0.99032200  0.87036500  1
  O  O102  1  0.62522000  0.52507600  0.70607300  1
  O  O103  1  0.59475700  0.85927000  0.46165900  1
  O  O104  1  0.77314200  0.64767400  0.80662600  1
  O  O105  1  0.20401500  0.79050100  0.03992100  1
  O  O106  1  0.88224800  0.72795800  0.34864200  1
  O  O107  1  0.79598500  0.29050100  0.46007900  1
  O  O108  1  0.94395600  0.60761800  0.06532700  1
  O  O109  1  0.55090800  0.54351100  0.95188500  1
  O  O110  1  0.43318600  0.00967800  0.37036500  1
  O  O111  1  0.73300000  0.29148900  0.13312800  1
  O  O112  1  0.27314200  0.85232600  0.19337400  1
  O  O113  1  0.02793900  0.29347700  0.31483200  1
  O  O114  1  0.06934500  0.76628200  0.67873100  1
  O  O115  1  0.72685800  0.35232600  0.30662600  1
  O  O116  1  0.67502900  0.84017300  0.81799100  1
  O  O117  1  0.44909200  0.04351100  0.54811500  1
  O  O118  1  0.96131800  0.83085500  0.48653300  1
  O  O119  1  0.97206100  0.79347700  0.18516800  1
  O  O120  1  0.43065500  0.23371800  0.17873100  1
  O  O121  1  0.09475700  0.64073000  0.53834100  1
  O  O122  1  0.90503700  0.80948500  0.89276500  1
  O  O123  1  0.59496300  0.19051500  0.39276500  1
  O  O124  1  0.55604400  0.39238200  0.56532700  1
  O  O125  1  0.28804600  0.05204100  0.10800600  1
  O  O126  1  0.47206100  0.70652300  0.81483200  1
  O  O127  1  0.46131800  0.66914500  0.51346700  1
  O  O128  1  0.90524300  0.14073000  0.96165900  1
  O  O129  1  0.56681400  0.50967800  0.12963500  1
  O  O130  1  0.71195400  0.55204100  0.39199400  1
  O  O131  1  0.32497100  0.34017300  0.68200900  1
  O  O132  1  0.05604400  0.10761800  0.43467300  1
  O  O133  1  0.21195400  0.94795900  0.60800600  1
  O  O134  1  0.78804600  0.44795900  0.89199400  1
  O  O135  1  0.69267400  0.06241200  0.86771000  1
  O  O136  1  0.80732600  0.93758800  0.36771000  1
  O  O137  1  0.23300000  0.20851100  0.86687200  1
  O  O138  1  0.19267400  0.43758800  0.13229000  1
  O  O139  1  0.09496300  0.30948500  0.60723500  1
  O  O140  1  0.03868200  0.33085500  0.01346700  1
  O  O141  1  0.53868200  0.16914500  0.98653300  1
  O  O142  1  0.30732600  0.56241200  0.63229000  1
  O  O143  1  0.61775200  0.27204200  0.84864200  1
  O  O144  1  0.37478000  0.02507600  0.79392700  1
  O  O145  1  0.52793900  0.20652300  0.68516800  1
  O  O146  1  0.29598500  0.20949900  0.53992100  1
  O  O147  1  0.40503700  0.69051500  0.10723500  1
  O  O148  1  0.56934500  0.73371800  0.32126900  1
  O  O149  1  0.11775200  0.22795800  0.15135800  1
  O  O150  1  0.22685800  0.14767400  0.69337400  1
  O  O151  1  0.82497100  0.15982700  0.31799100  1
  O  O152  1  0.44395600  0.89238200  0.93467300  1
  O  O153  1  0.26700000  0.79148900  0.36687200  1
  O  O154  1  0.24315300  0.84201100  0.80316500  1
  O  O155  1  0.93318600  0.49032200  0.62963500  1
  O  O156  1  0.05090800  0.95648900  0.04811500  1
  O  O157  1  0.38224800  0.77204200  0.65135800  1
  O  O158  1  0.94909200  0.45648900  0.45188500  1
  O  O159  1  0.74315300  0.65798900  0.19683500  1
  O  O160  1  0.76700000  0.70851100  0.63312800  1
  O  O161  1  0.17502900  0.65982700  0.18200900  1
  O  O162  1  0.40524300  0.35927000  0.03834100  1
  O  O163  1  0.87478000  0.47492400  0.20607300  1
  O  O164  1  0.25684700  0.15798900  0.30316500  1
  O  O165  1  0.70401500  0.70949900  0.96007900  1
  O  O166  1  0.93065500  0.26628200  0.82126900  1
  O  O167  1  0.75684700  0.34201100  0.69683500  1
