# generated using pymatgen
data_ZnS
_symmetry_space_group_name_H-M   'P 1'
_cell_length_a   3.85513265
_cell_length_b   3.85513265
_cell_length_c   201.48987600
_cell_angle_alpha   90.00000000
_cell_angle_beta   90.00000000
_cell_angle_gamma   120.00001119
_symmetry_Int_Tables_number   1
_chemical_formula_structural   ZnS
_chemical_formula_sum   'Zn64 S64'
_cell_volume   2593.35795229
_cell_formula_units_Z   64
loop_
 _symmetry_equiv_pos_site_id
 _symmetry_equiv_pos_as_xyz
  1  'x, y, z'
loop_
 _atom_site_type_symbol
 _atom_site_label
 _atom_site_symmetry_multiplicity
 _atom_site_fract_x
 _atom_site_fract_y
 _atom_site_fract_z
 _atom_site_occupancy
  Zn  Zn0  1  0.33333300  0.66666700  0.92187600  1
  Zn  Zn1  1  0.00000000  0.00000000  0.42187700  1
  Zn  Zn2  1  0.33333300  0.66666700  0.87500000  1
  Zn  Zn3  1  0.33333300  0.66666700  0.74999900  1
  Zn  Zn4  1  0.66666700  0.33333300  0.59374900  1
  Zn  Zn5  1  0.00000000  0.00000000  0.18750000  1
  Zn  Zn6  1  0.66666700  0.33333300  0.50000000  1
  Zn  Zn7  1  0.33333300  0.66666700  0.01562800  1
  Zn  Zn8  1  0.00000000  0.00000000  0.46874900  1
  Zn  Zn9  1  0.66666700  0.33333300  0.84374900  1
  Zn  Zn10  1  0.33333300  0.66666700  0.95312900  1
  Zn  Zn11  1  0.33333300  0.66666700  0.67187700  1
  Zn  Zn12  1  0.33333300  0.66666700  0.78125200  1
  Zn  Zn13  1  0.33333300  0.66666700  0.53125000  1
  Zn  Zn14  1  0.66666700  0.33333300  0.17187700  1
  Zn  Zn15  1  0.66666700  0.33333300  0.89062700  1
  Zn  Zn16  1  0.66666700  0.33333300  0.21874900  1
  Zn  Zn17  1  0.00000000  0.00000000  0.28125100  1
  Zn  Zn18  1  0.00000000  0.00000000  0.23437700  1
  Zn  Zn19  1  0.33333300  0.66666700  0.15625100  1
  Zn  Zn20  1  0.00000000  0.00000000  0.51562700  1
  Zn  Zn21  1  0.00000000  0.00000000  0.60937600  1
  Zn  Zn22  1  0.33333300  0.66666700  0.29687800  1
  Zn  Zn23  1  0.33333300  0.66666700  0.48437600  1
  Zn  Zn24  1  0.66666700  0.33333300  0.12500000  1
  Zn  Zn25  1  0.33333300  0.66666700  0.82812700  1
  Zn  Zn26  1  0.33333300  0.66666700  0.10937700  1
  Zn  Zn27  1  0.66666700  0.33333300  0.03125000  1
  Zn  Zn28  1  0.66666700  0.33333300  0.68749900  1
  Zn  Zn29  1  0.00000000  0.00000000  0.09374900  1
  Zn  Zn30  1  0.00000000  0.00000000  0.81250000  1
  Zn  Zn31  1  0.66666700  0.33333300  0.45312700  1
  Zn  Zn32  1  0.33333300  0.66666700  0.62500000  1
  Zn  Zn33  1  0.33333300  0.66666700  0.70312800  1
  Zn  Zn34  1  0.00000000  0.00000000  0.37500000  1
  Zn  Zn35  1  0.66666700  0.33333300  0.98437500  1
  Zn  Zn36  1  0.00000000  0.00000000  0.96874800  1
  Zn  Zn37  1  0.00000000  0.00000000  0.04687800  1
  Zn  Zn38  1  0.33333300  0.66666700  0.20312700  1
  Zn  Zn39  1  0.00000000  0.00000000  0.85937600  1
  Zn  Zn40  1  0.66666700  0.33333300  0.26562800  1
  Zn  Zn41  1  0.66666700  0.33333300  0.07812700  1
  Zn  Zn42  1  0.33333300  0.66666700  0.34374900  1
  Zn  Zn43  1  0.66666700  0.33333300  0.35937700  1
  Zn  Zn44  1  0.66666700  0.33333300  0.54687800  1
  Zn  Zn45  1  0.66666700  0.33333300  0.73437600  1
  Zn  Zn46  1  0.00000000  0.00000000  0.00000200  1
  Zn  Zn47  1  0.33333300  0.66666700  0.43750000  1
  Zn  Zn48  1  0.33333300  0.66666700  0.39062700  1
  Zn  Zn49  1  0.00000000  0.00000000  0.14062700  1
  Zn  Zn50  1  0.66666700  0.33333300  0.93749900  1
  Zn  Zn51  1  0.66666700  0.33333300  0.31250000  1
  Zn  Zn52  1  0.00000000  0.00000000  0.56250000  1
  Zn  Zn53  1  0.00000000  0.00000000  0.90625100  1
  Zn  Zn54  1  0.00000000  0.00000000  0.71874900  1
  Zn  Zn55  1  0.66666700  0.33333300  0.64062700  1
  Zn  Zn56  1  0.66666700  0.33333300  0.40625100  1
  Zn  Zn57  1  0.33333300  0.66666700  0.06250000  1
  Zn  Zn58  1  0.66666700  0.33333300  0.79687800  1
  Zn  Zn59  1  0.00000000  0.00000000  0.65625100  1
  Zn  Zn60  1  0.00000000  0.00000000  0.32812700  1
  Zn  Zn61  1  0.33333300  0.66666700  0.25000000  1
  Zn  Zn62  1  0.00000000  0.00000000  0.76562600  1
  Zn  Zn63  1  0.33333300  0.66666700  0.57812700  1
  S  S64  1  0.66666700  0.33333300  0.51172000  1
  S  S65  1  0.66666700  0.33333300  0.60546900  1
  S  S66  1  0.33333300  0.66666700  0.49609400  1
  S  S67  1  0.33333300  0.66666700  0.83984400  1
  S  S68  1  0.00000000  0.00000000  0.24609300  1
  S  S69  1  0.33333300  0.66666700  0.12109300  1
  S  S70  1  0.00000000  0.00000000  0.33984300  1
  S  S71  1  0.00000000  0.00000000  0.38672000  1
  S  S72  1  0.00000000  0.00000000  0.73047000  1
  S  S73  1  0.66666700  0.33333300  0.23047000  1
  S  S74  1  0.33333300  0.66666700  0.21484300  1
  S  S75  1  0.33333300  0.66666700  0.76171300  1
  S  S76  1  0.66666700  0.33333300  0.90234300  1
  S  S77  1  0.66666700  0.33333300  0.80859400  1
  S  S78  1  0.00000000  0.00000000  0.66797000  1
  S  S79  1  0.00000000  0.00000000  0.05859300  1
  S  S80  1  0.33333300  0.66666700  0.07422000  1
  S  S81  1  0.00000000  0.00000000  0.15234400  1
  S  S82  1  0.33333300  0.66666700  0.68358700  1
  S  S83  1  0.00000000  0.00000000  0.48047000  1
  S  S84  1  0.33333300  0.66666700  0.26172000  1
  S  S85  1  0.33333300  0.66666700  0.79296900  1
  S  S86  1  0.33333300  0.66666700  0.16797000  1
  S  S87  1  0.66666700  0.33333300  0.69922600  1
  S  S88  1  0.33333300  0.66666700  0.40234300  1
  S  S89  1  0.00000000  0.00000000  0.43359300  1
  S  S90  1  0.00000000  0.00000000  0.91797000  1
  S  S91  1  0.33333300  0.66666700  0.30859400  1
  S  S92  1  0.33333300  0.66666700  0.02734400  1
  S  S93  1  0.33333300  0.66666700  0.58984400  1
  S  S94  1  0.00000000  0.00000000  0.98046300  1
  S  S95  1  0.33333300  0.66666700  0.93358700  1
  S  S96  1  0.66666700  0.33333300  0.94922600  1
  S  S97  1  0.00000000  0.00000000  0.01171900  1
  S  S98  1  0.66666700  0.33333300  0.27734400  1
  S  S99  1  0.00000000  0.00000000  0.82422100  1
  S  S100  1  0.00000000  0.00000000  0.62109300  1
  S  S101  1  0.66666700  0.33333300  0.46484300  1
  S  S102  1  0.33333300  0.66666700  0.96484100  1
  S  S103  1  0.66666700  0.33333300  0.55859400  1
  S  S104  1  0.66666700  0.33333300  0.37109400  1
  S  S105  1  0.66666700  0.33333300  0.74609400  1
  S  S106  1  0.00000000  0.00000000  0.29297000  1
  S  S107  1  0.66666700  0.33333300  0.65234300  1
  S  S108  1  0.66666700  0.33333300  0.04297000  1
  S  S109  1  0.33333300  0.66666700  0.88672000  1
  S  S110  1  0.00000000  0.00000000  0.87109400  1
  S  S111  1  0.33333300  0.66666700  0.63672000  1
  S  S112  1  0.66666700  0.33333300  0.85546900  1
  S  S113  1  0.00000000  0.00000000  0.52734300  1
  S  S114  1  0.33333300  0.66666700  0.35546900  1
  S  S115  1  0.00000000  0.00000000  0.77735000  1
  S  S116  1  0.66666700  0.33333300  0.32422000  1
  S  S117  1  0.33333300  0.66666700  0.44922000  1
  S  S118  1  0.00000000  0.00000000  0.10547000  1
  S  S119  1  0.33333300  0.66666700  0.71484200  1
  S  S120  1  0.66666700  0.33333300  0.41797000  1
  S  S121  1  0.66666700  0.33333300  0.08984400  1
  S  S122  1  0.66666700  0.33333300  0.99610100  1
  S  S123  1  0.00000000  0.00000000  0.19922100  1
  S  S124  1  0.00000000  0.00000000  0.57422000  1
  S  S125  1  0.66666700  0.33333300  0.18359400  1
  S  S126  1  0.33333300  0.66666700  0.54297000  1
  S  S127  1  0.66666700  0.33333300  0.13672000  1
