# generated using pymatgen
data_SbS5N5Cl6
_symmetry_space_group_name_H-M   'P 1'
_cell_length_a   26.57385713
_cell_length_b   25.18932507
_cell_length_c   10.02253356
_cell_angle_alpha   86.73204489
_cell_angle_beta   71.14816049
_cell_angle_gamma   22.11979462
_symmetry_Int_Tables_number   1
_chemical_formula_structural   SbS5N5Cl6
_chemical_formula_sum   'Sb4 S20 N20 Cl24'
_cell_volume   1752.74956866
_cell_formula_units_Z   4
loop_
 _symmetry_equiv_pos_site_id
 _symmetry_equiv_pos_as_xyz
  1  'x, y, z'
loop_
 _atom_site_type_symbol
 _atom_site_label
 _atom_site_symmetry_multiplicity
 _atom_site_fract_x
 _atom_site_fract_y
 _atom_site_fract_z
 _atom_site_occupancy
  Sb  Sb0  1  0.90120600  0.22159400  0.77630800  1
  Sb  Sb1  1  0.47369200  0.14910800  0.34879400  1
  Sb  Sb2  1  0.02840600  0.34879400  0.14910800  1
  Sb  Sb3  1  0.10089200  0.77630800  0.22159400  1
  S  S4  1  0.18802000  0.00208000  0.04904200  1
  S  S5  1  0.63857000  0.07675000  0.77229300  1
  S  S6  1  0.49490000  0.38531000  0.45662800  1
  S  S7  1  0.66316300  0.45662800  0.38531000  1
  S  S8  1  0.47377600  0.56379000  0.73026500  1
  S  S9  1  0.37169900  0.05322600  0.43446900  1
  S  S10  1  0.51973500  0.01783100  0.77622400  1
  S  S11  1  0.51238700  0.77229300  0.07675000  1
  S  S12  1  0.14060500  0.43446900  0.05322600  1
  S  S13  1  0.79337200  0.58683700  0.75510000  1
  S  S14  1  0.23216900  0.73026500  0.56379000  1
  S  S15  1  0.17325000  0.61143000  0.73761300  1
  S  S16  1  0.76085800  0.04904200  0.00208000  1
  S  S17  1  0.20095800  0.48914200  0.06198000  1
  S  S18  1  0.81553100  0.10939500  0.87830100  1
  S  S19  1  0.24792000  0.06198000  0.48914200  1
  S  S20  1  0.19677400  0.87830100  0.10939500  1
  S  S21  1  0.47770700  0.73761300  0.61143000  1
  S  S22  1  0.68621000  0.77622400  0.01783100  1
  S  S23  1  0.86469000  0.75510000  0.58683700  1
  N  N24  1  0.78515300  0.88891900  0.65881300  1
  N  N25  1  0.97983600  0.82668500  0.85328500  1
  N  N26  1  0.03854700  0.88498700  0.72520600  1
  N  N27  1  0.35126000  0.72520600  0.88498700  1
  N  N28  1  0.39671500  0.90980500  0.27016400  1
  N  N29  1  0.36108100  0.46484700  0.58288500  1
  N  N30  1  0.77986600  0.65318200  0.83925700  1
  N  N31  1  0.36501300  0.21145300  0.89874000  1
  N  N32  1  0.42331500  0.27016400  0.90980500  1
  N  N33  1  0.59118700  0.58288500  0.46484700  1
  N  N34  1  0.66711500  0.65881300  0.88891900  1
  N  N35  1  0.70600100  0.16152000  0.99951900  1
  N  N36  1  0.34019500  0.85328500  0.82668500  1
  N  N37  1  0.25048100  0.11704100  0.54399900  1
  N  N38  1  0.08848000  0.54399900  0.11704100  1
  N  N39  1  0.13295900  0.99951900  0.16152000  1
  N  N40  1  0.59681800  0.47013400  0.52230500  1
  N  N41  1  0.41074300  0.52230500  0.47013400  1
  N  N42  1  0.72769500  0.83925700  0.65318200  1
  N  N43  1  0.52479400  0.89874000  0.21145300  1
  Cl  Cl44  1  0.22570700  0.93285200  0.47716700  1
  Cl  Cl45  1  0.32973100  0.61974300  0.13753100  1
  Cl  Cl46  1  0.57894400  0.50643400  0.07432100  1
  Cl  Cl47  1  0.84850300  0.47555600  0.11431200  1
  Cl  Cl48  1  0.32143800  0.37313200  0.35314100  1
  Cl  Cl49  1  0.77444400  0.40149700  0.68837200  1
  Cl  Cl50  1  0.02437600  0.04440200  0.86928100  1
  Cl  Cl51  1  0.36427300  0.47716700  0.93285200  1
  Cl  Cl52  1  0.17567900  0.40969900  0.67105600  1
  Cl  Cl53  1  0.84030100  0.07432100  0.50643400  1
  Cl  Cl54  1  0.56162800  0.11431200  0.47555600  1
  Cl  Cl55  1  0.74356600  0.67105600  0.40969900  1
  Cl  Cl56  1  0.89685900  0.29771100  0.92856200  1
  Cl  Cl57  1  0.31714800  0.02429300  0.88572700  1
  Cl  Cl58  1  0.63025700  0.92026900  0.33700500  1
  Cl  Cl59  1  0.06194100  0.86928100  0.04440200  1
  Cl  Cl60  1  0.87686800  0.92856200  0.29771100  1
  Cl  Cl61  1  0.95228900  0.35314100  0.37313200  1
  Cl  Cl62  1  0.77283300  0.88572700  0.02429300  1
  Cl  Cl63  1  0.13568800  0.68837200  0.40149700  1
  Cl  Cl64  1  0.11246900  0.33700500  0.92026900  1
  Cl  Cl65  1  0.20559800  0.22562400  0.18805900  1
  Cl  Cl66  1  0.38071900  0.18805900  0.22562400  1
  Cl  Cl67  1  0.91299500  0.13753100  0.61974300  1
