# generated using pymatgen
data_Sm2B4O9
_symmetry_space_group_name_H-M   'P 1'
_cell_length_a   13.04811647
_cell_length_b   13.04811647
_cell_length_c   25.16036004
_cell_angle_alpha   80.26650126
_cell_angle_beta   80.26650126
_cell_angle_gamma   19.78958806
_symmetry_Int_Tables_number   1
_chemical_formula_structural   Sm2B4O9
_chemical_formula_sum   'Sm20 B40 O90'
_cell_volume   1428.77995798
_cell_formula_units_Z   10
loop_
 _symmetry_equiv_pos_site_id
 _symmetry_equiv_pos_as_xyz
  1  'x, y, z'
loop_
 _atom_site_type_symbol
 _atom_site_label
 _atom_site_symmetry_multiplicity
 _atom_site_fract_x
 _atom_site_fract_y
 _atom_site_fract_z
 _atom_site_occupancy
  Sm  Sm0  1  0.26189100  0.86509800  0.92936500  1
  Sm  Sm1  1  0.18029700  0.53595300  0.29172100  1
  Sm  Sm2  1  0.92073600  0.38804900  0.54052700  1
  Sm  Sm3  1  0.57739800  0.98999800  0.13038000  1
  Sm  Sm4  1  0.34177500  0.68085200  0.32166000  1
  Sm  Sm5  1  0.65822500  0.31914800  0.67834000  1
  Sm  Sm6  1  0.53595300  0.18029700  0.79172100  1
  Sm  Sm7  1  0.42260200  0.01000200  0.86962000  1
  Sm  Sm8  1  0.46404700  0.81970300  0.20827900  1
  Sm  Sm9  1  0.38804900  0.92073600  0.04052700  1
  Sm  Sm10  1  0.73810900  0.13490200  0.07063500  1
  Sm  Sm11  1  0.13490200  0.73810900  0.57063500  1
  Sm  Sm12  1  0.68085200  0.34177500  0.82166000  1
  Sm  Sm13  1  0.31914800  0.65822500  0.17834000  1
  Sm  Sm14  1  0.07926400  0.61195100  0.45947300  1
  Sm  Sm15  1  0.98999800  0.57739800  0.63038000  1
  Sm  Sm16  1  0.61195100  0.07926400  0.95947300  1
  Sm  Sm17  1  0.01000200  0.42260200  0.36962000  1
  Sm  Sm18  1  0.81970300  0.46404700  0.70827900  1
  Sm  Sm19  1  0.86509800  0.26189100  0.42936500  1
  B  B20  1  0.76863600  0.37611500  0.03113700  1
  B  B21  1  0.56818000  0.13482500  0.55815900  1
  B  B22  1  0.92102700  0.57479900  0.78191300  1
  B  B23  1  0.22527800  0.87713700  0.72529300  1
  B  B24  1  0.07897300  0.42520100  0.21808700  1
  B  B25  1  0.07368100  0.72732500  0.69133300  1
  B  B26  1  0.63902100  0.96860400  0.36622200  1
  B  B27  1  0.84620200  0.21469900  0.56595000  1
  B  B28  1  0.96791000  0.51449500  0.96150900  1
  B  B29  1  0.92631900  0.27267500  0.30866700  1
  B  B30  1  0.54390000  0.16406600  0.66230500  1
  B  B31  1  0.12286300  0.77472200  0.77470700  1
  B  B32  1  0.42520100  0.07897300  0.71808700  1
  B  B33  1  0.43182000  0.86517500  0.44184100  1
  B  B34  1  0.03671900  0.77735500  0.87608100  1
  B  B35  1  0.72732500  0.07368100  0.19133300  1
  B  B36  1  0.03139600  0.36097900  0.13377800  1
  B  B37  1  0.27267500  0.92631900  0.80866700  1
  B  B38  1  0.03209000  0.48550500  0.03849100  1
  B  B39  1  0.36097900  0.03139600  0.63377800  1
  B  B40  1  0.57479900  0.92102700  0.28191300  1
  B  B41  1  0.37611500  0.76863600  0.53113700  1
  B  B42  1  0.96328100  0.22264500  0.12391900  1
  B  B43  1  0.62388500  0.23136400  0.46886300  1
  B  B44  1  0.21469900  0.84620200  0.06595000  1
  B  B45  1  0.15379800  0.78530100  0.43405000  1
  B  B46  1  0.23136400  0.62388500  0.96886300  1
  B  B47  1  0.51449500  0.96791000  0.46150900  1
  B  B48  1  0.83593400  0.45610000  0.83769500  1
  B  B49  1  0.78530100  0.15379800  0.93405000  1
  B  B50  1  0.86517500  0.43182000  0.94184100  1
  B  B51  1  0.13482500  0.56818000  0.05815900  1
  B  B52  1  0.77735500  0.03671900  0.37608100  1
  B  B53  1  0.48550500  0.03209000  0.53849100  1
  B  B54  1  0.77472200  0.12286300  0.27470700  1
  B  B55  1  0.22264500  0.96328100  0.62391900  1
  B  B56  1  0.87713700  0.22527800  0.22529300  1
  B  B57  1  0.45610000  0.83593400  0.33769500  1
  B  B58  1  0.16406600  0.54390000  0.16230500  1
  B  B59  1  0.96860400  0.63902100  0.86622200  1
  O  O60  1  0.55466600  0.31715300  0.97791200  1
  O  O61  1  0.44441800  0.24921300  0.05575100  1
  O  O62  1  0.15287700  0.13177600  0.63626500  1
  O  O63  1  0.92057500  0.68085500  0.05572900  1
  O  O64  1  0.79254600  0.08037400  0.88887200  1
  O  O65  1  0.04882800  0.69137400  0.10873500  1
  O  O66  1  0.77409500  0.13098900  0.15971600  1
  O  O67  1  0.04366400  0.74027100  0.01555400  1
  O  O68  1  0.65823700  0.78829000  0.51333000  1
  O  O69  1  0.31715300  0.55466600  0.47791200  1
  O  O70  1  0.76644700  0.69458300  0.24195600  1
  O  O71  1  0.30862600  0.95117200  0.39126500  1
  O  O72  1  0.67086600  0.72239200  0.63246600  1
  O  O73  1  0.72239200  0.67086600  0.13246600  1
  O  O74  1  0.77129700  0.49760300  0.33571000  1
  O  O75  1  0.27760800  0.32913400  0.86753400  1
  O  O76  1  0.86822400  0.84712300  0.86373500  1
  O  O77  1  0.08037400  0.79254600  0.38887200  1
  O  O78  1  0.13098900  0.77409500  0.65971600  1
  O  O79  1  0.59127500  0.19201900  0.42628900  1
  O  O80  1  0.18164200  0.24214400  0.18615500  1
  O  O81  1  0.47051600  0.93548900  0.32721100  1
  O  O82  1  0.25611800  0.20008300  0.58144500  1
  O  O83  1  0.90821100  0.19376500  0.72632600  1
  O  O84  1  0.69137400  0.04882800  0.60873500  1
  O  O85  1  0.93548900  0.47051600  0.82721100  1
  O  O86  1  0.75217100  0.37677500  0.16950600  1
  O  O87  1  0.67392900  0.28449800  0.58491500  1
  O  O88  1  0.74388200  0.79991700  0.41855500  1
  O  O89  1  0.31345000  0.68655000  0.75000000  1
  O  O90  1  0.68284700  0.44533400  0.52208800  1
  O  O91  1  0.78829000  0.65823700  0.01333000  1
  O  O92  1  0.74027100  0.04366400  0.51555400  1
  O  O93  1  0.23355300  0.30541700  0.75804400  1
  O  O94  1  0.71550200  0.32607100  0.91508500  1
  O  O95  1  0.55558200  0.75078700  0.94424900  1
  O  O96  1  0.80798100  0.40872500  0.07371100  1
  O  O97  1  0.34176300  0.21171000  0.48667000  1
  O  O98  1  0.80623500  0.09178900  0.77367400  1
  O  O99  1  0.07942500  0.31914500  0.94427100  1
  O  O100  1  0.13177600  0.15287700  0.13626500  1
  O  O101  1  0.28449800  0.67392900  0.08491500  1
  O  O102  1  0.75785600  0.81835800  0.31384500  1
  O  O103  1  0.24214400  0.18164200  0.68615500  1
  O  O104  1  0.75078700  0.55558200  0.44424900  1
  O  O105  1  0.02947100  0.73299300  0.19978400  1
  O  O106  1  0.32607100  0.71550200  0.41508500  1
  O  O107  1  0.52948400  0.06451100  0.67278900  1
  O  O108  1  0.79991700  0.74388200  0.91855500  1
  O  O109  1  0.95117200  0.30862600  0.89126500  1
  O  O110  1  0.32913400  0.27760800  0.36753400  1
  O  O111  1  0.50239700  0.22870300  0.16429000  1
  O  O112  1  0.97052900  0.26700700  0.80021600  1
  O  O113  1  0.38090800  0.80840000  0.75418600  1
  O  O114  1  0.30541700  0.23355300  0.25804400  1
  O  O115  1  0.31914500  0.07942500  0.44427100  1
  O  O116  1  0.49760300  0.77129700  0.83571000  1
  O  O117  1  0.06451100  0.52948400  0.17278900  1
  O  O118  1  0.19201900  0.59127500  0.92628900  1
  O  O119  1  0.81835800  0.75785600  0.81384500  1
  O  O120  1  0.19376500  0.90821100  0.22632600  1
  O  O121  1  0.09076700  0.85464100  0.95682000  1
  O  O122  1  0.21171000  0.34176300  0.98667000  1
  O  O123  1  0.61909200  0.19160000  0.24581400  1
  O  O124  1  0.37677500  0.75217100  0.66950600  1
  O  O125  1  0.69458300  0.76644700  0.74195600  1
  O  O126  1  0.20008300  0.25611800  0.08144400  1
  O  O127  1  0.62322500  0.24782900  0.33049400  1
  O  O128  1  0.40872500  0.80798100  0.57371100  1
  O  O129  1  0.95633600  0.25972900  0.98444600  1
  O  O130  1  0.25972900  0.95633600  0.48444600  1
  O  O131  1  0.86901100  0.22590500  0.34028400  1
  O  O132  1  0.68655000  0.31345000  0.25000000  1
  O  O133  1  0.73299300  0.02947100  0.69978400  1
  O  O134  1  0.91962600  0.20745400  0.61112800  1
  O  O135  1  0.44533400  0.68284700  0.02208800  1
  O  O136  1  0.22870300  0.50239700  0.66429000  1
  O  O137  1  0.22590500  0.86901100  0.84028400  1
  O  O138  1  0.09178900  0.80623500  0.27367400  1
  O  O139  1  0.24782900  0.62322500  0.83049400  1
  O  O140  1  0.80840000  0.38090800  0.25418600  1
  O  O141  1  0.24921300  0.44441800  0.55575100  1
  O  O142  1  0.14535900  0.90923300  0.54318000  1
  O  O143  1  0.90923300  0.14535900  0.04318000  1
  O  O144  1  0.85464100  0.09076700  0.45682000  1
  O  O145  1  0.19160000  0.61909200  0.74581400  1
  O  O146  1  0.26700700  0.97052900  0.30021600  1
  O  O147  1  0.84712300  0.86822400  0.36373500  1
  O  O148  1  0.20745400  0.91962600  0.11112800  1
  O  O149  1  0.68085500  0.92057500  0.55572900  1
