# generated using pymatgen
data_CrC5SO7
_symmetry_space_group_name_H-M   'P 1'
_cell_length_a   6.68962300
_cell_length_b   12.64696200
_cell_length_c   22.12043700
_cell_angle_alpha   90.00000000
_cell_angle_beta   90.00000000
_cell_angle_gamma   90.00000000
_symmetry_Int_Tables_number   1
_chemical_formula_structural   CrC5SO7
_chemical_formula_sum   'Cr8 C40 S8 O56'
_cell_volume   1871.46435389
_cell_formula_units_Z   8
loop_
 _symmetry_equiv_pos_site_id
 _symmetry_equiv_pos_as_xyz
  1  'x, y, z'
loop_
 _atom_site_type_symbol
 _atom_site_label
 _atom_site_symmetry_multiplicity
 _atom_site_fract_x
 _atom_site_fract_y
 _atom_site_fract_z
 _atom_site_occupancy
  Cr  Cr0  1  0.01083500  0.74060000  0.05826100  1
  Cr  Cr1  1  0.99730400  0.99331500  0.31383000  1
  Cr  Cr2  1  0.51083500  0.75940000  0.55826100  1
  Cr  Cr3  1  0.98916500  0.25940000  0.55826100  1
  Cr  Cr4  1  0.48916500  0.24060000  0.05826100  1
  Cr  Cr5  1  0.00269600  0.00668500  0.81383000  1
  Cr  Cr6  1  0.50269600  0.49331500  0.31383000  1
  Cr  Cr7  1  0.49730400  0.50668500  0.81383000  1
  C  C8  1  0.35089600  0.54276600  0.38228600  1
  C  C9  1  0.86200000  0.39491400  0.54846300  1
  C  C10  1  0.11949100  0.12253300  0.56515400  1
  C  C11  1  0.71636400  0.44900900  0.36582800  1
  C  C12  1  0.36200000  0.10508600  0.04846300  1
  C  C13  1  0.66099500  0.70917300  0.48974800  1
  C  C14  1  0.36789400  0.37009300  0.80697800  1
  C  C15  1  0.13210600  0.87009300  0.80697800  1
  C  C16  1  0.65344500  0.44032800  0.24525400  1
  C  C17  1  0.34655500  0.55967200  0.74525400  1
  C  C18  1  0.33900500  0.29082700  0.98974800  1
  C  C19  1  0.20231300  0.30389400  0.50644700  1
  C  C20  1  0.16099500  0.79082700  0.98974800  1
  C  C21  1  0.86301500  0.68717200  0.12739200  1
  C  C22  1  0.62639500  0.64215900  0.82378500  1
  C  C23  1  0.36301500  0.81282800  0.62739200  1
  C  C24  1  0.15344500  0.05967200  0.74525400  1
  C  C25  1  0.13698500  0.31282800  0.62739200  1
  C  C26  1  0.64910400  0.45723400  0.88228600  1
  C  C27  1  0.70231300  0.19610600  0.00644700  1
  C  C28  1  0.14910400  0.04276600  0.38228600  1
  C  C29  1  0.12639500  0.85784100  0.32378500  1
  C  C30  1  0.85089600  0.95723400  0.88228600  1
  C  C31  1  0.38050900  0.62253300  0.56515400  1
  C  C32  1  0.63800000  0.89491400  0.54846300  1
  C  C33  1  0.78363600  0.94900900  0.36582800  1
  C  C34  1  0.21636400  0.05099100  0.86582800  1
  C  C35  1  0.79768700  0.69610600  0.00644700  1
  C  C36  1  0.87360500  0.14215900  0.82378500  1
  C  C37  1  0.28363600  0.55099100  0.86582800  1
  C  C38  1  0.29768700  0.80389400  0.50644700  1
  C  C39  1  0.63210600  0.62990700  0.30697800  1
  C  C40  1  0.86789400  0.12990700  0.30697800  1
  C  C41  1  0.83900500  0.20917300  0.48974800  1
  C  C42  1  0.84655500  0.94032800  0.24525400  1
  C  C43  1  0.61949100  0.37746700  0.06515400  1
  C  C44  1  0.63698500  0.18717200  0.12739200  1
  C  C45  1  0.13800000  0.60508600  0.04846300  1
  C  C46  1  0.37360500  0.35784100  0.32378500  1
  C  C47  1  0.88050900  0.87746700  0.06515400  1
  S  S48  1  0.24026400  0.29438700  0.11906600  1
  S  S49  1  0.75973600  0.70561300  0.61906600  1
  S  S50  1  0.74026400  0.20561300  0.61906600  1
  S  S51  1  0.25973600  0.79438700  0.11906600  1
  S  S52  1  0.75884700  0.95495800  0.75025300  1
  S  S53  1  0.24115300  0.04504200  0.25025300  1
  S  S54  1  0.74115300  0.45495800  0.75025300  1
  S  S55  1  0.25884700  0.54504200  0.25025300  1
  O  O56  1  0.72258200  0.66184900  0.67883500  1
  O  O57  1  0.77613200  0.65224400  0.16789900  1
  O  O58  1  0.70437000  0.72310300  0.82984800  1
  O  O59  1  0.66878200  0.66978100  0.97516900  1
  O  O60  1  0.30101000  0.57651600  0.18828100  1
  O  O61  1  0.27741800  0.33815100  0.17883500  1
  O  O62  1  0.69899000  0.42348400  0.68828100  1
  O  O63  1  0.26079100  0.57014900  0.42404800  1
  O  O64  1  0.75347800  0.67721100  0.44959000  1
  O  O65  1  0.27613200  0.84775600  0.66789900  1
  O  O66  1  0.15246600  0.57693100  0.89647400  1
  O  O67  1  0.72386800  0.15224400  0.16789900  1
  O  O68  1  0.65246600  0.92306900  0.39647400  1
  O  O69  1  0.70491300  0.71257100  0.30437600  1
  O  O70  1  0.76079100  0.92985100  0.92404800  1
  O  O71  1  0.75829200  0.90766000  0.20432500  1
  O  O72  1  0.29508700  0.28742900  0.80437600  1
  O  O73  1  0.77741800  0.16184900  0.67883500  1
  O  O74  1  0.80101000  0.92348400  0.68828100  1
  O  O75  1  0.74652200  0.17721100  0.44959000  1
  O  O76  1  0.79563000  0.22310300  0.82984800  1
  O  O77  1  0.03435500  0.28962700  0.09857300  1
  O  O78  1  0.20437000  0.77689700  0.32984800  1
  O  O79  1  0.53435500  0.21037300  0.59857300  1
  O  O80  1  0.20491300  0.78742900  0.80437600  1
  O  O81  1  0.19899000  0.07651600  0.18828100  1
  O  O82  1  0.83121800  0.16978100  0.97516900  1
  O  O83  1  0.30433100  0.54090400  0.56797800  1
  O  O84  1  0.74170800  0.40766000  0.20432500  1
  O  O85  1  0.19566900  0.04090400  0.56797800  1
  O  O86  1  0.25347800  0.82278900  0.94959000  1
  O  O87  1  0.71763600  0.97524800  0.54200400  1
  O  O88  1  0.46564500  0.78962700  0.09857300  1
  O  O89  1  0.96564500  0.71037300  0.59857300  1
  O  O90  1  0.73920900  0.42985100  0.92404800  1
  O  O91  1  0.69566900  0.45909600  0.06797800  1
  O  O92  1  0.94812100  0.45191600  0.77005600  1
  O  O93  1  0.29563000  0.27689700  0.32984800  1
  O  O94  1  0.24170800  0.09234000  0.70432500  1
  O  O95  1  0.16878200  0.83021900  0.47516900  1
  O  O96  1  0.84753400  0.42306900  0.39647400  1
  O  O97  1  0.23920900  0.07014900  0.42404800  1
  O  O98  1  0.44812100  0.04808400  0.27005600  1
  O  O99  1  0.21763600  0.52475200  0.04200400  1
  O  O100  1  0.24652200  0.32278900  0.94959000  1
  O  O101  1  0.28236400  0.02475200  0.04200400  1
  O  O102  1  0.78236400  0.47524800  0.54200400  1
  O  O103  1  0.33121800  0.33021900  0.47516900  1
  O  O104  1  0.25829200  0.59234000  0.70432500  1
  O  O105  1  0.80433100  0.95909600  0.06797800  1
  O  O106  1  0.22386800  0.34775600  0.66789900  1
  O  O107  1  0.22258200  0.83815100  0.17883500  1
  O  O108  1  0.79508700  0.21257100  0.30437600  1
  O  O109  1  0.05187900  0.54808400  0.27005600  1
  O  O110  1  0.55187900  0.95191600  0.77005600  1
  O  O111  1  0.34753400  0.07693100  0.89647400  1
