# generated using pymatgen
data_Pd2S9N4
_symmetry_space_group_name_H-M   'P 1'
_cell_length_a   19.46462101
_cell_length_b   19.46462101
_cell_length_c   19.46462076
_cell_angle_alpha   118.71006726
_cell_angle_beta   118.71006726
_cell_angle_gamma   118.71006675
_symmetry_Int_Tables_number   1
_chemical_formula_structural   Pd2S9N4
_chemical_formula_sum   'Pd12 S54 N24'
_cell_volume   2162.72514389
_cell_formula_units_Z   6
loop_
 _symmetry_equiv_pos_site_id
 _symmetry_equiv_pos_as_xyz
  1  'x, y, z'
loop_
 _atom_site_type_symbol
 _atom_site_label
 _atom_site_symmetry_multiplicity
 _atom_site_fract_x
 _atom_site_fract_y
 _atom_site_fract_z
 _atom_site_occupancy
  Pd  Pd0  1  0.70779600  0.12211600  0.75981000  1
  Pd  Pd1  1  0.79380000  0.99325800  0.15311200  1
  Pd  Pd2  1  0.00674200  0.84688800  0.20620000  1
  Pd  Pd3  1  0.84688800  0.20620000  0.00674200  1
  Pd  Pd4  1  0.24019000  0.29220400  0.87788400  1
  Pd  Pd5  1  0.12211600  0.75981000  0.70779600  1
  Pd  Pd6  1  0.29220400  0.87788400  0.24019000  1
  Pd  Pd7  1  0.75981000  0.70779600  0.12211600  1
  Pd  Pd8  1  0.15311200  0.79380000  0.99325800  1
  Pd  Pd9  1  0.99325800  0.15311200  0.79380000  1
  Pd  Pd10  1  0.20620000  0.00674200  0.84688800  1
  Pd  Pd11  1  0.87788400  0.24019000  0.29220400  1
  S  S12  1  0.94809200  0.69108400  0.51897400  1
  S  S13  1  0.02977100  0.57722100  0.90272000  1
  S  S14  1  0.09968400  0.58022700  0.45806000  1
  S  S15  1  0.81889100  0.52151700  0.67611600  1
  S  S16  1  0.09769000  0.69563500  0.15792400  1
  S  S17  1  0.67611600  0.81889100  0.52151700  1
  S  S18  1  0.90231000  0.30436500  0.84207600  1
  S  S19  1  0.01438200  0.09377000  0.28844200  1
  S  S20  1  0.58022700  0.45806000  0.09968400  1
  S  S21  1  0.65442900  0.69659300  0.86309700  1
  S  S22  1  0.69563500  0.15792400  0.09769000  1
  S  S23  1  0.15792400  0.09769000  0.69563500  1
  S  S24  1  0.69659300  0.86309700  0.65442900  1
  S  S25  1  0.23933900  0.92278900  0.66222200  1
  S  S26  1  0.07721100  0.33777800  0.76066100  1
  S  S27  1  0.47848300  0.32388400  0.18110900  1
  S  S28  1  0.57763900  0.56633000  0.18882400  1
  S  S29  1  0.66222200  0.23933900  0.92278900  1
  S  S30  1  0.90272000  0.02977100  0.57722100  1
  S  S31  1  0.48102600  0.05190800  0.30891600  1
  S  S32  1  0.28844200  0.01438200  0.09377000  1
  S  S33  1  0.52151700  0.67611600  0.81889100  1
  S  S34  1  0.92278900  0.66222200  0.23933900  1
  S  S35  1  0.42236100  0.43367000  0.81117600  1
  S  S36  1  0.43367000  0.81117600  0.42236100  1
  S  S37  1  0.98561800  0.90623000  0.71155800  1
  S  S38  1  0.18110900  0.47848300  0.32388400  1
  S  S39  1  0.42277900  0.09728000  0.97023000  1
  S  S40  1  0.41977300  0.54194000  0.90031600  1
  S  S41  1  0.18882400  0.57763900  0.56633000  1
  S  S42  1  0.09377000  0.28844200  0.01438200  1
  S  S43  1  0.33777800  0.76066100  0.07721100  1
  S  S44  1  0.56633000  0.18882400  0.57763900  1
  S  S45  1  0.69108400  0.51897400  0.94809200  1
  S  S46  1  0.54194000  0.90031600  0.41977300  1
  S  S47  1  0.81117600  0.42236100  0.43367000  1
  S  S48  1  0.34557100  0.30340700  0.13690300  1
  S  S49  1  0.86309700  0.65442900  0.69659300  1
  S  S50  1  0.51897400  0.94809200  0.69108400  1
  S  S51  1  0.30340700  0.13690300  0.34557100  1
  S  S52  1  0.30436500  0.84207600  0.90231000  1
  S  S53  1  0.09728000  0.97023000  0.42277900  1
  S  S54  1  0.76066100  0.07721100  0.33777800  1
  S  S55  1  0.57722100  0.90272000  0.02977100  1
  S  S56  1  0.84207600  0.90231000  0.30436500  1
  S  S57  1  0.90031600  0.41977300  0.54194000  1
  S  S58  1  0.45806000  0.09968400  0.58022700  1
  S  S59  1  0.32388400  0.18110900  0.47848300  1
  S  S60  1  0.05190800  0.30891600  0.48102600  1
  S  S61  1  0.13690300  0.34557100  0.30340700  1
  S  S62  1  0.97023000  0.42277900  0.09728000  1
  S  S63  1  0.90623000  0.71155800  0.98561800  1
  S  S64  1  0.30891600  0.48102600  0.05190800  1
  S  S65  1  0.71155800  0.98561800  0.90623000  1
  N  N66  1  0.11239500  0.09068800  0.90241500  1
  N  N67  1  0.90931200  0.09758500  0.88760500  1
  N  N68  1  0.42351100  0.08730400  0.88211700  1
  N  N69  1  0.90241500  0.11239500  0.09068800  1
  N  N70  1  0.36383600  0.23392100  0.85914700  1
  N  N71  1  0.50428300  0.98176300  0.26247500  1
  N  N72  1  0.09758500  0.88760500  0.90931200  1
  N  N73  1  0.01823700  0.73752500  0.49571700  1
  N  N74  1  0.57648900  0.91269600  0.11788300  1
  N  N75  1  0.85914700  0.36383600  0.23392100  1
  N  N76  1  0.09068800  0.90241500  0.11239500  1
  N  N77  1  0.98176300  0.26247500  0.50428300  1
  N  N78  1  0.88760500  0.90931200  0.09758500  1
  N  N79  1  0.23392100  0.85914700  0.36383600  1
  N  N80  1  0.91269600  0.11788300  0.57648900  1
  N  N81  1  0.08730400  0.88211700  0.42351100  1
  N  N82  1  0.76607900  0.14085300  0.63616400  1
  N  N83  1  0.26247500  0.50428300  0.98176300  1
  N  N84  1  0.14085300  0.63616400  0.76607900  1
  N  N85  1  0.63616400  0.76607900  0.14085300  1
  N  N86  1  0.88211700  0.42351100  0.08730400  1
  N  N87  1  0.73752500  0.49571700  0.01823700  1
  N  N88  1  0.11788300  0.57648900  0.91269600  1
  N  N89  1  0.49571700  0.01823700  0.73752500  1
