# generated using pymatgen
data_Pr14Si11Ni6
_symmetry_space_group_name_H-M   'P 1'
_cell_length_a   17.32216484
_cell_length_b   17.32216484
_cell_length_c   21.60504693
_cell_angle_alpha   65.87037231
_cell_angle_beta   65.87037231
_cell_angle_gamma   14.20114560
_symmetry_Int_Tables_number   1
_chemical_formula_structural   Pr14Si11Ni6
_chemical_formula_sum   'Pr28 Si22 Ni12'
_cell_volume   1449.16792033
_cell_formula_units_Z   2
loop_
 _symmetry_equiv_pos_site_id
 _symmetry_equiv_pos_as_xyz
  1  'x, y, z'
loop_
 _atom_site_type_symbol
 _atom_site_label
 _atom_site_symmetry_multiplicity
 _atom_site_fract_x
 _atom_site_fract_y
 _atom_site_fract_z
 _atom_site_occupancy
  Pr  Pr0  1  0.99590800  0.99590800  0.18112100  1
  Pr  Pr1  1  0.70862800  0.70862800  0.17710500  1
  Pr  Pr2  1  0.49727700  0.49727700  0.67881900  1
  Pr  Pr3  1  0.71261700  0.71261700  0.97575900  1
  Pr  Pr4  1  0.38636800  0.38636800  0.64693400  1
  Pr  Pr5  1  0.60992600  0.60992600  0.53769100  1
  Pr  Pr6  1  0.61363200  0.61363200  0.35306600  1
  Pr  Pr7  1  0.39255400  0.39255400  0.28632400  1
  Pr  Pr8  1  0.71178000  0.71178000  0.77180400  1
  Pr  Pr9  1  0.10967000  0.10967000  0.03686400  1
  Pr  Pr10  1  0.28928100  0.28928100  0.42591800  1
  Pr  Pr11  1  0.60744600  0.60744600  0.71367600  1
  Pr  Pr12  1  0.10453500  0.10453500  0.21421200  1
  Pr  Pr13  1  0.71071900  0.71071900  0.57408200  1
  Pr  Pr14  1  0.89033000  0.89033000  0.96313600  1
  Pr  Pr15  1  0.29137200  0.29137200  0.82289500  1
  Pr  Pr16  1  0.71318300  0.71318300  0.37551200  1
  Pr  Pr17  1  0.50272300  0.50272300  0.32118100  1
  Pr  Pr18  1  0.28822000  0.28822000  0.22819600  1
  Pr  Pr19  1  0.89546500  0.89546500  0.78578800  1
  Pr  Pr20  1  0.28681700  0.28681700  0.62448800  1
  Pr  Pr21  1  0.28738300  0.28738300  0.02424100  1
  Pr  Pr22  1  0.00000000  0.00000000  0.00000000  1
  Pr  Pr23  1  0.11377300  0.11377300  0.85621000  1
  Pr  Pr24  1  0.00409200  0.00409200  0.81887900  1
  Pr  Pr25  1  0.39007400  0.39007400  0.46230900  1
  Pr  Pr26  1  0.50000000  0.50000000  0.50000000  1
  Pr  Pr27  1  0.88622700  0.88622700  0.14379000  1
  Si  Si28  1  0.06865600  0.06865600  0.65616400  1
  Si  Si29  1  0.93134400  0.93134400  0.34383600  1
  Si  Si30  1  0.81572800  0.81572800  0.50693600  1
  Si  Si31  1  0.18175800  0.18175800  0.69389300  1
  Si  Si32  1  0.81523200  0.81523200  0.90905100  1
  Si  Si33  1  0.18427200  0.18427200  0.49306400  1
  Si  Si34  1  0.07614000  0.07614000  0.46618600  1
  Si  Si35  1  0.43440700  0.43440700  0.84351100  1
  Si  Si36  1  0.92386000  0.92386000  0.53381400  1
  Si  Si37  1  0.19187400  0.19187400  0.88880700  1
  Si  Si38  1  0.57638800  0.57638800  0.96551000  1
  Si  Si39  1  0.42361200  0.42361200  0.03449000  1
  Si  Si40  1  0.81824200  0.81824200  0.30610700  1
  Si  Si41  1  0.80812600  0.80812600  0.11119300  1
  Si  Si42  1  0.81422500  0.81422500  0.70817800  1
  Si  Si43  1  0.18577500  0.18577500  0.29182200  1
  Si  Si44  1  0.54429400  0.54429400  0.87878900  1
  Si  Si45  1  0.04435400  0.04435400  0.37976900  1
  Si  Si46  1  0.45570600  0.45570600  0.12121100  1
  Si  Si47  1  0.95564600  0.95564600  0.62023100  1
  Si  Si48  1  0.18476800  0.18476800  0.09094900  1
  Si  Si49  1  0.56559300  0.56559300  0.15648900  1
  Ni  Ni50  1  0.14650400  0.14650400  0.61423300  1
  Ni  Ni51  1  0.85349600  0.85349600  0.38576700  1
  Ni  Ni52  1  0.35642700  0.35642700  0.88557800  1
  Ni  Ni53  1  0.34918300  0.34918300  0.08529800  1
  Ni  Ni54  1  0.96891400  0.96891400  0.41972200  1
  Ni  Ni55  1  0.65081700  0.65081700  0.91470200  1
  Ni  Ni56  1  0.46870600  0.46870600  0.92023300  1
  Ni  Ni57  1  0.03108600  0.03108600  0.58027800  1
  Ni  Ni58  1  0.15155000  0.15155000  0.41690400  1
  Ni  Ni59  1  0.84845000  0.84845000  0.58309600  1
  Ni  Ni60  1  0.53129400  0.53129400  0.07976700  1
  Ni  Ni61  1  0.64357300  0.64357300  0.11442200  1
