# generated using pymatgen
data_ReC5ClO5
_symmetry_space_group_name_H-M   'P 1'
_cell_length_a   6.08787100
_cell_length_b   11.76267500
_cell_length_c   11.77609200
_cell_angle_alpha   90.00000000
_cell_angle_beta   90.00000000
_cell_angle_gamma   90.00000000
_symmetry_Int_Tables_number   1
_chemical_formula_structural   ReC5ClO5
_chemical_formula_sum   'Re4 C20 Cl4 O20'
_cell_volume   843.28180311
_cell_formula_units_Z   4
loop_
 _symmetry_equiv_pos_site_id
 _symmetry_equiv_pos_as_xyz
  1  'x, y, z'
loop_
 _atom_site_type_symbol
 _atom_site_label
 _atom_site_symmetry_multiplicity
 _atom_site_fract_x
 _atom_site_fract_y
 _atom_site_fract_z
 _atom_site_occupancy
  Re  Re0  1  0.94933600  0.12504200  0.75000000  1
  Re  Re1  1  0.44933600  0.37495800  0.25000000  1
  Re  Re2  1  0.55066400  0.62504200  0.75000000  1
  Re  Re3  1  0.05066400  0.87495800  0.25000000  1
  C  C4  1  0.79507800  0.97340900  0.25000000  1
  C  C5  1  0.69309200  0.52991500  0.62790400  1
  C  C6  1  0.19309200  0.97008500  0.12790400  1
  C  C7  1  0.41617000  0.72460500  0.87156800  1
  C  C8  1  0.08383000  0.22460500  0.62843200  1
  C  C9  1  0.80690800  0.02991500  0.87209600  1
  C  C10  1  0.30690800  0.47008500  0.37209600  1
  C  C11  1  0.41617000  0.72460500  0.62843200  1
  C  C12  1  0.08383000  0.22460500  0.87156800  1
  C  C13  1  0.30690800  0.47008500  0.12790400  1
  C  C14  1  0.58383000  0.27539500  0.12843200  1
  C  C15  1  0.69309200  0.52991500  0.87209600  1
  C  C16  1  0.20492200  0.02659100  0.75000000  1
  C  C17  1  0.58383000  0.27539500  0.37156800  1
  C  C18  1  0.19309200  0.97008500  0.37209600  1
  C  C19  1  0.91617000  0.77539500  0.37156800  1
  C  C20  1  0.70492200  0.47340900  0.25000000  1
  C  C21  1  0.29507800  0.52659100  0.75000000  1
  C  C22  1  0.80690800  0.02991500  0.62790400  1
  C  C23  1  0.91617000  0.77539500  0.12843200  1
  Cl  Cl24  1  0.61720500  0.25191000  0.75000000  1
  Cl  Cl25  1  0.88279500  0.75191000  0.75000000  1
  Cl  Cl26  1  0.38279500  0.74809000  0.25000000  1
  Cl  Cl27  1  0.11720500  0.24809000  0.25000000  1
  O  O28  1  0.23455300  0.52337800  0.44513600  1
  O  O29  1  0.73455300  0.97662200  0.55486400  1
  O  O30  1  0.84360400  0.71960700  0.44252700  1
  O  O31  1  0.85871200  0.53227600  0.25000000  1
  O  O32  1  0.64128800  0.03227600  0.25000000  1
  O  O33  1  0.23455300  0.52337800  0.05486400  1
  O  O34  1  0.15639600  0.28039300  0.94252700  1
  O  O35  1  0.65639600  0.21960700  0.05747300  1
  O  O36  1  0.26544700  0.02337800  0.05486400  1
  O  O37  1  0.35871200  0.96772400  0.75000000  1
  O  O38  1  0.34360400  0.78039300  0.55747300  1
  O  O39  1  0.14128800  0.46772400  0.75000000  1
  O  O40  1  0.65639600  0.21960700  0.44252700  1
  O  O41  1  0.26544700  0.02337800  0.44513600  1
  O  O42  1  0.84360400  0.71960700  0.05747300  1
  O  O43  1  0.73455300  0.97662200  0.94513600  1
  O  O44  1  0.15639600  0.28039300  0.55747300  1
  O  O45  1  0.34360400  0.78039300  0.94252700  1
  O  O46  1  0.76544700  0.47662200  0.55486400  1
  O  O47  1  0.76544700  0.47662200  0.94513600  1
