# generated using pymatgen
data_Co4Ge(CO)13
_symmetry_space_group_name_H-M   'P 1'
_cell_length_a   8.13932200
_cell_length_b   8.89228245
_cell_length_c   15.93843858
_cell_angle_alpha   89.11415172
_cell_angle_beta   104.73671652
_cell_angle_gamma   110.54933721
_symmetry_Int_Tables_number   1
_chemical_formula_structural   Co4Ge(CO)13
_chemical_formula_sum   'Co8 Ge2 C26 O26'
_cell_volume   1041.16676360
_cell_formula_units_Z   2
loop_
 _symmetry_equiv_pos_site_id
 _symmetry_equiv_pos_as_xyz
  1  'x, y, z'
loop_
 _atom_site_type_symbol
 _atom_site_label
 _atom_site_symmetry_multiplicity
 _atom_site_fract_x
 _atom_site_fract_y
 _atom_site_fract_z
 _atom_site_occupancy
  Co  Co0  1  0.81859700  0.85454200  0.30962800  1
  Co  Co1  1  0.51692400  0.75899700  0.36218600  1
  Co  Co2  1  0.63269600  0.21373000  0.92224600  1
  Co  Co3  1  0.39363900  0.45501900  0.71057900  1
  Co  Co4  1  0.48307600  0.24100300  0.63781400  1
  Co  Co5  1  0.60636100  0.54498100  0.28942100  1
  Co  Co6  1  0.36730400  0.78627000  0.07775400  1
  Co  Co7  1  0.18140300  0.14545800  0.69037200  1
  Ge  Ge8  1  0.52832900  0.74777200  0.21938600  1
  Ge  Ge9  1  0.47167100  0.25222800  0.78061400  1
  C  C10  1  0.96710000  0.84213500  0.41083100  1
  C  C11  1  0.71366300  0.35991900  0.65736500  1
  C  C12  1  0.24119900  0.82503100  0.97648200  1
  C  C13  1  0.72577100  0.49013600  0.38857000  1
  C  C14  1  0.27422900  0.50986400  0.61143000  1
  C  C15  1  0.03290000  0.15786500  0.58916900  1
  C  C16  1  0.49937500  0.94845500  0.37101300  1
  C  C17  1  0.50062500  0.05154500  0.62898700  1
  C  C18  1  0.93290200  0.84800900  0.23163100  1
  C  C19  1  0.37425400  0.27152600  0.53005500  1
  C  C20  1  0.40916300  0.97459600  0.13118500  1
  C  C21  1  0.59083700  0.02540400  0.86881500  1
  C  C22  1  0.19370800  0.60983900  0.09450400  1
  C  C23  1  0.46123400  0.25132400  0.95964000  1
  C  C24  1  0.62574600  0.72847400  0.46994500  1
  C  C25  1  0.53876600  0.74867600  0.04036000  1
  C  C26  1  0.38979400  0.39270200  0.26468700  1
  C  C27  1  0.31270700  0.50873800  0.79246300  1
  C  C28  1  0.16149800  0.94253700  0.69225900  1
  C  C29  1  0.75880100  0.17496900  0.02351800  1
  C  C30  1  0.68729300  0.49126200  0.20753700  1
  C  C31  1  0.06709800  0.15199100  0.76836900  1
  C  C32  1  0.80629200  0.39016100  0.90549600  1
  C  C33  1  0.83850200  0.05746300  0.30774100  1
  C  C34  1  0.28633700  0.64008100  0.34263500  1
  C  C35  1  0.61020600  0.60729800  0.73531300  1
  O  O36  1  0.13285600  0.56432100  0.33169800  1
  O  O37  1  0.43452300  0.09894600  0.16420500  1
  O  O38  1  0.14325700  0.80745300  0.69350600  1
  O  O39  1  0.20400100  0.55730500  0.55003900  1
  O  O40  1  0.08016500  0.49323600  0.10357600  1
  O  O41  1  0.07600500  0.84461000  0.47441400  1
  O  O42  1  0.73713900  0.45009500  0.15309500  1
  O  O43  1  0.35321200  0.27738200  0.98636700  1
  O  O44  1  0.01503500  0.84870500  0.18156100  1
  O  O45  1  0.79599900  0.44269500  0.44996100  1
  O  O46  1  0.68929100  0.71122600  0.54156500  1
  O  O47  1  0.24941900  0.28864700  0.24864100  1
  O  O48  1  0.84041200  0.14534900  0.08788500  1
  O  O49  1  0.85674300  0.19254700  0.30649400  1
  O  O50  1  0.15958800  0.85465100  0.91211500  1
  O  O51  1  0.98496500  0.15129500  0.81843900  1
  O  O52  1  0.56547700  0.90105400  0.83579500  1
  O  O53  1  0.26286100  0.54990500  0.84690500  1
  O  O54  1  0.86714400  0.43567900  0.66830200  1
  O  O55  1  0.91983500  0.50676400  0.89642400  1
  O  O56  1  0.75058100  0.71135300  0.75135900  1
  O  O57  1  0.48280200  0.07146400  0.37958000  1
  O  O58  1  0.31070900  0.28877400  0.45843500  1
  O  O59  1  0.92399500  0.15539000  0.52558600  1
  O  O60  1  0.51719800  0.92853600  0.62042000  1
  O  O61  1  0.64678800  0.72261800  0.01363300  1
