# generated using pymatgen
data_Ge2RuC4(Cl3O2)2
_symmetry_space_group_name_H-M   'P 1'
_cell_length_a   12.84463200
_cell_length_b   9.87149500
_cell_length_c   13.11312434
_cell_angle_alpha   88.49403632
_cell_angle_beta   90.00000000
_cell_angle_gamma   90.00000000
_symmetry_Int_Tables_number   1
_chemical_formula_structural   Ge2RuC4(Cl3O2)2
_chemical_formula_sum   'Ge8 Ru4 C16 Cl24 O16'
_cell_volume   1662.11374862
_cell_formula_units_Z   4
loop_
 _symmetry_equiv_pos_site_id
 _symmetry_equiv_pos_as_xyz
  1  'x, y, z'
loop_
 _atom_site_type_symbol
 _atom_site_label
 _atom_site_symmetry_multiplicity
 _atom_site_fract_x
 _atom_site_fract_y
 _atom_site_fract_z
 _atom_site_occupancy
  Ge  Ge0  1  0.52615100  0.43718200  0.64292700  1
  Ge  Ge1  1  0.81808000  0.00233100  0.64828200  1
  Ge  Ge2  1  0.30407100  0.48107900  0.81151300  1
  Ge  Ge3  1  0.02615100  0.56281800  0.35707300  1
  Ge  Ge4  1  0.98151100  0.00286400  0.87267600  1
  Ge  Ge5  1  0.48151100  0.99713600  0.12732400  1
  Ge  Ge6  1  0.31808000  0.99766900  0.35171800  1
  Ge  Ge7  1  0.80407100  0.51892100  0.18848700  1
  Ru  Ru8  1  0.01284600  0.03901200  0.68120100  1
  Ru  Ru9  1  0.00121300  0.54826400  0.16395800  1
  Ru  Ru10  1  0.50121300  0.45173600  0.83604200  1
  Ru  Ru11  1  0.51284600  0.96098800  0.31879900  1
  C  C12  1  0.47755600  0.76919200  0.30011900  1
  C  C13  1  0.97094900  0.74474600  0.16324700  1
  C  C14  1  0.52773800  0.93688500  0.46783200  1
  C  C15  1  0.02947200  0.84052000  0.67763200  1
  C  C16  1  0.47094900  0.25525400  0.83675300  1
  C  C17  1  0.15243100  0.57441000  0.14976200  1
  C  C18  1  0.66098900  0.93580700  0.28821300  1
  C  C19  1  0.51736500  0.64982200  0.81339800  1
  C  C20  1  0.47562300  0.46878800  0.98430100  1
  C  C21  1  0.16098900  0.06419300  0.71178700  1
  C  C22  1  0.97562300  0.53121200  0.01569900  1
  C  C23  1  0.01736500  0.35017800  0.18660200  1
  C  C24  1  0.65243100  0.42559000  0.85023800  1
  C  C25  1  0.52947200  0.15948000  0.32236800  1
  C  C26  1  0.97755600  0.23080800  0.69988100  1
  C  C27  1  0.02773800  0.06311500  0.53216800  1
  Cl  Cl28  1  0.12233900  0.95163900  0.95896800  1
  Cl  Cl29  1  0.72750900  0.56916000  0.33068500  1
  Cl  Cl30  1  0.26824700  0.20680600  0.36625900  1
  Cl  Cl31  1  0.68848100  0.44733900  0.59586000  1
  Cl  Cl32  1  0.95242600  0.40098600  0.44753400  1
  Cl  Cl33  1  0.74988300  0.31476200  0.15797000  1
  Cl  Cl34  1  0.37287900  0.16077500  0.08977600  1
  Cl  Cl35  1  0.87287900  0.83922500  0.91022400  1
  Cl  Cl36  1  0.46546100  0.25301300  0.57709100  1
  Cl  Cl37  1  0.41667500  0.82885400  0.04406000  1
  Cl  Cl38  1  0.24988300  0.68523800  0.84203000  1
  Cl  Cl39  1  0.62233900  0.04836100  0.04103200  1
  Cl  Cl40  1  0.71394700  0.64416700  0.07863700  1
  Cl  Cl41  1  0.22750900  0.43084000  0.66931500  1
  Cl  Cl42  1  0.27074600  0.90083300  0.49751000  1
  Cl  Cl43  1  0.21394700  0.35583300  0.92136300  1
  Cl  Cl44  1  0.20747800  0.91429800  0.24387100  1
  Cl  Cl45  1  0.77074600  0.09916700  0.50249000  1
  Cl  Cl46  1  0.18848100  0.55266100  0.40414000  1
  Cl  Cl47  1  0.45242600  0.59901400  0.55246600  1
  Cl  Cl48  1  0.96546100  0.74698700  0.42290900  1
  Cl  Cl49  1  0.76824700  0.79319400  0.63374100  1
  Cl  Cl50  1  0.91667500  0.17114600  0.95594000  1
  Cl  Cl51  1  0.70747800  0.08570200  0.75612900  1
  O  O52  1  0.53830100  0.27510400  0.32225400  1
  O  O53  1  0.02589400  0.23570500  0.20174800  1
  O  O54  1  0.53774700  0.92338100  0.55442500  1
  O  O55  1  0.03830100  0.72489600  0.67774600  1
  O  O56  1  0.24815400  0.07690300  0.72828700  1
  O  O57  1  0.95559300  0.34232300  0.71010900  1
  O  O58  1  0.03774700  0.07661900  0.44557500  1
  O  O59  1  0.96264900  0.52007600  0.92962300  1
  O  O60  1  0.95423800  0.85886200  0.16358300  1
  O  O61  1  0.74066700  0.41461800  0.86192000  1
  O  O62  1  0.74815400  0.92309700  0.27171300  1
  O  O63  1  0.45423800  0.14113800  0.83641700  1
  O  O64  1  0.46264900  0.47992400  0.07037700  1
  O  O65  1  0.52589400  0.76429500  0.79825200  1
  O  O66  1  0.24066700  0.58538200  0.13808000  1
  O  O67  1  0.45559300  0.65767700  0.28989100  1
