# generated using pymatgen
data_Ru5C14(SO7)2
_symmetry_space_group_name_H-M   'P 1'
_cell_length_a   14.70265400
_cell_length_b   8.87603800
_cell_length_c   20.66954836
_cell_angle_alpha   72.95733601
_cell_angle_beta   90.00000000
_cell_angle_gamma   90.00000000
_symmetry_Int_Tables_number   1
_chemical_formula_structural   Ru5C14(SO7)2
_chemical_formula_sum   'Ru20 C56 S8 O56'
_cell_volume   2578.95159983
_cell_formula_units_Z   4
loop_
 _symmetry_equiv_pos_site_id
 _symmetry_equiv_pos_as_xyz
  1  'x, y, z'
loop_
 _atom_site_type_symbol
 _atom_site_label
 _atom_site_symmetry_multiplicity
 _atom_site_fract_x
 _atom_site_fract_y
 _atom_site_fract_z
 _atom_site_occupancy
  Ru  Ru0  1  0.65398000  0.15641400  0.80757400  1
  Ru  Ru1  1  0.34602000  0.84358600  0.19242600  1
  Ru  Ru2  1  0.88231100  0.33263400  0.40045000  1
  Ru  Ru3  1  0.29954500  0.98627500  0.61093100  1
  Ru  Ru4  1  0.51687900  0.38170100  0.78289300  1
  Ru  Ru5  1  0.38231100  0.66736600  0.09955000  1
  Ru  Ru6  1  0.48312100  0.61829900  0.21710700  1
  Ru  Ru7  1  0.61768900  0.33263400  0.90045000  1
  Ru  Ru8  1  0.23570700  0.81709100  0.02121400  1
  Ru  Ru9  1  0.76429300  0.18290900  0.97878600  1
  Ru  Ru10  1  0.73570700  0.18290900  0.47878600  1
  Ru  Ru11  1  0.20045500  0.98627500  0.11093100  1
  Ru  Ru12  1  0.70045500  0.01372500  0.38906900  1
  Ru  Ru13  1  0.11768900  0.66736600  0.59955000  1
  Ru  Ru14  1  0.79954500  0.01372500  0.88906900  1
  Ru  Ru15  1  0.84602000  0.15641400  0.30757400  1
  Ru  Ru16  1  0.01687900  0.61829900  0.71710700  1
  Ru  Ru17  1  0.98312100  0.38170100  0.28289300  1
  Ru  Ru18  1  0.26429300  0.81709100  0.52121400  1
  Ru  Ru19  1  0.15398000  0.84358600  0.69242600  1
  C  C20  1  0.62605700  0.54949200  0.88583800  1
  C  C21  1  0.81023700  0.30461900  0.52197400  1
  C  C22  1  0.43478400  0.54141500  0.79136700  1
  C  C23  1  0.98959500  0.33071000  0.44912700  1
  C  C24  1  0.42606000  0.98378800  0.21433000  1
  C  C25  1  0.78299000  0.01019000  0.05723600  1
  C  C26  1  0.53163000  0.62855000  0.30174300  1
  C  C27  1  0.57394000  0.01621200  0.78567000  1
  C  C28  1  0.28334300  0.03688600  0.69561600  1
  C  C29  1  0.31014200  0.19808500  0.55565300  1
  C  C30  1  0.51040500  0.33071000  0.94912700  1
  C  C31  1  0.17712300  0.76591400  0.78515600  1
  C  C32  1  0.03163000  0.37145000  0.19825700  1
  C  C33  1  0.42743600  0.96312400  0.61506100  1
  C  C34  1  0.01040500  0.66929000  0.55087300  1
  C  C35  1  0.31023700  0.69538100  0.97802600  1
  C  C36  1  0.61409200  0.53172300  0.74325900  1
  C  C37  1  0.46837000  0.37145000  0.69825700  1
  C  C38  1  0.57256400  0.03687600  0.38493900  1
  C  C39  1  0.78334300  0.96311400  0.80438400  1
  C  C40  1  0.67712300  0.23408600  0.71484400  1
  C  C41  1  0.48959500  0.66929000  0.05087300  1
  C  C42  1  0.05301900  0.20325400  0.33943300  1
  C  C43  1  0.93478400  0.45858500  0.70863300  1
  C  C44  1  0.82287700  0.23408600  0.21484400  1
  C  C45  1  0.07394000  0.98378800  0.71433000  1
  C  C46  1  0.12605700  0.45050800  0.61416200  1
  C  C47  1  0.88590800  0.53172300  0.24325900  1
  C  C48  1  0.18976300  0.69538100  0.47802600  1
  C  C49  1  0.18985800  0.19808500  0.05565300  1
  C  C50  1  0.87394300  0.54949200  0.38583800  1
  C  C51  1  0.68976300  0.30461900  0.02197400  1
  C  C52  1  0.71665700  0.96311400  0.30438400  1
  C  C53  1  0.92743600  0.03687600  0.88493900  1
  C  C54  1  0.21665700  0.03688600  0.19561600  1
  C  C55  1  0.94698100  0.79674600  0.66056700  1
  C  C56  1  0.11409200  0.46827700  0.75674100  1
  C  C57  1  0.71701000  0.01019000  0.55723600  1
  C  C58  1  0.37583500  0.72563000  0.50572500  1
  C  C59  1  0.92606000  0.01621200  0.28567000  1
  C  C60  1  0.44698100  0.20325400  0.83943300  1
  C  C61  1  0.68985800  0.80191500  0.44434700  1
  C  C62  1  0.62416500  0.27437000  0.49427500  1
  C  C63  1  0.38590800  0.46827700  0.25674100  1
  C  C64  1  0.12416500  0.72563000  0.00572500  1
  C  C65  1  0.06521600  0.54141500  0.29136700  1
  C  C66  1  0.21701000  0.98981000  0.94276400  1
  C  C67  1  0.37394300  0.45050800  0.11416200  1
  C  C68  1  0.55301900  0.79674600  0.16056700  1
  C  C69  1  0.07256400  0.96312400  0.11506100  1
  C  C70  1  0.81014200  0.80191500  0.94434700  1
  C  C71  1  0.56521600  0.45858500  0.20863300  1
  C  C72  1  0.96837000  0.62855000  0.80174300  1
  C  C73  1  0.28299000  0.98981000  0.44276400  1
  C  C74  1  0.32287700  0.76591400  0.28515600  1
  C  C75  1  0.87583500  0.27437000  0.99427500  1
  S  S76  1  0.64441100  0.03996800  0.93430800  1
  S  S77  1  0.14441100  0.96003200  0.56569200  1
  S  S78  1  0.85558900  0.03996800  0.43430800  1
  S  S79  1  0.27314700  0.69498500  0.64621300  1
  S  S80  1  0.22685300  0.69498500  0.14621300  1
  S  S81  1  0.72685300  0.30501500  0.35378700  1
  S  S82  1  0.35558900  0.96003200  0.06569200  1
  S  S83  1  0.77314700  0.30501500  0.85378700  1
  O  O84  1  0.44087300  0.36350300  0.64686700  1
  O  O85  1  0.94484900  0.32896300  0.00281400  1
  O  O86  1  0.83058900  0.62231800  0.21797000  1
  O  O87  1  0.61330100  0.36061400  0.20240600  1
  O  O88  1  0.20600400  0.09598500  0.89506400  1
  O  O89  1  0.99419600  0.94603600  0.11657500  1
  O  O90  1  0.90543500  0.90190800  0.62761200  1
  O  O91  1  0.31057800  0.72281000  0.34342000  1
  O  O92  1  0.94486000  0.67055700  0.51907000  1
  O  O93  1  0.55912700  0.63649700  0.35313300  1
  O  O94  1  0.18509500  0.32676100  0.02071100  1
  O  O95  1  0.16941100  0.37768200  0.78203000  1
  O  O96  1  0.68942200  0.27719000  0.65658000  1
  O  O97  1  0.29399600  0.09598500  0.39506400  1
  O  O98  1  0.79399600  0.90401500  0.10493600  1
  O  O99  1  0.81490500  0.67323900  0.97928900  1
  O  O100  1  0.02482000  0.07143400  0.72912600  1
  O  O101  1  0.70600400  0.90401500  0.60493600  1
  O  O102  1  0.66941100  0.62231800  0.71797000  1
  O  O103  1  0.88669900  0.36061400  0.70240600  1
  O  O104  1  0.29585200  0.09322100  0.73932100  1
  O  O105  1  0.15626100  0.63794600  0.44008300  1
  O  O106  1  0.59456500  0.90190800  0.12761200  1
  O  O107  1  0.05515100  0.67103700  0.99718600  1
  O  O108  1  0.33058900  0.37768200  0.28203000  1
  O  O109  1  0.44484900  0.67103700  0.49718600  1
  O  O110  1  0.84373900  0.36205400  0.55991700  1
  O  O111  1  0.18942200  0.72281000  0.84342000  1
  O  O112  1  0.55515100  0.32896300  0.50281400  1
  O  O113  1  0.70414800  0.90677900  0.26067900  1
  O  O114  1  0.38669900  0.63938600  0.79759400  1
  O  O115  1  0.50580400  0.94603600  0.61657500  1
  O  O116  1  0.05514000  0.32944300  0.48093000  1
  O  O117  1  0.52482000  0.92856600  0.77087400  1
  O  O118  1  0.05912700  0.36350300  0.14686700  1
  O  O119  1  0.65626100  0.36205400  0.05991700  1
  O  O120  1  0.94087300  0.63649700  0.85313300  1
  O  O121  1  0.40543500  0.09809200  0.87238800  1
  O  O122  1  0.09456500  0.09809200  0.37238800  1
  O  O123  1  0.81057800  0.27719000  0.15658000  1
  O  O124  1  0.86614000  0.68479300  0.37704500  1
  O  O125  1  0.00580400  0.05396400  0.88342500  1
  O  O126  1  0.34373900  0.63794600  0.94008300  1
  O  O127  1  0.13386000  0.31520700  0.62295500  1
  O  O128  1  0.49419600  0.05396400  0.38342500  1
  O  O129  1  0.20414800  0.09322100  0.23932100  1
  O  O130  1  0.36614000  0.31520700  0.12295500  1
  O  O131  1  0.31490500  0.32676100  0.52071100  1
  O  O132  1  0.68509500  0.67323900  0.47928900  1
  O  O133  1  0.47518000  0.07143400  0.22912600  1
  O  O134  1  0.44486000  0.32944300  0.98093000  1
  O  O135  1  0.11330100  0.63938600  0.29759400  1
  O  O136  1  0.79585200  0.90677900  0.76067900  1
  O  O137  1  0.55514000  0.67055700  0.01907000  1
  O  O138  1  0.97518000  0.92856600  0.27087400  1
  O  O139  1  0.63386000  0.68479300  0.87704500  1
