# generated using pymatgen
data_K3Mo3Se14
_symmetry_space_group_name_H-M   'P 1'
_cell_length_a   15.15262986
_cell_length_b   15.15263028
_cell_length_c   20.84948366
_cell_angle_alpha   90.00000000
_cell_angle_beta   90.00000000
_cell_angle_gamma   106.70805539
_symmetry_Int_Tables_number   1
_chemical_formula_structural   K3Mo3Se14
_chemical_formula_sum   'K24 Mo24 Se112'
_cell_volume   4584.98642748
_cell_formula_units_Z   8
loop_
 _symmetry_equiv_pos_site_id
 _symmetry_equiv_pos_as_xyz
  1  'x, y, z'
loop_
 _atom_site_type_symbol
 _atom_site_label
 _atom_site_symmetry_multiplicity
 _atom_site_fract_x
 _atom_site_fract_y
 _atom_site_fract_z
 _atom_site_occupancy
  K  K0  1  0.80755439  0.55606949  0.61912987  1
  K  K1  1  0.33769657  0.58488725  0.32956805  1
  K  K2  1  0.94423275  0.68674746  0.12264225  1
  K  K3  1  0.51848529  0.51848529  0.09439476  1
  K  K4  1  0.19244561  0.44393051  0.11912987  1
  K  K5  1  0.97103086  0.47543355  0.33970078  1
  K  K6  1  0.82028909  0.06345873  0.36056422  1
  K  K7  1  0.47543355  0.97103086  0.33970078  1
  K  K8  1  0.66230343  0.41511275  0.82956805  1
  K  K9  1  0.31325254  0.05576725  0.62264225  1
  K  K10  1  0.52456645  0.02896914  0.83970078  1
  K  K11  1  0.93654127  0.17971091  0.86056422  1
  K  K12  1  0.48151471  0.48151471  0.59439476  1
  K  K13  1  0.05576725  0.31325254  0.62264225  1
  K  K14  1  0.96642537  0.96642537  0.63464040  1
  K  K15  1  0.02896914  0.52456645  0.83970078  1
  K  K16  1  0.68674746  0.94423275  0.12264225  1
  K  K17  1  0.41511275  0.66230343  0.82956805  1
  K  K18  1  0.17971091  0.93654127  0.86056422  1
  K  K19  1  0.55606949  0.80755439  0.61912987  1
  K  K20  1  0.58488725  0.33769657  0.32956805  1
  K  K21  1  0.06345873  0.82028909  0.36056422  1
  K  K22  1  0.44393051  0.19244561  0.11912987  1
  K  K23  1  0.03357463  0.03357463  0.13464040  1
  Mo  Mo24  1  0.29055343  0.17799486  0.39172476  1
  Mo  Mo25  1  0.76281522  0.25575477  0.18652584  1
  Mo  Mo26  1  0.75165662  0.63682629  0.39400981  1
  Mo  Mo27  1  0.74424523  0.23718478  0.68652584  1
  Mo  Mo28  1  0.17799486  0.29055343  0.39172476  1
  Mo  Mo29  1  0.23718478  0.74424523  0.68652584  1
  Mo  Mo30  1  0.75022578  0.75022578  0.28937410  1
  Mo  Mo31  1  0.14096206  0.76779785  0.57737141  1
  Mo  Mo32  1  0.35196397  0.74914227  0.07409988  1
  Mo  Mo33  1  0.25479620  0.25479620  0.27747170  1
  Mo  Mo34  1  0.70944657  0.82200514  0.89172476  1
  Mo  Mo35  1  0.85903794  0.23220215  0.07737141  1
  Mo  Mo36  1  0.23220215  0.85903794  0.07737141  1
  Mo  Mo37  1  0.24834338  0.36317371  0.89400981  1
  Mo  Mo38  1  0.25085773  0.64803603  0.57409988  1
  Mo  Mo39  1  0.74914227  0.35196397  0.07409988  1
  Mo  Mo40  1  0.24977422  0.24977422  0.78937410  1
  Mo  Mo41  1  0.74520380  0.74520380  0.77747170  1
  Mo  Mo42  1  0.36317371  0.24834338  0.89400981  1
  Mo  Mo43  1  0.82200514  0.70944657  0.89172476  1
  Mo  Mo44  1  0.76779785  0.14096206  0.57737141  1
  Mo  Mo45  1  0.63682629  0.75165662  0.39400981  1
  Mo  Mo46  1  0.64803603  0.25085773  0.57409988  1
  Mo  Mo47  1  0.25575477  0.76281522  0.18652584  1
  Se  Se48  1  0.42382217  0.42382217  0.90515376  1
  Se  Se49  1  0.19005867  0.19005867  0.89878470  1
  Se  Se50  1  0.65217557  0.65217557  0.86727240  1
  Se  Se51  1  0.12367503  0.12367503  0.72525384  1
  Se  Se52  1  0.34782443  0.34782443  0.36727240  1
  Se  Se53  1  0.69013655  0.17222186  0.47029370  1
  Se  Se54  1  0.29347831  0.42601475  0.77954269  1
  Se  Se55  1  0.37932093  0.16254919  0.28550013  1
  Se  Se56  1  0.17951200  0.44619694  0.44482801  1
  Se  Se57  1  0.13299213  0.91280719  0.51012577  1
  Se  Se58  1  0.81210947  0.43175665  0.18138281  1
  Se  Se59  1  0.52402832  0.74849462  0.04956861  1
  Se  Se60  1  0.98917257  0.79931513  0.53039082  1
  Se  Se61  1  0.73804414  0.22991285  0.81489845  1
  Se  Se62  1  0.47937213  0.47937213  0.76902372  1
  Se  Se63  1  0.07876263  0.21211121  0.29662570  1
  Se  Se64  1  0.03422576  0.33171020  0.44875799  1
  Se  Se65  1  0.31456122  0.82133842  0.58553041  1
  Se  Se66  1  0.96577424  0.66828980  0.94875799  1
  Se  Se67  1  0.64957717  0.35913922  0.67289840  1
  Se  Se68  1  0.76347285  0.76347285  0.64901047  1
  Se  Se69  1  0.14560033  0.86878888  0.68183206  1
  Se  Se70  1  0.00502189  0.51269031  0.67473886  1
  Se  Se71  1  0.40349544  0.92206527  0.05134885  1
  Se  Se72  1  0.52566139  0.22547141  0.93418297  1
  Se  Se73  1  0.57398525  0.70652169  0.27954269  1
  Se  Se74  1  0.64086078  0.35042283  0.17289840  1
  Se  Se75  1  0.23467114  0.23467114  0.49791794  1
  Se  Se76  1  0.79931513  0.98917257  0.53039082  1
  Se  Se77  1  0.65616041  0.87202463  0.29975403  1
  Se  Se78  1  0.76532886  0.76532886  0.99791794  1
  Se  Se79  1  0.01082743  0.20068487  0.03039082  1
  Se  Se80  1  0.30986345  0.82777814  0.97029370  1
  Se  Se81  1  0.47597168  0.25150538  0.54956861  1
  Se  Se82  1  0.35913922  0.64957717  0.67289840  1
  Se  Se83  1  0.62067907  0.83745081  0.78550013  1
  Se  Se84  1  0.59650456  0.07793473  0.55134885  1
  Se  Se85  1  0.34335009  0.34335009  0.99658395  1
  Se  Se86  1  0.70652169  0.57398525  0.27954269  1
  Se  Se87  1  0.93916296  0.29550944  0.18313907  1
  Se  Se88  1  0.26195586  0.77008715  0.31489845  1
  Se  Se89  1  0.17866158  0.68543878  0.08553041  1
  Se  Se90  1  0.77008715  0.26195586  0.31489845  1
  Se  Se91  1  0.08719281  0.86700787  0.01012577  1
  Se  Se92  1  0.78788879  0.92123737  0.79662570  1
  Se  Se93  1  0.80994133  0.80994133  0.39878470  1
  Se  Se94  1  0.34383959  0.12797537  0.79975403  1
  Se  Se95  1  0.91280719  0.13299213  0.51012577  1
  Se  Se96  1  0.85439967  0.13121112  0.18183206  1
  Se  Se97  1  0.06083704  0.70449056  0.68313907  1
  Se  Se98  1  0.76554171  0.76554171  0.16333693  1
  Se  Se99  1  0.66828980  0.96577424  0.94875799  1
  Se  Se100  1  0.97071999  0.97071999  0.82227201  1
  Se  Se101  1  0.92123737  0.78788879  0.79662570  1
  Se  Se102  1  0.29550944  0.93916296  0.18313907  1
  Se  Se103  1  0.22547141  0.52566139  0.93418297  1
  Se  Se104  1  0.18789053  0.56824335  0.68138281  1
  Se  Se105  1  0.55380306  0.82048800  0.94482801  1
  Se  Se106  1  0.12797537  0.34383959  0.79975403  1
  Se  Se107  1  0.87632497  0.87632497  0.22525384  1
  Se  Se108  1  0.38942034  0.63495945  0.49710008  1
  Se  Se109  1  0.77452859  0.47433861  0.43418297  1
  Se  Se110  1  0.21211121  0.07876263  0.29662570  1
  Se  Se111  1  0.35042283  0.64086078  0.17289840  1
  Se  Se112  1  0.88481528  0.62127412  0.46976982  1
  Se  Se113  1  0.92206527  0.40349544  0.05134885  1
  Se  Se114  1  0.37872588  0.11518472  0.96976982  1
  Se  Se115  1  0.83745081  0.62067907  0.78550013  1
  Se  Se116  1  0.86700787  0.08719281  0.01012577  1
  Se  Se117  1  0.42601475  0.29347831  0.77954269  1
  Se  Se118  1  0.57617783  0.57617783  0.40515376  1
  Se  Se119  1  0.33171020  0.03422576  0.44875799  1
  Se  Se120  1  0.64739339  0.14520487  0.26680330  1
  Se  Se121  1  0.51269031  0.00502189  0.67473886  1
  Se  Se122  1  0.35972740  0.35972740  0.19031513  1
  Se  Se123  1  0.22991285  0.73804414  0.81489845  1
  Se  Se124  1  0.70449056  0.06083704  0.68313907  1
  Se  Se125  1  0.20068487  0.01082743  0.03039082  1
  Se  Se126  1  0.68543878  0.17866158  0.08553041  1
  Se  Se127  1  0.85479513  0.35260661  0.76680330  1
  Se  Se128  1  0.44619694  0.17951200  0.44482801  1
  Se  Se129  1  0.82133842  0.31456122  0.58553041  1
  Se  Se130  1  0.86878888  0.14560033  0.68183206  1
  Se  Se131  1  0.63495945  0.38942034  0.49710008  1
  Se  Se132  1  0.35260661  0.85479513  0.76680330  1
  Se  Se133  1  0.23445829  0.23445829  0.66333693  1
  Se  Se134  1  0.62127412  0.88481528  0.46976982  1
  Se  Se135  1  0.65664991  0.65664991  0.49658395  1
  Se  Se136  1  0.64027260  0.64027260  0.69031513  1
  Se  Se137  1  0.23652715  0.23652715  0.14901047  1
  Se  Se138  1  0.25150538  0.47597168  0.54956861  1
  Se  Se139  1  0.47433861  0.77452859  0.43418297  1
  Se  Se140  1  0.02928001  0.02928001  0.32227201  1
  Se  Se141  1  0.48730969  0.99497811  0.17473886  1
  Se  Se142  1  0.61057966  0.36504055  0.99710008  1
  Se  Se143  1  0.43175665  0.81210947  0.18138281  1
  Se  Se144  1  0.74849462  0.52402832  0.04956861  1
  Se  Se145  1  0.52062787  0.52062787  0.26902372  1
  Se  Se146  1  0.87202463  0.65616041  0.29975403  1
  Se  Se147  1  0.11518472  0.37872588  0.96976982  1
  Se  Se148  1  0.56824335  0.18789053  0.68138281  1
  Se  Se149  1  0.14520487  0.64739339  0.26680330  1
  Se  Se150  1  0.99497811  0.48730969  0.17473886  1
  Se  Se151  1  0.17222186  0.69013655  0.47029370  1
  Se  Se152  1  0.12368314  0.12368314  0.43169538  1
  Se  Se153  1  0.13121112  0.85439967  0.18183206  1
  Se  Se154  1  0.82048800  0.55380306  0.94482801  1
  Se  Se155  1  0.82777814  0.30986345  0.97029370  1
  Se  Se156  1  0.87631686  0.87631686  0.93169538  1
  Se  Se157  1  0.07793473  0.59650456  0.55134885  1
  Se  Se158  1  0.36504055  0.61057966  0.99710008  1
  Se  Se159  1  0.16254919  0.37932093  0.28550013  1
