# generated using pymatgen
data_FeSb2WC8Se2(O2F3)4
_symmetry_space_group_name_H-M   'P 1'
_cell_length_a   12.48512300
_cell_length_b   12.23816000
_cell_length_c   15.42608769
_cell_angle_alpha   87.35522073
_cell_angle_beta   90.00000000
_cell_angle_gamma   90.00000000
_symmetry_Int_Tables_number   1
_chemical_formula_structural   FeSb2WC8Se2(O2F3)4
_chemical_formula_sum   'Fe4 Sb8 W4 C32 Se8 O32 F48'
_cell_volume   2354.51735443
_cell_formula_units_Z   4
loop_
 _symmetry_equiv_pos_site_id
 _symmetry_equiv_pos_as_xyz
  1  'x, y, z'
loop_
 _atom_site_type_symbol
 _atom_site_label
 _atom_site_symmetry_multiplicity
 _atom_site_fract_x
 _atom_site_fract_y
 _atom_site_fract_z
 _atom_site_occupancy
  Fe  Fe0  1  0.46147300  0.62083700  0.68873400  1
  Fe  Fe1  1  0.96147300  0.87916300  0.31126600  1
  Fe  Fe2  1  0.03852700  0.12083700  0.68873400  1
  Fe  Fe3  1  0.53852700  0.37916300  0.31126600  1
  Sb  Sb4  1  0.52753600  0.19596500  0.60886200  1
  Sb  Sb5  1  0.76835000  0.52023800  0.05397800  1
  Sb  Sb6  1  0.97246400  0.69596500  0.60886200  1
  Sb  Sb7  1  0.23165000  0.47976200  0.94602200  1
  Sb  Sb8  1  0.47246400  0.80403500  0.39113800  1
  Sb  Sb9  1  0.26835000  0.97976200  0.94602200  1
  Sb  Sb10  1  0.02753600  0.30403500  0.39113800  1
  Sb  Sb11  1  0.73165000  0.02023800  0.05397800  1
  W  W12  1  0.08060000  0.72012000  0.21485400  1
  W  W13  1  0.58060000  0.77988000  0.78514600  1
  W  W14  1  0.91940000  0.27988000  0.78514600  1
  W  W15  1  0.41940000  0.22012000  0.21485400  1
  C  C16  1  0.35486000  0.37268100  0.23721400  1
  C  C17  1  0.15893000  0.07854200  0.63181300  1
  C  C18  1  0.17017100  0.65556200  0.32211600  1
  C  C19  1  0.94429500  0.44383600  0.82052300  1
  C  C20  1  0.03059000  0.98976200  0.75112500  1
  C  C21  1  0.76583500  0.29575200  0.84476000  1
  C  C22  1  0.54407800  0.72735400  0.91555400  1
  C  C23  1  0.53059000  0.51023800  0.24887500  1
  C  C24  1  0.34107000  0.57854200  0.63181300  1
  C  C25  1  0.04407800  0.77264600  0.08444600  1
  C  C26  1  0.26583500  0.20424800  0.15524000  1
  C  C27  1  0.64514000  0.62731900  0.76278600  1
  C  C28  1  0.55570500  0.94383600  0.82052300  1
  C  C29  1  0.44429500  0.05616400  0.17947700  1
  C  C30  1  0.05570500  0.55616400  0.17947700  1
  C  C31  1  0.94764900  0.08639200  0.60076700  1
  C  C32  1  0.84107000  0.92145800  0.36818700  1
  C  C33  1  0.65893000  0.42145800  0.36818700  1
  C  C34  1  0.82982900  0.34443800  0.67788400  1
  C  C35  1  0.23416500  0.70424800  0.15524000  1
  C  C36  1  0.14514000  0.87268100  0.23721400  1
  C  C37  1  0.73416500  0.79575200  0.84476000  1
  C  C38  1  0.96941000  0.01023800  0.24887500  1
  C  C39  1  0.32982900  0.15556200  0.32211600  1
  C  C40  1  0.67017100  0.84443800  0.67788400  1
  C  C41  1  0.44764900  0.41360800  0.39923300  1
  C  C42  1  0.45592200  0.27264600  0.08444600  1
  C  C43  1  0.55235100  0.58639200  0.60076700  1
  C  C44  1  0.85486000  0.12731900  0.76278600  1
  C  C45  1  0.05235100  0.91360800  0.39923300  1
  C  C46  1  0.95592200  0.22735400  0.91555400  1
  C  C47  1  0.46941000  0.48976200  0.75112500  1
  Se  Se48  1  0.37135200  0.73262600  0.78814900  1
  Se  Se49  1  0.43810600  0.81296800  0.65784600  1
  Se  Se50  1  0.93810600  0.68703200  0.34215400  1
  Se  Se51  1  0.87135200  0.76737400  0.21185100  1
  Se  Se52  1  0.62864800  0.26737400  0.21185100  1
  Se  Se53  1  0.56189400  0.18703200  0.34215400  1
  Se  Se54  1  0.06189400  0.31296800  0.65784600  1
  Se  Se55  1  0.12864800  0.23262600  0.78814900  1
  O  O56  1  0.31690400  0.69897500  0.12411100  1
  O  O57  1  0.47546000  0.29898100  0.01420800  1
  O  O58  1  0.52184800  0.59131400  0.20967200  1
  O  O59  1  0.95145000  0.53319700  0.83842500  1
  O  O60  1  0.47815200  0.40868600  0.79032800  1
  O  O61  1  0.70152700  0.55205900  0.75799100  1
  O  O62  1  0.02184800  0.90868600  0.79032800  1
  O  O63  1  0.97546000  0.20101900  0.98579200  1
  O  O64  1  0.27974400  0.11843900  0.37827700  1
  O  O65  1  0.61343800  0.56695600  0.54848500  1
  O  O66  1  0.73462800  0.44994900  0.40228600  1
  O  O67  1  0.72025600  0.88156100  0.62172300  1
  O  O68  1  0.88656200  0.06695600  0.54848500  1
  O  O69  1  0.18309600  0.19897500  0.12411100  1
  O  O70  1  0.54855000  0.03319700  0.83842500  1
  O  O71  1  0.22025600  0.61843900  0.37827700  1
  O  O72  1  0.23462800  0.05005100  0.59771400  1
  O  O73  1  0.76537200  0.94994900  0.40228600  1
  O  O74  1  0.81690400  0.80102500  0.87588900  1
  O  O75  1  0.45145000  0.96680300  0.16157500  1
  O  O76  1  0.11343800  0.93304400  0.45151500  1
  O  O77  1  0.77974400  0.38156100  0.62172300  1
  O  O78  1  0.79847300  0.05205900  0.75799100  1
  O  O79  1  0.29847300  0.44794100  0.24200900  1
  O  O80  1  0.26537200  0.55005100  0.59771400  1
  O  O81  1  0.04855000  0.46680300  0.16157500  1
  O  O82  1  0.38656200  0.43304400  0.45151500  1
  O  O83  1  0.97815200  0.09131400  0.20967200  1
  O  O84  1  0.52454000  0.70101900  0.98579200  1
  O  O85  1  0.20152700  0.94794100  0.24200900  1
  O  O86  1  0.68309600  0.30102500  0.87588900  1
  O  O87  1  0.02454000  0.79898100  0.01420800  1
  F  F88  1  0.44434900  0.17687100  0.50460900  1
  F  F89  1  0.83282000  0.39358600  0.00614600  1
  F  F90  1  0.47238400  0.95982400  0.36653400  1
  F  F91  1  0.29485300  0.35088100  0.90162200  1
  F  F92  1  0.20514700  0.85088100  0.90162200  1
  F  F93  1  0.34646300  0.81390200  0.46291300  1
  F  F94  1  0.13514100  0.05908700  0.92851600  1
  F  F95  1  0.30809700  0.02571200  0.82918700  1
  F  F96  1  0.55565100  0.82312900  0.49539100  1
  F  F97  1  0.16718000  0.60641400  0.99385400  1
  F  F98  1  0.02761600  0.45982400  0.36653400  1
  F  F99  1  0.61851100  0.21558100  0.70791600  1
  F  F100  1  0.70514700  0.64911900  0.09837800  1
  F  F101  1  0.79485300  0.14911900  0.09837800  1
  F  F102  1  0.02749000  0.14742400  0.41359400  1
  F  F103  1  0.19190300  0.52571200  0.82918700  1
  F  F104  1  0.05565100  0.67687100  0.50460900  1
  F  F105  1  0.72318500  0.56552100  0.93809400  1
  F  F106  1  0.90144300  0.59784400  0.03876800  1
  F  F107  1  0.84646300  0.68609800  0.53708700  1
  F  F108  1  0.40071900  0.20862300  0.67785500  1
  F  F109  1  0.69190300  0.97428800  0.17081300  1
  F  F110  1  0.47251000  0.64742400  0.41359400  1
  F  F111  1  0.59928100  0.79137700  0.32214500  1
  F  F112  1  0.80809700  0.47428800  0.17081300  1
  F  F113  1  0.77681500  0.06552100  0.93809400  1
  F  F114  1  0.09855700  0.40215600  0.96123200  1
  F  F115  1  0.65353700  0.18609800  0.53708700  1
  F  F116  1  0.86485900  0.94091300  0.07148400  1
  F  F117  1  0.11851100  0.28441900  0.29208400  1
  F  F118  1  0.22318500  0.93447900  0.06190600  1
  F  F119  1  0.33282000  0.10641400  0.99385400  1
  F  F120  1  0.09928100  0.70862300  0.67785500  1
  F  F121  1  0.94434900  0.32312900  0.49539100  1
  F  F122  1  0.38148900  0.78441900  0.29208400  1
  F  F123  1  0.66718000  0.89358600  0.00614600  1
  F  F124  1  0.63514100  0.44091300  0.07148400  1
  F  F125  1  0.59855700  0.09784400  0.03876800  1
  F  F126  1  0.27681500  0.43447900  0.06190600  1
  F  F127  1  0.15353700  0.31390200  0.46291300  1
  F  F128  1  0.40144300  0.90215600  0.96123200  1
  F  F129  1  0.52761600  0.04017600  0.63346600  1
  F  F130  1  0.97238400  0.54017600  0.63346600  1
  F  F131  1  0.88148900  0.71558100  0.70791600  1
  F  F132  1  0.90071900  0.29137700  0.32214500  1
  F  F133  1  0.36485900  0.55908700  0.92851600  1
  F  F134  1  0.52749000  0.35257600  0.58640600  1
  F  F135  1  0.97251000  0.85257600  0.58640600  1
