# generated using pymatgen
data_AgAsS6N4(OF3)2
_symmetry_space_group_name_H-M   'P 1'
_cell_length_a   9.30317400
_cell_length_b   10.44350400
_cell_length_c   15.13609200
_cell_angle_alpha   90.00000000
_cell_angle_beta   90.00000000
_cell_angle_gamma   90.00000000
_symmetry_Int_Tables_number   1
_chemical_formula_structural   AgAsS6N4(OF3)2
_chemical_formula_sum   'Ag4 As4 S24 N16 O8 F24'
_cell_volume   1470.58841368
_cell_formula_units_Z   4
loop_
 _symmetry_equiv_pos_site_id
 _symmetry_equiv_pos_as_xyz
  1  'x, y, z'
loop_
 _atom_site_type_symbol
 _atom_site_label
 _atom_site_symmetry_multiplicity
 _atom_site_fract_x
 _atom_site_fract_y
 _atom_site_fract_z
 _atom_site_occupancy
  Ag  Ag0  1  0.25000000  0.00000000  0.58798000  1
  Ag  Ag1  1  0.25000000  0.00000000  0.08798000  1
  Ag  Ag2  1  0.75000000  0.00000000  0.41202000  1
  Ag  Ag3  1  0.75000000  0.00000000  0.91202000  1
  As  As4  1  0.50000000  0.77516800  0.25000000  1
  As  As5  1  0.50000000  0.22483200  0.75000000  1
  As  As6  1  0.00000000  0.77516800  0.75000000  1
  As  As7  1  0.00000000  0.22483200  0.25000000  1
  S  S8  1  0.92963700  0.84133800  0.12489700  1
  S  S9  1  0.07036300  0.15866200  0.87510300  1
  S  S10  1  0.66440900  0.68595000  0.93101400  1
  S  S11  1  0.40221700  0.37826300  0.35838000  1
  S  S12  1  0.66440900  0.31405000  0.43101400  1
  S  S13  1  0.59778300  0.37826300  0.14162000  1
  S  S14  1  0.92963700  0.15866200  0.62489700  1
  S  S15  1  0.42963700  0.15866200  0.37510300  1
  S  S16  1  0.16440900  0.31405000  0.56898600  1
  S  S17  1  0.40221700  0.62173700  0.85838000  1
  S  S18  1  0.59778300  0.62173700  0.64162000  1
  S  S19  1  0.33559100  0.31405000  0.06898600  1
  S  S20  1  0.83559100  0.31405000  0.93101400  1
  S  S21  1  0.90221700  0.37826300  0.64162000  1
  S  S22  1  0.09778300  0.37826300  0.85838000  1
  S  S23  1  0.09778300  0.62173700  0.35838000  1
  S  S24  1  0.33559100  0.68595000  0.56898600  1
  S  S25  1  0.90221700  0.62173700  0.14162000  1
  S  S26  1  0.42963700  0.84133800  0.87510300  1
  S  S27  1  0.57036300  0.84133800  0.62489700  1
  S  S28  1  0.07036300  0.84133800  0.37510300  1
  S  S29  1  0.83559100  0.68595000  0.43101400  1
  S  S30  1  0.16440900  0.68595000  0.06898600  1
  S  S31  1  0.57036300  0.15866200  0.12489700  1
  N  N32  1  0.04833700  0.41751600  0.59130900  1
  N  N33  1  0.89552300  0.82151000  0.39488800  1
  N  N34  1  0.45166300  0.58248400  0.59130900  1
  N  N35  1  0.95166300  0.41751600  0.90869100  1
  N  N36  1  0.54833700  0.41751600  0.40869100  1
  N  N37  1  0.95166300  0.58248400  0.40869100  1
  N  N38  1  0.10447700  0.17849000  0.60511200  1
  N  N39  1  0.39552300  0.82151000  0.60511200  1
  N  N40  1  0.89552300  0.17849000  0.89488800  1
  N  N41  1  0.54833700  0.58248400  0.90869100  1
  N  N42  1  0.10447700  0.82151000  0.10511200  1
  N  N43  1  0.39552300  0.17849000  0.10511200  1
  N  N44  1  0.60447700  0.82151000  0.89488800  1
  N  N45  1  0.45166300  0.41751600  0.09130900  1
  N  N46  1  0.04833700  0.58248400  0.09130900  1
  N  N47  1  0.60447700  0.17849000  0.39488800  1
  O  O48  1  0.14818700  0.87165700  0.45743300  1
  O  O49  1  0.35181300  0.12834300  0.45743300  1
  O  O50  1  0.64818700  0.12834300  0.04256700  1
  O  O51  1  0.85181300  0.87165700  0.04256700  1
  O  O52  1  0.64818700  0.87165700  0.54256700  1
  O  O53  1  0.35181300  0.87165700  0.95743300  1
  O  O54  1  0.85181300  0.12834300  0.54256700  1
  O  O55  1  0.14818700  0.12834300  0.95743300  1
  F  F56  1  0.49515200  0.22541100  0.86726600  1
  F  F57  1  0.50484800  0.22541100  0.63273400  1
  F  F58  1  0.86367800  0.34448800  0.25226500  1
  F  F59  1  0.13466100  0.89620000  0.74785500  1
  F  F60  1  0.00484800  0.22541100  0.36726600  1
  F  F61  1  0.36367800  0.65551200  0.24773500  1
  F  F62  1  0.63632200  0.65551200  0.25226500  1
  F  F63  1  0.49515200  0.77458900  0.36726600  1
  F  F64  1  0.36367800  0.34448800  0.74773500  1
  F  F65  1  0.99515200  0.22541100  0.13273400  1
  F  F66  1  0.63632200  0.34448800  0.75226500  1
  F  F67  1  0.86367800  0.65551200  0.75226500  1
  F  F68  1  0.86533900  0.89620000  0.75214500  1
  F  F69  1  0.13466100  0.10380000  0.24785500  1
  F  F70  1  0.13632200  0.34448800  0.24773500  1
  F  F71  1  0.13632200  0.65551200  0.74773500  1
  F  F72  1  0.63466100  0.89620000  0.25214500  1
  F  F73  1  0.00484800  0.77458900  0.86726600  1
  F  F74  1  0.36533900  0.89620000  0.24785500  1
  F  F75  1  0.50484800  0.77458900  0.13273400  1
  F  F76  1  0.36533900  0.10380000  0.74785500  1
  F  F77  1  0.63466100  0.10380000  0.75214500  1
  F  F78  1  0.99515200  0.77458900  0.63273400  1
  F  F79  1  0.86533900  0.10380000  0.25214500  1
