# generated using pymatgen
data_Pb3O5
_symmetry_space_group_name_H-M   'P 1'
_cell_length_a   12.17416185
_cell_length_b   12.17416185
_cell_length_c   11.07681500
_cell_angle_alpha   90.00000000
_cell_angle_beta   90.00000000
_cell_angle_gamma   141.55515285
_symmetry_Int_Tables_number   1
_chemical_formula_structural   Pb3O5
_chemical_formula_sum   'Pb24 O40'
_cell_volume   1020.74328056
_cell_formula_units_Z   8
loop_
 _symmetry_equiv_pos_site_id
 _symmetry_equiv_pos_as_xyz
  1  'x, y, z'
loop_
 _atom_site_type_symbol
 _atom_site_label
 _atom_site_symmetry_multiplicity
 _atom_site_fract_x
 _atom_site_fract_y
 _atom_site_fract_z
 _atom_site_occupancy
  Pb  Pb0  1  0.50987100  0.99012900  0.75000000  1
  Pb  Pb1  1  0.49012900  0.00987100  0.25000000  1
  Pb  Pb2  1  0.66962600  0.83037400  0.25000000  1
  Pb  Pb3  1  0.33624400  0.66375600  0.49963200  1
  Pb  Pb4  1  0.83624400  0.16375600  0.00036800  1
  Pb  Pb5  1  0.50000000  0.50000000  0.50000000  1
  Pb  Pb6  1  0.83121500  0.66878500  0.25000000  1
  Pb  Pb7  1  0.16375600  0.83624400  0.99963200  1
  Pb  Pb8  1  0.16962600  0.33037400  0.25000000  1
  Pb  Pb9  1  0.66878500  0.83121500  0.75000000  1
  Pb  Pb10  1  0.66375600  0.33624400  0.50036800  1
  Pb  Pb11  1  0.32647200  0.67352800  0.99329100  1
  Pb  Pb12  1  0.33037400  0.16962600  0.75000000  1
  Pb  Pb13  1  0.17352800  0.82647200  0.49329100  1
  Pb  Pb14  1  0.82647200  0.17352800  0.50670900  1
  Pb  Pb15  1  0.83037400  0.66962600  0.75000000  1
  Pb  Pb16  1  0.99012900  0.50987100  0.25000000  1
  Pb  Pb17  1  0.50000000  0.50000000  0.00000000  1
  Pb  Pb18  1  0.16878500  0.33121500  0.75000000  1
  Pb  Pb19  1  0.00000000  0.00000000  0.50000000  1
  Pb  Pb20  1  0.33121500  0.16878500  0.25000000  1
  Pb  Pb21  1  0.00000000  0.00000000  0.00000000  1
  Pb  Pb22  1  0.00987100  0.49012900  0.75000000  1
  Pb  Pb23  1  0.67352800  0.32647200  0.00670900  1
  O  O24  1  0.61587200  0.93065800  0.62521200  1
  O  O25  1  0.89945600  0.50747700  0.88755100  1
  O  O26  1  0.00747700  0.39945600  0.38755100  1
  O  O27  1  0.91230300  0.08769700  0.42396800  1
  O  O28  1  0.79299100  0.77284600  0.37718200  1
  O  O29  1  0.38412800  0.06934200  0.37478800  1
  O  O30  1  0.11587200  0.43065800  0.87478800  1
  O  O31  1  0.07535500  0.92464500  0.89290000  1
  O  O32  1  0.07847000  0.92153000  0.16365100  1
  O  O33  1  0.22715400  0.20700900  0.37718200  1
  O  O34  1  0.42464500  0.57535500  0.39290000  1
  O  O35  1  0.06934200  0.38412800  0.62521200  1
  O  O36  1  0.42153000  0.57847000  0.66365100  1
  O  O37  1  0.25461000  0.74539000  0.83451900  1
  O  O38  1  0.99252300  0.60054400  0.61244900  1
  O  O39  1  0.39945600  0.00747700  0.61244900  1
  O  O40  1  0.70700900  0.72715400  0.87718200  1
  O  O41  1  0.75461000  0.24539000  0.66548100  1
  O  O42  1  0.92464500  0.07535500  0.10710000  1
  O  O43  1  0.58769700  0.41230300  0.92396800  1
  O  O44  1  0.10054400  0.49252300  0.11244900  1
  O  O45  1  0.27284600  0.29299100  0.87718200  1
  O  O46  1  0.29299100  0.27284600  0.12281800  1
  O  O47  1  0.57535500  0.42464500  0.60710000  1
  O  O48  1  0.56934200  0.88412800  0.87478800  1
  O  O49  1  0.77284600  0.79299100  0.62281800  1
  O  O50  1  0.57847000  0.42153000  0.33634900  1
  O  O51  1  0.60054400  0.99252300  0.38755100  1
  O  O52  1  0.41230300  0.58769700  0.07603200  1
  O  O53  1  0.93065800  0.61587200  0.37478800  1
  O  O54  1  0.49252300  0.10054400  0.88755100  1
  O  O55  1  0.50747700  0.89945600  0.11244900  1
  O  O56  1  0.72715400  0.70700900  0.12281800  1
  O  O57  1  0.88412800  0.56934200  0.12521200  1
  O  O58  1  0.74539000  0.25461000  0.16548100  1
  O  O59  1  0.08769700  0.91230300  0.57603200  1
  O  O60  1  0.92153000  0.07847000  0.83634900  1
  O  O61  1  0.24539000  0.75461000  0.33451900  1
  O  O62  1  0.43065800  0.11587200  0.12521200  1
  O  O63  1  0.20700900  0.22715400  0.62281800  1
