# generated using pymatgen
data_K2Fe2P2O7F2
_symmetry_space_group_name_H-M   'P 1'
_cell_length_a   7.31031900
_cell_length_b   11.11279000
_cell_length_c   11.89247900
_cell_angle_alpha   90.00000000
_cell_angle_beta   90.00000000
_cell_angle_gamma   90.00000000
_symmetry_Int_Tables_number   1
_chemical_formula_structural   K2Fe2P2O7F2
_chemical_formula_sum   'K8 Fe8 P8 O28 F8'
_cell_volume   966.12168327
_cell_formula_units_Z   4
loop_
 _symmetry_equiv_pos_site_id
 _symmetry_equiv_pos_as_xyz
  1  'x, y, z'
loop_
 _atom_site_type_symbol
 _atom_site_label
 _atom_site_symmetry_multiplicity
 _atom_site_fract_x
 _atom_site_fract_y
 _atom_site_fract_z
 _atom_site_occupancy
  K  K0  1  0.57282400  0.95121400  0.18478800  1
  K  K1  1  0.92717600  0.45121400  0.31521200  1
  K  K2  1  0.92717600  0.95121400  0.68478800  1
  K  K3  1  0.57282400  0.45121400  0.81521200  1
  K  K4  1  0.07282400  0.04878600  0.31521200  1
  K  K5  1  0.42717600  0.04878600  0.81521200  1
  K  K6  1  0.07282400  0.54878600  0.68478800  1
  K  K7  1  0.42717600  0.54878600  0.18478800  1
  Fe  Fe8  1  0.00000000  0.75000000  0.11518400  1
  Fe  Fe9  1  0.50000000  0.25000000  0.38481600  1
  Fe  Fe10  1  0.50000000  0.75000000  0.61518400  1
  Fe  Fe11  1  0.00000000  0.50000000  0.00000000  1
  Fe  Fe12  1  0.00000000  0.00000000  0.00000000  1
  Fe  Fe13  1  0.00000000  0.25000000  0.88481600  1
  Fe  Fe14  1  0.50000000  0.00000000  0.50000000  1
  Fe  Fe15  1  0.50000000  0.50000000  0.50000000  1
  P  P16  1  0.19463400  0.71809300  0.41555400  1
  P  P17  1  0.69463400  0.78190700  0.91555400  1
  P  P18  1  0.69463400  0.28190700  0.08444600  1
  P  P19  1  0.30536600  0.21809300  0.08444600  1
  P  P20  1  0.19463400  0.21809300  0.58444600  1
  P  P21  1  0.80536600  0.28190700  0.58444600  1
  P  P22  1  0.30536600  0.71809300  0.91555400  1
  P  P23  1  0.80536600  0.78190700  0.41555400  1
  O  O24  1  0.72546400  0.70651000  0.01809000  1
  O  O25  1  0.77453600  0.70651000  0.51809000  1
  O  O26  1  0.27453600  0.29349000  0.98191000  1
  O  O27  1  0.44080900  0.08354600  0.36562500  1
  O  O28  1  0.22546400  0.29349000  0.48191000  1
  O  O29  1  0.27748700  0.08473300  0.08506200  1
  O  O30  1  0.00000000  0.25000000  0.64194100  1
  O  O31  1  0.00000000  0.75000000  0.35805900  1
  O  O32  1  0.55919100  0.41645400  0.36562500  1
  O  O33  1  0.27748700  0.58473300  0.91493800  1
  O  O34  1  0.22251300  0.58473300  0.41493800  1
  O  O35  1  0.72251300  0.41526700  0.08506200  1
  O  O36  1  0.72251300  0.91526700  0.91493800  1
  O  O37  1  0.94080900  0.91645400  0.13437500  1
  O  O38  1  0.72546400  0.20651000  0.98191000  1
  O  O39  1  0.44080900  0.58354600  0.63437500  1
  O  O40  1  0.22251300  0.08473300  0.58506200  1
  O  O41  1  0.55919100  0.91645400  0.63437500  1
  O  O42  1  0.27453600  0.79349000  0.01809000  1
  O  O43  1  0.22546400  0.79349000  0.51809000  1
  O  O44  1  0.77453600  0.20651000  0.48191000  1
  O  O45  1  0.50000000  0.25000000  0.14194100  1
  O  O46  1  0.77748700  0.41526700  0.58506200  1
  O  O47  1  0.94080900  0.41645400  0.86562500  1
  O  O48  1  0.05919100  0.08354600  0.86562500  1
  O  O49  1  0.77748700  0.91526700  0.41493800  1
  O  O50  1  0.05919100  0.58354600  0.13437500  1
  O  O51  1  0.50000000  0.75000000  0.85805900  1
  F  F52  1  0.31527800  0.77332500  0.31494700  1
  F  F53  1  0.68472200  0.22667500  0.68505300  1
  F  F54  1  0.18472200  0.27332500  0.18505300  1
  F  F55  1  0.31527800  0.27332500  0.68505300  1
  F  F56  1  0.81527800  0.72667500  0.81494700  1
  F  F57  1  0.18472200  0.77332500  0.81494700  1
  F  F58  1  0.68472200  0.72667500  0.31494700  1
  F  F59  1  0.81527800  0.22667500  0.18505300  1
