# generated using pymatgen
data_KS2N(O2F)2
_symmetry_space_group_name_H-M   'P 1'
_cell_length_a   12.17771100
_cell_length_b   14.26765800
_cell_length_c   14.61930200
_cell_angle_alpha   90.00000000
_cell_angle_beta   90.00000000
_cell_angle_gamma   90.00000000
_symmetry_Int_Tables_number   1
_chemical_formula_structural   KS2N(O2F)2
_chemical_formula_sum   'K16 S32 N16 O64 F32'
_cell_volume   2540.06594287
_cell_formula_units_Z   16
loop_
 _symmetry_equiv_pos_site_id
 _symmetry_equiv_pos_as_xyz
  1  'x, y, z'
loop_
 _atom_site_type_symbol
 _atom_site_label
 _atom_site_symmetry_multiplicity
 _atom_site_fract_x
 _atom_site_fract_y
 _atom_site_fract_z
 _atom_site_occupancy
  K  K0  1  0.00425600  0.34024200  0.55293400  1
  K  K1  1  0.12811100  0.89130200  0.22040300  1
  K  K2  1  0.62811100  0.10869800  0.27959700  1
  K  K3  1  0.87188900  0.60869800  0.72040300  1
  K  K4  1  0.49574400  0.34024200  0.05293400  1
  K  K5  1  0.00425600  0.84024200  0.94706600  1
  K  K6  1  0.62811100  0.60869800  0.22040300  1
  K  K7  1  0.12811100  0.39130200  0.27959700  1
  K  K8  1  0.50425600  0.15975800  0.55293400  1
  K  K9  1  0.49574400  0.84024200  0.44706600  1
  K  K10  1  0.50425600  0.65975800  0.94706600  1
  K  K11  1  0.37188900  0.89130200  0.72040300  1
  K  K12  1  0.99574400  0.65975800  0.44706600  1
  K  K13  1  0.37188900  0.39130200  0.77959700  1
  K  K14  1  0.99574400  0.15975800  0.05293400  1
  K  K15  1  0.87188900  0.10869800  0.77959700  1
  S  S16  1  0.29882500  0.63836000  0.32684200  1
  S  S17  1  0.79882500  0.36164000  0.17315800  1
  S  S18  1  0.35053200  0.05167400  0.34054400  1
  S  S19  1  0.85053200  0.44832600  0.34054400  1
  S  S20  1  0.68158300  0.62523000  0.52987100  1
  S  S21  1  0.31841700  0.37477000  0.47012900  1
  S  S22  1  0.31841700  0.87477000  0.02987100  1
  S  S23  1  0.02522400  0.33347000  0.83522400  1
  S  S24  1  0.79882500  0.86164000  0.32684200  1
  S  S25  1  0.18158300  0.87477000  0.52987100  1
  S  S26  1  0.64946800  0.44832600  0.84054400  1
  S  S27  1  0.20117500  0.13836000  0.67315800  1
  S  S28  1  0.97477600  0.16653000  0.33522400  1
  S  S29  1  0.18158300  0.37477000  0.97012900  1
  S  S30  1  0.14946800  0.55167400  0.65945600  1
  S  S31  1  0.85053200  0.94832600  0.15945600  1
  S  S32  1  0.47477600  0.83347000  0.16477600  1
  S  S33  1  0.14946800  0.05167400  0.84054400  1
  S  S34  1  0.64946800  0.94832600  0.65945600  1
  S  S35  1  0.70117500  0.86164000  0.82684200  1
  S  S36  1  0.20117500  0.63836000  0.82684200  1
  S  S37  1  0.81841700  0.62523000  0.02987100  1
  S  S38  1  0.29882500  0.13836000  0.17315800  1
  S  S39  1  0.52522400  0.66653000  0.66477600  1
  S  S40  1  0.68158300  0.12523000  0.97012900  1
  S  S41  1  0.02522400  0.83347000  0.66477600  1
  S  S42  1  0.47477600  0.33347000  0.33522400  1
  S  S43  1  0.35053200  0.55167400  0.15945600  1
  S  S44  1  0.97477600  0.66653000  0.16477600  1
  S  S45  1  0.52522400  0.16653000  0.83522400  1
  S  S46  1  0.70117500  0.36164000  0.67315800  1
  S  S47  1  0.81841700  0.12523000  0.47012900  1
  N  N48  1  0.61602700  0.89427500  0.75008000  1
  N  N49  1  0.64552700  0.63922900  0.63346900  1
  N  N50  1  0.85447300  0.13922900  0.36653100  1
  N  N51  1  0.61602700  0.39427500  0.74992000  1
  N  N52  1  0.11602700  0.10572500  0.74992000  1
  N  N53  1  0.38397300  0.60572500  0.25008000  1
  N  N54  1  0.88397300  0.89427500  0.25008000  1
  N  N55  1  0.88397300  0.39427500  0.24992000  1
  N  N56  1  0.38397300  0.10572500  0.24992000  1
  N  N57  1  0.64552700  0.13922900  0.86653100  1
  N  N58  1  0.14552700  0.86077100  0.63346900  1
  N  N59  1  0.14552700  0.36077100  0.86653100  1
  N  N60  1  0.35447300  0.86077100  0.13346900  1
  N  N61  1  0.85447300  0.63922900  0.13346900  1
  N  N62  1  0.11602700  0.60572500  0.75008000  1
  N  N63  1  0.35447300  0.36077100  0.36653100  1
  O  O64  1  0.72762300  0.02299700  0.66793900  1
  O  O65  1  0.54949000  0.96670400  0.60910400  1
  O  O66  1  0.29907800  0.88640700  0.52981200  1
  O  O67  1  0.02275500  0.32709100  0.73746900  1
  O  O68  1  0.86735100  0.18595200  0.53711400  1
  O  O69  1  0.79161100  0.42422200  0.65547400  1
  O  O70  1  0.27237700  0.97700300  0.33206100  1
  O  O71  1  0.29907800  0.38640700  0.97018800  1
  O  O72  1  0.63264900  0.68595200  0.46288600  1
  O  O73  1  0.29161100  0.57577800  0.84452600  1
  O  O74  1  0.79907800  0.61359300  0.52981200  1
  O  O75  1  0.20092200  0.88640700  0.02981200  1
  O  O76  1  0.45051000  0.53329600  0.10910400  1
  O  O77  1  0.52275500  0.67290900  0.76253100  1
  O  O78  1  0.79161100  0.92422200  0.84452600  1
  O  O79  1  0.52792600  0.26019800  0.38662600  1
  O  O80  1  0.79907800  0.11359300  0.97018800  1
  O  O81  1  0.14157100  0.67819500  0.90127900  1
  O  O82  1  0.35842900  0.17819500  0.09872100  1
  O  O83  1  0.13264900  0.81404800  0.46288600  1
  O  O84  1  0.64157100  0.32180500  0.59872100  1
  O  O85  1  0.02275500  0.82709100  0.76253100  1
  O  O86  1  0.22762300  0.97700300  0.83206100  1
  O  O87  1  0.54949000  0.46670400  0.89089600  1
  O  O88  1  0.04949000  0.03329600  0.89089600  1
  O  O89  1  0.77237700  0.02299700  0.16793900  1
  O  O90  1  0.27237700  0.47700300  0.16793900  1
  O  O91  1  0.70838900  0.92422200  0.34452600  1
  O  O92  1  0.35842900  0.67819500  0.40127900  1
  O  O93  1  0.47724500  0.82709100  0.26253100  1
  O  O94  1  0.70838900  0.42422200  0.15547400  1
  O  O95  1  0.95051000  0.96670400  0.10910400  1
  O  O96  1  0.14157100  0.17819500  0.59872100  1
  O  O97  1  0.36735100  0.81404800  0.96288600  1
  O  O98  1  0.97207400  0.76019800  0.61337400  1
  O  O99  1  0.97724500  0.67290900  0.26253100  1
  O  O100  1  0.64157100  0.82180500  0.90127900  1
  O  O101  1  0.97724500  0.17290900  0.23746900  1
  O  O102  1  0.77237700  0.52299700  0.33206100  1
  O  O103  1  0.02792600  0.23980200  0.38662600  1
  O  O104  1  0.85842900  0.32180500  0.09872100  1
  O  O105  1  0.02792600  0.73980200  0.11337400  1
  O  O106  1  0.52275500  0.17290900  0.73746900  1
  O  O107  1  0.85842900  0.82180500  0.40127900  1
  O  O108  1  0.47724500  0.32709100  0.23746900  1
  O  O109  1  0.86735100  0.68595200  0.96288600  1
  O  O110  1  0.45051000  0.03329600  0.39089600  1
  O  O111  1  0.36735100  0.31404800  0.53711400  1
  O  O112  1  0.97207400  0.26019800  0.88662600  1
  O  O113  1  0.20092200  0.38640700  0.47018800  1
  O  O114  1  0.63264900  0.18595200  0.03711400  1
  O  O115  1  0.47207400  0.23980200  0.88662600  1
  O  O116  1  0.72762300  0.52299700  0.83206100  1
  O  O117  1  0.47207400  0.73980200  0.61337400  1
  O  O118  1  0.70092200  0.11359300  0.47018800  1
  O  O119  1  0.70092200  0.61359300  0.02981200  1
  O  O120  1  0.20838900  0.57577800  0.34452600  1
  O  O121  1  0.22762300  0.47700300  0.66793900  1
  O  O122  1  0.04949000  0.53329600  0.60910400  1
  O  O123  1  0.95051000  0.46670400  0.39089600  1
  O  O124  1  0.13264900  0.31404800  0.03711400  1
  O  O125  1  0.20838900  0.07577800  0.15547400  1
  O  O126  1  0.52792600  0.76019800  0.11337400  1
  O  O127  1  0.29161100  0.07577800  0.65547400  1
  F  F128  1  0.73895400  0.27203100  0.22248700  1
  F  F129  1  0.76104600  0.27203100  0.72248700  1
  F  F130  1  0.36634500  0.47664300  0.49372900  1
  F  F131  1  0.45436100  0.07346600  0.85799400  1
  F  F132  1  0.86634500  0.52335700  0.00627100  1
  F  F133  1  0.04563900  0.57346600  0.14200600  1
  F  F134  1  0.95436100  0.42653400  0.85799400  1
  F  F135  1  0.95436100  0.92653400  0.64200600  1
  F  F136  1  0.36634500  0.97664300  0.00627100  1
  F  F137  1  0.63365500  0.52335700  0.50627100  1
  F  F138  1  0.23895400  0.22796900  0.22248700  1
  F  F139  1  0.28915600  0.13036800  0.40137200  1
  F  F140  1  0.26104600  0.22796900  0.72248700  1
  F  F141  1  0.76104600  0.77203100  0.77751300  1
  F  F142  1  0.54563900  0.92653400  0.14200600  1
  F  F143  1  0.45436100  0.57346600  0.64200600  1
  F  F144  1  0.73895400  0.77203100  0.27751300  1
  F  F145  1  0.78915600  0.36963200  0.40137200  1
  F  F146  1  0.71084400  0.86963200  0.59862800  1
  F  F147  1  0.21084400  0.63036800  0.59862800  1
  F  F148  1  0.86634500  0.02335700  0.49372900  1
  F  F149  1  0.23895400  0.72796900  0.27751300  1
  F  F150  1  0.71084400  0.36963200  0.90137200  1
  F  F151  1  0.04563900  0.07346600  0.35799400  1
  F  F152  1  0.28915600  0.63036800  0.09862800  1
  F  F153  1  0.26104600  0.72796900  0.77751300  1
  F  F154  1  0.13365500  0.47664300  0.99372900  1
  F  F155  1  0.21084400  0.13036800  0.90137200  1
  F  F156  1  0.78915600  0.86963200  0.09862800  1
  F  F157  1  0.54563900  0.42653400  0.35799400  1
  F  F158  1  0.13365500  0.97664300  0.50627100  1
  F  F159  1  0.63365500  0.02335700  0.99372900  1
