# generated using pymatgen
data_Ca4YFe5O13
_symmetry_space_group_name_H-M   'P 1'
_cell_length_a   5.58054600
_cell_length_b   5.60235200
_cell_length_c   37.43706400
_cell_angle_alpha   90.00000000
_cell_angle_beta   90.00000000
_cell_angle_gamma   90.00000000
_symmetry_Int_Tables_number   1
_chemical_formula_structural   Ca4YFe5O13
_chemical_formula_sum   'Ca16 Y4 Fe20 O52'
_cell_volume   1170.43922153
_cell_formula_units_Z   4
loop_
 _symmetry_equiv_pos_site_id
 _symmetry_equiv_pos_as_xyz
  1  'x, y, z'
loop_
 _atom_site_type_symbol
 _atom_site_label
 _atom_site_symmetry_multiplicity
 _atom_site_fract_x
 _atom_site_fract_y
 _atom_site_fract_z
 _atom_site_occupancy
  Ca  Ca0  1  0.47021100  0.01900000  0.95676500  1
  Ca  Ca1  1  0.53904900  0.97918800  0.15452600  1
  Ca  Ca2  1  0.02978900  0.51900000  0.04323500  1
  Ca  Ca3  1  0.96095100  0.47918800  0.84547400  1
  Ca  Ca4  1  0.96095100  0.47918800  0.65452600  1
  Ca  Ca5  1  0.03904900  0.52081200  0.34547400  1
  Ca  Ca6  1  0.02978900  0.51900000  0.45676500  1
  Ca  Ca7  1  0.97021100  0.48100000  0.95676500  1
  Ca  Ca8  1  0.52978900  0.98100000  0.45676500  1
  Ca  Ca9  1  0.53904900  0.97918800  0.34547400  1
  Ca  Ca10  1  0.03904900  0.52081200  0.15452600  1
  Ca  Ca11  1  0.97021100  0.48100000  0.54323500  1
  Ca  Ca12  1  0.52978900  0.98100000  0.04323500  1
  Ca  Ca13  1  0.46095100  0.02081200  0.65452600  1
  Ca  Ca14  1  0.47021100  0.01900000  0.54323500  1
  Ca  Ca15  1  0.46095100  0.02081200  0.84547400  1
  Y  Y16  1  0.06192300  0.47624300  0.75000000  1
  Y  Y17  1  0.43807700  0.97624300  0.25000000  1
  Y  Y18  1  0.93807700  0.52375700  0.25000000  1
  Y  Y19  1  0.56192300  0.02375700  0.75000000  1
  Fe  Fe20  1  0.50711000  0.51642600  0.69850400  1
  Fe  Fe21  1  0.99289000  0.01642600  0.30149600  1
  Fe  Fe22  1  0.45000700  0.56040100  0.59960700  1
  Fe  Fe23  1  0.50711000  0.51642600  0.80149600  1
  Fe  Fe24  1  0.54999300  0.43959900  0.40039300  1
  Fe  Fe25  1  0.99289000  0.01642600  0.19850400  1
  Fe  Fe26  1  0.50000000  0.50000000  0.00000000  1
  Fe  Fe27  1  0.00711000  0.98357400  0.80149600  1
  Fe  Fe28  1  0.54999300  0.43959900  0.09960700  1
  Fe  Fe29  1  0.49289000  0.48357400  0.19850400  1
  Fe  Fe30  1  0.00711000  0.98357400  0.69850400  1
  Fe  Fe31  1  0.00000000  0.00000000  0.00000000  1
  Fe  Fe32  1  0.45000700  0.56040100  0.90039300  1
  Fe  Fe33  1  0.04999300  0.06040100  0.09960700  1
  Fe  Fe34  1  0.95000700  0.93959900  0.90039300  1
  Fe  Fe35  1  0.00000000  0.00000000  0.50000000  1
  Fe  Fe36  1  0.50000000  0.50000000  0.50000000  1
  Fe  Fe37  1  0.95000700  0.93959900  0.59960700  1
  Fe  Fe38  1  0.49289000  0.48357400  0.30149600  1
  Fe  Fe39  1  0.04999300  0.06040100  0.40039300  1
  O  O40  1  0.78265400  0.29171500  0.31265400  1
  O  O41  1  0.71734600  0.79171500  0.68734600  1
  O  O42  1  0.95699800  0.91315400  0.35722400  1
  O  O43  1  0.28265400  0.20828500  0.18734600  1
  O  O44  1  0.20595200  0.71284600  0.21022800  1
  O  O45  1  0.29404800  0.21284600  0.71022800  1
  O  O46  1  0.45699800  0.58684600  0.35722400  1
  O  O47  1  0.03808400  0.12070300  0.25000000  1
  O  O48  1  0.03570000  0.08120600  0.94387800  1
  O  O49  1  0.79404800  0.28715400  0.78977200  1
  O  O50  1  0.03570000  0.08120600  0.55612200  1
  O  O51  1  0.72861800  0.77204300  0.50752400  1
  O  O52  1  0.54300200  0.41315400  0.85722400  1
  O  O53  1  0.54300200  0.41315400  0.64277600  1
  O  O54  1  0.96191600  0.87929700  0.75000000  1
  O  O55  1  0.45699800  0.58684600  0.14277600  1
  O  O56  1  0.46191600  0.62070300  0.75000000  1
  O  O57  1  0.78265400  0.29171500  0.18734600  1
  O  O58  1  0.71734600  0.79171500  0.81265400  1
  O  O59  1  0.46430000  0.58120600  0.44387800  1
  O  O60  1  0.95699800  0.91315400  0.14277600  1
  O  O61  1  0.29404800  0.21284600  0.78977200  1
  O  O62  1  0.22861800  0.72795700  0.50752400  1
  O  O63  1  0.79404800  0.28715400  0.71022800  1
  O  O64  1  0.60386700  0.87340300  0.59916000  1
  O  O65  1  0.77138200  0.27204300  0.49247600  1
  O  O66  1  0.53570000  0.41879400  0.94387800  1
  O  O67  1  0.60386700  0.87340300  0.90084000  1
  O  O68  1  0.10386700  0.62659700  0.90084000  1
  O  O69  1  0.70595200  0.78715400  0.28977200  1
  O  O70  1  0.96430000  0.91879400  0.05612200  1
  O  O71  1  0.53808400  0.37929700  0.25000000  1
  O  O72  1  0.77138200  0.27204300  0.00752400  1
  O  O73  1  0.46430000  0.58120600  0.05612200  1
  O  O74  1  0.72861800  0.77204300  0.99247600  1
  O  O75  1  0.89613300  0.37340300  0.09916000  1
  O  O76  1  0.21734600  0.70828500  0.68734600  1
  O  O77  1  0.22861800  0.72795700  0.99247600  1
  O  O78  1  0.89613300  0.37340300  0.40084000  1
  O  O79  1  0.10386700  0.62659700  0.59916000  1
  O  O80  1  0.28265400  0.20828500  0.31265400  1
  O  O81  1  0.04300200  0.08684600  0.85722400  1
  O  O82  1  0.70595200  0.78715400  0.21022800  1
  O  O83  1  0.04300200  0.08684600  0.64277600  1
  O  O84  1  0.53570000  0.41879400  0.55612200  1
  O  O85  1  0.96430000  0.91879400  0.44387800  1
  O  O86  1  0.27138200  0.22795700  0.00752400  1
  O  O87  1  0.39613300  0.12659700  0.09916000  1
  O  O88  1  0.39613300  0.12659700  0.40084000  1
  O  O89  1  0.20595200  0.71284600  0.28977200  1
  O  O90  1  0.21734600  0.70828500  0.81265400  1
  O  O91  1  0.27138200  0.22795700  0.49247600  1
