# generated using pymatgen
data_Cs3HgI5
_symmetry_space_group_name_H-M   'P 1'
_cell_length_a   10.40034800
_cell_length_b   18.93609700
_cell_length_c   19.33909400
_cell_angle_alpha   90.00000000
_cell_angle_beta   90.00000000
_cell_angle_gamma   90.00000000
_symmetry_Int_Tables_number   1
_chemical_formula_structural   Cs3HgI5
_chemical_formula_sum   'Cs24 Hg8 I40'
_cell_volume   3808.67982273
_cell_formula_units_Z   8
loop_
 _symmetry_equiv_pos_site_id
 _symmetry_equiv_pos_as_xyz
  1  'x, y, z'
loop_
 _atom_site_type_symbol
 _atom_site_label
 _atom_site_symmetry_multiplicity
 _atom_site_fract_x
 _atom_site_fract_y
 _atom_site_fract_z
 _atom_site_occupancy
  Cs  Cs0  1  0.91372900  0.59502700  0.10171000  1
  Cs  Cs1  1  0.92768400  0.35575700  0.31102600  1
  Cs  Cs2  1  0.91372900  0.09502700  0.39829000  1
  Cs  Cs3  1  0.41372900  0.40497300  0.39829000  1
  Cs  Cs4  1  0.58627100  0.59502700  0.60171000  1
  Cs  Cs5  1  0.42768400  0.64424300  0.18897400  1
  Cs  Cs6  1  0.42768400  0.14424300  0.31102600  1
  Cs  Cs7  1  0.08343300  0.68018500  0.42813800  1
  Cs  Cs8  1  0.58343300  0.81981500  0.42813800  1
  Cs  Cs9  1  0.08627100  0.40497300  0.89829000  1
  Cs  Cs10  1  0.58343300  0.31981500  0.07186200  1
  Cs  Cs11  1  0.91656700  0.81981500  0.92813800  1
  Cs  Cs12  1  0.07231600  0.14424300  0.81102600  1
  Cs  Cs13  1  0.08343300  0.18018500  0.07186200  1
  Cs  Cs14  1  0.41656700  0.68018500  0.92813800  1
  Cs  Cs15  1  0.07231600  0.64424300  0.68897400  1
  Cs  Cs16  1  0.57231600  0.35575700  0.81102600  1
  Cs  Cs17  1  0.58627100  0.09502700  0.89829000  1
  Cs  Cs18  1  0.08627100  0.90497300  0.60171000  1
  Cs  Cs19  1  0.92768400  0.85575700  0.18897400  1
  Cs  Cs20  1  0.57231600  0.85575700  0.68897400  1
  Cs  Cs21  1  0.41656700  0.18018500  0.57186200  1
  Cs  Cs22  1  0.41372900  0.90497300  0.10171000  1
  Cs  Cs23  1  0.91656700  0.31981500  0.57186200  1
  Hg  Hg24  1  0.80875000  0.56615700  0.84359000  1
  Hg  Hg25  1  0.80875000  0.06615700  0.65641000  1
  Hg  Hg26  1  0.69125000  0.06615700  0.15641000  1
  Hg  Hg27  1  0.69125000  0.56615700  0.34359000  1
  Hg  Hg28  1  0.19125000  0.43384300  0.15641000  1
  Hg  Hg29  1  0.30875000  0.43384300  0.65641000  1
  Hg  Hg30  1  0.19125000  0.93384300  0.34359000  1
  Hg  Hg31  1  0.30875000  0.93384300  0.84359000  1
  I  I32  1  0.32985600  0.75178600  0.57094400  1
  I  I33  1  0.33213100  0.99672800  0.45201900  1
  I  I34  1  0.36350700  0.52792000  0.76900400  1
  I  I35  1  0.45299300  0.61510700  0.40334300  1
  I  I36  1  0.63649300  0.97208000  0.26900400  1
  I  I37  1  0.33213100  0.49672800  0.04798100  1
  I  I38  1  0.86350700  0.97208000  0.76900400  1
  I  I39  1  0.67014400  0.74821400  0.07094400  1
  I  I40  1  0.45299300  0.11510700  0.09665700  1
  I  I41  1  0.17014400  0.25178600  0.42905600  1
  I  I42  1  0.66786900  0.50327200  0.95201900  1
  I  I43  1  0.86350700  0.47208000  0.73099600  1
  I  I44  1  0.66786900  0.00327200  0.54798100  1
  I  I45  1  0.95299300  0.88489300  0.40334300  1
  I  I46  1  0.13649300  0.02792000  0.23099600  1
  I  I47  1  0.36350700  0.02792000  0.73099600  1
  I  I48  1  0.83213100  0.00327200  0.04798100  1
  I  I49  1  0.04700700  0.11510700  0.59665700  1
  I  I50  1  0.79971800  0.69314000  0.28828800  1
  I  I51  1  0.13649300  0.52792000  0.26900400  1
  I  I52  1  0.82985600  0.74821400  0.57094400  1
  I  I53  1  0.95299300  0.38489300  0.09665700  1
  I  I54  1  0.67014400  0.24821400  0.42905600  1
  I  I55  1  0.79971800  0.19314000  0.21171200  1
  I  I56  1  0.20028200  0.80686000  0.78828800  1
  I  I57  1  0.16786900  0.99672800  0.95201900  1
  I  I58  1  0.04700700  0.61510700  0.90334300  1
  I  I59  1  0.16786900  0.49672800  0.54798100  1
  I  I60  1  0.29971800  0.80686000  0.28828800  1
  I  I61  1  0.29971800  0.30686000  0.21171200  1
  I  I62  1  0.83213100  0.50327200  0.45201900  1
  I  I63  1  0.32985600  0.25178600  0.92905600  1
  I  I64  1  0.63649300  0.47208000  0.23099600  1
  I  I65  1  0.82985600  0.24821400  0.92905600  1
  I  I66  1  0.54700700  0.88489300  0.90334300  1
  I  I67  1  0.17014400  0.75178600  0.07094400  1
  I  I68  1  0.54700700  0.38489300  0.59665700  1
  I  I69  1  0.70028200  0.69314000  0.78828800  1
  I  I70  1  0.20028200  0.30686000  0.71171200  1
  I  I71  1  0.70028200  0.19314000  0.71171200  1
