# generated using pymatgen
data_K3WC4N4OF
_symmetry_space_group_name_H-M   'P 1'
_cell_length_a   8.08284700
_cell_length_b   8.27434968
_cell_length_c   8.71191524
_cell_angle_alpha   94.38000463
_cell_angle_beta   100.77550869
_cell_angle_gamma   92.50370077
_symmetry_Int_Tables_number   1
_chemical_formula_structural   K3WC4N4OF
_chemical_formula_sum   'K6 W2 C8 N8 O2 F2'
_cell_volume   569.70993347
_cell_formula_units_Z   2
loop_
 _symmetry_equiv_pos_site_id
 _symmetry_equiv_pos_as_xyz
  1  'x, y, z'
loop_
 _atom_site_type_symbol
 _atom_site_label
 _atom_site_symmetry_multiplicity
 _atom_site_fract_x
 _atom_site_fract_y
 _atom_site_fract_z
 _atom_site_occupancy
  K  K0  1  0.71336500  0.32774900  0.50909100  1
  K  K1  1  0.28663500  0.67225100  0.49090900  1
  K  K2  1  0.79656800  0.15661500  0.00099200  1
  K  K3  1  0.20343200  0.84338500  0.99900800  1
  K  K4  1  0.26287200  0.26692900  0.77824300  1
  K  K5  1  0.73712800  0.73307100  0.22175700  1
  W  W6  1  0.25630100  0.25075600  0.27804000  1
  W  W7  1  0.74369900  0.74924400  0.72196000  1
  C  C8  1  0.65280700  0.53035300  0.81490200  1
  C  C9  1  0.02136200  0.37090100  0.28143800  1
  C  C10  1  0.34719300  0.46964700  0.18509800  1
  C  C11  1  0.47168900  0.11721800  0.22890100  1
  C  C12  1  0.52831100  0.88278200  0.77109900  1
  C  C13  1  0.86390700  0.98119100  0.68251800  1
  C  C14  1  0.97863800  0.62909900  0.71856200  1
  C  C15  1  0.13609300  0.01880900  0.31748200  1
  N  N16  1  0.89594000  0.43745600  0.28320800  1
  N  N17  1  0.39034100  0.59569500  0.14772600  1
  N  N18  1  0.07324900  0.88960500  0.32682300  1
  N  N19  1  0.92675100  0.11039500  0.67317700  1
  N  N20  1  0.58904100  0.04498900  0.20860600  1
  N  N21  1  0.60965900  0.40430500  0.85227400  1
  N  N22  1  0.41095900  0.95501100  0.79139400  1
  N  N23  1  0.10406000  0.56254400  0.71679200  1
  O  O24  1  0.34888600  0.31529700  0.47761400  1
  O  O25  1  0.65111400  0.68470300  0.52238600  1
  F  F26  1  0.85172900  0.82336000  0.95515900  1
  F  F27  1  0.14827100  0.17664000  0.04484100  1
