# generated using pymatgen
data_Fe3WC14(SO7)2
_symmetry_space_group_name_H-M   'P 1'
_cell_length_a   11.65363665
_cell_length_b   11.65363665
_cell_length_c   9.04386589
_cell_angle_alpha   84.13343003
_cell_angle_beta   84.13343003
_cell_angle_gamma   79.15348386
_symmetry_Int_Tables_number   1
_chemical_formula_structural   Fe3WC14(SO7)2
_chemical_formula_sum   'Fe6 W2 C28 S4 O28'
_cell_volume   1195.62656160
_cell_formula_units_Z   2
loop_
 _symmetry_equiv_pos_site_id
 _symmetry_equiv_pos_as_xyz
  1  'x, y, z'
loop_
 _atom_site_type_symbol
 _atom_site_label
 _atom_site_symmetry_multiplicity
 _atom_site_fract_x
 _atom_site_fract_y
 _atom_site_fract_z
 _atom_site_occupancy
  Fe  Fe0  1  0.85248900  0.85248900  0.43686000  1
  Fe  Fe1  1  0.25984000  0.02916400  0.78793300  1
  Fe  Fe2  1  0.14751100  0.14751100  0.56314000  1
  Fe  Fe3  1  0.97083600  0.74016000  0.21206700  1
  Fe  Fe4  1  0.74016000  0.97083600  0.21206700  1
  Fe  Fe5  1  0.02916400  0.25984000  0.78793300  1
  W  W6  1  0.36579500  0.36579500  0.75198500  1
  W  W7  1  0.63420500  0.63420500  0.24801500  1
  C  C8  1  0.26163100  0.87145400  0.79372300  1
  C  C9  1  0.99221100  0.58500000  0.27723700  1
  C  C10  1  0.22753600  0.22753600  0.41907300  1
  C  C11  1  0.71008200  0.51868400  0.41559900  1
  C  C12  1  0.27058300  0.03066000  0.98283300  1
  C  C13  1  0.52327000  0.52327000  0.22389900  1
  C  C14  1  0.80072000  0.98786900  0.51835900  1
  C  C15  1  0.77246400  0.77246400  0.58092700  1
  C  C16  1  0.00778900  0.41500000  0.72276300  1
  C  C17  1  0.96934000  0.72941700  0.01716700  1
  C  C18  1  0.01213100  0.19928000  0.48164100  1
  C  C19  1  0.47673000  0.47673000  0.77610100  1
  C  C20  1  0.03066000  0.27058300  0.98283300  1
  C  C21  1  0.87145400  0.26163100  0.79372300  1
  C  C22  1  0.48131600  0.28991800  0.58440100  1
  C  C23  1  0.74646600  0.54951500  0.08520300  1
  C  C24  1  0.19928000  0.01213100  0.48164100  1
  C  C25  1  0.45048500  0.25353400  0.91479700  1
  C  C26  1  0.12854600  0.73836900  0.20627700  1
  C  C27  1  0.51868400  0.71008200  0.41559900  1
  C  C28  1  0.54951500  0.74646600  0.08520300  1
  C  C29  1  0.73836900  0.12854600  0.20627700  1
  C  C30  1  0.25353400  0.45048500  0.91479700  1
  C  C31  1  0.98786900  0.80072000  0.51835900  1
  C  C32  1  0.41500000  0.00778900  0.72276300  1
  C  C33  1  0.72941700  0.96934000  0.01716700  1
  C  C34  1  0.28991800  0.48131600  0.58440100  1
  C  C35  1  0.58500000  0.99221100  0.27723700  1
  S  S36  1  0.22496300  0.22496300  0.74204600  1
  S  S37  1  0.06280500  0.06280500  0.77811500  1
  S  S38  1  0.93719500  0.93719500  0.22188500  1
  S  S39  1  0.77503700  0.77503700  0.25795400  1
  O  O40  1  0.26061200  0.77210300  0.80627500  1
  O  O41  1  0.25289500  0.54632700  0.48703700  1
  O  O42  1  0.27524800  0.03558900  0.10897700  1
  O  O43  1  0.53995200  0.53995200  0.79387900  1
  O  O44  1  0.46004800  0.46004800  0.20612100  1
  O  O45  1  0.80654200  0.49857600  0.99325800  1
  O  O46  1  0.45367300  0.74710500  0.51296300  1
  O  O47  1  0.19345800  0.50142400  0.00674200  1
  O  O48  1  0.99024800  0.51271700  0.67894400  1
  O  O49  1  0.72243900  0.72243900  0.67552400  1
  O  O50  1  0.48728300  0.00975200  0.32105600  1
  O  O51  1  0.27756100  0.27756100  0.32447600  1
  O  O52  1  0.96441100  0.72475200  0.89102300  1
  O  O53  1  0.03558900  0.27524800  0.10897700  1
  O  O54  1  0.23066000  0.92720500  0.42102800  1
  O  O55  1  0.22789700  0.73938800  0.19372500  1
  O  O56  1  0.51271700  0.99024800  0.67894400  1
  O  O57  1  0.49857600  0.80654200  0.99325800  1
  O  O58  1  0.92720500  0.23066000  0.42102800  1
  O  O59  1  0.50142400  0.19345800  0.00674200  1
  O  O60  1  0.07279500  0.76934000  0.57897200  1
  O  O61  1  0.72475200  0.96441100  0.89102300  1
  O  O62  1  0.74710500  0.45367300  0.51296300  1
  O  O63  1  0.73938800  0.22789700  0.19372500  1
  O  O64  1  0.77210300  0.26061200  0.80627500  1
  O  O65  1  0.00975200  0.48728300  0.32105600  1
  O  O66  1  0.76934000  0.07279500  0.57897200  1
  O  O67  1  0.54632700  0.25289500  0.48703700  1
