# generated using pymatgen
data_NaZn2P3O19
_symmetry_space_group_name_H-M   'P 1'
_cell_length_a   8.45110100
_cell_length_b   10.43426684
_cell_length_c   10.83436127
_cell_angle_alpha   99.48547514
_cell_angle_beta   101.14589477
_cell_angle_gamma   109.82962791
_symmetry_Int_Tables_number   1
_chemical_formula_structural   NaZn2P3O19
_chemical_formula_sum   'Na2 Zn4 P6 O38'
_cell_volume   853.87474354
_cell_formula_units_Z   2
loop_
 _symmetry_equiv_pos_site_id
 _symmetry_equiv_pos_as_xyz
  1  'x, y, z'
loop_
 _atom_site_type_symbol
 _atom_site_label
 _atom_site_symmetry_multiplicity
 _atom_site_fract_x
 _atom_site_fract_y
 _atom_site_fract_z
 _atom_site_occupancy
  Na  Na0  1  0.62334000  0.00171100  0.84704000  1
  Na  Na1  1  0.37666000  0.99828900  0.15296000  1
  Zn  Zn2  1  0.00000000  0.00000000  0.00000000  1
  Zn  Zn3  1  0.50000000  0.50000000  0.50000000  1
  Zn  Zn4  1  0.24155700  0.50755500  0.95246800  1
  Zn  Zn5  1  0.75844300  0.49244500  0.04753200  1
  P  P6  1  0.05151500  0.71290900  0.93755700  1
  P  P7  1  0.94848500  0.28709100  0.06244300  1
  P  P8  1  0.73458100  0.71675000  0.77245300  1
  P  P9  1  0.26541900  0.28325000  0.22754700  1
  P  P10  1  0.49436700  0.44516400  0.78706700  1
  P  P11  1  0.50563300  0.55483600  0.21293300  1
  O  O12  1  0.12923900  0.87645800  0.98728900  1
  O  O13  1  0.87076100  0.12354200  0.01271100  1
  O  O14  1  0.18893700  0.66442300  0.89885400  1
  O  O15  1  0.81106300  0.33557700  0.10114600  1
  O  O16  1  0.03706300  0.35487900  0.96784900  1
  O  O17  1  0.96293700  0.64512100  0.03215100  1
  O  O18  1  0.90414500  0.67785800  0.79903600  1
  O  O19  1  0.09585500  0.32214200  0.20096400  1
  O  O20  1  0.78268100  0.86745900  0.84963500  1
  O  O21  1  0.21731900  0.13254100  0.15036500  1
  O  O22  1  0.66156800  0.68892400  0.62850200  1
  O  O23  1  0.33843200  0.31107600  0.37149800  1
  O  O24  1  0.59940600  0.62050800  0.83599800  1
  O  O25  1  0.40059400  0.37949200  0.16400200  1
  O  O26  1  0.60867900  0.38817200  0.87080700  1
  O  O27  1  0.39132100  0.61182800  0.12919300  1
  O  O28  1  0.31891700  0.42063100  0.81637000  1
  O  O29  1  0.68108300  0.57936900  0.18363000  1
  O  O30  1  0.48221700  0.40217400  0.64355500  1
  O  O31  1  0.51778300  0.59782600  0.35644500  1
  O  O32  1  0.25675600  0.10340800  0.84269200  1
  O  O33  1  0.74324400  0.89659200  0.15730800  1
  O  O34  1  0.20895800  0.53300900  0.47434300  1
  O  O35  1  0.79104200  0.46699100  0.52565700  1
  O  O36  1  0.29234800  0.89328100  0.72259200  1
  O  O37  1  0.70765200  0.10671900  0.27740800  1
  O  O38  1  0.60396700  0.04072400  0.60909500  1
  O  O39  1  0.39603300  0.95927600  0.39090500  1
  O  O40  1  0.39401100  0.09080200  0.88874700  1
  O  O41  1  0.60598900  0.90919800  0.11125300  1
  O  O42  1  0.97886000  0.37376300  0.59422100  1
  O  O43  1  0.02114000  0.62623700  0.40577900  1
  O  O44  1  0.82060800  0.35652500  0.54480400  1
  O  O45  1  0.17939200  0.64347500  0.45519600  1
  O  O46  1  0.16486300  0.92425200  0.69143000  1
  O  O47  1  0.83513700  0.07574800  0.30857000  1
  O  O48  1  0.36302600  0.02341000  0.48232100  1
  O  O49  1  0.63697400  0.97659000  0.51767900  1
