# generated using pymatgen
data_Sr10Cu5Bi10O29
_symmetry_space_group_name_H-M   'P 1'
_cell_length_a   13.88412586
_cell_length_b   13.88412586
_cell_length_c   26.97367245
_cell_angle_alpha   67.37744681
_cell_angle_beta   67.37744681
_cell_angle_gamma   22.44155505
_symmetry_Int_Tables_number   1
_chemical_formula_structural   Sr10Cu5Bi10O29
_chemical_formula_sum   'Sr20 Cu10 Bi20 O58'
_cell_volume   1825.93795463
_cell_formula_units_Z   2
loop_
 _symmetry_equiv_pos_site_id
 _symmetry_equiv_pos_as_xyz
  1  'x, y, z'
loop_
 _atom_site_type_symbol
 _atom_site_label
 _atom_site_symmetry_multiplicity
 _atom_site_fract_x
 _atom_site_fract_y
 _atom_site_fract_z
 _atom_site_occupancy
  Sr  Sr0  1  0.16434800  0.18503900  0.48890200  1
  Sr  Sr1  1  0.15294700  0.19465500  0.07210900  1
  Sr  Sr2  1  0.79214700  0.82780100  0.12800900  1
  Sr  Sr3  1  0.80534500  0.84705300  0.92789100  1
  Sr  Sr4  1  0.64381000  0.68961000  0.17226700  1
  Sr  Sr5  1  0.17285000  0.20692500  0.67821900  1
  Sr  Sr6  1  0.65770400  0.70716400  0.97154800  1
  Sr  Sr7  1  0.67109500  0.71355000  0.77377300  1
  Sr  Sr8  1  0.81496100  0.83565200  0.51109800  1
  Sr  Sr9  1  0.66638300  0.70063700  0.58341400  1
  Sr  Sr10  1  0.31039000  0.35619000  0.82773300  1
  Sr  Sr11  1  0.17219900  0.20785300  0.87199100  1
  Sr  Sr12  1  0.15415200  0.17678500  0.28232300  1
  Sr  Sr13  1  0.29936300  0.33361700  0.41658600  1
  Sr  Sr14  1  0.82321500  0.84584800  0.71767700  1
  Sr  Sr15  1  0.28645000  0.32890500  0.22622700  1
  Sr  Sr16  1  0.29283600  0.34229600  0.02845200  1
  Sr  Sr17  1  0.65494400  0.67948200  0.39053700  1
  Sr  Sr18  1  0.32051800  0.34505600  0.60946300  1
  Sr  Sr19  1  0.79307500  0.82715000  0.32178100  1
  Cu  Cu20  1  0.75119700  0.77922200  0.64434900  1
  Cu  Cu21  1  0.72976100  0.75837200  0.45213000  1
  Cu  Cu22  1  0.22077800  0.24880300  0.35565100  1
  Cu  Cu23  1  0.74426100  0.78429300  0.84520000  1
  Cu  Cu24  1  0.72262300  0.76702700  0.05134600  1
  Cu  Cu25  1  0.23297300  0.27737700  0.94865400  1
  Cu  Cu26  1  0.24162800  0.27023900  0.54787000  1
  Cu  Cu27  1  0.21570700  0.25573900  0.15480000  1
  Cu  Cu28  1  0.25050700  0.28394000  0.74426200  1
  Cu  Cu29  1  0.71606000  0.74949300  0.25573800  1
  Bi  Bi30  1  0.03629900  0.11694200  0.82089000  1
  Bi  Bi31  1  0.93661800  0.95406800  0.57024500  1
  Bi  Bi32  1  0.60518800  0.48694400  0.31767300  1
  Bi  Bi33  1  0.95400600  0.14737900  0.22305400  1
  Bi  Bi34  1  0.51305600  0.39481200  0.68232700  1
  Bi  Bi35  1  0.46961600  0.40817000  0.46659800  1
  Bi  Bi36  1  0.54933100  0.57170100  0.10882500  1
  Bi  Bi37  1  0.01992300  0.11511400  0.01215600  1
  Bi  Bi38  1  0.59183000  0.53038400  0.53340200  1
  Bi  Bi39  1  0.88305800  0.96370100  0.17911000  1
  Bi  Bi40  1  0.42829900  0.45066900  0.89117500  1
  Bi  Bi41  1  0.89310900  0.96464900  0.36693800  1
  Bi  Bi42  1  0.85262100  0.04599400  0.77694600  1
  Bi  Bi43  1  0.57561300  0.57474400  0.72907300  1
  Bi  Bi44  1  0.57318600  0.57665800  0.91467100  1
  Bi  Bi45  1  0.04593200  0.06338200  0.42975500  1
  Bi  Bi46  1  0.42334200  0.42681400  0.08532900  1
  Bi  Bi47  1  0.42525600  0.42438700  0.27092700  1
  Bi  Bi48  1  0.88488600  0.98007700  0.98784400  1
  Bi  Bi49  1  0.03535100  0.10689100  0.63306200  1
  O  O50  1  0.59305700  0.52357000  0.18987300  1
  O  O51  1  0.15647600  0.16321700  0.78749500  1
  O  O52  1  0.10822100  0.15721400  0.19421600  1
  O  O53  1  0.84278600  0.89177900  0.80578400  1
  O  O54  1  0.18143800  0.09038500  0.39100900  1
  O  O55  1  0.96396700  0.49651500  0.20774200  1
  O  O56  1  0.97686300  0.51864900  0.00077500  1
  O  O57  1  0.30937300  0.40250100  0.91965700  1
  O  O58  1  0.47678400  0.00328000  0.40310500  1
  O  O59  1  0.99464700  0.53306400  0.69688800  1
  O  O60  1  0.90961500  0.81856200  0.60899100  1
  O  O61  1  0.62126100  0.69499600  0.69291900  1
  O  O62  1  0.47643000  0.40694300  0.81012700  1
  O  O63  1  0.49897300  0.04229100  0.69219800  1
  O  O64  1  0.62032400  0.69570500  0.88211300  1
  O  O65  1  0.50348500  0.03603300  0.79225800  1
  O  O66  1  0.99672000  0.52321600  0.59689500  1
  O  O67  1  0.97666000  0.17785400  0.73120000  1
  O  O68  1  0.48330200  0.01681000  0.49935700  1
  O  O69  1  0.30500400  0.37873900  0.30708100  1
  O  O70  1  0.32413200  0.38972900  0.49837400  1
  O  O71  1  0.97449900  0.18139600  0.90838900  1
  O  O72  1  0.98319000  0.51669800  0.50064300  1
  O  O73  1  0.30429500  0.37967600  0.11788700  1
  O  O74  1  0.63582300  0.50572300  0.64168300  1
  O  O75  1  0.50259800  0.02163500  0.59441300  1
  O  O76  1  0.96689400  0.51207500  0.10333400  1
  O  O77  1  0.95770900  0.50102700  0.30780200  1
  O  O78  1  0.96423000  0.13913900  0.35305300  1
  O  O79  1  0.46899100  0.99088400  0.20601300  1
  O  O80  1  0.86086100  0.03577000  0.64694700  1
  O  O81  1  0.55044300  0.32179500  0.54847900  1
  O  O82  1  0.98548000  0.53041000  0.89809100  1
  O  O83  1  0.46959000  0.01452000  0.10190900  1
  O  O84  1  0.81860400  0.02550100  0.09161100  1
  O  O85  1  0.47971400  0.35960200  0.18194400  1
  O  O86  1  0.84868700  0.85031400  0.01822700  1
  O  O87  1  0.14968600  0.15131300  0.98177300  1
  O  O88  1  0.59749900  0.69062700  0.08034300  1
  O  O89  1  0.62817200  0.51583300  0.00018600  1
  O  O90  1  0.48135100  0.02313700  0.99922500  1
  O  O91  1  0.97836500  0.49740200  0.40558700  1
  O  O92  1  0.84497000  0.84706700  0.40097900  1
  O  O93  1  0.00911600  0.53100900  0.79398700  1
  O  O94  1  0.48792500  0.03310600  0.89666600  1
  O  O95  1  0.83678300  0.84352400  0.21250500  1
  O  O96  1  0.95033300  0.17819900  0.09565600  1
  O  O97  1  0.48416700  0.37182800  0.99981400  1
  O  O98  1  0.46693600  0.00535300  0.30311200  1
  O  O99  1  0.82180100  0.04966700  0.90434400  1
  O  O100  1  0.49427700  0.36417700  0.35831700  1
  O  O101  1  0.64039800  0.52028600  0.81805600  1
  O  O102  1  0.98667800  0.15070500  0.54955100  1
  O  O103  1  0.15293300  0.15503000  0.59902100  1
  O  O104  1  0.61027100  0.67586800  0.50162600  1
  O  O105  1  0.82214600  0.02334000  0.26880000  1
  O  O106  1  0.67820500  0.44955700  0.45152100  1
  O  O107  1  0.84929500  0.01332200  0.45044900  1
