# generated using pymatgen
data_K2Rb2Re6S13
_symmetry_space_group_name_H-M   'P 1'
_cell_length_a   9.71825164
_cell_length_b   9.71825164
_cell_length_c   13.80329221
_cell_angle_alpha   84.62721190
_cell_angle_beta   84.62721190
_cell_angle_gamma   118.10877539
_symmetry_Int_Tables_number   1
_chemical_formula_structural   K2Rb2Re6S13
_chemical_formula_sum   'K4 Rb4 Re12 S26'
_cell_volume   1130.66111766
_cell_formula_units_Z   2
loop_
 _symmetry_equiv_pos_site_id
 _symmetry_equiv_pos_as_xyz
  1  'x, y, z'
loop_
 _atom_site_type_symbol
 _atom_site_label
 _atom_site_symmetry_multiplicity
 _atom_site_fract_x
 _atom_site_fract_y
 _atom_site_fract_z
 _atom_site_occupancy
  K  K0  1  0.68541900  0.72947300  0.20878900  1
  K  K1  1  0.72947300  0.68541900  0.70878900  1
  K  K2  1  0.27052700  0.31458100  0.29121100  1
  K  K3  1  0.31458100  0.27052700  0.79121100  1
  Rb  Rb4  1  0.64532300  0.88093000  0.91122600  1
  Rb  Rb5  1  0.11907000  0.35467700  0.58877400  1
  Rb  Rb6  1  0.88093000  0.64532300  0.41122600  1
  Rb  Rb7  1  0.35467700  0.11907000  0.08877400  1
  Re  Re8  1  0.58197000  0.15544700  0.57934800  1
  Re  Re9  1  0.84455300  0.41803000  0.92065200  1
  Re  Re10  1  0.99251800  0.30364700  0.02382000  1
  Re  Re11  1  0.69635300  0.00748200  0.47618000  1
  Re  Re12  1  0.15699000  0.56019200  0.89001400  1
  Re  Re13  1  0.43980800  0.84301000  0.60998600  1
  Re  Re14  1  0.00748200  0.69635300  0.97618000  1
  Re  Re15  1  0.30364700  0.99251800  0.52382000  1
  Re  Re16  1  0.15544700  0.58197000  0.07934800  1
  Re  Re17  1  0.56019200  0.15699000  0.39001400  1
  Re  Re18  1  0.41803000  0.84455300  0.42065200  1
  Re  Re19  1  0.84301000  0.43980800  0.10998600  1
  S  S20  1  0.29972500  0.99235400  0.34809500  1
  S  S21  1  0.71946300  0.55096100  0.00476000  1
  S  S22  1  0.00764600  0.70027500  0.15190500  1
  S  S23  1  0.62885600  0.37114400  0.25000000  1
  S  S24  1  0.65909800  0.00771700  0.30508300  1
  S  S25  1  0.99228300  0.34090200  0.19491700  1
  S  S26  1  0.36802100  0.71600600  0.17398500  1
  S  S27  1  0.44903900  0.28053700  0.49524000  1
  S  S28  1  0.28399400  0.63197900  0.32601500  1
  S  S29  1  0.71600600  0.36802100  0.67398500  1
  S  S30  1  0.70945600  0.18957300  0.05039600  1
  S  S31  1  0.70027500  0.00764600  0.65190500  1
  S  S32  1  0.34090200  0.99228300  0.69491700  1
  S  S33  1  0.99235400  0.29972500  0.84809500  1
  S  S34  1  0.29054400  0.81042700  0.94960400  1
  S  S35  1  0.03120500  0.96300200  0.93506500  1
  S  S36  1  0.63197900  0.28399400  0.82601500  1
  S  S37  1  0.81042700  0.29054400  0.44960400  1
  S  S38  1  0.28053700  0.44903900  0.99524000  1
  S  S39  1  0.96879500  0.03699800  0.06493500  1
  S  S40  1  0.37114400  0.62885600  0.75000000  1
  S  S41  1  0.03699800  0.96879500  0.56493500  1
  S  S42  1  0.00771700  0.65909800  0.80508300  1
  S  S43  1  0.96300200  0.03120500  0.43506500  1
  S  S44  1  0.55096100  0.71946300  0.50476000  1
  S  S45  1  0.18957300  0.70945600  0.55039600  1
