# generated using pymatgen
data_Na2Ti9O19
_symmetry_space_group_name_H-M   'P 1'
_cell_length_a   6.43425811
_cell_length_b   6.43425811
_cell_length_c   15.79824087
_cell_angle_alpha   75.93771797
_cell_angle_beta   75.93771797
_cell_angle_gamma   34.43458655
_symmetry_Int_Tables_number   1
_chemical_formula_structural   Na2Ti9O19
_chemical_formula_sum   'Na2 Ti9 O19'
_cell_volume   357.67228873
_cell_formula_units_Z   1
loop_
 _symmetry_equiv_pos_site_id
 _symmetry_equiv_pos_as_xyz
  1  'x, y, z'
loop_
 _atom_site_type_symbol
 _atom_site_label
 _atom_site_symmetry_multiplicity
 _atom_site_fract_x
 _atom_site_fract_y
 _atom_site_fract_z
 _atom_site_occupancy
  Na  Na0  1  0.32284000  0.32284000  0.49155400  1
  Na  Na1  1  0.67716000  0.67716000  0.50844600  1
  Ti  Ti2  1  0.18729500  0.18729500  0.88248400  1
  Ti  Ti3  1  0.81270500  0.81270500  0.11751600  1
  Ti  Ti4  1  0.91509100  0.91509100  0.29516000  1
  Ti  Ti5  1  0.10814400  0.10814400  0.11830000  1
  Ti  Ti6  1  0.78832700  0.78832700  0.70684000  1
  Ti  Ti7  1  0.00000000  0.00000000  0.50000000  1
  Ti  Ti8  1  0.21167300  0.21167300  0.29316000  1
  Ti  Ti9  1  0.08490900  0.08490900  0.70484000  1
  Ti  Ti10  1  0.89185600  0.89185600  0.88170000  1
  O  O11  1  0.24935800  0.24935800  0.73098500  1
  O  O12  1  0.12627900  0.12627900  0.99762900  1
  O  O13  1  0.07307700  0.07307700  0.25838000  1
  O  O14  1  0.35237700  0.35237700  0.88332400  1
  O  O15  1  0.92692300  0.92692300  0.74162000  1
  O  O16  1  0.87372100  0.87372100  0.00237100  1
  O  O17  1  0.64762300  0.64762300  0.11667600  1
  O  O18  1  0.89958000  0.89958000  0.41488400  1
  O  O19  1  0.37554600  0.37554600  0.29407300  1
  O  O20  1  0.75064200  0.75064200  0.26901500  1
  O  O21  1  0.15162100  0.15162100  0.41037000  1
  O  O22  1  0.27247500  0.27247500  0.14244700  1
  O  O23  1  0.72752500  0.72752500  0.85755300  1
  O  O24  1  0.62445400  0.62445400  0.70592700  1
  O  O25  1  0.50000000  0.50000000  0.50000000  1
  O  O26  1  0.95093000  0.95093000  0.15337000  1
  O  O27  1  0.04907000  0.04907000  0.84663000  1
  O  O28  1  0.10042000  0.10042000  0.58511600  1
  O  O29  1  0.84837900  0.84837900  0.58963000  1
