# generated using pymatgen
data_Sb8(Pb3S7)3
_symmetry_space_group_name_H-M   'P 1'
_cell_length_a   9.19865533
_cell_length_b   9.19865533
_cell_length_c   25.31881551
_cell_angle_alpha   78.77665008
_cell_angle_beta   78.77665008
_cell_angle_gamma   81.97564089
_symmetry_Int_Tables_number   1
_chemical_formula_structural   Sb8(Pb3S7)3
_chemical_formula_sum   'Sb16 Pb18 S42'
_cell_volume   2049.65009264
_cell_formula_units_Z   2
loop_
 _symmetry_equiv_pos_site_id
 _symmetry_equiv_pos_as_xyz
  1  'x, y, z'
loop_
 _atom_site_type_symbol
 _atom_site_label
 _atom_site_symmetry_multiplicity
 _atom_site_fract_x
 _atom_site_fract_y
 _atom_site_fract_z
 _atom_site_occupancy
  Sb  Sb0  1  0.53868600  0.42227900  0.07654900  1
  Sb  Sb1  1  0.10259400  0.45632200  0.87779800  1
  Sb  Sb2  1  0.84447400  0.17541000  0.52324800  1
  Sb  Sb3  1  0.71119000  0.19200200  0.68438600  1
  Sb  Sb4  1  0.57772100  0.46131400  0.42345100  1
  Sb  Sb5  1  0.89740600  0.54367800  0.12220200  1
  Sb  Sb6  1  0.19200200  0.71119000  0.18438600  1
  Sb  Sb7  1  0.15552600  0.82459000  0.47675200  1
  Sb  Sb8  1  0.80799800  0.28881000  0.81561400  1
  Sb  Sb9  1  0.54367800  0.89740600  0.62220200  1
  Sb  Sb10  1  0.82459000  0.15552600  0.97675200  1
  Sb  Sb11  1  0.17541000  0.84447400  0.02324800  1
  Sb  Sb12  1  0.28881000  0.80799800  0.31561400  1
  Sb  Sb13  1  0.46131400  0.57772100  0.92345100  1
  Sb  Sb14  1  0.42227900  0.53868600  0.57654900  1
  Sb  Sb15  1  0.45632200  0.10259400  0.37779800  1
  Pb  Pb16  1  0.78631700  0.75699100  0.80837300  1
  Pb  Pb17  1  0.90680700  0.13384200  0.36047500  1
  Pb  Pb18  1  0.50372700  0.96331100  0.09066900  1
  Pb  Pb19  1  0.13384200  0.90680700  0.86047500  1
  Pb  Pb20  1  0.54145000  0.45855000  0.25000000  1
  Pb  Pb21  1  0.45855000  0.54145000  0.75000000  1
  Pb  Pb22  1  0.80317900  0.69901000  0.98109200  1
  Pb  Pb23  1  0.30099000  0.19682100  0.51890800  1
  Pb  Pb24  1  0.75699100  0.78631700  0.30837300  1
  Pb  Pb25  1  0.96331100  0.50372700  0.59066900  1
  Pb  Pb26  1  0.86615800  0.09319300  0.13952500  1
  Pb  Pb27  1  0.49627300  0.03668900  0.90933100  1
  Pb  Pb28  1  0.19682100  0.30099000  0.01890800  1
  Pb  Pb29  1  0.03668900  0.49627300  0.40933100  1
  Pb  Pb30  1  0.69901000  0.80317900  0.48109200  1
  Pb  Pb31  1  0.09319300  0.86615800  0.63952500  1
  Pb  Pb32  1  0.21368300  0.24300900  0.19162700  1
  Pb  Pb33  1  0.24300900  0.21368300  0.69162700  1
  S  S34  1  0.31787400  0.87217300  0.54455000  1
  S  S35  1  0.22553000  0.48889000  0.25401100  1
  S  S36  1  0.51937700  0.74625400  0.40119700  1
  S  S37  1  0.06797900  0.18914500  0.60164500  1
  S  S38  1  0.19395900  0.53875700  0.49920600  1
  S  S39  1  0.38421500  0.39565500  0.86878900  1
  S  S40  1  0.89386700  0.33078900  0.19612700  1
  S  S41  1  0.53875700  0.19395900  0.99920600  1
  S  S42  1  0.16557700  0.06875300  0.95245300  1
  S  S43  1  0.72525800  0.91903000  0.68311100  1
  S  S44  1  0.61578500  0.60434500  0.13121100  1
  S  S45  1  0.10548500  0.89451500  0.25000000  1
  S  S46  1  0.18914500  0.06797900  0.10164500  1
  S  S47  1  0.78992700  0.45776600  0.34853500  1
  S  S48  1  0.93124700  0.83442300  0.54754700  1
  S  S49  1  0.77447000  0.51111000  0.74598900  1
  S  S50  1  0.80604100  0.46124300  0.50079400  1
  S  S51  1  0.48889000  0.22553000  0.75401100  1
  S  S52  1  0.21007300  0.54223400  0.65146500  1
  S  S53  1  0.45776600  0.78992700  0.84853500  1
  S  S54  1  0.25374600  0.48062300  0.09880300  1
  S  S55  1  0.93202100  0.81085500  0.39835500  1
  S  S56  1  0.54223400  0.21007300  0.15146500  1
  S  S57  1  0.74625400  0.51937700  0.90119700  1
  S  S58  1  0.46124300  0.80604100  0.00079400  1
  S  S59  1  0.48062300  0.25374600  0.59880300  1
  S  S60  1  0.66921100  0.10613300  0.30387300  1
  S  S61  1  0.39565500  0.38421500  0.36878900  1
  S  S62  1  0.60434500  0.61578500  0.63121100  1
  S  S63  1  0.27474200  0.08097000  0.31688900  1
  S  S64  1  0.12782700  0.68212600  0.95545000  1
  S  S65  1  0.51111000  0.77447000  0.24598900  1
  S  S66  1  0.81085500  0.93202100  0.89835500  1
  S  S67  1  0.06875300  0.16557700  0.45245300  1
  S  S68  1  0.33078900  0.89386700  0.69612700  1
  S  S69  1  0.68212600  0.12782700  0.45545000  1
  S  S70  1  0.83442300  0.93124700  0.04754700  1
  S  S71  1  0.89451500  0.10548500  0.75000000  1
  S  S72  1  0.08097000  0.27474200  0.81688900  1
  S  S73  1  0.10613300  0.66921100  0.80387300  1
  S  S74  1  0.91903000  0.72525800  0.18311100  1
  S  S75  1  0.87217300  0.31787400  0.04455000  1
