# generated using pymatgen
data_K2SbF5
_symmetry_space_group_name_H-M   'P 1'
_cell_length_a   6.60588800
_cell_length_b   17.52817400
_cell_length_c   29.09146362
_cell_angle_alpha   78.82636158
_cell_angle_beta   90.00000000
_cell_angle_gamma   90.00000000
_symmetry_Int_Tables_number   1
_chemical_formula_structural   K2SbF5
_chemical_formula_sum   'K44 Sb22 F110'
_cell_volume   3304.62454760
_cell_formula_units_Z   22
loop_
 _symmetry_equiv_pos_site_id
 _symmetry_equiv_pos_as_xyz
  1  'x, y, z'
loop_
 _atom_site_type_symbol
 _atom_site_label
 _atom_site_symmetry_multiplicity
 _atom_site_fract_x
 _atom_site_fract_y
 _atom_site_fract_z
 _atom_site_occupancy
  K  K0  1  0.76111200  0.64858900  0.62601100  1
  K  K1  1  0.75484000  0.58791100  0.47734000  1
  K  K2  1  0.75446300  0.74497300  0.93285300  1
  K  K3  1  0.25591600  0.49989300  0.24982000  1
  K  K4  1  0.25832800  0.45138900  0.10658800  1
  K  K5  1  0.74296200  0.22530800  0.56910300  1
  K  K6  1  0.75279900  0.73817900  0.35557800  1
  K  K7  1  0.20874600  0.95120100  0.86636700  1
  K  K8  1  0.73686500  0.67629200  0.20680800  1
  K  K9  1  0.77064100  0.95274300  0.38822200  1
  K  K10  1  0.24072500  0.59003000  0.97772700  1
  K  K11  1  0.76726100  0.84278300  0.08305400  1
  K  K12  1  0.25429600  0.53336900  0.82815500  1
  K  K13  1  0.70874600  0.04879900  0.13363300  1
  K  K14  1  0.75429600  0.46663100  0.17184500  1
  K  K15  1  0.24296200  0.77469200  0.43089700  1
  K  K16  1  0.24726200  0.81383900  0.99316000  1
  K  K17  1  0.24627700  0.71291700  0.29059100  1
  K  K18  1  0.25446300  0.25502700  0.06714700  1
  K  K19  1  0.77039400  0.01041100  0.53519500  1
  K  K20  1  0.76837400  0.31394500  0.29688000  1
  K  K21  1  0.23835400  0.13724000  0.34093700  1
  K  K22  1  0.74105100  0.10018500  0.26461500  1
  K  K23  1  0.74627700  0.28708300  0.70940900  1
  K  K24  1  0.26837400  0.68605500  0.70312000  1
  K  K25  1  0.24695000  0.07325400  0.17764600  1
  K  K26  1  0.23686500  0.32370800  0.79319200  1
  K  K27  1  0.26726100  0.15721700  0.91694600  1
  K  K28  1  0.26111200  0.35141100  0.37398900  1
  K  K29  1  0.75832800  0.54861100  0.89341200  1
  K  K30  1  0.27039400  0.98958900  0.46480500  1
  K  K31  1  0.25484000  0.41208900  0.52266000  1
  K  K32  1  0.27064100  0.04725700  0.61177800  1
  K  K33  1  0.74072500  0.40997000  0.02227300  1
  K  K34  1  0.25279900  0.26182100  0.64442200  1
  K  K35  1  0.74695000  0.92674600  0.82235400  1
  K  K36  1  0.73835400  0.86276000  0.65906300  1
  K  K37  1  0.78297000  0.15439500  0.82882900  1
  K  K38  1  0.76479100  0.37179000  0.44486700  1
  K  K39  1  0.26479100  0.62821000  0.55513300  1
  K  K40  1  0.75591600  0.50010700  0.75018000  1
  K  K41  1  0.28297000  0.84560500  0.17117100  1
  K  K42  1  0.74726200  0.18616100  0.00684000  1
  K  K43  1  0.24105100  0.89981500  0.73538500  1
  Sb  Sb44  1  0.24217000  0.83392400  0.58742900  1
  Sb  Sb45  1  0.25905000  0.03087500  0.04232000  1
  Sb  Sb46  1  0.76602500  0.07284400  0.68264600  1
  Sb  Sb47  1  0.25213400  0.47307000  0.67836800  1
  Sb  Sb48  1  0.75535900  0.43946700  0.59297700  1
  Sb  Sb49  1  0.26736600  0.11259800  0.76257900  1
  Sb  Sb50  1  0.24162800  0.19818500  0.49719500  1
  Sb  Sb51  1  0.74162800  0.80181500  0.50280500  1
  Sb  Sb52  1  0.26602500  0.92715600  0.31735400  1
  Sb  Sb53  1  0.77000900  0.26433000  0.14561300  1
  Sb  Sb54  1  0.76736600  0.88740200  0.23742100  1
  Sb  Sb55  1  0.75213400  0.52693000  0.32163200  1
  Sb  Sb56  1  0.73968400  0.61900000  0.04845800  1
  Sb  Sb57  1  0.74217000  0.16607600  0.41257100  1
  Sb  Sb58  1  0.75905000  0.96912500  0.95768000  1
  Sb  Sb59  1  0.23968400  0.38100000  0.95154200  1
  Sb  Sb60  1  0.74146700  0.34278100  0.86681000  1
  Sb  Sb61  1  0.27000900  0.73567000  0.85438700  1
  Sb  Sb62  1  0.26326900  0.28810800  0.22627800  1
  Sb  Sb63  1  0.76326900  0.71189200  0.77372200  1
  Sb  Sb64  1  0.24146700  0.65721900  0.13319000  1
  Sb  Sb65  1  0.25535900  0.56053300  0.40702300  1
  F  F66  1  0.05377000  0.65012000  0.88386800  1
  F  F67  1  0.72154200  0.87971800  0.17087800  1
  F  F68  1  0.49586400  0.55195900  0.67467600  1
  F  F69  1  0.45753800  0.65610600  0.39753000  1
  F  F70  1  0.52976500  0.87765300  0.46446000  1
  F  F71  1  0.25792800  0.57984700  0.47194200  1
  F  F72  1  0.04491900  0.92685100  0.58851900  1
  F  F73  1  0.99163000  0.51496800  0.56368800  1
  F  F74  1  0.97247400  0.98409600  0.67938600  1
  F  F75  1  0.47181800  0.29969400  0.98020200  1
  F  F76  1  0.51481700  0.23591500  0.37603200  1
  F  F77  1  0.51611600  0.41714000  0.83289100  1
  F  F78  1  0.45964700  0.28944300  0.48203200  1
  F  F79  1  0.03974400  0.20163400  0.75505900  1
  F  F80  1  0.48987100  0.85073400  0.35170400  1
  F  F81  1  0.55291500  0.52695000  0.56052600  1
  F  F82  1  0.94989200  0.52652200  0.06447800  1
  F  F83  1  0.49163000  0.48503200  0.43631200  1
  F  F84  1  0.55605300  0.61580000  0.78765800  1
  F  F85  1  0.78565500  0.32808900  0.80124300  1
  F  F86  1  0.47868800  0.74298200  0.12491700  1
  F  F87  1  0.37774700  0.11256200  0.07506100  1
  F  F88  1  0.97599000  0.17245600  0.14628900  1
  F  F89  1  0.11344400  0.12707100  0.00125300  1
  F  F90  1  0.30526200  0.84786500  0.65188600  1
  F  F91  1  0.75667300  0.51098900  0.25594000  1
  F  F92  1  0.47578000  0.20089700  0.76585400  1
  F  F93  1  0.51656500  0.07531400  0.98920000  1
  F  F94  1  0.22658900  0.75903800  0.91777100  1
  F  F95  1  0.03241100  0.01207200  0.30905700  1
  F  F96  1  0.05291500  0.47305000  0.43947400  1
  F  F97  1  0.93783200  0.43949700  0.84171800  1
  F  F98  1  0.75792800  0.42015300  0.52805800  1
  F  F99  1  0.52860800  0.79184200  0.74769800  1
  F  F100  1  0.87774700  0.88743800  0.92493900  1
  F  F101  1  0.02976500  0.12234700  0.53554000  1
  F  F102  1  0.25667300  0.48901100  0.74406000  1
  F  F103  1  0.44989200  0.47347800  0.93552200  1
  F  F104  1  0.95964700  0.71055700  0.51796800  1
  F  F105  1  0.53241100  0.98792800  0.69094300  1
  F  F106  1  0.04842500  0.82544200  0.83773000  1
  F  F107  1  0.44469400  0.38036900  0.70897700  1
  F  F108  1  0.52406500  0.53105500  0.05068400  1
  F  F109  1  0.72658900  0.24096200  0.08222900  1
  F  F110  1  0.05605300  0.38420000  0.21234200  1
  F  F111  1  0.46873800  0.20843300  0.26380100  1
  F  F112  1  0.52138000  0.35560600  0.59750200  1
  F  F113  1  0.94469400  0.61963100  0.29102300  1
  F  F114  1  0.56276100  0.16938000  0.66001600  1
  F  F115  1  0.28100400  0.40532800  0.01510200  1
  F  F116  1  0.49080700  0.37355400  0.22501200  1
  F  F117  1  0.51534900  0.69153100  0.01084800  1
  F  F118  1  0.55425700  0.43114900  0.32815900  1
  F  F119  1  0.01481700  0.76408500  0.62396800  1
  F  F120  1  0.02406500  0.46894500  0.94931600  1
  F  F121  1  0.53974400  0.79836600  0.24494100  1
  F  F122  1  0.43692500  0.73516800  0.61036300  1
  F  F123  1  0.01656500  0.92468600  0.01080000  1
  F  F124  1  0.98026900  0.08187100  0.42528200  1
  F  F125  1  0.98611600  0.96618500  0.20444500  1
  F  F126  1  0.22226200  0.30975500  0.29041500  1
  F  F127  1  0.06276100  0.83062000  0.33998400  1
  F  F128  1  0.01112300  0.39977400  0.70773300  1
  F  F129  1  0.72226200  0.69024500  0.70958500  1
  F  F130  1  0.71318600  0.06282300  0.61661900  1
  F  F131  1  0.55706700  0.98348800  0.21680500  1
  F  F132  1  0.02138000  0.64439400  0.40249800  1
  F  F133  1  0.99080700  0.62644600  0.77498800  1
  F  F134  1  0.30835000  0.21400700  0.56142400  1
  F  F135  1  0.97181800  0.70030600  0.01979800  1
  F  F136  1  0.05425700  0.56885100  0.67184100  1
  F  F137  1  0.48847300  0.66063200  0.89229400  1
  F  F138  1  0.43783200  0.56050300  0.15828200  1
  F  F139  1  0.89683200  0.03721600  0.89451200  1
  F  F140  1  0.54491900  0.07314900  0.41148100  1
  F  F141  1  0.01534900  0.30846900  0.98915200  1
  F  F142  1  0.98987100  0.14926600  0.64829600  1
  F  F143  1  0.02993300  0.28584000  0.50125900  1
  F  F144  1  0.54842500  0.17455800  0.16227000  1
  F  F145  1  0.47247400  0.01590400  0.32061400  1
  F  F146  1  0.80835000  0.78599300  0.43857600  1
  F  F147  1  0.45538600  0.10609800  0.51894800  1
  F  F148  1  0.95538600  0.89390200  0.48105200  1
  F  F149  1  0.78100400  0.59467200  0.98489800  1
  F  F150  1  0.80526200  0.15213500  0.34811400  1
  F  F151  1  0.97868800  0.25701800  0.87508300  1
  F  F152  1  0.99586400  0.44804100  0.32532400  1
  F  F153  1  0.61344400  0.87292900  0.99874700  1
  F  F154  1  0.02860800  0.20815800  0.25230200  1
  F  F155  1  0.03188900  0.74820400  0.13374500  1
  F  F156  1  0.93692500  0.26483200  0.38963700  1
  F  F157  1  0.51432400  0.96327400  0.91534600  1
  F  F158  1  0.98847300  0.33936800  0.10770600  1
  F  F159  1  0.01611600  0.58286000  0.16710900  1
  F  F160  1  0.22154200  0.12028200  0.82912200  1
  F  F161  1  0.55377000  0.34988000  0.11613200  1
  F  F162  1  0.48611600  0.03381500  0.79555500  1
  F  F163  1  0.28565500  0.67191100  0.19875700  1
  F  F164  1  0.39683200  0.96278400  0.10548800  1
  F  F165  1  0.96873800  0.79156700  0.73619900  1
  F  F166  1  0.21318600  0.93717700  0.38338100  1
  F  F167  1  0.48026900  0.91812900  0.57471800  1
  F  F168  1  0.95753800  0.34389400  0.60247000  1
  F  F169  1  0.97578000  0.79910300  0.23414600  1
  F  F170  1  0.53188900  0.25179600  0.86625500  1
  F  F171  1  0.01432400  0.03672600  0.08465400  1
  F  F172  1  0.51112300  0.60022600  0.29226700  1
  F  F173  1  0.05706700  0.01651200  0.78319500  1
  F  F174  1  0.52993300  0.71416000  0.49874100  1
  F  F175  1  0.47599000  0.82754400  0.85371100  1
