# generated using pymatgen
data_K4Nb2Si8O23
_symmetry_space_group_name_H-M   'P 1'
_cell_length_a   7.84626200
_cell_length_b   11.09070329
_cell_length_c   32.77515111
_cell_angle_alpha   92.99628008
_cell_angle_beta   94.77158452
_cell_angle_gamma   103.64279921
_symmetry_Int_Tables_number   1
_chemical_formula_structural   K4Nb2Si8O23
_chemical_formula_sum   'K20 Nb10 Si40 O115'
_cell_volume   2754.41287421
_cell_formula_units_Z   5
loop_
 _symmetry_equiv_pos_site_id
 _symmetry_equiv_pos_as_xyz
  1  'x, y, z'
loop_
 _atom_site_type_symbol
 _atom_site_label
 _atom_site_symmetry_multiplicity
 _atom_site_fract_x
 _atom_site_fract_y
 _atom_site_fract_z
 _atom_site_occupancy
  K  K0  1  0.02435900  0.14434500  0.26313900  1
  K  K1  1  0.61873300  0.13425900  0.66515800  1
  K  K2  1  0.17335400  0.47597500  0.05727800  1
  K  K3  1  0.24408100  0.14142500  0.06618200  1
  K  K4  1  0.24441800  0.52743100  0.54436100  1
  K  K5  1  0.84299900  0.14686200  0.46629500  1
  K  K6  1  0.00188800  0.49331400  0.25511500  1
  K  K7  1  0.63948800  0.52699400  0.14507200  1
  K  K8  1  0.99811200  0.50668600  0.74488500  1
  K  K9  1  0.39826600  0.51337000  0.34573100  1
  K  K10  1  0.82664600  0.52402500  0.94272200  1
  K  K11  1  0.38126700  0.86574100  0.33484200  1
  K  K12  1  0.75591900  0.85857500  0.93381800  1
  K  K13  1  0.15700100  0.85313800  0.53370500  1
  K  K14  1  0.75558200  0.47256900  0.45563900  1
  K  K15  1  0.43387700  0.14460200  0.86552200  1
  K  K16  1  0.60173400  0.48663000  0.65426900  1
  K  K17  1  0.97564100  0.85565500  0.73686100  1
  K  K18  1  0.56612300  0.85539800  0.13447800  1
  K  K19  1  0.36051200  0.47300600  0.85492800  1
  Nb  Nb20  1  0.50015700  0.70586500  0.24593900  1
  Nb  Nb21  1  0.90023800  0.29474200  0.35479500  1
  Nb  Nb22  1  0.86704100  0.67642200  0.84189800  1
  Nb  Nb23  1  0.13295900  0.32357800  0.15810200  1
  Nb  Nb24  1  0.67818000  0.68860700  0.04167400  1
  Nb  Nb25  1  0.32182000  0.31139300  0.95832600  1
  Nb  Nb26  1  0.73369700  0.32682800  0.55790400  1
  Nb  Nb27  1  0.09976200  0.70525800  0.64520500  1
  Nb  Nb28  1  0.49984300  0.29413500  0.75406100  1
  Nb  Nb29  1  0.26630300  0.67317200  0.44209600  1
  Si  Si30  1  0.07959700  0.80193600  0.09683000  1
  Si  Si31  1  0.15135700  0.00561500  0.16836400  1
  Si  Si32  1  0.10121600  0.22120700  0.69810900  1
  Si  Si33  1  0.84232200  0.35932100  0.83513600  1
  Si  Si34  1  0.92040300  0.19806400  0.90317000  1
  Si  Si35  1  0.90550700  0.20197200  0.99442300  1
  Si  Si36  1  0.48172000  0.19326700  0.38936400  1
  Si  Si37  1  0.08006900  0.20424200  0.78884900  1
  Si  Si38  1  0.32798900  0.62283200  0.96651300  1
  Si  Si39  1  0.24616000  0.99259500  0.43378200  1
  Si  Si40  1  0.67166500  0.79390600  0.49615800  1
  Si  Si41  1  0.89878400  0.77879300  0.30189100  1
  Si  Si42  1  0.50113200  0.78283600  0.70142700  1
  Si  Si43  1  0.31319700  0.22004200  0.59509800  1
  Si  Si44  1  0.52668500  0.60097600  0.76317000  1
  Si  Si45  1  0.91993100  0.79575800  0.21115100  1
  Si  Si46  1  0.47331500  0.39902400  0.23683000  1
  Si  Si47  1  0.93141400  0.98732800  0.36779700  1
  Si  Si48  1  0.06858600  0.01267200  0.63220300  1
  Si  Si49  1  0.47456100  0.01428100  0.23028100  1
  Si  Si50  1  0.27275700  0.77830200  0.89652100  1
  Si  Si51  1  0.75022700  0.64133200  0.56623200  1
  Si  Si52  1  0.49886800  0.21716400  0.29857300  1
  Si  Si53  1  0.91917400  0.60147000  0.36550700  1
  Si  Si54  1  0.15767800  0.64067900  0.16486400  1
  Si  Si55  1  0.84864300  0.99438500  0.83163600  1
  Si  Si56  1  0.24977300  0.35866800  0.43376800  1
  Si  Si57  1  0.08082600  0.39853000  0.63449300  1
  Si  Si58  1  0.67201100  0.37716800  0.03348700  1
  Si  Si59  1  0.75384000  0.00740500  0.56621800  1
  Si  Si60  1  0.32833500  0.20609400  0.50384200  1
  Si  Si61  1  0.52543900  0.98571900  0.76971900  1
  Si  Si62  1  0.29077100  0.77114200  0.80539800  1
  Si  Si63  1  0.51828000  0.80673300  0.61063600  1
  Si  Si64  1  0.70922900  0.22885800  0.19460200  1
  Si  Si65  1  0.65887900  0.00425800  0.03573700  1
  Si  Si66  1  0.68680300  0.77995800  0.40490200  1
  Si  Si67  1  0.09449300  0.79802800  0.00557700  1
  Si  Si68  1  0.72724300  0.22169800  0.10347900  1
  Si  Si69  1  0.34112100  0.99574200  0.96426300  1
  O  O70  1  0.05546800  0.32191600  0.40861200  1
  O  O71  1  0.23841800  0.84992500  0.44009200  1
  O  O72  1  0.40265100  0.18043200  0.34037000  1
  O  O73  1  0.06807800  0.36000100  0.32225200  1
  O  O74  1  0.66358500  0.09479000  0.21672400  1
  O  O75  1  0.29065500  0.76062900  0.69382100  1
  O  O76  1  0.51071300  0.62651400  0.07470600  1
  O  O77  1  0.26115600  0.09078000  0.61961600  1
  O  O78  1  0.40100600  0.67802800  0.78557300  1
  O  O79  1  0.76449200  0.81684900  0.45342700  1
  O  O80  1  0.11654600  0.62779000  0.38861500  1
  O  O81  1  0.12726200  0.26503700  0.90994100  1
  O  O82  1  0.32878500  0.66011400  0.91808800  1
  O  O83  1  0.36957000  0.79831100  0.85413400  1
  O  O84  1  0.70934500  0.23937100  0.30617900  1
  O  O85  1  0.28991200  0.24157300  0.79702000  1
  O  O86  1  0.76158200  0.15007500  0.55990800  1
  O  O87  1  0.88147600  0.05900200  0.87881700  1
  O  O88  1  0.28077500  0.37973900  0.21175500  1
  O  O89  1  0.20720400  0.32208100  0.61158200  1
  O  O90  1  0.22809400  0.29982700  0.47918200  1
  O  O91  1  0.81847600  0.45562200  0.36394400  1
  O  O92  1  0.69023900  0.76642500  0.29424100  1
  O  O93  1  0.94012400  0.65016000  0.31874300  1
  O  O94  1  0.55680700  0.65732800  0.71748700  1
  O  O95  1  0.32826100  0.64988700  0.27854000  1
  O  O96  1  0.99559000  0.93620300  0.19558200  1
  O  O97  1  0.40186600  0.10176100  0.26392900  1
  O  O98  1  0.08323200  0.71269900  0.79952200  1
  O  O99  1  0.74962800  0.52478100  0.03025000  1
  O  O100  1  0.33836400  0.50675300  0.43896600  1
  O  O101  1  0.46156700  0.73685900  0.48996100  1
  O  O102  1  0.33992400  0.13074600  0.94957600  1
  O  O103  1  0.62814700  0.09290900  0.07506100  1
  O  O104  1  0.99649800  0.10372600  0.66496600  1
  O  O105  1  0.63043000  0.20168900  0.14586600  1
  O  O106  1  0.89945300  0.37444400  0.52320600  1
  O  O107  1  0.37185300  0.90709100  0.92493900  1
  O  O108  1  0.79279600  0.67791900  0.38841800  1
  O  O109  1  0.82651000  0.16923200  0.94570500  1
  O  O110  1  0.33641500  0.90521000  0.78327600  1
  O  O111  1  0.81267200  0.30879800  0.01272200  1
  O  O112  1  0.58041700  0.54370900  0.24095100  1
  O  O113  1  0.41958300  0.45629100  0.75904900  1
  O  O114  1  0.67173900  0.35011300  0.72146000  1
  O  O115  1  0.30816900  0.76879000  0.60328800  1
  O  O116  1  0.93737700  0.98559500  0.58915400  1
  O  O117  1  0.17349000  0.83076800  0.05429500  1
  O  O118  1  0.05987600  0.34984000  0.68125700  1
  O  O119  1  0.71008800  0.75842700  0.20298000  1
  O  O120  1  0.65980500  0.01698700  0.81221900  1
  O  O121  1  0.92333600  0.11436200  0.34754500  1
  O  O122  1  0.07353200  0.49346700  0.15411700  1
  O  O123  1  0.51185300  0.11248600  0.75022000  1
  O  O124  1  0.67121500  0.33988600  0.08191200  1
  O  O125  1  0.40773200  0.05440300  0.40669400  1
  O  O126  1  0.34801300  0.67190700  0.19166700  1
  O  O127  1  0.25037200  0.47521900  0.96975000  1
  O  O128  1  0.69183100  0.23121000  0.39671200  1
  O  O129  1  0.00441000  0.06379700  0.80441800  1
  O  O130  1  0.59899400  0.32197200  0.21442700  1
  O  O131  1  0.30196400  0.35668500  0.12339700  1
  O  O132  1  0.81044600  0.28492300  0.87777700  1
  O  O133  1  0.66163600  0.49324700  0.56103400  1
  O  O134  1  0.88345400  0.37221000  0.61138500  1
  O  O135  1  0.94453200  0.67808400  0.59138800  1
  O  O136  1  0.27352900  0.06656800  0.47951600  1
  O  O137  1  0.71922500  0.62026100  0.78824500  1
  O  O138  1  0.77190600  0.70017300  0.52081800  1
  O  O139  1  0.88502100  0.75170800  0.99964900  1
  O  O140  1  0.18732800  0.69120200  0.98727800  1
  O  O141  1  0.87273800  0.73496300  0.09005900  1
  O  O142  1  0.07666400  0.88563800  0.65245500  1
  O  O143  1  0.00737200  0.69320800  0.18784700  1
  O  O144  1  0.66007600  0.86925400  0.05042400  1
  O  O145  1  0.44319300  0.34267200  0.28251300  1
  O  O146  1  0.00284800  0.19610300  0.74011300  1
  O  O147  1  0.92646800  0.50653300  0.84588300  1
  O  O148  1  0.59734900  0.81956800  0.65963000  1
  O  O149  1  0.99715200  0.80389700  0.25988700  1
  O  O150  1  0.34019500  0.98301300  0.18778100  1
  O  O151  1  0.91676800  0.28730100  0.20047800  1
  O  O152  1  0.11852400  0.94099800  0.12118300  1
  O  O153  1  0.52182200  0.27384500  0.60071300  1
  O  O154  1  0.72647100  0.93343200  0.52048400  1
  O  O155  1  0.52805900  0.67214500  0.98792600  1
  O  O156  1  0.48928700  0.37348600  0.92529400  1
  O  O157  1  0.84741000  0.85101000  0.83221600  1
  O  O158  1  0.18955400  0.71507700  0.12222300  1
  O  O159  1  0.59813400  0.89823900  0.73607100  1
  O  O160  1  0.00350200  0.89627400  0.33503400  1
  O  O161  1  0.60546000  0.70339600  0.58795800  1
  O  O162  1  0.15259000  0.14899000  0.16778400  1
  O  O163  1  0.47194100  0.32785500  0.01207400  1
  O  O164  1  0.06114400  0.75250300  0.88904500  1
  O  O165  1  0.23550800  0.18315100  0.54657300  1
  O  O166  1  0.06262300  0.01440500  0.41084600  1
  O  O167  1  0.48814700  0.88751400  0.24978000  1
  O  O168  1  0.69803600  0.64331500  0.87660300  1
  O  O169  1  0.30976100  0.23357500  0.70575900  1
  O  O170  1  0.39454000  0.29660400  0.41204200  1
  O  O171  1  0.59226800  0.94559700  0.59330600  1
  O  O172  1  0.84467000  0.07229700  0.01790600  1
  O  O173  1  0.10054700  0.62555600  0.47679400  1
  O  O174  1  0.15533000  0.92770300  0.98209400  1
  O  O175  1  0.73884400  0.90922000  0.38038400  1
  O  O176  1  0.50000000  0.00000000  0.00000000  1
  O  O177  1  0.65198700  0.32809300  0.80833300  1
  O  O178  1  0.53843300  0.26314100  0.51003900  1
  O  O179  1  0.99262800  0.30679200  0.81215300  1
  O  O180  1  0.93192200  0.63999900  0.67774800  1
  O  O181  1  0.11497900  0.24829200  0.00035100  1
  O  O182  1  0.18152400  0.54437800  0.63605600  1
  O  O183  1  0.47817800  0.72615500  0.39928700  1
  O  O184  1  0.93885600  0.24749700  0.11095500  1
