# generated using pymatgen
data_Se2S(NCl)2
_symmetry_space_group_name_H-M   'P 1'
_cell_length_a   7.95522800
_cell_length_b   8.38743900
_cell_length_c   20.60643700
_cell_angle_alpha   90.00000000
_cell_angle_beta   90.00000000
_cell_angle_gamma   90.00000000
_symmetry_Int_Tables_number   1
_chemical_formula_structural   Se2S(NCl)2
_chemical_formula_sum   'Se16 S8 N16 Cl16'
_cell_volume   1374.94368769
_cell_formula_units_Z   8
loop_
 _symmetry_equiv_pos_site_id
 _symmetry_equiv_pos_as_xyz
  1  'x, y, z'
loop_
 _atom_site_type_symbol
 _atom_site_label
 _atom_site_symmetry_multiplicity
 _atom_site_fract_x
 _atom_site_fract_y
 _atom_site_fract_z
 _atom_site_occupancy
  Se  Se0  1  0.42015900  0.58346400  0.09653500  1
  Se  Se1  1  0.92015900  0.41653600  0.40346500  1
  Se  Se2  1  0.92015900  0.91653600  0.09653500  1
  Se  Se3  1  0.07984100  0.58346400  0.59653500  1
  Se  Se4  1  0.69152300  0.99992100  0.70289700  1
  Se  Se5  1  0.30847700  0.50007900  0.20289700  1
  Se  Se6  1  0.80847700  0.99992100  0.20289700  1
  Se  Se7  1  0.42015900  0.08346400  0.40346500  1
  Se  Se8  1  0.07984100  0.08346400  0.90346500  1
  Se  Se9  1  0.19152300  0.50007900  0.70289700  1
  Se  Se10  1  0.57984100  0.91653600  0.59653500  1
  Se  Se11  1  0.69152300  0.49992100  0.79710300  1
  Se  Se12  1  0.30847700  0.00007900  0.29710300  1
  Se  Se13  1  0.19152300  0.00007900  0.79710300  1
  Se  Se14  1  0.80847700  0.49992100  0.29710300  1
  Se  Se15  1  0.57984100  0.41653600  0.90346500  1
  S  S16  1  0.56341200  0.75893200  0.87948400  1
  S  S17  1  0.06341200  0.24106800  0.62051600  1
  S  S18  1  0.43658800  0.74106800  0.37948400  1
  S  S19  1  0.06341200  0.74106800  0.87948400  1
  S  S20  1  0.93658800  0.25893200  0.12051600  1
  S  S21  1  0.56341200  0.25893200  0.62051600  1
  S  S22  1  0.93658800  0.75893200  0.37948400  1
  S  S23  1  0.43658800  0.24106800  0.12051600  1
  N  N24  1  0.51159300  0.11622800  0.57487200  1
  N  N25  1  0.01159200  0.88377200  0.92512800  1
  N  N26  1  0.48840700  0.88377200  0.42512800  1
  N  N27  1  0.15111600  0.29295500  0.68459300  1
  N  N28  1  0.15111600  0.79295500  0.81540700  1
  N  N29  1  0.34888400  0.29295500  0.18459300  1
  N  N30  1  0.84888400  0.20704500  0.18459300  1
  N  N31  1  0.65111600  0.70704500  0.81540700  1
  N  N32  1  0.98840700  0.11622800  0.07487200  1
  N  N33  1  0.34888400  0.79295500  0.31540700  1
  N  N34  1  0.01159200  0.38377200  0.57487200  1
  N  N35  1  0.98840700  0.61622800  0.42512800  1
  N  N36  1  0.48840700  0.38377200  0.07487200  1
  N  N37  1  0.65111600  0.20704500  0.68459300  1
  N  N38  1  0.84888400  0.70704500  0.31540700  1
  N  N39  1  0.51159300  0.61622800  0.92512800  1
  Cl  Cl40  1  0.26031600  0.36738300  0.83923400  1
  Cl  Cl41  1  0.32523000  0.57318600  0.53576000  1
  Cl  Cl42  1  0.82523000  0.92681400  0.53576000  1
  Cl  Cl43  1  0.26031600  0.86738300  0.66076600  1
  Cl  Cl44  1  0.73968400  0.63261700  0.16076600  1
  Cl  Cl45  1  0.82523000  0.42681400  0.96424000  1
  Cl  Cl46  1  0.67477000  0.42681400  0.46424000  1
  Cl  Cl47  1  0.67477000  0.92681400  0.03576000  1
  Cl  Cl48  1  0.76031600  0.13261700  0.83923400  1
  Cl  Cl49  1  0.73968400  0.13261700  0.33923400  1
  Cl  Cl50  1  0.17477000  0.57318600  0.03576000  1
  Cl  Cl51  1  0.23968400  0.86738300  0.16076600  1
  Cl  Cl52  1  0.17477000  0.07318600  0.46424000  1
  Cl  Cl53  1  0.23968400  0.36738300  0.33923400  1
  Cl  Cl54  1  0.32523000  0.07318600  0.96424000  1
  Cl  Cl55  1  0.76031600  0.63261700  0.66076600  1
