# generated using pymatgen
data_Cr3Pb5F19
_symmetry_space_group_name_H-M   'P 1'
_cell_length_a   11.27567505
_cell_length_b   11.27567505
_cell_length_c   11.27066833
_cell_angle_alpha   83.28007731
_cell_angle_beta   83.28007731
_cell_angle_gamma   139.91342526
_symmetry_Int_Tables_number   1
_chemical_formula_structural   Cr3Pb5F19
_chemical_formula_sum   'Cr6 Pb10 F38'
_cell_volume   867.29970906
_cell_formula_units_Z   2
loop_
 _symmetry_equiv_pos_site_id
 _symmetry_equiv_pos_as_xyz
  1  'x, y, z'
loop_
 _atom_site_type_symbol
 _atom_site_label
 _atom_site_symmetry_multiplicity
 _atom_site_fract_x
 _atom_site_fract_y
 _atom_site_fract_z
 _atom_site_occupancy
  Cr  Cr0  1  0.17625800  0.85269900  0.49994300  1
  Cr  Cr1  1  0.35366700  0.35366700  0.82496100  1
  Cr  Cr2  1  0.67556000  0.67556000  0.17597100  1
  Cr  Cr3  1  0.85269900  0.17625800  0.49994300  1
  Cr  Cr4  1  0.31136600  0.81199600  0.00020100  1
  Cr  Cr5  1  0.81199600  0.31136600  0.00020100  1
  Pb  Pb6  1  0.33969200  0.33969200  0.50157500  1
  Pb  Pb7  1  0.05695800  0.24863100  0.16237400  1
  Pb  Pb8  1  0.74814600  0.41121700  0.30894400  1
  Pb  Pb9  1  0.84048100  0.84048100  0.49994600  1
  Pb  Pb10  1  0.24863100  0.05695800  0.16237400  1
  Pb  Pb11  1  0.91287700  0.72340100  0.83897000  1
  Pb  Pb12  1  0.72340100  0.91287700  0.83897000  1
  Pb  Pb13  1  0.41121700  0.74814600  0.30894400  1
  Pb  Pb14  1  0.22027500  0.55943600  0.69062600  1
  Pb  Pb15  1  0.55943600  0.22027500  0.69062600  1
  F  F16  1  0.57857600  0.36296800  0.50121700  1
  F  F17  1  0.91934900  0.64129500  0.63258100  1
  F  F18  1  0.14100300  0.27431100  0.77951700  1
  F  F19  1  0.94114700  0.28623500  0.63363400  1
  F  F20  1  0.50545100  0.50545100  0.64599100  1
  F  F21  1  0.05085400  0.77271700  0.36748700  1
  F  F22  1  0.41829800  0.73752700  0.98216000  1
  F  F23  1  0.23214200  0.71470300  0.18146200  1
  F  F24  1  0.41893600  0.55174200  0.22088600  1
  F  F25  1  0.27431100  0.14100300  0.77951700  1
  F  F26  1  0.44123200  0.57764400  0.84593800  1
  F  F27  1  0.71470300  0.23214200  0.18146200  1
  F  F28  1  0.73752700  0.41829800  0.98216000  1
  F  F29  1  0.28623500  0.94114700  0.63363400  1
  F  F30  1  0.71912600  0.71912600  0.99342800  1
  F  F31  1  0.21651500  0.71091000  0.49993300  1
  F  F32  1  0.42035000  0.07496700  0.36471400  1
  F  F33  1  0.77271700  0.05085400  0.36748700  1
  F  F34  1  0.15126900  0.00631900  0.49943200  1
  F  F35  1  0.91167600  0.38782000  0.81977500  1
  F  F36  1  0.06513600  0.55787200  0.00026000  1
  F  F37  1  0.86707500  0.86707500  0.71517400  1
  F  F38  1  0.38782000  0.91167600  0.81977500  1
  F  F39  1  0.64792900  0.64792900  0.35521600  1
  F  F40  1  0.21238800  0.21238800  0.00683800  1
  F  F41  1  0.07496700  0.42035000  0.36471400  1
  F  F42  1  0.36296800  0.57857600  0.50121700  1
  F  F43  1  0.57764400  0.44123200  0.84593800  1
  F  F44  1  0.55787200  0.06513600  0.00026000  1
  F  F45  1  0.92063400  0.78576700  0.15407300  1
  F  F46  1  0.71091000  0.21651500  0.49993300  1
  F  F47  1  0.55174200  0.41893600  0.22088600  1
  F  F48  1  0.64129500  0.91934900  0.63258100  1
  F  F49  1  0.78576700  0.92063400  0.15407300  1
  F  F50  1  0.88442500  0.20352400  0.02351900  1
  F  F51  1  0.00631900  0.15126900  0.49943200  1
  F  F52  1  0.08044000  0.08044000  0.28343600  1
  F  F53  1  0.20352400  0.88442500  0.02351900  1
