# generated using pymatgen
data_MnSbSe2Br
_symmetry_space_group_name_H-M   'P 1'
_cell_length_a   3.93760200
_cell_length_b   10.72351600
_cell_length_c   27.55305000
_cell_angle_alpha   90.00000000
_cell_angle_beta   90.00000000
_cell_angle_gamma   90.00000000
_symmetry_Int_Tables_number   1
_chemical_formula_structural   MnSbSe2Br
_chemical_formula_sum   'Mn8 Sb8 Se16 Br8'
_cell_volume   1163.42582930
_cell_formula_units_Z   8
loop_
 _symmetry_equiv_pos_site_id
 _symmetry_equiv_pos_as_xyz
  1  'x, y, z'
loop_
 _atom_site_type_symbol
 _atom_site_label
 _atom_site_symmetry_multiplicity
 _atom_site_fract_x
 _atom_site_fract_y
 _atom_site_fract_z
 _atom_site_occupancy
  Mn  Mn0  1  0.50000000  0.50000000  0.50000000  1
  Mn  Mn1  1  0.50000000  0.56970800  0.24375300  1
  Mn  Mn2  1  0.50000000  0.06970800  0.25624700  1
  Mn  Mn3  1  0.50000000  0.93029200  0.74375300  1
  Mn  Mn4  1  0.50000000  0.50000000  0.00000000  1
  Mn  Mn5  1  0.50000000  0.43029200  0.75624700  1
  Mn  Mn6  1  0.50000000  0.00000000  0.50000000  1
  Mn  Mn7  1  0.50000000  0.00000000  0.00000000  1
  Sb  Sb8  1  0.50000000  0.14801800  0.14427800  1
  Sb  Sb9  1  0.00000000  0.32364500  0.39690300  1
  Sb  Sb10  1  0.50000000  0.35198200  0.64427800  1
  Sb  Sb11  1  0.00000000  0.67635500  0.60309700  1
  Sb  Sb12  1  0.00000000  0.17635500  0.89690300  1
  Sb  Sb13  1  0.50000000  0.64801800  0.35572200  1
  Sb  Sb14  1  0.00000000  0.82364500  0.10309700  1
  Sb  Sb15  1  0.50000000  0.85198200  0.85572200  1
  Se  Se16  1  0.50000000  0.76592200  0.03457900  1
  Se  Se17  1  0.00000000  0.78096800  0.78960000  1
  Se  Se18  1  0.00000000  0.28096800  0.71040000  1
  Se  Se19  1  0.50000000  0.26592200  0.46542100  1
  Se  Se20  1  0.50000000  0.73407800  0.53457900  1
  Se  Se21  1  0.50000000  0.08130900  0.81943000  1
  Se  Se22  1  0.00000000  0.55261800  0.43387800  1
  Se  Se23  1  0.00000000  0.44738200  0.56612200  1
  Se  Se24  1  0.50000000  0.91869100  0.18057000  1
  Se  Se25  1  0.00000000  0.94738200  0.93387800  1
  Se  Se26  1  0.50000000  0.23407800  0.96542100  1
  Se  Se27  1  0.00000000  0.71903200  0.28960000  1
  Se  Se28  1  0.50000000  0.58130900  0.68057000  1
  Se  Se29  1  0.50000000  0.41869100  0.31943000  1
  Se  Se30  1  0.00000000  0.21903200  0.21040000  1
  Se  Se31  1  0.00000000  0.05261800  0.06612200  1
  Br  Br32  1  0.50000000  0.08416200  0.58001400  1
  Br  Br33  1  0.00000000  0.55643100  0.18177000  1
  Br  Br34  1  0.00000000  0.44356900  0.81823000  1
  Br  Br35  1  0.50000000  0.91583800  0.41998600  1
  Br  Br36  1  0.00000000  0.94356900  0.68177000  1
  Br  Br37  1  0.50000000  0.41583800  0.08001400  1
  Br  Br38  1  0.50000000  0.58416200  0.91998600  1
  Br  Br39  1  0.00000000  0.05643100  0.31823000  1
