# generated using pymatgen
data_La3FeO6
_symmetry_space_group_name_H-M   'P 1'
_cell_length_a   7.58701475
_cell_length_b   7.58701475
_cell_length_c   5.73726800
_cell_angle_alpha   90.00000000
_cell_angle_beta   90.00000000
_cell_angle_gamma   103.01653316
_symmetry_Int_Tables_number   1
_chemical_formula_structural   La3FeO6
_chemical_formula_sum   'La6 Fe2 O12'
_cell_volume   321.76735111
_cell_formula_units_Z   2
loop_
 _symmetry_equiv_pos_site_id
 _symmetry_equiv_pos_as_xyz
  1  'x, y, z'
loop_
 _atom_site_type_symbol
 _atom_site_label
 _atom_site_symmetry_multiplicity
 _atom_site_fract_x
 _atom_site_fract_y
 _atom_site_fract_z
 _atom_site_occupancy
  La  La0  1  0.41309000  0.19850700  0.53565200  1
  La  La1  1  0.80149300  0.58691000  0.53565200  1
  La  La2  1  0.58691000  0.80149300  0.03565200  1
  La  La3  1  0.19850700  0.41309000  0.03565200  1
  La  La4  1  0.10494600  0.89505400  0.07266800  1
  La  La5  1  0.89505400  0.10494600  0.57266800  1
  Fe  Fe6  1  0.30809300  0.69190700  0.50035300  1
  Fe  Fe7  1  0.69190700  0.30809300  0.00035300  1
  O  O8  1  0.17088100  0.14796800  0.80105400  1
  O  O9  1  0.85203200  0.82911900  0.80105400  1
  O  O10  1  0.82911900  0.85203200  0.30105400  1
  O  O11  1  0.14796800  0.17088100  0.30105400  1
  O  O12  1  0.60787800  0.08621000  0.83193200  1
  O  O13  1  0.91379000  0.39212200  0.83193200  1
  O  O14  1  0.39212200  0.91379000  0.33193200  1
  O  O15  1  0.08621000  0.60787800  0.33193200  1
  O  O16  1  0.54409100  0.45590900  0.86907700  1
  O  O17  1  0.45590900  0.54409100  0.36907700  1
  O  O18  1  0.28562200  0.71437800  0.83074600  1
  O  O19  1  0.71437800  0.28562200  0.33074600  1
