# generated using pymatgen
data_Rb3VO8
_symmetry_space_group_name_H-M   'P 1'
_cell_length_a   7.73593200
_cell_length_b   16.40610200
_cell_length_c   17.30565100
_cell_angle_alpha   90.00000000
_cell_angle_beta   90.00000000
_cell_angle_gamma   90.00000000
_symmetry_Int_Tables_number   1
_chemical_formula_structural   Rb3VO8
_chemical_formula_sum   'Rb24 V8 O64'
_cell_volume   2196.37247269
_cell_formula_units_Z   8
loop_
 _symmetry_equiv_pos_site_id
 _symmetry_equiv_pos_as_xyz
  1  'x, y, z'
loop_
 _atom_site_type_symbol
 _atom_site_label
 _atom_site_symmetry_multiplicity
 _atom_site_fract_x
 _atom_site_fract_y
 _atom_site_fract_z
 _atom_site_occupancy
  Rb  Rb0  1  0.67761300  0.80803200  0.51963400  1
  Rb  Rb1  1  0.32238700  0.69196800  0.01963400  1
  Rb  Rb2  1  0.82238700  0.30803200  0.48036600  1
  Rb  Rb3  1  0.17761300  0.19196800  0.98036600  1
  Rb  Rb4  1  0.32238700  0.19196800  0.48036600  1
  Rb  Rb5  1  0.67761300  0.30803200  0.98036600  1
  Rb  Rb6  1  0.17761300  0.69196800  0.51963400  1
  Rb  Rb7  1  0.82238700  0.80803200  0.01963400  1
  Rb  Rb8  1  0.85502300  0.79524400  0.78552100  1
  Rb  Rb9  1  0.14497700  0.70475600  0.28552100  1
  Rb  Rb10  1  0.64497700  0.29524400  0.21447900  1
  Rb  Rb11  1  0.35502300  0.20475600  0.71447900  1
  Rb  Rb12  1  0.14497700  0.20475600  0.21447900  1
  Rb  Rb13  1  0.85502300  0.29524400  0.71447900  1
  Rb  Rb14  1  0.35502300  0.70475600  0.78552100  1
  Rb  Rb15  1  0.64497700  0.79524400  0.28552100  1
  Rb  Rb16  1  0.30091800  0.93162000  0.91304400  1
  Rb  Rb17  1  0.69908200  0.56838000  0.41304400  1
  Rb  Rb18  1  0.19908200  0.43162000  0.08695600  1
  Rb  Rb19  1  0.80091800  0.06838000  0.58695600  1
  Rb  Rb20  1  0.69908200  0.06838000  0.08695600  1
  Rb  Rb21  1  0.30091800  0.43162000  0.58695600  1
  Rb  Rb22  1  0.80091800  0.56838000  0.91304400  1
  Rb  Rb23  1  0.19908200  0.93162000  0.41304400  1
  V  V24  1  0.08215800  0.88034400  0.62507400  1
  V  V25  1  0.91784200  0.61965600  0.12507400  1
  V  V26  1  0.41784200  0.38034400  0.37492600  1
  V  V27  1  0.58215800  0.11965600  0.87492600  1
  V  V28  1  0.91784200  0.11965600  0.37492600  1
  V  V29  1  0.08215800  0.38034400  0.87492600  1
  V  V30  1  0.58215800  0.61965600  0.62507400  1
  V  V31  1  0.41784200  0.88034400  0.12507400  1
  O  O32  1  0.03790100  0.85014100  0.53280400  1
  O  O33  1  0.96209900  0.64985900  0.03280400  1
  O  O34  1  0.46209900  0.35014100  0.46719600  1
  O  O35  1  0.53790100  0.14985900  0.96719600  1
  O  O36  1  0.96209900  0.14985900  0.46719600  1
  O  O37  1  0.03790100  0.35014100  0.96719600  1
  O  O38  1  0.53790100  0.64985900  0.53280400  1
  O  O39  1  0.46209900  0.85014100  0.03280400  1
  O  O40  1  0.15723900  0.80077900  0.67784900  1
  O  O41  1  0.84276100  0.69922100  0.17784900  1
  O  O42  1  0.34276100  0.30077900  0.32215100  1
  O  O43  1  0.65723900  0.19922100  0.82215100  1
  O  O44  1  0.84276100  0.19922100  0.32215100  1
  O  O45  1  0.15723900  0.30077900  0.82215100  1
  O  O46  1  0.65723900  0.69922100  0.67784900  1
  O  O47  1  0.34276100  0.80077900  0.17784900  1
  O  O48  1  0.27043800  0.96354600  0.61555600  1
  O  O49  1  0.72956200  0.53645400  0.11555600  1
  O  O50  1  0.22956200  0.46354600  0.38444400  1
  O  O51  1  0.77043800  0.03645400  0.88444400  1
  O  O52  1  0.72956200  0.03645400  0.38444400  1
  O  O53  1  0.27043800  0.46354600  0.88444400  1
  O  O54  1  0.77043800  0.53645400  0.61555600  1
  O  O55  1  0.22956200  0.96354600  0.11555600  1
  O  O56  1  0.90260800  0.92071100  0.66702600  1
  O  O57  1  0.09739200  0.57928900  0.16702600  1
  O  O58  1  0.59739200  0.42071100  0.33297400  1
  O  O59  1  0.40260800  0.07928900  0.83297400  1
  O  O60  1  0.09739200  0.07928900  0.33297400  1
  O  O61  1  0.90260800  0.42071100  0.83297400  1
  O  O62  1  0.40260800  0.57928900  0.66702600  1
  O  O63  1  0.59739200  0.92071100  0.16702600  1
  O  O64  1  0.12027600  0.79000400  0.90579700  1
  O  O65  1  0.87972400  0.70999600  0.40579700  1
  O  O66  1  0.37972400  0.29000400  0.09420300  1
  O  O67  1  0.62027600  0.20999600  0.59420300  1
  O  O68  1  0.87972400  0.20999600  0.09420300  1
  O  O69  1  0.12027600  0.29000400  0.59420300  1
  O  O70  1  0.62027600  0.70999600  0.90579700  1
  O  O71  1  0.37972400  0.79000400  0.40579700  1
  O  O72  1  0.71125400  0.97471800  0.92755300  1
  O  O73  1  0.28874600  0.52528200  0.42755300  1
  O  O74  1  0.78874600  0.47471800  0.07244700  1
  O  O75  1  0.21125400  0.02528200  0.57244700  1
  O  O76  1  0.28874600  0.02528200  0.07244700  1
  O  O77  1  0.71125400  0.47471800  0.57244700  1
  O  O78  1  0.21125400  0.52528200  0.92755300  1
  O  O79  1  0.78874600  0.97471800  0.42755300  1
  O  O80  1  0.04415600  0.04554400  0.77364100  1
  O  O81  1  0.95584400  0.45445600  0.27364100  1
  O  O82  1  0.45584400  0.54554400  0.22635900  1
  O  O83  1  0.54415600  0.95445600  0.72635900  1
  O  O84  1  0.95584400  0.95445600  0.22635900  1
  O  O85  1  0.04415600  0.54554400  0.72635900  1
  O  O86  1  0.54415600  0.45445600  0.77364100  1
  O  O87  1  0.45584400  0.04554400  0.27364100  1
  O  O88  1  0.50254100  0.89234500  0.76273200  1
  O  O89  1  0.49745900  0.60765500  0.26273200  1
  O  O90  1  0.99745900  0.39234500  0.23726800  1
  O  O91  1  0.00254100  0.10765500  0.73726800  1
  O  O92  1  0.49745900  0.10765500  0.23726800  1
  O  O93  1  0.50254100  0.39234500  0.73726800  1
  O  O94  1  0.00254100  0.60765500  0.76273200  1
  O  O95  1  0.99745900  0.89234500  0.26273200  1
