# generated using pymatgen
data_RhC2ClO2
_symmetry_space_group_name_H-M   'P 1'
_cell_length_a   11.21322020
_cell_length_b   11.21322020
_cell_length_c   11.21322020
_cell_angle_alpha   100.20077219
_cell_angle_beta   100.20077219
_cell_angle_gamma   130.22598273
_symmetry_Int_Tables_number   1
_chemical_formula_structural   RhC2ClO2
_chemical_formula_sum   'Rh8 C16 Cl8 O16'
_cell_volume   976.50843190
_cell_formula_units_Z   8
loop_
 _symmetry_equiv_pos_site_id
 _symmetry_equiv_pos_as_xyz
  1  'x, y, z'
loop_
 _atom_site_type_symbol
 _atom_site_label
 _atom_site_symmetry_multiplicity
 _atom_site_fract_x
 _atom_site_fract_y
 _atom_site_fract_z
 _atom_site_occupancy
  Rh  Rh0  1  0.76808200  0.68773200  0.37638200  1
  Rh  Rh1  1  0.93773200  0.51808200  0.87638200  1
  Rh  Rh2  1  0.64169900  0.06135000  0.12361800  1
  Rh  Rh3  1  0.31135000  0.39169900  0.62361800  1
  Rh  Rh4  1  0.31226800  0.68865000  0.08035000  1
  Rh  Rh5  1  0.93865000  0.06226800  0.58035000  1
  Rh  Rh6  1  0.48191800  0.35830100  0.41965000  1
  Rh  Rh7  1  0.60830100  0.23191800  0.91965000  1
  C  C8  1  0.87386500  0.97963300  0.70879300  1
  C  C9  1  0.75329600  0.73980000  0.22998500  1
  C  C10  1  0.50981500  0.52331100  0.77001500  1
  C  C11  1  0.02036700  0.72915900  0.89423200  1
  C  C12  1  0.83492700  0.12613500  0.10576800  1
  C  C13  1  0.49670400  0.22668900  0.48650400  1
  C  C14  1  0.41507300  0.02084100  0.79120700  1
  C  C15  1  0.37613500  0.58492700  0.60576800  1
  C  C16  1  0.47668900  0.24670400  0.98650400  1
  C  C17  1  0.97915900  0.77036700  0.39423200  1
  C  C18  1  0.22963300  0.62386500  0.20879300  1
  C  C19  1  0.26020000  0.49018500  0.01349600  1
  C  C20  1  0.27084100  0.16507300  0.29120700  1
  C  C21  1  0.74018500  0.01020000  0.51349600  1
  C  C22  1  0.98980000  0.50329600  0.72998500  1
  C  C23  1  0.77331100  0.25981500  0.27001500  1
  Cl  Cl24  1  0.79495500  0.23051500  0.84206200  1
  Cl  Cl25  1  0.76948500  0.61154700  0.56444000  1
  Cl  Cl26  1  0.48051500  0.54495500  0.34206200  1
  Cl  Cl27  1  0.38845300  0.95289300  0.15793800  1
  Cl  Cl28  1  0.04710700  0.20504500  0.43556000  1
  Cl  Cl29  1  0.86154700  0.51948500  0.06444000  1
  Cl  Cl30  1  0.20289300  0.13845300  0.65793800  1
  Cl  Cl31  1  0.45504500  0.79710700  0.93556000  1
  O  O32  1  0.83364400  0.93256800  0.79082700  1
  O  O33  1  0.63382800  0.60117700  0.86015600  1
  O  O34  1  0.50897900  0.14882300  0.53265000  1
  O  O35  1  0.02367100  0.49102100  0.63984400  1
  O  O36  1  0.95718300  0.16635600  0.09892400  1
  O  O37  1  0.41635600  0.70718300  0.59892400  1
  O  O38  1  0.06743200  0.85825900  0.90107600  1
  O  O39  1  0.29281700  0.89174100  0.70917300  1
  O  O40  1  0.39882300  0.25897900  0.03265000  1
  O  O41  1  0.74102100  0.77367100  0.13984400  1
  O  O42  1  0.61617200  0.97632900  0.46735000  1
  O  O43  1  0.22632900  0.36617200  0.96735000  1
  O  O44  1  0.85117700  0.38382800  0.36015600  1
  O  O45  1  0.10825900  0.81743200  0.40107600  1
  O  O46  1  0.14174100  0.04281700  0.20917300  1
  O  O47  1  0.18256800  0.58364400  0.29082700  1
