# generated using pymatgen
data_CuAg7As4ClO14
_symmetry_space_group_name_H-M   'P 1'
_cell_length_a   6.95065144
_cell_length_b   6.95065144
_cell_length_c   16.77058424
_cell_angle_alpha   86.09051756
_cell_angle_beta   86.09051756
_cell_angle_gamma   82.05283918
_symmetry_Int_Tables_number   1
_chemical_formula_structural   CuAg7As4ClO14
_chemical_formula_sum   'Cu2 Ag14 As8 Cl2 O28'
_cell_volume   799.14793088
_cell_formula_units_Z   2
loop_
 _symmetry_equiv_pos_site_id
 _symmetry_equiv_pos_as_xyz
  1  'x, y, z'
loop_
 _atom_site_type_symbol
 _atom_site_label
 _atom_site_symmetry_multiplicity
 _atom_site_fract_x
 _atom_site_fract_y
 _atom_site_fract_z
 _atom_site_occupancy
  Cu  Cu0  1  0.71342400  0.72346700  0.15901300  1
  Cu  Cu1  1  0.72346700  0.71342400  0.65901300  1
  Ag  Ag2  1  0.49506900  0.01597500  0.99081700  1
  Ag  Ag3  1  0.59566500  0.11596400  0.48364100  1
  Ag  Ag4  1  0.11702900  0.33186500  0.15693300  1
  Ag  Ag5  1  0.85375400  0.38582200  0.32183300  1
  Ag  Ag6  1  0.33186500  0.11702900  0.65693300  1
  Ag  Ag7  1  0.94246700  0.05707200  0.00001500  1
  Ag  Ag8  1  0.01597500  0.49506900  0.49081700  1
  Ag  Ag9  1  0.51455800  0.36784700  0.81473300  1
  Ag  Ag10  1  0.11596400  0.59566500  0.98364100  1
  Ag  Ag11  1  0.38582200  0.85375400  0.82183300  1
  Ag  Ag12  1  0.05707200  0.94246700  0.50001500  1
  Ag  Ag13  1  0.94879000  0.41666200  0.81980900  1
  Ag  Ag14  1  0.41666200  0.94879000  0.31980900  1
  Ag  Ag15  1  0.36784700  0.51455800  0.31473300  1
  As  As16  1  0.18868400  0.84015200  0.15707500  1
  As  As17  1  0.84015200  0.18868400  0.65707500  1
  As  As18  1  0.62287300  0.52392900  0.99698500  1
  As  As19  1  0.24724400  0.61307200  0.65522700  1
  As  As20  1  0.52392900  0.62287300  0.49698500  1
  As  As21  1  0.90016800  0.87162700  0.31546800  1
  As  As22  1  0.87162700  0.90016800  0.81546800  1
  As  As23  1  0.61307200  0.24724400  0.15522700  1
  Cl  Cl24  1  0.24212100  0.17587800  0.89177600  1
  Cl  Cl25  1  0.17587800  0.24212100  0.39177600  1
  O  O26  1  0.45291500  0.58179500  0.92733600  1
  O  O27  1  0.41765600  0.23981300  0.22159600  1
  O  O28  1  0.02597100  0.73086100  0.62887000  1
  O  O29  1  0.72489400  0.64399400  0.54906200  1
  O  O30  1  0.05347400  0.67603700  0.12362000  1
  O  O31  1  0.76843600  0.40950000  0.17493500  1
  O  O32  1  0.64399400  0.72489400  0.04906200  1
  O  O33  1  0.50479400  0.35396000  0.06317700  1
  O  O34  1  0.97289200  0.05351500  0.73768600  1
  O  O35  1  0.84617100  0.41386900  0.96393500  1
  O  O36  1  0.73086100  0.02597100  0.12887000  1
  O  O37  1  0.76966000  0.71486600  0.27202700  1
  O  O38  1  0.71486600  0.76966000  0.77202700  1
  O  O39  1  0.21340200  0.02726700  0.08716900  1
  O  O40  1  0.39564200  0.73718800  0.20231300  1
  O  O41  1  0.23981300  0.41765500  0.72159600  1
  O  O42  1  0.02726700  0.21340200  0.58716900  1
  O  O43  1  0.73718800  0.39564200  0.70231300  1
  O  O44  1  0.67603700  0.05347400  0.62362000  1
  O  O45  1  0.40950000  0.76843600  0.67493500  1
  O  O46  1  0.74792700  0.06755400  0.34875100  1
  O  O47  1  0.41386900  0.84617100  0.46393500  1
  O  O48  1  0.35396000  0.50479400  0.56317700  1
  O  O49  1  0.74864900  0.05125900  0.88316900  1
  O  O50  1  0.05351500  0.97289200  0.23768600  1
  O  O51  1  0.05125900  0.74864900  0.38316900  1
  O  O52  1  0.06755400  0.74792700  0.84875100  1
  O  O53  1  0.58179500  0.45291500  0.42733600  1
