# generated using pymatgen
data_CuH10SO9
_symmetry_space_group_name_H-M   'P 1'
_cell_length_a   5.88020000
_cell_length_b   6.80109342
_cell_length_c   11.86091793
_cell_angle_alpha   100.52374064
_cell_angle_beta   100.20038985
_cell_angle_gamma   97.31171015
_symmetry_Int_Tables_number   1
_chemical_formula_structural   CuH10SO9
_chemical_formula_sum   'Cu2 H20 S2 O18'
_cell_volume   452.70226710
_cell_formula_units_Z   2
loop_
 _symmetry_equiv_pos_site_id
 _symmetry_equiv_pos_as_xyz
  1  'x, y, z'
loop_
 _atom_site_type_symbol
 _atom_site_label
 _atom_site_symmetry_multiplicity
 _atom_site_fract_x
 _atom_site_fract_y
 _atom_site_fract_z
 _atom_site_occupancy
  Cu  Cu0  1  0.00000000  0.00000000  0.00000000  1
  Cu  Cu1  1  0.00000000  0.00000000  0.50000000  1
  H  H2  1  0.44873500  0.28302800  0.58710900  1
  H  H3  1  0.41734800  0.59299700  0.82839300  1
  H  H4  1  0.96808100  0.16505300  0.77476700  1
  H  H5  1  0.03191900  0.83494700  0.22523300  1
  H  H6  1  0.52945200  0.24970700  0.81634600  1
  H  H7  1  0.73077100  0.86335700  0.26623500  1
  H  H8  1  0.96451600  0.67514800  0.55405900  1
  H  H9  1  0.66566700  0.78948200  0.43127400  1
  H  H10  1  0.58265200  0.40700300  0.17160700  1
  H  H11  1  0.02261500  0.32385600  0.94808800  1
  H  H12  1  0.50318200  0.99986200  0.76065800  1
  H  H13  1  0.97738500  0.67614400  0.05191200  1
  H  H14  1  0.49681800  0.00013800  0.23934200  1
  H  H15  1  0.47054800  0.75029300  0.18365400  1
  H  H16  1  0.26922900  0.13664300  0.73376500  1
  H  H17  1  0.55126500  0.71697200  0.41289100  1
  H  H18  1  0.33433300  0.21051800  0.56872600  1
  H  H19  1  0.95026400  0.28932900  0.67028100  1
  H  H20  1  0.04973600  0.71067100  0.32971900  1
  H  H21  1  0.03548400  0.32485200  0.44594100  1
  S  S22  1  0.73556800  0.65907900  0.76069400  1
  S  S23  1  0.26443200  0.34092100  0.23930600  1
  O  O24  1  0.57807600  0.88107900  0.21232800  1
  O  O25  1  0.04738500  0.25191000  0.15156400  1
  O  O26  1  0.94035600  0.19106900  0.90360000  1
  O  O27  1  0.98043000  0.82470700  0.30437300  1
  O  O28  1  0.77089200  0.50040200  0.66943300  1
  O  O29  1  0.43697400  0.46366800  0.16882000  1
  O  O30  1  0.54716400  0.92612500  0.98259200  1
  O  O31  1  0.08865600  0.77810500  0.54535900  1
  O  O32  1  0.95261500  0.74809000  0.84843600  1
  O  O33  1  0.60280900  0.80832900  0.71908400  1
  O  O34  1  0.56302600  0.53633200  0.83118000  1
  O  O35  1  0.22910800  0.49959800  0.33056700  1
  O  O36  1  0.91134400  0.22189500  0.45464100  1
  O  O37  1  0.45283600  0.07387500  0.01740800  1
  O  O38  1  0.39719100  0.19167100  0.28091600  1
  O  O39  1  0.01957000  0.17529300  0.69562700  1
  O  O40  1  0.05964400  0.80893100  0.09640000  1
  O  O41  1  0.42192400  0.11892100  0.78767200  1
