# generated using pymatgen
data_BaNb8O14
_symmetry_space_group_name_H-M   'P 1'
_cell_length_a   10.05259698
_cell_length_b   10.26158905
_cell_length_c   24.38988658
_cell_angle_alpha   90.00000000
_cell_angle_beta   90.00000000
_cell_angle_gamma   90.00000000
_symmetry_Int_Tables_number   1
_chemical_formula_structural   BaNb8O14
_chemical_formula_sum   'Ba8 Nb64 O112'
_cell_volume   2515.95384979
_cell_formula_units_Z   8
loop_
 _symmetry_equiv_pos_site_id
 _symmetry_equiv_pos_as_xyz
  1  'x, y, z'
loop_
 _atom_site_type_symbol
 _atom_site_label
 _atom_site_symmetry_multiplicity
 _atom_site_fract_x
 _atom_site_fract_y
 _atom_site_fract_z
 _atom_site_occupancy
  Ba  Ba0  1  0.02917380  0.97878576  0.13998869  1
  Ba  Ba1  1  0.52917380  0.97878576  0.36001131  1
  Ba  Ba2  1  0.47082620  0.47878576  0.13998869  1
  Ba  Ba3  1  0.97082620  0.02121424  0.86001131  1
  Ba  Ba4  1  0.02917380  0.52121424  0.63998869  1
  Ba  Ba5  1  0.97082620  0.47878576  0.36001131  1
  Ba  Ba6  1  0.52917380  0.52121424  0.86001131  1
  Ba  Ba7  1  0.47082620  0.02121424  0.63998869  1
  Nb  Nb8  1  0.39226578  0.59036428  0.32047285  1
  Nb  Nb9  1  0.61652103  0.34701546  0.00406062  1
  Nb  Nb10  1  0.37548174  0.17169050  0.88595388  1
  Nb  Nb11  1  0.89226578  0.59036428  0.17952715  1
  Nb  Nb12  1  0.38226639  0.91258515  0.06542848  1
  Nb  Nb13  1  0.59586358  0.39398731  0.31968494  1
  Nb  Nb14  1  0.88582736  0.91932859  0.56610906  1
  Nb  Nb15  1  0.38347897  0.84701546  0.49593938  1
  Nb  Nb16  1  0.86898600  0.14629653  0.38116064  1
  Nb  Nb17  1  0.40413642  0.89398731  0.18031506  1
  Nb  Nb18  1  0.61417264  0.08067141  0.06610906  1
  Nb  Nb19  1  0.13101400  0.85370347  0.61883936  1
  Nb  Nb20  1  0.38226639  0.58741485  0.56542848  1
  Nb  Nb21  1  0.90413642  0.89398731  0.31968494  1
  Nb  Nb22  1  0.64951442  0.64845000  0.24639881  1
  Nb  Nb23  1  0.35048558  0.14845000  0.25360119  1
  Nb  Nb24  1  0.11773361  0.41258515  0.06542848  1
  Nb  Nb25  1  0.62451826  0.67169050  0.61404612  1
  Nb  Nb26  1  0.60773422  0.40963572  0.67952715  1
  Nb  Nb27  1  0.10773422  0.40963572  0.82047285  1
  Nb  Nb28  1  0.36898600  0.35370347  0.61883936  1
  Nb  Nb29  1  0.88347897  0.65298454  0.50406062  1
  Nb  Nb30  1  0.38582736  0.91932859  0.93389094  1
  Nb  Nb31  1  0.63101400  0.85370347  0.88116064  1
  Nb  Nb32  1  0.36898600  0.14629653  0.11883936  1
  Nb  Nb33  1  0.61773361  0.08741485  0.93457152  1
  Nb  Nb34  1  0.61417264  0.41932859  0.56610906  1
  Nb  Nb35  1  0.10773422  0.09036428  0.32047285  1
  Nb  Nb36  1  0.14951442  0.85155000  0.75360119  1
  Nb  Nb37  1  0.89226578  0.90963572  0.67952715  1
  Nb  Nb38  1  0.61773361  0.41258515  0.43457152  1
  Nb  Nb39  1  0.85048558  0.35155000  0.74639881  1
  Nb  Nb40  1  0.87548174  0.32830950  0.11404612  1
  Nb  Nb41  1  0.63101400  0.64629653  0.38116064  1
  Nb  Nb42  1  0.35048558  0.35155000  0.75360119  1
  Nb  Nb43  1  0.12451826  0.82830950  0.38595388  1
  Nb  Nb44  1  0.37548174  0.32830950  0.38595388  1
  Nb  Nb45  1  0.88347897  0.84701546  0.00406062  1
  Nb  Nb46  1  0.39226578  0.90963572  0.82047285  1
  Nb  Nb47  1  0.11773361  0.08741485  0.56542848  1
  Nb  Nb48  1  0.11417264  0.08067141  0.43389094  1
  Nb  Nb49  1  0.61652103  0.15298454  0.50406062  1
  Nb  Nb50  1  0.86898600  0.35370347  0.88116064  1
  Nb  Nb51  1  0.60773422  0.09036428  0.17952715  1
  Nb  Nb52  1  0.14951442  0.64845000  0.25360119  1
  Nb  Nb53  1  0.12451826  0.67169050  0.88595388  1
  Nb  Nb54  1  0.59586358  0.10601269  0.81968494  1
  Nb  Nb55  1  0.87548174  0.17169050  0.61404612  1
  Nb  Nb56  1  0.09586358  0.10601269  0.68031506  1
  Nb  Nb57  1  0.90413642  0.60601269  0.81968494  1
  Nb  Nb58  1  0.62451826  0.82830950  0.11404612  1
  Nb  Nb59  1  0.11417264  0.41932859  0.93389094  1
  Nb  Nb60  1  0.88226639  0.58741485  0.93457152  1
  Nb  Nb61  1  0.64951442  0.85155000  0.74639881  1
  Nb  Nb62  1  0.40413642  0.60601269  0.68031506  1
  Nb  Nb63  1  0.13101400  0.64629653  0.11883936  1
  Nb  Nb64  1  0.38347897  0.65298454  0.99593938  1
  Nb  Nb65  1  0.85048558  0.14845000  0.24639881  1
  Nb  Nb66  1  0.11652103  0.34701546  0.49593938  1
  Nb  Nb67  1  0.09586358  0.39398731  0.18031506  1
  Nb  Nb68  1  0.38582736  0.58067141  0.43389094  1
  Nb  Nb69  1  0.88582736  0.58067141  0.06610906  1
  Nb  Nb70  1  0.88226639  0.91258515  0.43457152  1
  Nb  Nb71  1  0.11652103  0.15298454  0.99593938  1
  O  O72  1  0.46021158  0.23154917  0.18749847  1
  O  O73  1  0.50307519  0.00086838  0.24178046  1
  O  O74  1  0.23021640  0.55088038  0.18505708  1
  O  O75  1  0.26151967  0.56987821  0.06019369  1
  O  O76  1  0.23848033  0.06987821  0.06019369  1
  O  O77  1  0.28908042  0.00785032  0.30166017  1
  O  O78  1  0.72009236  0.30947180  0.62164011  1
  O  O79  1  0.50299046  0.75820314  0.56038006  1
  O  O80  1  0.73848033  0.06987821  0.43980631  1
  O  O81  1  0.49700954  0.24179686  0.43961994  1
  O  O82  1  0.00000000  0.50000000  0.50000000  1
  O  O83  1  0.27990764  0.69052820  0.37835989  1
  O  O84  1  0.21091958  0.99214968  0.80166017  1
  O  O85  1  0.69590997  0.25382338  0.74588814  1
  O  O86  1  0.46021158  0.26845083  0.68749847  1
  O  O87  1  0.75877273  0.57417698  0.56075564  1
  O  O88  1  0.30409003  0.74617662  0.25411186  1
  O  O89  1  0.26978360  0.44911962  0.68505708  1
  O  O90  1  0.22009236  0.19052820  0.37835989  1
  O  O91  1  0.27990764  0.80947180  0.87835989  1
  O  O92  1  0.00299046  0.75820314  0.93961994  1
  O  O93  1  0.25877273  0.57417698  0.93924436  1
  O  O94  1  0.99646182  0.24247593  0.93805162  1
  O  O95  1  0.26151967  0.93012179  0.56019369  1
  O  O96  1  0.24122727  0.42582302  0.43924436  1
  O  O97  1  0.00353818  0.74247593  0.56194838  1
  O  O98  1  0.54306065  0.73608511  0.18443365  1
  O  O99  1  0.00000000  0.00000000  -0.00000000  1
  O  O100  1  0.03978842  0.73154917  0.18749847  1
  O  O101  1  0.28001140  0.68506881  0.49877698  1
  O  O102  1  0.21998860  0.18506881  0.49877698  1
  O  O103  1  0.45693935  0.23608511  0.31556635  1
  O  O104  1  0.50000000  0.00000000  0.50000000  1
  O  O105  1  0.23848033  0.43012179  0.56019369  1
  O  O106  1  0.00353818  0.75752407  0.06194838  1
  O  O107  1  0.77990764  0.80947180  0.62164011  1
  O  O108  1  0.04306065  0.73608511  0.31556635  1
  O  O109  1  0.28001140  0.81493119  0.99877698  1
  O  O110  1  0.78001140  0.81493119  0.50122302  1
  O  O111  1  0.21091958  0.50785032  0.30166017  1
  O  O112  1  0.76151967  0.93012179  0.93980631  1
  O  O113  1  0.77990764  0.69052820  0.12164011  1
  O  O114  1  0.04306065  0.76391489  0.81556635  1
  O  O115  1  0.73021640  0.94911962  0.81494292  1
  O  O116  1  0.54306065  0.76391489  0.68443365  1
  O  O117  1  0.50000000  0.00000000  -0.00000000  1
  O  O118  1  0.19590997  0.25382338  0.75411186  1
  O  O119  1  0.50353818  0.75752407  0.43805162  1
  O  O120  1  0.80409003  0.75382338  0.74588814  1
  O  O121  1  0.50000000  0.50000000  -0.00000000  1
  O  O122  1  0.73072512  0.31669096  0.37591646  1
  O  O123  1  0.00307519  0.00086838  0.25821954  1
  O  O124  1  0.49700954  0.25820314  0.93961994  1
  O  O125  1  0.19590997  0.24617662  0.25411186  1
  O  O126  1  0.95693935  0.23608511  0.18443365  1
  O  O127  1  0.53978842  0.73154917  0.31250153  1
  O  O128  1  0.78908042  0.00785032  0.19833983  1
  O  O129  1  0.99692481  0.50086838  0.24178046  1
  O  O130  1  0.76978360  0.05088038  0.31494292  1
  O  O131  1  0.75877273  0.92582302  0.06075564  1
  O  O132  1  0.50307519  0.49913162  0.74178046  1
  O  O133  1  0.24122727  0.07417698  0.93924436  1
  O  O134  1  0.49646182  0.25752407  0.06194838  1
  O  O135  1  0.71091958  0.99214968  0.69833983  1
  O  O136  1  0.72009236  0.19052820  0.12164011  1
  O  O137  1  0.28908042  0.49214968  0.80166017  1
  O  O138  1  0.76151967  0.56987821  0.43980631  1
  O  O139  1  0.71091958  0.50785032  0.19833983  1
  O  O140  1  0.74122727  0.42582302  0.06075564  1
  O  O141  1  0.23072512  0.31669096  0.12408354  1
  O  O142  1  0.71998860  0.18506881  0.00122302  1
  O  O143  1  0.69590997  0.24617662  0.24588814  1
  O  O144  1  0.49692481  0.50086838  0.25821954  1
  O  O145  1  0.95693935  0.26391489  0.68443365  1
  O  O146  1  0.23072512  0.18330904  0.62408354  1
  O  O147  1  0.25877273  0.92582302  0.43924436  1
  O  O148  1  0.23021640  0.94911962  0.68505708  1
  O  O149  1  0.22009236  0.30947180  0.87835989  1
  O  O150  1  0.99646182  0.25752407  0.43805162  1
  O  O151  1  0.74122727  0.07417698  0.56075564  1
  O  O152  1  0.50000000  0.50000000  0.50000000  1
  O  O153  1  0.00000000  0.00000000  0.50000000  1
  O  O154  1  0.96021158  0.26845083  0.81250153  1
  O  O155  1  0.76927488  0.81669096  0.37591646  1
  O  O156  1  0.96021158  0.23154917  0.31250153  1
  O  O157  1  0.76978360  0.44911962  0.81494292  1
  O  O158  1  0.26927488  0.81669096  0.12408354  1
  O  O159  1  0.00307519  0.49913162  0.75821954  1
  O  O160  1  0.78001140  0.68506881  0.00122302  1
  O  O161  1  0.50299046  0.74179686  0.06038006  1
  O  O162  1  0.99700954  0.24179686  0.06038006  1
  O  O163  1  0.50353818  0.74247593  0.93805162  1
  O  O164  1  0.26927488  0.68330904  0.62408354  1
  O  O165  1  0.73021640  0.55088038  0.31494292  1
  O  O166  1  0.99700954  0.25820314  0.56038006  1
  O  O167  1  0.21998860  0.31493119  0.99877698  1
  O  O168  1  0.45693935  0.26391489  0.81556635  1
  O  O169  1  0.73072512  0.18330904  0.87591646  1
  O  O170  1  0.76927488  0.68330904  0.87591646  1
  O  O171  1  0.80409003  0.74617662  0.24588814  1
  O  O172  1  0.03978842  0.76845083  0.68749847  1
  O  O173  1  0.78908042  0.49214968  0.69833983  1
  O  O174  1  0.30409003  0.75382338  0.75411186  1
  O  O175  1  0.00000000  0.50000000  -0.00000000  1
  O  O176  1  0.73848033  0.43012179  0.93980631  1
  O  O177  1  0.00299046  0.74179686  0.43961994  1
  O  O178  1  0.49646182  0.24247593  0.56194838  1
  O  O179  1  0.26978360  0.05088038  0.18505708  1
  O  O180  1  0.71998860  0.31493119  0.50122302  1
  O  O181  1  0.53978842  0.76845083  0.81250153  1
  O  O182  1  0.49692481  0.99913162  0.75821954  1
  O  O183  1  0.99692481  0.99913162  0.74178046  1
