# generated using pymatgen
data_BaNd2Ti3O10
_symmetry_space_group_name_H-M   'P 1'
_cell_length_a   14.38031104
_cell_length_b   14.38031104
_cell_length_c   7.69400400
_cell_angle_alpha   90.00000000
_cell_angle_beta   90.00000000
_cell_angle_gamma   164.30055086
_symmetry_Int_Tables_number   1
_chemical_formula_structural   BaNd2Ti3O10
_chemical_formula_sum   'Ba2 Nd4 Ti6 O20'
_cell_volume   430.52920783
_cell_formula_units_Z   2
loop_
 _symmetry_equiv_pos_site_id
 _symmetry_equiv_pos_as_xyz
  1  'x, y, z'
loop_
 _atom_site_type_symbol
 _atom_site_label
 _atom_site_symmetry_multiplicity
 _atom_site_fract_x
 _atom_site_fract_y
 _atom_site_fract_z
 _atom_site_occupancy
  Ba  Ba0  1  0.25702100  0.74297900  0.75000000  1
  Ba  Ba1  1  0.74297900  0.25702100  0.25000000  1
  Nd  Nd2  1  0.41980300  0.58019700  0.25000000  1
  Nd  Nd3  1  0.58019700  0.41980300  0.75000000  1
  Nd  Nd4  1  0.42728400  0.57271600  0.75000000  1
  Nd  Nd5  1  0.57271600  0.42728400  0.25000000  1
  Ti  Ti6  1  0.14579400  0.85420600  0.49493900  1
  Ti  Ti7  1  0.85420600  0.14579400  0.50506100  1
  Ti  Ti8  1  0.85420600  0.14579400  0.99493900  1
  Ti  Ti9  1  0.14579400  0.85420600  0.00506100  1
  Ti  Ti10  1  0.00000000  0.00000000  0.50000000  1
  Ti  Ti11  1  0.00000000  0.00000000  0.00000000  1
  O  O12  1  0.63043000  0.36957000  0.49263500  1
  O  O13  1  0.36957000  0.63043000  0.50736500  1
  O  O14  1  0.36957000  0.63043000  0.99263500  1
  O  O15  1  0.63043000  0.36957000  0.00736500  1
  O  O16  1  0.20693500  0.79306500  0.45279900  1
  O  O17  1  0.79306500  0.20693500  0.54720100  1
  O  O18  1  0.79306500  0.20693500  0.95279900  1
  O  O19  1  0.20693500  0.79306500  0.04720100  1
  O  O20  1  0.06638100  0.93361900  0.55548200  1
  O  O21  1  0.93361900  0.06638100  0.44451800  1
  O  O22  1  0.93361900  0.06638100  0.05548200  1
  O  O23  1  0.06638100  0.93361900  0.94451800  1
  O  O24  1  0.50000000  0.50000000  0.00000000  1
  O  O25  1  0.50000000  0.50000000  0.50000000  1
  O  O26  1  0.98240700  0.01759300  0.75000000  1
  O  O27  1  0.01759300  0.98240700  0.25000000  1
  O  O28  1  0.87767900  0.12232100  0.75000000  1
  O  O29  1  0.12232100  0.87767900  0.25000000  1
  O  O30  1  0.14680100  0.85319900  0.75000000  1
  O  O31  1  0.85319900  0.14680100  0.25000000  1
