# generated using pymatgen
data_Mo2H12C4N2O15
_symmetry_space_group_name_H-M   'P 1'
_cell_length_a   17.20303000
_cell_length_b   7.55870300
_cell_length_c   9.55938102
_cell_angle_alpha   80.45092429
_cell_angle_beta   90.00000000
_cell_angle_gamma   90.00000000
_symmetry_Int_Tables_number   1
_chemical_formula_structural   Mo2H12C4N2O15
_chemical_formula_sum   'Mo4 H24 C8 N4 O30'
_cell_volume   1225.80751562
_cell_formula_units_Z   2
loop_
 _symmetry_equiv_pos_site_id
 _symmetry_equiv_pos_as_xyz
  1  'x, y, z'
loop_
 _atom_site_type_symbol
 _atom_site_label
 _atom_site_symmetry_multiplicity
 _atom_site_fract_x
 _atom_site_fract_y
 _atom_site_fract_z
 _atom_site_occupancy
  Mo  Mo0  1  0.10182900  0.12076000  0.38330200  1
  Mo  Mo1  1  0.89817100  0.87924000  0.61669800  1
  Mo  Mo2  1  0.60182900  0.37924000  0.61669800  1
  Mo  Mo3  1  0.39817100  0.62076000  0.38330200  1
  H  H4  1  0.02971500  0.06707200  0.15723900  1
  H  H5  1  0.48754600  0.45826100  0.00625000  1
  H  H6  1  0.97028500  0.93292800  0.84276100  1
  H  H7  1  0.10721500  0.39907400  0.95935500  1
  H  H8  1  0.45175900  0.05499100  0.22584200  1
  H  H9  1  0.89278500  0.60092600  0.04064500  1
  H  H10  1  0.39278500  0.89907400  0.95935500  1
  H  H11  1  0.87247300  0.83649300  0.06734700  1
  H  H12  1  0.60721500  0.10092600  0.04064500  1
  H  H13  1  0.54824100  0.94500900  0.77415800  1
  H  H14  1  0.12752700  0.16350700  0.93265300  1
  H  H15  1  0.62752700  0.33649300  0.06734700  1
  H  H16  1  0.04824100  0.55499100  0.22584200  1
  H  H17  1  0.52208600  0.14003100  0.28468900  1
  H  H18  1  0.01245400  0.95826100  0.00625000  1
  H  H19  1  0.95175900  0.44500900  0.77415800  1
  H  H20  1  0.52971500  0.43292800  0.84276100  1
  H  H21  1  0.02208600  0.35996900  0.71531100  1
  H  H22  1  0.97791400  0.64003100  0.28468900  1
  H  H23  1  0.37247300  0.66350700  0.93265300  1
  H  H24  1  0.47028500  0.56707200  0.15723900  1
  H  H25  1  0.47791400  0.85996900  0.71531100  1
  H  H26  1  0.98754600  0.04173900  0.99375000  1
  H  H27  1  0.51245400  0.54173900  0.99375000  1
  C  C28  1  0.30732900  0.75356400  0.10507800  1
  C  C29  1  0.64083600  0.22428800  0.01291100  1
  C  C30  1  0.85916400  0.72428800  0.01291100  1
  C  C31  1  0.19267100  0.25356400  0.10507800  1
  C  C32  1  0.69267100  0.24643600  0.89492200  1
  C  C33  1  0.80732900  0.74643600  0.89492200  1
  C  C34  1  0.35916400  0.77571200  0.98708900  1
  C  C35  1  0.14083600  0.27571200  0.98708900  1
  N  N36  1  0.38416000  0.15405400  0.75612600  1
  N  N37  1  0.61584000  0.84594600  0.24387400  1
  N  N38  1  0.11584000  0.65405400  0.75612600  1
  N  N39  1  0.88416000  0.34594600  0.24387400  1
  O  O40  1  0.05008500  0.17053000  0.19351600  1
  O  O41  1  0.03771900  0.88416300  0.38492000  1
  O  O42  1  0.50626000  0.86025300  0.80386000  1
  O  O43  1  0.44991500  0.67053000  0.19351600  1
  O  O44  1  0.91454500  0.68033700  0.55410700  1
  O  O45  1  0.32312100  0.50988700  0.48114800  1
  O  O46  1  0.26441000  0.80978700  0.99325200  1
  O  O47  1  0.17687900  0.00988700  0.48114800  1
  O  O48  1  0.96228100  0.11583700  0.61508000  1
  O  O49  1  0.70307200  0.28391200  0.76633600  1
  O  O50  1  0.76441000  0.69021300  0.00674800  1
  O  O51  1  0.20307200  0.21608800  0.23366400  1
  O  O52  1  0.29692800  0.71608800  0.23366400  1
  O  O53  1  0.23559000  0.30978700  0.99325200  1
  O  O54  1  0.94991500  0.82947000  0.80648400  1
  O  O55  1  0.55008500  0.32947000  0.80648400  1
  O  O56  1  0.49374000  0.13974700  0.19614000  1
  O  O57  1  0.58545500  0.18033700  0.55410700  1
  O  O58  1  0.53771900  0.61583700  0.61508000  1
  O  O59  1  0.50000000  0.50000000  0.50000000  1
  O  O60  1  0.73559000  0.19021300  0.00674800  1
  O  O61  1  0.79692800  0.78391200  0.76633600  1
  O  O62  1  0.99374000  0.36025300  0.80386000  1
  O  O63  1  0.82312100  0.99011300  0.51885200  1
  O  O64  1  0.46228100  0.38416300  0.38492000  1
  O  O65  1  0.00626000  0.63974700  0.19614000  1
  O  O66  1  0.00000000  0.00000000  0.50000000  1
  O  O67  1  0.41454500  0.81966300  0.44589300  1
  O  O68  1  0.08545500  0.31966300  0.44589300  1
  O  O69  1  0.67687900  0.49011300  0.51885200  1
