# generated using pymatgen
data_Co2SnC8(ClO4)2
_symmetry_space_group_name_H-M   'P 1'
_cell_length_a   11.53522500
_cell_length_b   11.80953900
_cell_length_c   12.81134229
_cell_angle_alpha   71.67119680
_cell_angle_beta   90.00000000
_cell_angle_gamma   90.00000000
_symmetry_Int_Tables_number   1
_chemical_formula_structural   Co2SnC8(ClO4)2
_chemical_formula_sum   'Co8 Sn4 C32 Cl8 O32'
_cell_volume   1656.69387439
_cell_formula_units_Z   4
loop_
 _symmetry_equiv_pos_site_id
 _symmetry_equiv_pos_as_xyz
  1  'x, y, z'
loop_
 _atom_site_type_symbol
 _atom_site_label
 _atom_site_symmetry_multiplicity
 _atom_site_fract_x
 _atom_site_fract_y
 _atom_site_fract_z
 _atom_site_occupancy
  Co  Co0  1  0.18718500  0.57230000  0.32643100  1
  Co  Co1  1  0.67292000  0.01191400  0.29070800  1
  Co  Co2  1  0.68718500  0.42770000  0.17356900  1
  Co  Co3  1  0.32708000  0.98808600  0.70929200  1
  Co  Co4  1  0.31281500  0.57230000  0.82643100  1
  Co  Co5  1  0.17292000  0.98808600  0.20929200  1
  Co  Co6  1  0.81281500  0.42770000  0.67356900  1
  Co  Co7  1  0.82708000  0.01191400  0.79070800  1
  Sn  Sn8  1  0.66862400  0.22107300  0.14659000  1
  Sn  Sn9  1  0.33137600  0.77892700  0.85341000  1
  Sn  Sn10  1  0.16862400  0.77892700  0.35341000  1
  Sn  Sn11  1  0.83137600  0.22107300  0.64659000  1
  C  C12  1  0.30310600  0.43039300  0.80586800  1
  C  C13  1  0.82652600  0.86615000  0.88819500  1
  C  C14  1  0.67347400  0.86615000  0.38819500  1
  C  C15  1  0.06144200  0.61746700  0.24164000  1
  C  C16  1  0.56144200  0.38253300  0.25836000  1
  C  C17  1  0.19689400  0.43039300  0.30586800  1
  C  C18  1  0.95923100  0.05720600  0.83897100  1
  C  C19  1  0.69689400  0.56960700  0.19413200  1
  C  C20  1  0.68911600  0.05715400  0.82846600  1
  C  C21  1  0.66961100  0.38042000  0.72247200  1
  C  C22  1  0.31088400  0.94284600  0.17153400  1
  C  C23  1  0.93855800  0.38253300  0.75836000  1
  C  C24  1  0.81088400  0.05715400  0.32846600  1
  C  C25  1  0.33038900  0.61958000  0.27752800  1
  C  C26  1  0.32883100  0.03757200  0.82852700  1
  C  C27  1  0.16985200  0.51824400  0.47308200  1
  C  C28  1  0.17116900  0.03757200  0.32852700  1
  C  C29  1  0.04076900  0.94279400  0.16102900  1
  C  C30  1  0.80310600  0.56960700  0.69413200  1
  C  C31  1  0.66985200  0.48175600  0.02691800  1
  C  C32  1  0.45923100  0.94279400  0.66102900  1
  C  C33  1  0.18911600  0.94284600  0.67153400  1
  C  C34  1  0.83038900  0.38042000  0.22247200  1
  C  C35  1  0.32652600  0.13385000  0.61180500  1
  C  C36  1  0.16961100  0.61958000  0.77752800  1
  C  C37  1  0.33014800  0.51824400  0.97308200  1
  C  C38  1  0.54076900  0.05720600  0.33897100  1
  C  C39  1  0.83014800  0.48175600  0.52691800  1
  C  C40  1  0.82883100  0.96242800  0.67147300  1
  C  C41  1  0.67116900  0.96242800  0.17147300  1
  C  C42  1  0.17347400  0.13385000  0.11180500  1
  C  C43  1  0.43855800  0.61746700  0.74164000  1
  Cl  Cl44  1  0.68442800  0.21936700  0.51447100  1
  Cl  Cl45  1  0.99580900  0.77125800  0.45769300  1
  Cl  Cl46  1  0.00419100  0.22874200  0.54230700  1
  Cl  Cl47  1  0.18442800  0.78063300  0.98552900  1
  Cl  Cl48  1  0.50419100  0.77125800  0.95769300  1
  Cl  Cl49  1  0.49580900  0.22874200  0.04230700  1
  Cl  Cl50  1  0.81557200  0.21936700  0.01447100  1
  Cl  Cl51  1  0.31557200  0.78063300  0.48552900  1
  O  O52  1  0.07537500  0.64387500  0.74782100  1
  O  O53  1  0.54550900  0.91887800  0.62666200  1
  O  O54  1  0.09889100  0.91765400  0.64632300  1
  O  O55  1  0.47943200  0.35944500  0.31316100  1
  O  O56  1  0.57537500  0.35612500  0.75217900  1
  O  O57  1  0.92462500  0.35612500  0.25217900  1
  O  O58  1  0.16021200  0.47933700  0.56761600  1
  O  O59  1  0.40110900  0.91765400  0.14632300  1
  O  O60  1  0.82769500  0.92611800  0.59761400  1
  O  O61  1  0.66021200  0.52066300  0.93238400  1
  O  O62  1  0.32769500  0.07388200  0.90238600  1
  O  O63  1  0.17271500  0.22911100  0.04985700  1
  O  O64  1  0.67271500  0.77088900  0.45014300  1
  O  O65  1  0.17230500  0.07388200  0.40238600  1
  O  O66  1  0.82728500  0.77088900  0.95014300  1
  O  O67  1  0.33978800  0.47933700  0.06761600  1
  O  O68  1  0.95449100  0.91887800  0.12666200  1
  O  O69  1  0.29698100  0.33902100  0.79111200  1
  O  O70  1  0.45449100  0.08112200  0.37333800  1
  O  O71  1  0.59889100  0.08234600  0.85367700  1
  O  O72  1  0.32728500  0.22911100  0.54985700  1
  O  O73  1  0.90110900  0.08234600  0.35367700  1
  O  O74  1  0.83978800  0.52066300  0.43238400  1
  O  O75  1  0.02056800  0.35944500  0.81316100  1
  O  O76  1  0.20301900  0.33902100  0.29111200  1
  O  O77  1  0.79698100  0.66097900  0.70888800  1
  O  O78  1  0.70301900  0.66097900  0.20888800  1
  O  O79  1  0.97943200  0.64055500  0.18683900  1
  O  O80  1  0.42462500  0.64387500  0.24782100  1
  O  O81  1  0.67230500  0.92611800  0.09761400  1
  O  O82  1  0.04550900  0.08112200  0.87333800  1
  O  O83  1  0.52056800  0.64055500  0.68683900  1
