# generated using pymatgen
data_Sb2Te2O9
_symmetry_space_group_name_H-M   'P 1'
_cell_length_a   5.10277600
_cell_length_b   14.73863200
_cell_length_c   22.36280252
_cell_angle_alpha   72.26493010
_cell_angle_beta   90.00000000
_cell_angle_gamma   90.00000000
_symmetry_Int_Tables_number   1
_chemical_formula_structural   Sb2Te2O9
_chemical_formula_sum   'Sb16 Te16 O72'
_cell_volume   1601.93019990
_cell_formula_units_Z   8
loop_
 _symmetry_equiv_pos_site_id
 _symmetry_equiv_pos_as_xyz
  1  'x, y, z'
loop_
 _atom_site_type_symbol
 _atom_site_label
 _atom_site_symmetry_multiplicity
 _atom_site_fract_x
 _atom_site_fract_y
 _atom_site_fract_z
 _atom_site_occupancy
  Sb  Sb0  1  0.18783500  0.66007000  0.34761700  1
  Sb  Sb1  1  0.63137900  0.97468900  0.17734700  1
  Sb  Sb2  1  0.31073200  0.28231000  0.55115200  1
  Sb  Sb3  1  0.86862100  0.47468900  0.17734700  1
  Sb  Sb4  1  0.27992300  0.63753200  0.05530900  1
  Sb  Sb5  1  0.81216500  0.33993000  0.65238300  1
  Sb  Sb6  1  0.13137900  0.52531100  0.82265300  1
  Sb  Sb7  1  0.36862100  0.02531100  0.82265300  1
  Sb  Sb8  1  0.77992300  0.86246800  0.94469100  1
  Sb  Sb9  1  0.72007700  0.36246800  0.94469100  1
  Sb  Sb10  1  0.31216500  0.16007000  0.34761700  1
  Sb  Sb11  1  0.68926800  0.71769000  0.44884800  1
  Sb  Sb12  1  0.68783500  0.83993000  0.65238300  1
  Sb  Sb13  1  0.18926800  0.78231000  0.55115200  1
  Sb  Sb14  1  0.81073200  0.21769000  0.44884800  1
  Sb  Sb15  1  0.22007700  0.13753200  0.05530900  1
  Te  Te16  1  0.17659400  0.34513100  0.07834800  1
  Te  Te17  1  0.89812500  0.10020500  0.70946100  1
  Te  Te18  1  0.85714700  0.44412000  0.44452100  1
  Te  Te19  1  0.67659400  0.15486900  0.92165200  1
  Te  Te20  1  0.15919300  0.82591900  0.76621700  1
  Te  Te21  1  0.10187500  0.89979500  0.29053900  1
  Te  Te22  1  0.84080700  0.17408100  0.23378300  1
  Te  Te23  1  0.60187500  0.60020500  0.70946100  1
  Te  Te24  1  0.35714700  0.05588000  0.55547900  1
  Te  Te25  1  0.64285300  0.94412000  0.44452100  1
  Te  Te26  1  0.82340600  0.65486900  0.92165200  1
  Te  Te27  1  0.14285300  0.55588000  0.55547900  1
  Te  Te28  1  0.39812500  0.39979500  0.29053900  1
  Te  Te29  1  0.34080700  0.32591900  0.76621700  1
  Te  Te30  1  0.65919300  0.67408100  0.23378300  1
  Te  Te31  1  0.32340600  0.84513100  0.07834800  1
  O  O32  1  0.35812000  0.45052000  0.77983600  1
  O  O33  1  0.59381400  0.88792200  0.02050400  1
  O  O34  1  0.97760900  0.79413000  0.47343000  1
  O  O35  1  0.90116700  0.05738000  0.92148100  1
  O  O36  1  0.63338500  0.02279700  0.75955800  1
  O  O37  1  0.13338500  0.47720300  0.24044200  1
  O  O38  1  0.41930300  0.02437800  0.38241200  1
  O  O39  1  0.96767100  0.36800500  0.14932700  1
  O  O40  1  0.09381400  0.61207800  0.97949600  1
  O  O41  1  0.04368500  0.65090100  0.59427800  1
  O  O42  1  0.64188000  0.54948000  0.22016400  1
  O  O43  1  0.62256700  0.72335600  0.97152500  1
  O  O44  1  0.99243500  0.33961900  0.73364500  1
  O  O45  1  0.11506900  0.27125800  0.63039900  1
  O  O46  1  0.59883300  0.55738000  0.92148100  1
  O  O47  1  0.87743300  0.22335600  0.97152500  1
  O  O48  1  0.99813100  0.89129100  0.68657800  1
  O  O49  1  0.61506900  0.22874200  0.36960100  1
  O  O50  1  0.00186900  0.10870900  0.31342200  1
  O  O51  1  0.50756500  0.83961900  0.73364500  1
  O  O52  1  0.49243500  0.16038100  0.26635500  1
  O  O53  1  0.49813100  0.60870900  0.31342200  1
  O  O54  1  0.60470700  0.28313800  0.87239900  1
  O  O55  1  0.89225900  0.87512000  0.22545700  1
  O  O56  1  0.95631500  0.34909900  0.40572200  1
  O  O57  1  0.10470700  0.21686200  0.12760100  1
  O  O58  1  0.86661500  0.52279700  0.75955800  1
  O  O59  1  0.40116700  0.44262000  0.07851900  1
  O  O60  1  0.45631500  0.15090100  0.59427800  1
  O  O61  1  0.86610200  0.58810200  0.49239200  1
  O  O62  1  0.54368500  0.84909900  0.40572200  1
  O  O63  1  0.89261800  0.85276200  0.57420800  1
  O  O64  1  0.91930300  0.47562200  0.61758800  1
  O  O65  1  0.36661500  0.97720300  0.24044200  1
  O  O66  1  0.38493100  0.77125800  0.63039900  1
  O  O67  1  0.14188000  0.95052000  0.77983600  1
  O  O68  1  0.10774100  0.12488000  0.77454300  1
  O  O69  1  0.50186900  0.39129100  0.68657800  1
  O  O70  1  0.18005200  0.29027800  0.29884400  1
  O  O71  1  0.05546900  0.41207200  0.88948400  1
  O  O72  1  0.89529300  0.78313800  0.87239900  1
  O  O73  1  0.88493100  0.72874200  0.36960100  1
  O  O74  1  0.44453100  0.91207200  0.88948400  1
  O  O75  1  0.12256700  0.77664400  0.02847500  1
  O  O76  1  0.58069700  0.97562200  0.61758800  1
  O  O77  1  0.52239100  0.29413000  0.47343000  1
  O  O78  1  0.31994800  0.79027800  0.29884400  1
  O  O79  1  0.46767100  0.13199500  0.85067300  1
  O  O80  1  0.39529300  0.71686200  0.12760100  1
  O  O81  1  0.90618600  0.38792200  0.02050400  1
  O  O82  1  0.60774100  0.37512000  0.22545700  1
  O  O83  1  0.60738200  0.35276200  0.57420800  1
  O  O84  1  0.13389800  0.41189800  0.50760800  1
  O  O85  1  0.08069700  0.52437800  0.38241200  1
  O  O86  1  0.37743300  0.27664400  0.02847500  1
  O  O87  1  0.39261800  0.64723800  0.42579200  1
  O  O88  1  0.63389800  0.08810200  0.49239200  1
  O  O89  1  0.94453100  0.58792800  0.11051600  1
  O  O90  1  0.40618600  0.11207800  0.97949600  1
  O  O91  1  0.02239100  0.20587000  0.52657000  1
  O  O92  1  0.85812000  0.04948000  0.22016400  1
  O  O93  1  0.68005200  0.20972200  0.70115600  1
  O  O94  1  0.55546900  0.08792800  0.11051600  1
  O  O95  1  0.10738200  0.14723800  0.42579200  1
  O  O96  1  0.47760900  0.70587000  0.52657000  1
  O  O97  1  0.81994800  0.70972200  0.70115600  1
  O  O98  1  0.39225900  0.62488000  0.77454300  1
  O  O99  1  0.03232900  0.63199500  0.85067300  1
  O  O100  1  0.53232900  0.86800500  0.14932700  1
  O  O101  1  0.09883300  0.94262000  0.07851900  1
  O  O102  1  0.36610200  0.91189800  0.50760800  1
  O  O103  1  0.00756500  0.66038100  0.26635500  1
