# generated using pymatgen
data_MnH9C4NO6
_symmetry_space_group_name_H-M   'P 1'
_cell_length_a   8.37085700
_cell_length_b   8.69675200
_cell_length_c   12.10755100
_cell_angle_alpha   90.00000000
_cell_angle_beta   90.00000000
_cell_angle_gamma   90.00000000
_symmetry_Int_Tables_number   1
_chemical_formula_structural   MnH9C4NO6
_chemical_formula_sum   'Mn4 H36 C16 N4 O24'
_cell_volume   881.42084228
_cell_formula_units_Z   4
loop_
 _symmetry_equiv_pos_site_id
 _symmetry_equiv_pos_as_xyz
  1  'x, y, z'
loop_
 _atom_site_type_symbol
 _atom_site_label
 _atom_site_symmetry_multiplicity
 _atom_site_fract_x
 _atom_site_fract_y
 _atom_site_fract_z
 _atom_site_occupancy
  Mn  Mn0  1  0.50000000  0.50000000  0.50000000  1
  Mn  Mn1  1  0.00000000  0.00000000  0.00000000  1
  Mn  Mn2  1  0.50000000  0.50000000  0.00000000  1
  Mn  Mn3  1  0.00000000  0.00000000  0.50000000  1
  H  H4  1  0.84671700  0.58570200  0.75000000  1
  H  H5  1  0.65328300  0.08570200  0.75000000  1
  H  H6  1  0.15328300  0.41429800  0.25000000  1
  H  H7  1  0.34671800  0.91429800  0.25000000  1
  H  H8  1  0.01258700  0.64255400  0.68039700  1
  H  H9  1  0.48741300  0.14255400  0.81960300  1
  H  H10  1  0.98741300  0.35744600  0.18039700  1
  H  H11  1  0.51258700  0.85744600  0.31960300  1
  H  H12  1  0.98741300  0.35744600  0.31960300  1
  H  H13  1  0.51258700  0.85744600  0.18039700  1
  H  H14  1  0.01258700  0.64255400  0.81960300  1
  H  H15  1  0.48741300  0.14255400  0.68039700  1
  H  H16  1  0.27740900  0.77646600  0.46661000  1
  H  H17  1  0.22259100  0.27646600  0.03339000  1
  H  H18  1  0.72259100  0.22353400  0.96661000  1
  H  H19  1  0.77740900  0.72353400  0.53339000  1
  H  H20  1  0.72259100  0.22353400  0.53339000  1
  H  H21  1  0.77740900  0.72353400  0.96661000  1
  H  H22  1  0.27740900  0.77646600  0.03339000  1
  H  H23  1  0.22259100  0.27646600  0.46661000  1
  H  H24  1  0.56882000  0.49809800  0.25000000  1
  H  H25  1  0.93118000  0.99809800  0.25000000  1
  H  H26  1  0.43118000  0.50190200  0.75000000  1
  H  H27  1  0.06882000  0.00190200  0.75000000  1
  H  H28  1  0.15403900  0.41429700  0.75000000  1
  H  H29  1  0.34596100  0.91429700  0.75000000  1
  H  H30  1  0.84596100  0.58570300  0.25000000  1
  H  H31  1  0.65403900  0.08570300  0.25000000  1
  H  H32  1  0.97683000  0.36318500  0.67612800  1
  H  H33  1  0.52317000  0.86318500  0.82387200  1
  H  H34  1  0.02317000  0.63681500  0.17612800  1
  H  H35  1  0.47683000  0.13681500  0.32387200  1
  H  H36  1  0.02317000  0.63681500  0.32387200  1
  H  H37  1  0.47683000  0.13681500  0.17612800  1
  H  H38  1  0.97683000  0.36318500  0.82387200  1
  H  H39  1  0.52317000  0.86318500  0.67612800  1
  C  C40  1  0.21447700  0.71460400  0.53378900  1
  C  C41  1  0.28552300  0.21460400  0.96621100  1
  C  C42  1  0.78552300  0.28539600  0.03378900  1
  C  C43  1  0.71447700  0.78539600  0.46621100  1
  C  C44  1  0.78552300  0.28539600  0.46621100  1
  C  C45  1  0.71447700  0.78539600  0.03378900  1
  C  C46  1  0.21447700  0.71460400  0.96621100  1
  C  C47  1  0.28552300  0.21460400  0.53378900  1
  C  C48  1  0.43800000  0.47889200  0.25000000  1
  C  C49  1  0.06200000  0.97889200  0.25000000  1
  C  C50  1  0.56200000  0.52110800  0.75000000  1
  C  C51  1  0.93800000  0.02110800  0.75000000  1
  C  C52  1  0.02373800  0.41986000  0.75000000  1
  C  C53  1  0.47626200  0.91986000  0.75000000  1
  C  C54  1  0.97626200  0.58014000  0.25000000  1
  C  C55  1  0.52373800  0.08014000  0.25000000  1
  N  N56  1  0.97073300  0.58293000  0.75000000  1
  N  N57  1  0.52926700  0.08293000  0.75000000  1
  N  N58  1  0.02926700  0.41707000  0.25000000  1
  N  N59  1  0.47073300  0.91707000  0.25000000  1
  O  O60  1  0.27903000  0.59606100  0.57428100  1
  O  O61  1  0.22097000  0.09606100  0.92571900  1
  O  O62  1  0.72097000  0.40393900  0.07428100  1
  O  O63  1  0.77903000  0.90393900  0.42571900  1
  O  O64  1  0.72097000  0.40393900  0.42571900  1
  O  O65  1  0.77903000  0.90393900  0.07428100  1
  O  O66  1  0.27903000  0.59606100  0.92571900  1
  O  O67  1  0.22097000  0.09606100  0.57428100  1
  O  O68  1  0.08024500  0.76967500  0.56536900  1
  O  O69  1  0.41975500  0.26967500  0.93463100  1
  O  O70  1  0.91975500  0.23032500  0.06536900  1
  O  O71  1  0.58024500  0.73032500  0.43463100  1
  O  O72  1  0.91975500  0.23032500  0.43463100  1
  O  O73  1  0.58024500  0.73032500  0.06536900  1
  O  O74  1  0.08024500  0.76967500  0.93463100  1
  O  O75  1  0.41975500  0.26967500  0.56536900  1
  O  O76  1  0.36716100  0.46813100  0.34255600  1
  O  O77  1  0.13283900  0.96813100  0.15744400  1
  O  O78  1  0.63283900  0.53186900  0.84255600  1
  O  O79  1  0.86716100  0.03186900  0.65744400  1
  O  O80  1  0.63283900  0.53186900  0.65744400  1
  O  O81  1  0.86716100  0.03186900  0.84255600  1
  O  O82  1  0.36716100  0.46813100  0.15744400  1
  O  O83  1  0.13283900  0.96813100  0.34255600  1
