# generated using pymatgen
data_HgC2(SN)2
_symmetry_space_group_name_H-M   'P 1'
_cell_length_a   5.90267589
_cell_length_b   5.90267589
_cell_length_c   6.57234543
_cell_angle_alpha   86.00682800
_cell_angle_beta   86.00682800
_cell_angle_gamma   40.79430783
_symmetry_Int_Tables_number   1
_chemical_formula_structural   HgC2(SN)2
_chemical_formula_sum   'Hg1 C2 S2 N2'
_cell_volume   149.19667344
_cell_formula_units_Z   1
loop_
 _symmetry_equiv_pos_site_id
 _symmetry_equiv_pos_as_xyz
  1  'x, y, z'
loop_
 _atom_site_type_symbol
 _atom_site_label
 _atom_site_symmetry_multiplicity
 _atom_site_fract_x
 _atom_site_fract_y
 _atom_site_fract_z
 _atom_site_occupancy
  Hg  Hg0  1  0.00000000  0.00000000  0.00000000  1
  C  C1  1  0.26051800  0.26051800  0.77609900  1
  C  C2  1  0.73948200  0.73948200  0.22390100  1
  S  S3  1  0.12723900  0.12723900  0.67891200  1
  S  S4  1  0.87276100  0.87276100  0.32108800  1
  N  N5  1  0.35795000  0.35795000  0.83878100  1
  N  N6  1  0.64205000  0.64205000  0.16121900  1
