# generated using pymatgen
data_Gd2Cl3
_symmetry_space_group_name_H-M   'P 1'
_cell_length_a   3.91849836
_cell_length_b   7.88964677
_cell_length_c   9.73059210
_cell_angle_alpha   69.62326710
_cell_angle_beta   78.32851903
_cell_angle_gamma   75.49489596
_symmetry_Int_Tables_number   1
_chemical_formula_structural   Gd2Cl3
_chemical_formula_sum   'Gd4 Cl6'
_cell_volume   270.80917305
_cell_formula_units_Z   2
loop_
 _symmetry_equiv_pos_site_id
 _symmetry_equiv_pos_as_xyz
  1  'x, y, z'
loop_
 _atom_site_type_symbol
 _atom_site_label
 _atom_site_symmetry_multiplicity
 _atom_site_fract_x
 _atom_site_fract_y
 _atom_site_fract_z
 _atom_site_occupancy
  Gd  Gd0  1  0.45076585  0.74601266  0.34718453  1
  Gd  Gd1  1  0.73111581  0.78991826  0.75741852  1
  Gd  Gd2  1  0.99610068  0.99948474  0.99699670  1
  Gd  Gd3  1  0.18326852  0.53184331  0.10526707  1
  Cl  Cl4  1  0.53675532  0.13216430  0.78304593  1
  Cl  Cl5  1  0.63416291  0.40498229  0.31918476  1
  Cl  Cl6  1  0.93520266  0.57507196  0.56390952  1
  Cl  Cl7  1  0.23848025  0.96655747  0.53751940  1
  Cl  Cl8  1  0.36366769  0.10508513  0.16670459  1
  Cl  Cl9  1  0.82510532  0.42111188  0.93543298  1
