# generated using pymatgen
data_TiO2
_symmetry_space_group_name_H-M   'P 1'
_cell_length_a   6.56688745
_cell_length_b   6.56688745
_cell_length_c   10.46353500
_cell_angle_alpha   90.00000000
_cell_angle_beta   90.00000000
_cell_angle_gamma   122.95404543
_symmetry_Int_Tables_number   1
_chemical_formula_structural   TiO2
_chemical_formula_sum   'Ti4 O8'
_cell_volume   378.62997170
_cell_formula_units_Z   4
loop_
 _symmetry_equiv_pos_site_id
 _symmetry_equiv_pos_as_xyz
  1  'x, y, z'
loop_
 _atom_site_type_symbol
 _atom_site_label
 _atom_site_symmetry_multiplicity
 _atom_site_fract_x
 _atom_site_fract_y
 _atom_site_fract_z
 _atom_site_occupancy
  Ti  Ti0  1  0.75420300  0.24579700  0.00045800  1
  Ti  Ti1  1  0.74628300  0.74628300  0.05732400  1
  Ti  Ti2  1  0.24579700  0.75420300  0.00045800  1
  Ti  Ti3  1  0.25371700  0.25371700  0.05732400  1
  O  O4  1  0.11891400  0.39050600  0.96176300  1
  O  O5  1  0.00000000  0.00000000  0.13945600  1
  O  O6  1  0.75630800  0.24369200  0.15603700  1
  O  O7  1  0.88108600  0.60949400  0.96176300  1
  O  O8  1  0.24369200  0.75630800  0.15603700  1
  O  O9  1  0.39050600  0.11891400  0.96176300  1
  O  O10  1  0.60949400  0.88108600  0.96176300  1
  O  O11  1  0.50000000  0.50000000  0.14735200  1
