# generated using pymatgen
data_La5(Mo16O27)2
_symmetry_space_group_name_H-M   'P 1'
_cell_length_a   9.43992502
_cell_length_b   11.21259141
_cell_length_c   24.90347661
_cell_angle_alpha   100.63927570
_cell_angle_beta   90.00085944
_cell_angle_gamma   89.99828458
_symmetry_Int_Tables_number   1
_chemical_formula_structural   La5(Mo16O27)2
_chemical_formula_sum   'La10 Mo64 O108'
_cell_volume   2590.61965238
_cell_formula_units_Z   2
loop_
 _symmetry_equiv_pos_site_id
 _symmetry_equiv_pos_as_xyz
  1  'x, y, z'
loop_
 _atom_site_type_symbol
 _atom_site_label
 _atom_site_symmetry_multiplicity
 _atom_site_fract_x
 _atom_site_fract_y
 _atom_site_fract_z
 _atom_site_occupancy
  La  La0  1  0.48178986  0.46256103  0.30197938  1
  La  La1  1  0.01818852  0.96243265  0.80191203  1
  La  La2  1  0.48982334  0.14539926  0.59162600  1
  La  La3  1  0.01018543  0.64534125  0.09167738  1
  La  La4  1  0.49997612  0.00002180  0.00001346  1
  La  La5  1  0.51824750  0.53739643  0.69796932  1
  La  La6  1  0.51021501  0.85467148  0.40839547  1
  La  La7  1  0.98983571  0.35462443  0.90831183  1
  La  La8  1  -0.00022486  0.49962293  0.49989743  1
  La  La9  1  0.98183814  0.03757115  0.19811032  1
  Mo  Mo10  1  0.63304273  0.03504442  0.70071653  1
  Mo  Mo11  1  0.86150857  0.85336118  0.02231535  1
  Mo  Mo12  1  0.37088125  0.01715522  0.85809411  1
  Mo  Mo13  1  0.36560784  0.72806964  0.82535608  1
  Mo  Mo14  1  0.13907170  0.68460212  0.25798342  1
  Mo  Mo15  1  0.62557975  0.45813256  0.85566742  1
  Mo  Mo16  1  0.64776138  0.41703793  0.07754697  1
  Mo  Mo17  1  0.64429738  0.69723789  0.11395797  1
  Mo  Mo18  1  0.13437626  0.22810223  0.32538045  1
  Mo  Mo19  1  0.13543730  0.21388230  0.54443589  1
  Mo  Mo20  1  0.63542400  0.28610087  0.95556621  1
  Mo  Mo21  1  0.14773767  0.08297486  0.42247052  1
  Mo  Mo22  1  0.14433074  0.80276521  0.38606915  1
  Mo  Mo23  1  0.34988261  0.36077100  0.44780006  1
  Mo  Mo24  1  0.63907200  0.81541500  0.24205823  1
  Mo  Mo25  1  0.35599858  0.48651092  0.57506050  1
  Mo  Mo26  1  0.85476096  0.36944303  0.29982992  1
  Mo  Mo27  1  0.65015962  0.63923281  0.55218875  1
  Mo  Mo28  1  0.12927947  0.27906299  0.10461928  1
  Mo  Mo29  1  0.62928654  0.22096715  0.39541599  1
  Mo  Mo30  1  0.86559469  0.77189183  0.67459333  1
  Mo  Mo31  1  0.84985337  0.13922596  0.05221394  1
  Mo  Mo32  1  0.87069756  0.72093036  0.89538919  1
  Mo  Mo33  1  0.13497750  0.39444744  0.23159617  1
  Mo  Mo34  1  0.86095222  0.31538377  0.74201556  1
  Mo  Mo35  1  0.63497702  0.10555127  0.26843697  1
  Mo  Mo36  1  0.85568858  0.19722704  0.61392059  1
  Mo  Mo37  1  0.62913914  0.98284459  0.14191894  1
  Mo  Mo38  1  0.85602974  0.01348693  0.92491994  1
  Mo  Mo39  1  0.12558632  0.04184619  0.64430186  1
  Mo  Mo40  1  0.85163992  0.65979182  0.32775143  1
  Mo  Mo41  1  0.14766859  0.92178332  0.51457449  1
  Mo  Mo42  1  0.63845331  0.35340870  0.52233149  1
  Mo  Mo43  1  0.35159677  0.84022450  0.17228341  1
  Mo  Mo44  1  0.85222935  0.91707218  0.57751716  1
  Mo  Mo45  1  0.35570441  0.30277013  0.88605737  1
  Mo  Mo46  1  0.36148974  0.64658489  0.47767137  1
  Mo  Mo47  1  0.37444235  0.54188534  0.14435041  1
  Mo  Mo48  1  0.14840409  0.34019432  0.67223857  1
  Mo  Mo49  1  0.12913699  0.51715836  0.35811919  1
  Mo  Mo50  1  0.64523443  0.86941797  0.79977819  1
  Mo  Mo51  1  0.87445410  0.95809486  0.35567215  1
  Mo  Mo52  1  0.86696797  0.53506734  0.20076820  1
  Mo  Mo53  1  0.14525089  0.63056897  0.70017207  1
  Mo  Mo54  1  0.64397108  0.51350641  0.42492993  1
  Mo  Mo55  1  0.63438597  0.27191394  0.17465729  1
  Mo  Mo56  1  0.86499192  0.60555714  0.76840656  1
  Mo  Mo57  1  0.36503776  0.89442788  0.73155251  1
  Mo  Mo58  1  0.13848198  0.14664287  0.97769929  1
  Mo  Mo59  1  0.36696672  0.96494233  0.29927623  1
  Mo  Mo60  1  0.36093736  0.18459401  0.75795061  1
  Mo  Mo61  1  0.15016469  0.86076751  0.94779793  1
  Mo  Mo62  1  0.35223951  0.58296940  0.92246675  1
  Mo  Mo63  1  0.35477796  0.13057435  0.20021943  1
  Mo  Mo64  1  0.14396373  0.98651873  0.07509267  1
  Mo  Mo65  1  0.85226223  0.07827643  0.48539508  1
  Mo  Mo66  1  0.35227626  0.42175051  0.01459938  1
  Mo  Mo67  1  0.87090793  0.48284975  0.64188398  1
  Mo  Mo68  1  0.36457688  0.71390152  0.04445082  1
  Mo  Mo69  1  0.37069763  0.77905445  0.60456401  1
  Mo  Mo70  1  0.64842224  0.15978715  0.82772751  1
  Mo  Mo71  1  0.86454915  0.78610404  0.45556405  1
  Mo  Mo72  1  0.13301758  0.46495745  0.79923962  1
  Mo  Mo73  1  0.64772190  0.57824857  0.98541685  1
  O  O74  1  0.00550155  0.40858854  0.16423141  1
  O  O75  1  0.47929711  0.58098349  0.84976248  1
  O  O76  1  0.27395745  0.80540120  0.45685833  1
  O  O77  1  0.21741716  0.37181190  0.52009828  1
  O  O78  1  0.49951026  0.16659415  0.68851074  1
  O  O79  1  0.49024553  0.74460741  0.75555758  1
  O  O80  1  0.28411124  0.94645539  0.37568063  1
  O  O81  1  0.71042004  0.98933676  0.06316480  1
  O  O82  1  0.97931181  0.91899742  0.65019094  1
  O  O83  1  0.49928499  0.34930223  0.59117554  1
  O  O84  1  0.22219699  0.98838218  0.15672191  1
  O  O85  1  0.50229564  0.13561520  0.13640666  1
  O  O86  1  0.78266605  0.62811861  0.47988264  1
  O  O87  1  0.74484420  0.83796766  0.16717183  1
  O  O88  1  0.72222723  0.51166405  0.34332596  1
  O  O89  1  0.50050537  0.83338727  0.31149212  1
  O  O90  1  0.77349878  0.96112803  0.28061707  1
  O  O91  1  0.00358130  0.26024176  0.03206910  1
  O  O92  1  0.74673253  0.06487740  0.40953165  1
  O  O93  1  0.78956335  0.48934199  0.56314597  1
  O  O94  1  0.50549746  0.09144817  0.33582198  1
  O  O95  1  0.25516282  0.16204102  0.83284916  1
  O  O96  1  0.99022708  0.75537270  0.74438211  1
  O  O97  1  0.50358366  0.23972255  0.46796713  1
  O  O98  1  -0.00142467  0.80586680  0.31783383  1
  O  O99  1  0.49446738  0.90855618  0.66416106  1
  O  O100  1  0.21588051  0.44641512  0.87560336  1
  O  O101  1  0.99445431  0.59143905  0.83576813  1
  O  O102  1  0.50977013  0.25538189  0.24444988  1
  O  O103  1  0.25122107  0.37993700  0.30571765  1
  O  O104  1  0.25058935  0.13581277  0.05090682  1
  O  O105  1  -0.00033704  0.12147805  0.11739689  1
  O  O106  1  0.49642590  0.76022758  0.53201282  1
  O  O107  1  -0.00225993  0.63558659  0.63635064  1
  O  O108  1  -0.00070855  0.15076285  0.90887884  1
  O  O109  1  0.75793471  0.73117590  0.82260794  1
  O  O110  1  0.27776481  0.48836451  0.65667874  1
  O  O111  1  0.00975343  0.24463846  0.25560154  1
  O  O112  1  0.77781392  0.01162280  0.84328391  1
  O  O113  1  0.74624552  0.65778319  0.25326317  1
  O  O114  1  0.50074309  0.65078138  0.40888007  1
  O  O115  1  0.74942836  0.86418060  0.94911032  1
  O  O116  1  0.75911356  0.77290927  0.60616128  1
  O  O117  1  0.77393997  0.69460451  0.04316217  1
  O  O118  1  0.28957872  0.01065768  0.93684506  1
  O  O119  1  0.50964612  0.29403746  0.02565378  1
  O  O120  1  0.24676689  0.43512849  0.09048615  1
  O  O121  1  0.99345862  0.66144342  0.39818404  1
  O  O122  1  0.78410003  0.55357229  0.12439588  1
  O  O123  1  0.02070590  0.08097940  0.34977776  1
  O  O124  1  0.74207634  0.23119118  0.32265719  1
  O  O125  1  0.24206886  0.26882213  0.17739991  1
  O  O126  1  0.25979499  0.07615830  0.49732110  1
  O  O127  1  0.50032782  0.62150606  0.61734254  1
  O  O128  1  0.72652093  0.46110408  0.78056178  1
  O  O129  1  -0.00962545  0.79413992  0.52562431  1
  O  O130  1  0.75514190  0.33797352  0.66711335  1
  O  O131  1  0.24418766  0.19000070  0.62086743  1
  O  O132  1  0.25913312  0.72710550  0.89378444  1
  O  O133  1  0.71587431  0.05362160  0.62435142  1
  O  O134  1  0.99641112  0.73976632  0.96794589  1
  O  O135  1  0.49343278  0.83858501  0.10185969  1
  O  O136  1  -0.00049162  0.33338420  0.81142739  1
  O  O137  1  0.75583404  0.80999615  0.37909980  1
  O  O138  1  0.24625115  0.84222963  0.24681162  1
  O  O139  1  0.49854639  0.69413985  0.18221611  1
  O  O140  1  0.25321243  0.93507271  0.59042267  1
  O  O141  1  0.24015663  0.09916281  0.27124367  1
  O  O142  1  0.25981376  0.59916213  0.77118958  1
  O  O143  1  0.25371481  0.34220386  0.74674297  1
  O  O144  1  0.25794161  0.76882189  0.67732749  1
  O  O145  1  0.22606523  0.30540166  0.95685237  1
  O  O146  1  0.49035653  0.70593759  0.97437013  1
  O  O147  1  0.49773621  0.86439294  0.86359073  1
  O  O148  1  0.74008801  0.92382282  0.50264896  1
  O  O149  1  0.75322357  0.56488820  0.90953163  1
  O  O150  1  0.00654159  0.33857358  0.60179483  1
  O  O151  1  0.24018041  0.57616764  0.99733867  1
  O  O152  1  0.28259204  0.87189682  0.02011605  1
  O  O153  1  0.74017958  0.40086011  0.22881577  1
  O  O154  1  0.27348968  0.53889081  0.21944032  1
  O  O155  1  0.00034371  0.87852225  0.88262190  1
  O  O156  1  0.50657647  0.16142222  0.89815987  1
  O  O157  1  0.24086564  0.22704433  0.39381637  1
  O  O158  1  0.21039977  0.51064232  0.43686768  1
  O  O159  1  0.00145439  0.19411295  0.68214323  1
  O  O160  1  0.00963134  0.20607794  0.47434547  1
  O  O161  1  0.52072765  0.41901456  0.15026156  1
  O  O162  1  0.00228241  0.36441540  0.36367150  1
  O  O163  1  0.50146331  0.30587678  0.81780559  1
  O  O164  1  0.75124512  0.12006828  0.19433661  1
  O  O165  1  0.22651098  0.03886129  0.71938139  1
  O  O166  1  0.71740128  0.12811553  0.97990330  1
  O  O167  1  0.49970797  0.37855775  0.38262835  1
  O  O168  1  0.24488438  0.66203963  0.33288001  1
  O  O169  1  0.24877576  0.87993355  0.80566605  1
  O  O170  1  0.72602629  0.19456369  0.54313344  1
  O  O171  1  0.24946802  0.63585961  0.55088042  1
  O  O172  1  0.75065236  0.36420231  0.44912764  1
  O  O173  1  0.74876428  0.62005360  0.69426811  1
  O  O174  1  0.25583258  0.69003384  0.12092974  1
  O  O175  1  0.75980389  0.42383745  0.00268159  1
  O  O176  1  0.00070850  0.84921969  0.09112410  1
  O  O177  1  0.74417072  0.30996135  0.87909342  1
  O  O178  1  0.00049065  0.66664511  0.18859079  1
  O  O179  1  0.75984218  0.90081372  0.72875254  1
  O  O180  1  0.75371304  0.15777126  0.75319525  1
  O  O181  1  0.74087853  0.27290932  0.10622860  1
