# generated using pymatgen
data_PRu5C16(O5F)3
_symmetry_space_group_name_H-M   'P 1'
_cell_length_a   21.49534300
_cell_length_b   10.19181600
_cell_length_c   11.98088235
_cell_angle_alpha   87.24820608
_cell_angle_beta   90.00000000
_cell_angle_gamma   90.00000000
_symmetry_Int_Tables_number   1
_chemical_formula_structural   PRu5C16(O5F)3
_chemical_formula_sum   'P4 Ru20 C64 O60 F12'
_cell_volume   2621.70411952
_cell_formula_units_Z   4
loop_
 _symmetry_equiv_pos_site_id
 _symmetry_equiv_pos_as_xyz
  1  'x, y, z'
loop_
 _atom_site_type_symbol
 _atom_site_label
 _atom_site_symmetry_multiplicity
 _atom_site_fract_x
 _atom_site_fract_y
 _atom_site_fract_z
 _atom_site_occupancy
  P  P0  1  0.60989500  0.88855100  0.24591200  1
  P  P1  1  0.10989500  0.61144900  0.25408800  1
  P  P2  1  0.89010500  0.38855100  0.74591200  1
  P  P3  1  0.39010500  0.11144900  0.75408800  1
  Ru  Ru4  1  0.47066100  0.23926100  0.67013000  1
  Ru  Ru5  1  0.97066100  0.26073900  0.82987000  1
  Ru  Ru6  1  0.15920600  0.70015500  0.08892900  1
  Ru  Ru7  1  0.34079400  0.20015500  0.58892900  1
  Ru  Ru8  1  0.92125700  0.26020800  0.59430700  1
  Ru  Ru9  1  0.12759900  0.91329600  0.23239600  1
  Ru  Ru10  1  0.37240100  0.41329600  0.73239600  1
  Ru  Ru11  1  0.62759900  0.58670400  0.26760400  1
  Ru  Ru12  1  0.42125700  0.23979200  0.90569300  1
  Ru  Ru13  1  0.87240100  0.08670400  0.76760400  1
  Ru  Ru14  1  0.07874300  0.73979200  0.40569300  1
  Ru  Ru15  1  0.29464200  0.19452700  0.82012300  1
  Ru  Ru16  1  0.57874300  0.76020800  0.09430700  1
  Ru  Ru17  1  0.65920600  0.79984500  0.41107100  1
  Ru  Ru18  1  0.79464200  0.30547300  0.67987700  1
  Ru  Ru19  1  0.02933900  0.73926100  0.17013000  1
  Ru  Ru20  1  0.70535800  0.80547300  0.17987700  1
  Ru  Ru21  1  0.52933900  0.76073900  0.32987000  1
  Ru  Ru22  1  0.20535800  0.69452700  0.32012300  1
  Ru  Ru23  1  0.84079400  0.29984500  0.91107100  1
  C  C24  1  0.74955900  0.46306200  0.69887600  1
  C  C25  1  0.50449700  0.28289000  0.94056100  1
  C  C26  1  0.27738900  0.80417900  0.29573000  1
  C  C27  1  0.36400100  0.49975100  0.58971600  1
  C  C28  1  0.57587800  0.90244500  0.98520900  1
  C  C29  1  0.97863300  0.17983000  0.97472300  1
  C  C30  1  0.59438800  0.07464200  0.23444600  1
  C  C31  1  0.86400100  0.00024900  0.91028400  1
  C  C32  1  0.52150300  0.09278500  0.63660600  1
  C  C33  1  0.09438800  0.42535800  0.26555400  1
  C  C34  1  0.61484300  0.63316900  0.00020700  1
  C  C35  1  0.31435000  0.03189900  0.54987600  1
  C  C36  1  0.02136700  0.82017000  0.02527700  1
  C  C37  1  0.47849700  0.90721500  0.36339400  1
  C  C38  1  0.06056700  0.01715500  0.28105700  1
  C  C39  1  0.72261100  0.19582100  0.70427000  1
  C  C40  1  0.99550300  0.78289000  0.44056100  1
  C  C41  1  0.04127300  0.16396500  0.78350700  1
  C  C42  1  0.88515700  0.13316900  0.50020700  1
  C  C43  1  0.93943300  0.98284500  0.71894300  1
  C  C44  1  0.81135500  0.98056700  0.70083700  1
  C  C45  1  0.28389800  0.17951900  0.97734900  1
  C  C46  1  0.25044100  0.53693800  0.30112400  1
  C  C47  1  0.26194700  0.28229700  0.56310300  1
  C  C48  1  0.00449700  0.21711000  0.55943900  1
  C  C49  1  0.47863300  0.32017000  0.52527700  1
  C  C50  1  0.31135500  0.51943300  0.79916300  1
  C  C51  1  0.77738900  0.69582100  0.20427000  1
  C  C52  1  0.68565000  0.96810100  0.45012400  1
  C  C53  1  0.54127300  0.33603500  0.71649300  1
  C  C54  1  0.86659800  0.26577900  0.06307400  1
  C  C55  1  0.63340200  0.76577900  0.56307400  1
  C  C56  1  0.97849700  0.59278500  0.13660600  1
  C  C57  1  0.07587800  0.59755500  0.51479100  1
  C  C58  1  0.40561200  0.92535800  0.76555400  1
  C  C59  1  0.73805300  0.71770300  0.43689700  1
  C  C60  1  0.43943300  0.51715500  0.78105700  1
  C  C61  1  0.18864500  0.01943300  0.29916300  1
  C  C62  1  0.24955900  0.03693800  0.80112400  1
  C  C63  1  0.13340200  0.73422100  0.93692600  1
  C  C64  1  0.18565000  0.53189900  0.04987600  1
  C  C65  1  0.63599900  0.50024900  0.41028400  1
  C  C66  1  0.68864500  0.48056700  0.20083700  1
  C  C67  1  0.56056700  0.48284500  0.21894300  1
  C  C68  1  0.78389800  0.32048100  0.52265100  1
  C  C69  1  0.92412200  0.40244500  0.48520900  1
  C  C70  1  0.45872700  0.66396500  0.28350700  1
  C  C71  1  0.81435000  0.46810100  0.95012400  1
  C  C72  1  0.90561200  0.57464200  0.73444600  1
  C  C73  1  0.36659800  0.23422100  0.43692600  1
  C  C74  1  0.13599900  0.99975100  0.08971600  1
  C  C75  1  0.42412200  0.09755500  0.01479100  1
  C  C76  1  0.38515700  0.36683100  0.99979300  1
  C  C77  1  0.23805300  0.78229700  0.06310300  1
  C  C78  1  0.52136700  0.67983000  0.47472300  1
  C  C79  1  0.75044100  0.96306200  0.19887600  1
  C  C80  1  0.02150300  0.40721500  0.86339400  1
  C  C81  1  0.49550300  0.71711000  0.05943900  1
  C  C82  1  0.22261100  0.30417900  0.79573000  1
  C  C83  1  0.76194700  0.21770300  0.93689700  1
  C  C84  1  0.95872700  0.83603500  0.21649300  1
  C  C85  1  0.21610200  0.67951900  0.47734900  1
  C  C86  1  0.71610200  0.82048100  0.02265100  1
  C  C87  1  0.11484300  0.86683100  0.49979300  1
  O  O88  1  0.92320700  0.48726700  0.41745200  1
  O  O89  1  0.13498500  0.94061300  0.56068800  1
  O  O90  1  0.55452400  0.30824000  0.96874500  1
  O  O91  1  0.86121800  0.93641200  0.99356000  1
  O  O92  1  0.94547600  0.80824000  0.46874500  1
  O  O93  1  0.27791600  0.59452800  0.83804900  1
  O  O94  1  0.17721000  0.36408100  0.78280600  1
  O  O95  1  0.79660300  0.57109400  0.97192200  1
  O  O96  1  0.44673700  0.99282500  0.38806900  1
  O  O97  1  0.44547600  0.69176000  0.03125500  1
  O  O98  1  0.63498500  0.55938700  0.93931200  1
  O  O99  1  0.29660300  0.92890600  0.52807800  1
  O  O100  1  0.77786900  0.05859900  0.21225900  1
  O  O101  1  0.98953400  0.12903500  0.06113900  1
  O  O102  1  0.27786900  0.44140100  0.28774100  1
  O  O103  1  0.12250700  0.74924300  0.84277700  1
  O  O104  1  0.37749300  0.24924300  0.34277700  1
  O  O105  1  0.87749300  0.25075700  0.15722300  1
  O  O106  1  0.32279000  0.86408100  0.28280600  1
  O  O107  1  0.05326300  0.49282500  0.88806900  1
  O  O108  1  0.72208400  0.40547200  0.16195100  1
  O  O109  1  0.91410700  0.89406700  0.23616400  1
  O  O110  1  0.42320700  0.01273300  0.08254800  1
  O  O111  1  0.05452400  0.19176000  0.53125500  1
  O  O112  1  0.48953400  0.37096500  0.43886100  1
  O  O113  1  0.97813100  0.91165500  0.69123400  1
  O  O114  1  0.07679300  0.51273300  0.58254800  1
  O  O115  1  0.78539700  0.67010200  0.46123800  1
  O  O116  1  0.77412700  0.33533900  0.42761100  1
  O  O117  1  0.13878200  0.06358800  0.00644000  1
  O  O118  1  0.20339700  0.42890600  0.02807800  1
  O  O119  1  0.22587300  0.66466100  0.57238900  1
  O  O120  1  0.57679300  0.98726700  0.91745200  1
  O  O121  1  0.27412700  0.16466100  0.07238900  1
  O  O122  1  0.58589300  0.39406700  0.73616400  1
  O  O123  1  0.67721000  0.13591900  0.71719400  1
  O  O124  1  0.36501500  0.44061300  0.06068800  1
  O  O125  1  0.01046600  0.87096500  0.93886100  1
  O  O126  1  0.22208400  0.09452800  0.33804900  1
  O  O127  1  0.51046600  0.62903500  0.56113900  1
  O  O128  1  0.86501500  0.05938700  0.43931200  1
  O  O129  1  0.72213100  0.55859900  0.71225900  1
  O  O130  1  0.77791600  0.90547200  0.66195100  1
  O  O131  1  0.72587300  0.83533900  0.92761100  1
  O  O132  1  0.82279000  0.63591900  0.21719400  1
  O  O133  1  0.21460300  0.32989800  0.53876200  1
  O  O134  1  0.22213100  0.94140100  0.78774100  1
  O  O135  1  0.70339700  0.07109400  0.47192200  1
  O  O136  1  0.62250700  0.75075700  0.65722300  1
  O  O137  1  0.71460300  0.17010200  0.96123800  1
  O  O138  1  0.63878200  0.43641200  0.49356000  1
  O  O139  1  0.02186900  0.08834500  0.30876600  1
  O  O140  1  0.28539700  0.82989800  0.03876200  1
  O  O141  1  0.52186900  0.41165500  0.19123400  1
  O  O142  1  0.55326300  0.00717500  0.61193100  1
  O  O143  1  0.08589300  0.10593300  0.76383600  1
  O  O144  1  0.94673700  0.50717500  0.11193100  1
  O  O145  1  0.36121800  0.56358800  0.50644000  1
  O  O146  1  0.47813100  0.58834500  0.80876600  1
  O  O147  1  0.41410700  0.60593300  0.26383600  1
  F  F148  1  0.95687400  0.60281800  0.67051100  1
  F  F149  1  0.54312600  0.10281800  0.17051100  1
  F  F150  1  0.45687400  0.89718200  0.82948900  1
  F  F151  1  0.85707400  0.64305700  0.68734300  1
  F  F152  1  0.35707400  0.85694300  0.81265700  1
  F  F153  1  0.04312600  0.39718200  0.32948900  1
  F  F154  1  0.64292600  0.14305700  0.18734300  1
  F  F155  1  0.58347700  0.12508900  0.33639700  1
  F  F156  1  0.41652300  0.87491100  0.66360300  1
  F  F157  1  0.08347700  0.37491100  0.16360300  1
  F  F158  1  0.14292600  0.35694300  0.31265700  1
  F  F159  1  0.91652300  0.62508900  0.83639700  1
