# generated using pymatgen
data_SiO2
_symmetry_space_group_name_H-M   'P 1'
_cell_length_a   15.80898685
_cell_length_b   15.80898685
_cell_length_c   12.60084951
_cell_angle_alpha   74.80355808
_cell_angle_beta   74.80355808
_cell_angle_gamma   31.32265844
_symmetry_Int_Tables_number   1
_chemical_formula_structural   SiO2
_chemical_formula_sum   'Si28 O56'
_cell_volume   1575.32756756
_cell_formula_units_Z   28
loop_
 _symmetry_equiv_pos_site_id
 _symmetry_equiv_pos_as_xyz
  1  'x, y, z'
loop_
 _atom_site_type_symbol
 _atom_site_label
 _atom_site_symmetry_multiplicity
 _atom_site_fract_x
 _atom_site_fract_y
 _atom_site_fract_z
 _atom_site_occupancy
  Si  Si0  1  0.02415700  0.39462500  0.23738900  1
  Si  Si1  1  0.48167400  0.11042300  0.52618700  1
  Si  Si2  1  0.37391800  0.00896600  0.87426500  1
  Si  Si3  1  0.13501100  0.76207900  0.92782600  1
  Si  Si4  1  0.88957700  0.51832600  0.47381300  1
  Si  Si5  1  0.97584300  0.60537500  0.76261100  1
  Si  Si6  1  0.82614100  0.45608100  0.10776800  1
  Si  Si7  1  0.35979900  0.73378400  0.84057800  1
  Si  Si8  1  0.73378400  0.35979900  0.84057800  1
  Si  Si9  1  0.99103400  0.62608200  0.12573500  1
  Si  Si10  1  0.76207900  0.13501100  0.92782600  1
  Si  Si11  1  0.60537500  0.97584300  0.76261100  1
  Si  Si12  1  0.39462500  0.02415700  0.23738900  1
  Si  Si13  1  0.95310800  0.32247900  0.68902900  1
  Si  Si14  1  0.62608200  0.99103400  0.12573500  1
  Si  Si15  1  0.00896600  0.37391800  0.87426500  1
  Si  Si16  1  0.23792100  0.86498900  0.07217400  1
  Si  Si17  1  0.26621600  0.64020100  0.15942200  1
  Si  Si18  1  0.11042300  0.48167400  0.52618700  1
  Si  Si19  1  0.45608100  0.82614100  0.10776800  1
  Si  Si20  1  0.64020100  0.26621600  0.15942200  1
  Si  Si21  1  0.67752100  0.04689200  0.31097100  1
  Si  Si22  1  0.04689200  0.67752100  0.31097100  1
  Si  Si23  1  0.32247900  0.95310800  0.68902900  1
  Si  Si24  1  0.54391900  0.17385900  0.89223200  1
  Si  Si25  1  0.51832600  0.88957700  0.47381300  1
  Si  Si26  1  0.17385900  0.54391900  0.89223200  1
  Si  Si27  1  0.86498900  0.23792100  0.07217400  1
  O  O28  1  0.65872900  0.22115400  0.04415400  1
  O  O29  1  0.23683900  0.76787000  0.15523300  1
  O  O30  1  0.87607800  0.46527700  0.97975300  1
  O  O31  1  0.22024300  0.22024300  0.21621100  1
  O  O32  1  0.36614400  0.36614400  0.86461600  1
  O  O33  1  0.23213000  0.76316100  0.84476700  1
  O  O34  1  0.53472300  0.12392200  0.02024700  1
  O  O35  1  0.67929700  0.15115000  0.26215000  1
  O  O36  1  0.61484500  0.05369200  0.22024200  1
  O  O37  1  0.22115400  0.65872900  0.04415400  1
  O  O38  1  0.44700700  0.87307000  0.57914900  1
  O  O39  1  0.46074800  0.03058700  0.82624200  1
  O  O40  1  0.59828100  0.06780500  0.80968800  1
  O  O41  1  0.58302200  0.02537300  0.63125500  1
  O  O42  1  0.70958800  0.70958800  0.44552700  1
  O  O43  1  0.86111200  0.32194000  0.12930200  1
  O  O44  1  0.14069700  0.14069700  0.65653600  1
  O  O45  1  0.85930300  0.85930300  0.34346400  1
  O  O46  1  0.12392200  0.53472300  0.02024700  1
  O  O47  1  0.84885000  0.32070300  0.73785000  1
  O  O48  1  0.94775900  0.94775900  0.95386000  1
  O  O49  1  0.32070300  0.84885000  0.73785000  1
  O  O50  1  0.40171900  0.93219500  0.19031200  1
  O  O51  1  0.53925200  0.96941300  0.17375800  1
  O  O52  1  0.97462700  0.41697800  0.36874500  1
  O  O53  1  0.76787000  0.23683900  0.15523300  1
  O  O54  1  0.18368000  0.18368000  0.91341000  1
  O  O55  1  0.77884600  0.34127100  0.95584600  1
  O  O56  1  0.05224100  0.05224100  0.04614000  1
  O  O57  1  0.29041200  0.29041200  0.55447300  1
  O  O58  1  0.02537300  0.58302200  0.63125500  1
  O  O59  1  0.34127100  0.77884600  0.95584600  1
  O  O60  1  0.77975700  0.77975700  0.78378900  1
  O  O61  1  0.03058700  0.46074800  0.82624200  1
  O  O62  1  0.00000000  0.50000000  0.50000000  1
  O  O63  1  0.06780500  0.59828100  0.80968800  1
  O  O64  1  0.63385600  0.63385600  0.13538400  1
  O  O65  1  0.41697800  0.97462700  0.36874500  1
  O  O66  1  0.32194000  0.86111200  0.12930200  1
  O  O67  1  0.13888800  0.67806000  0.87069800  1
  O  O68  1  0.54449200  0.54449200  0.82174500  1
  O  O69  1  0.81632000  0.81632000  0.08659000  1
  O  O70  1  0.46527700  0.87607800  0.97975300  1
  O  O71  1  0.12693000  0.55299300  0.42085100  1
  O  O72  1  0.94630800  0.38515500  0.77975800  1
  O  O73  1  0.15115000  0.67929700  0.26215000  1
  O  O74  1  0.55299300  0.12693000  0.42085100  1
  O  O75  1  0.96941300  0.53925200  0.17375800  1
  O  O76  1  0.45550800  0.45550800  0.17825500  1
  O  O77  1  0.87307000  0.44700700  0.57914900  1
  O  O78  1  0.05369200  0.61484500  0.22024200  1
  O  O79  1  0.93219500  0.40171900  0.19031200  1
  O  O80  1  0.76316100  0.23213000  0.84476700  1
  O  O81  1  0.67806000  0.13888800  0.87069800  1
  O  O82  1  0.50000000  0.00000000  0.50000000  1
  O  O83  1  0.38515500  0.94630800  0.77975800  1
