# generated using pymatgen
data_Ba5Si3
_symmetry_space_group_name_H-M   'P 1'
_cell_length_a   8.41532400
_cell_length_b   8.41532400
_cell_length_c   16.95419200
_cell_angle_alpha   90.00000000
_cell_angle_beta   90.00000000
_cell_angle_gamma   90.00000000
_symmetry_Int_Tables_number   1
_chemical_formula_structural   Ba5Si3
_chemical_formula_sum   'Ba20 Si12'
_cell_volume   1200.65651023
_cell_formula_units_Z   4
loop_
 _symmetry_equiv_pos_site_id
 _symmetry_equiv_pos_as_xyz
  1  'x, y, z'
loop_
 _atom_site_type_symbol
 _atom_site_label
 _atom_site_symmetry_multiplicity
 _atom_site_fract_x
 _atom_site_fract_y
 _atom_site_fract_z
 _atom_site_occupancy
  Ba  Ba0  1  0.30767200  0.67247500  0.10673500  1
  Ba  Ba1  1  0.17247500  0.19232800  0.10673500  1
  Ba  Ba2  1  0.50000000  0.00000000  0.72921500  1
  Ba  Ba3  1  0.32752500  0.69232800  0.39326500  1
  Ba  Ba4  1  0.67247500  0.69232800  0.89326500  1
  Ba  Ba5  1  0.19232800  0.17247500  0.39326500  1
  Ba  Ba6  1  0.67247500  0.30767200  0.39326500  1
  Ba  Ba7  1  0.17247500  0.80767200  0.60673500  1
  Ba  Ba8  1  0.32752500  0.30767200  0.89326500  1
  Ba  Ba9  1  0.19232800  0.82752500  0.89326500  1
  Ba  Ba10  1  0.50000000  0.00000000  0.22921500  1
  Ba  Ba11  1  0.82752500  0.19232800  0.60673500  1
  Ba  Ba12  1  0.30767200  0.32752500  0.60673500  1
  Ba  Ba13  1  0.80767200  0.82752500  0.39326500  1
  Ba  Ba14  1  0.80767200  0.17247500  0.89326500  1
  Ba  Ba15  1  0.82752500  0.80767200  0.10673500  1
  Ba  Ba16  1  0.00000000  0.50000000  0.27078500  1
  Ba  Ba17  1  0.00000000  0.50000000  0.77078500  1
  Ba  Ba18  1  0.69232800  0.32752500  0.10673500  1
  Ba  Ba19  1  0.69232800  0.67247500  0.60673500  1
  Si  Si20  1  0.10134700  0.10134700  0.75000000  1
  Si  Si21  1  0.39865300  0.60134700  0.75000000  1
  Si  Si22  1  0.00000000  0.50000000  0.98459500  1
  Si  Si23  1  0.60134700  0.60134700  0.25000000  1
  Si  Si24  1  0.50000000  0.00000000  0.01540500  1
  Si  Si25  1  0.10134700  0.89865300  0.25000000  1
  Si  Si26  1  0.60134700  0.39865300  0.75000000  1
  Si  Si27  1  0.89865300  0.89865300  0.75000000  1
  Si  Si28  1  0.39865300  0.39865300  0.25000000  1
  Si  Si29  1  0.89865300  0.10134700  0.25000000  1
  Si  Si30  1  0.50000000  0.00000000  0.51540500  1
  Si  Si31  1  0.00000000  0.50000000  0.48459500  1
