# generated using pymatgen
data_NaCa2TiSi2O8F
_symmetry_space_group_name_H-M   'P 1'
_cell_length_a   5.80361300
_cell_length_b   7.63187475
_cell_length_c   19.44431316
_cell_angle_alpha   101.29642207
_cell_angle_beta   90.32228085
_cell_angle_gamma   89.95135184
_symmetry_Int_Tables_number   1
_chemical_formula_structural   NaCa2TiSi2O8F
_chemical_formula_sum   'Na4 Ca8 Ti4 Si8 O32 F4'
_cell_volume   844.53801030
_cell_formula_units_Z   4
loop_
 _symmetry_equiv_pos_site_id
 _symmetry_equiv_pos_as_xyz
  1  'x, y, z'
loop_
 _atom_site_type_symbol
 _atom_site_label
 _atom_site_symmetry_multiplicity
 _atom_site_fract_x
 _atom_site_fract_y
 _atom_site_fract_z
 _atom_site_occupancy
  Na  Na0  1  0.73702000  0.99579500  0.50812600  1
  Na  Na1  1  0.02064400  0.00491300  0.00351500  1
  Na  Na2  1  0.02026800  0.49867000  0.00337900  1
  Na  Na3  1  0.73321300  0.51956500  0.50897900  1
  Ca  Ca4  1  0.90919900  0.33446200  0.66935900  1
  Ca  Ca5  1  0.53820600  0.65931300  0.32609100  1
  Ca  Ca6  1  0.21743300  0.66314400  0.82360000  1
  Ca  Ca7  1  0.53019300  0.16035400  0.32287100  1
  Ca  Ca8  1  0.80816700  0.83543400  0.17705700  1
  Ca  Ca9  1  0.22510200  0.15739100  0.82228800  1
  Ca  Ca10  1  0.82088100  0.33979900  0.17685500  1
  Ca  Ca11  1  0.94297100  0.83600000  0.67378600  1
  Ti  Ti12  1  0.25789200  0.26253100  0.51655000  1
  Ti  Ti13  1  0.46364000  0.26219100  0.02561400  1
  Ti  Ti14  1  0.59556900  0.73555000  0.97178000  1
  Ti  Ti15  1  0.18124500  0.73374700  0.47432700  1
  Si  Si16  1  0.71319800  0.94332400  0.84758500  1
  Si  Si17  1  0.42214900  0.10012200  0.64784600  1
  Si  Si18  1  0.31127500  0.05793500  0.15319900  1
  Si  Si19  1  0.31290900  0.59473700  0.15184300  1
  Si  Si20  1  0.04350600  0.93632100  0.34711500  1
  Si  Si21  1  0.04400100  0.40285300  0.34954700  1
  Si  Si22  1  0.42549700  0.54946600  0.64895400  1
  Si  Si23  1  0.71361500  0.40491500  0.84436700  1
  O  O24  1  0.29648800  0.72279200  0.95017600  1
  O  O25  1  0.29004800  0.90411800  0.31139400  1
  O  O26  1  0.33570300  0.48153200  0.07264500  1
  O  O27  1  0.32265400  0.22106000  0.94217500  1
  O  O28  1  0.32803000  0.09640700  0.07453100  1
  O  O29  1  0.76392700  0.27369500  0.04718100  1
  O  O30  1  0.68582500  0.60819100  0.66591000  1
  O  O31  1  0.93821300  0.40056600  0.79580800  1
  O  O32  1  0.48130600  0.72528400  0.45350100  1
  O  O33  1  0.38832600  0.48038600  0.56533100  1
  O  O34  1  0.39018400  0.09233700  0.56455100  1
  O  O35  1  0.68010300  0.05429800  0.66614200  1
  O  O36  1  0.94864600  0.89681400  0.80486700  1
  O  O37  1  0.03134800  0.51457100  0.42959500  1
  O  O38  1  0.19660200  0.08501900  0.69315500  1
  O  O39  1  0.73280600  0.91145300  0.92715800  1
  O  O40  1  0.54424100  0.10013200  0.19797800  1
  O  O41  1  0.75145700  0.52780200  0.92121400  1
  O  O42  1  0.46504200  0.90830400  0.81271900  1
  O  O43  1  0.28944100  0.40355700  0.31361900  1
  O  O44  1  0.05637800  0.09052800  0.18330300  1
  O  O45  1  0.95960400  0.27345200  0.54533600  1
  O  O46  1  0.20194700  0.61140300  0.69485800  1
  O  O47  1  0.05541800  0.58930300  0.17931600  1
  O  O48  1  0.40355900  0.21794900  0.43545900  1
  O  O49  1  0.02845000  0.89889600  0.42620700  1
  O  O50  1  0.80805100  0.40963900  0.30613700  1
  O  O51  1  0.05760800  0.78170500  0.55855500  1
  O  O52  1  0.54151900  0.59654200  0.19846300  1
  O  O53  1  0.45858100  0.40403800  0.81411200  1
  O  O54  1  0.80651400  0.88901500  0.30418600  1
  O  O55  1  0.72904200  0.77451500  0.05608000  1
  F  F56  1  0.31493400  0.81697700  0.13220100  1
  F  F57  1  0.99826400  0.17819500  0.36645400  1
  F  F58  1  0.74804300  0.18650700  0.86657100  1
  F  F59  1  0.45690800  0.33749000  0.67448100  1
