# generated using pymatgen
data_Ba5Si8O21
_symmetry_space_group_name_H-M   'P 1'
_cell_length_a   16.83052760
_cell_length_b   16.83052760
_cell_length_c   14.08771753
_cell_angle_alpha   82.07878944
_cell_angle_beta   82.07878944
_cell_angle_gamma   16.32139060
_symmetry_Int_Tables_number   1
_chemical_formula_structural   Ba5Si8O21
_chemical_formula_sum   'Ba10 Si16 O42'
_cell_volume   1110.53156162
_cell_formula_units_Z   2
loop_
 _symmetry_equiv_pos_site_id
 _symmetry_equiv_pos_as_xyz
  1  'x, y, z'
loop_
 _atom_site_type_symbol
 _atom_site_label
 _atom_site_symmetry_multiplicity
 _atom_site_fract_x
 _atom_site_fract_y
 _atom_site_fract_z
 _atom_site_occupancy
  Ba  Ba0  1  0.76279400  0.80090500  0.88437700  1
  Ba  Ba1  1  0.36654600  0.40972200  0.94538200  1
  Ba  Ba2  1  0.23720600  0.19909500  0.11562300  1
  Ba  Ba3  1  0.63345400  0.59027800  0.05461800  1
  Ba  Ba4  1  0.40972200  0.36654600  0.44538200  1
  Ba  Ba5  1  0.00000000  0.00000000  0.50000000  1
  Ba  Ba6  1  0.80090500  0.76279400  0.38437700  1
  Ba  Ba7  1  0.00000000  0.00000000  0.00000000  1
  Ba  Ba8  1  0.19909500  0.23720600  0.61562300  1
  Ba  Ba9  1  0.59027800  0.63345400  0.55461800  1
  Si  Si10  1  0.86060600  0.75330400  0.10203200  1
  Si  Si11  1  0.75330400  0.86060600  0.60203200  1
  Si  Si12  1  0.61138600  0.71830700  0.79046500  1
  Si  Si13  1  0.64195900  0.50085200  0.33828300  1
  Si  Si14  1  0.71830700  0.61138600  0.29046500  1
  Si  Si15  1  0.50085200  0.64195900  0.83828300  1
  Si  Si16  1  0.97363700  0.12453800  0.72293900  1
  Si  Si17  1  0.38861400  0.28169300  0.20953500  1
  Si  Si18  1  0.35804100  0.49914800  0.66171700  1
  Si  Si19  1  0.24669600  0.13939400  0.39796800  1
  Si  Si20  1  0.12453800  0.97363700  0.22293900  1
  Si  Si21  1  0.49914800  0.35804100  0.16171700  1
  Si  Si22  1  0.87546200  0.02636300  0.77706100  1
  Si  Si23  1  0.02636300  0.87546200  0.27706100  1
  Si  Si24  1  0.28169300  0.38861400  0.70953500  1
  Si  Si25  1  0.13939400  0.24669600  0.89796800  1
  O  O26  1  0.16494300  0.96947900  0.80906200  1
  O  O27  1  0.46632800  0.65989900  0.23985000  1
  O  O28  1  0.64075800  0.59801700  0.35283200  1
  O  O29  1  0.05906300  0.94093700  0.25000000  1
  O  O30  1  0.42584400  0.18391100  0.64701800  1
  O  O31  1  0.96947900  0.16494300  0.30906200  1
  O  O32  1  0.65989900  0.46632800  0.73985000  1
  O  O33  1  0.93941800  0.69883200  0.69779500  1
  O  O34  1  0.18391100  0.42584400  0.14701800  1
  O  O35  1  0.14298000  0.17670600  0.99313900  1
  O  O36  1  0.05574400  0.07232800  0.11366000  1
  O  O37  1  0.40198300  0.35924200  0.14716800  1
  O  O38  1  0.06058200  0.30116800  0.30220500  1
  O  O39  1  0.22858800  0.24860800  0.41877300  1
  O  O40  1  0.07232800  0.05574400  0.61366000  1
  O  O41  1  0.94425600  0.92767200  0.88634000  1
  O  O42  1  0.03052100  0.83505700  0.69093800  1
  O  O43  1  0.30116800  0.06058200  0.80220500  1
  O  O44  1  0.45962300  0.45326200  0.56365600  1
  O  O45  1  0.94093700  0.05906300  0.75000000  1
  O  O46  1  0.82329400  0.85702000  0.50686100  1
  O  O47  1  0.81608900  0.57415600  0.85298200  1
  O  O48  1  0.53367200  0.34010100  0.76015000  1
  O  O49  1  0.75139200  0.77141200  0.08122700  1
  O  O50  1  0.54673800  0.54037700  0.93634400  1
  O  O51  1  0.31596800  0.34929400  0.32111500  1
  O  O52  1  0.34010100  0.53367200  0.26015000  1
  O  O53  1  0.59801700  0.64075800  0.85283200  1
  O  O54  1  0.54037700  0.54673800  0.43634400  1
  O  O55  1  0.77141200  0.75139200  0.58122700  1
  O  O56  1  0.35924200  0.40198300  0.64716800  1
  O  O57  1  0.85702000  0.82329400  0.00686100  1
  O  O58  1  0.45326200  0.45962300  0.06365600  1
  O  O59  1  0.68403200  0.65070600  0.67888500  1
  O  O60  1  0.65070600  0.68403200  0.17888500  1
  O  O61  1  0.69883200  0.93941800  0.19779500  1
  O  O62  1  0.92767200  0.94425600  0.38634000  1
  O  O63  1  0.17670600  0.14298000  0.49313900  1
  O  O64  1  0.34929400  0.31596800  0.82111500  1
  O  O65  1  0.83505700  0.03052100  0.19093800  1
  O  O66  1  0.57415600  0.81608900  0.35298200  1
  O  O67  1  0.24860800  0.22858800  0.91877300  1
