# generated using pymatgen
data_TeS2N3Cl5
_symmetry_space_group_name_H-M   'P 1'
_cell_length_a   7.26635000
_cell_length_b   16.25245200
_cell_length_c   19.85902877
_cell_angle_alpha   78.91512736
_cell_angle_beta   90.00000000
_cell_angle_gamma   90.00000000
_symmetry_Int_Tables_number   1
_chemical_formula_structural   TeS2N3Cl5
_chemical_formula_sum   'Te8 S16 N24 Cl40'
_cell_volume   2301.51729214
_cell_formula_units_Z   8
loop_
 _symmetry_equiv_pos_site_id
 _symmetry_equiv_pos_as_xyz
  1  'x, y, z'
loop_
 _atom_site_type_symbol
 _atom_site_label
 _atom_site_symmetry_multiplicity
 _atom_site_fract_x
 _atom_site_fract_y
 _atom_site_fract_z
 _atom_site_occupancy
  Te  Te0  1  0.42847600  0.53452500  0.64927200  1
  Te  Te1  1  0.57152400  0.46547500  0.35072800  1
  Te  Te2  1  0.92847600  0.46547500  0.85072800  1
  Te  Te3  1  0.05825200  0.95532400  0.90591600  1
  Te  Te4  1  0.07152400  0.53452500  0.14927200  1
  Te  Te5  1  0.94174800  0.04467600  0.09408400  1
  Te  Te6  1  0.55825200  0.04467600  0.59408400  1
  Te  Te7  1  0.44174800  0.95532400  0.40591600  1
  S  S8  1  0.90244700  0.13045900  0.34607300  1
  S  S9  1  0.40244700  0.86954100  0.15392700  1
  S  S10  1  0.63808500  0.31860100  0.17517100  1
  S  S11  1  0.50918700  0.16883800  0.93159100  1
  S  S12  1  0.99081300  0.16883800  0.43159100  1
  S  S13  1  0.59755300  0.13045900  0.84607300  1
  S  S14  1  0.13808500  0.68139900  0.32482900  1
  S  S15  1  0.00918700  0.83116200  0.56840900  1
  S  S16  1  0.49081300  0.83116200  0.06840900  1
  S  S17  1  0.31955700  0.66030600  0.92792300  1
  S  S18  1  0.09755300  0.86954100  0.65392700  1
  S  S19  1  0.68044300  0.33969400  0.07207700  1
  S  S20  1  0.81955700  0.33969400  0.57207700  1
  S  S21  1  0.86191500  0.31860100  0.67517100  1
  S  S22  1  0.18044300  0.66030600  0.42792300  1
  S  S23  1  0.36191500  0.68139900  0.82482900  1
  N  N24  1  0.51328100  0.70371900  0.94333600  1
  N  N25  1  0.55890400  0.72815200  0.82939200  1
  N  N26  1  0.01328100  0.29628100  0.55666400  1
  N  N27  1  0.49372600  0.79015600  0.20568100  1
  N  N28  1  0.99372600  0.20984400  0.29431900  1
  N  N29  1  0.44109600  0.27184800  0.17060800  1
  N  N30  1  0.58253300  0.73468900  0.17793900  1
  N  N31  1  0.38353500  0.26439900  0.10959900  1
  N  N32  1  0.41746700  0.26531100  0.82206100  1
  N  N33  1  0.88353500  0.73560100  0.39040100  1
  N  N34  1  0.91746700  0.73468900  0.67793900  1
  N  N35  1  0.11646500  0.26439900  0.60959900  1
  N  N36  1  0.09104900  0.25249100  0.38936100  1
  N  N37  1  0.94109600  0.72815200  0.32939200  1
  N  N38  1  0.48671900  0.29628100  0.05666400  1
  N  N39  1  0.90895100  0.74750900  0.61063900  1
  N  N40  1  0.59104900  0.74750900  0.11063900  1
  N  N41  1  0.40895100  0.25249100  0.88936100  1
  N  N42  1  0.61646500  0.73560100  0.89040100  1
  N  N43  1  0.98671900  0.70371900  0.44333600  1
  N  N44  1  0.50627400  0.20984400  0.79431900  1
  N  N45  1  0.05890400  0.27184800  0.67060800  1
  N  N46  1  0.08253300  0.26531100  0.32206100  1
  N  N47  1  0.00627400  0.79015600  0.70568100  1
  Cl  Cl48  1  0.84304800  0.07961400  0.64649000  1
  Cl  Cl49  1  0.34304800  0.92038600  0.85351000  1
  Cl  Cl50  1  0.39525500  0.42590800  0.45272700  1
  Cl  Cl51  1  0.46587900  0.37832400  0.64111100  1
  Cl  Cl52  1  0.15695200  0.92038600  0.35351000  1
  Cl  Cl53  1  0.86403700  0.46139200  0.41645600  1
  Cl  Cl54  1  0.10169400  0.68797400  0.15630800  1
  Cl  Cl55  1  0.41990000  0.10531800  0.33749300  1
  Cl  Cl56  1  0.86554200  0.92293700  0.81811400  1
  Cl  Cl57  1  0.89525500  0.57409200  0.04727300  1
  Cl  Cl58  1  0.26183400  0.00295800  0.02669600  1
  Cl  Cl59  1  0.10474500  0.42590800  0.95272700  1
  Cl  Cl60  1  0.73816600  0.99704200  0.97330400  1
  Cl  Cl61  1  0.03412100  0.37832400  0.14111100  1
  Cl  Cl62  1  0.53412100  0.62167600  0.35888900  1
  Cl  Cl63  1  0.36554200  0.07706300  0.68188600  1
  Cl  Cl64  1  0.13596300  0.53860800  0.58354400  1
  Cl  Cl65  1  0.96587900  0.62167600  0.85888900  1
  Cl  Cl66  1  0.76183400  0.99704200  0.47330400  1
  Cl  Cl67  1  0.63445800  0.92293700  0.31811400  1
  Cl  Cl68  1  0.63596300  0.46139200  0.91645600  1
  Cl  Cl69  1  0.96267700  0.19317200  0.02829400  1
  Cl  Cl70  1  0.91990000  0.89468200  0.16250700  1
  Cl  Cl71  1  0.58010000  0.89468200  0.66250700  1
  Cl  Cl72  1  0.03732300  0.80682800  0.97170600  1
  Cl  Cl73  1  0.24533100  0.47836500  0.78133600  1
  Cl  Cl74  1  0.39830600  0.68797400  0.65630800  1
  Cl  Cl75  1  0.46267700  0.80682800  0.47170600  1
  Cl  Cl76  1  0.65695200  0.07961400  0.14649000  1
  Cl  Cl77  1  0.53732300  0.19317200  0.52829400  1
  Cl  Cl78  1  0.25466900  0.47836500  0.28133600  1
  Cl  Cl79  1  0.13445800  0.07706300  0.18188600  1
  Cl  Cl80  1  0.89830600  0.31202600  0.84369200  1
  Cl  Cl81  1  0.23816600  0.00295800  0.52669600  1
  Cl  Cl82  1  0.60474500  0.57409200  0.54727300  1
  Cl  Cl83  1  0.75466900  0.52163500  0.21866400  1
  Cl  Cl84  1  0.74533100  0.52163500  0.71866400  1
  Cl  Cl85  1  0.08010000  0.10531800  0.83749300  1
  Cl  Cl86  1  0.36403700  0.53860800  0.08354400  1
  Cl  Cl87  1  0.60169400  0.31202600  0.34369200  1
