# generated using pymatgen
data_K3Ce2(NO3)9
_symmetry_space_group_name_H-M   'P 1'
_cell_length_a   13.67257600
_cell_length_b   13.67257600
_cell_length_c   13.67257600
_cell_angle_alpha   90.00000000
_cell_angle_beta   90.00000000
_cell_angle_gamma   90.00000000
_symmetry_Int_Tables_number   1
_chemical_formula_structural   K3Ce2(NO3)9
_chemical_formula_sum   'K12 Ce8 N36 O108'
_cell_volume   2555.94225801
_cell_formula_units_Z   4
loop_
 _symmetry_equiv_pos_site_id
 _symmetry_equiv_pos_as_xyz
  1  'x, y, z'
loop_
 _atom_site_type_symbol
 _atom_site_label
 _atom_site_symmetry_multiplicity
 _atom_site_fract_x
 _atom_site_fract_y
 _atom_site_fract_z
 _atom_site_occupancy
  K  K0  1  0.18747000  0.56253000  0.37500000  1
  K  K1  1  0.56253000  0.37500000  0.18747000  1
  K  K2  1  0.93747000  0.62500000  0.68747000  1
  K  K3  1  0.37500000  0.18747000  0.56253000  1
  K  K4  1  0.81253000  0.06253000  0.12500000  1
  K  K5  1  0.68747000  0.93747000  0.62500000  1
  K  K6  1  0.12500000  0.81253000  0.06253000  1
  K  K7  1  0.43747000  0.87500000  0.31253000  1
  K  K8  1  0.62500000  0.68747000  0.93747000  1
  K  K9  1  0.87500000  0.31253000  0.43747000  1
  K  K10  1  0.06253000  0.12500000  0.81253000  1
  K  K11  1  0.31253000  0.43747000  0.87500000  1
  Ce  Ce12  1  0.54913000  0.54913000  0.54913000  1
  Ce  Ce13  1  0.95087000  0.45087000  0.04913000  1
  Ce  Ce14  1  0.04913000  0.95087000  0.45087000  1
  Ce  Ce15  1  0.45087000  0.04913000  0.95087000  1
  Ce  Ce16  1  0.29913000  0.79913000  0.70087000  1
  Ce  Ce17  1  0.79913000  0.70087000  0.29913000  1
  Ce  Ce18  1  0.70087000  0.29913000  0.79913000  1
  Ce  Ce19  1  0.20087000  0.20087000  0.20087000  1
  N  N20  1  0.61080600  0.16249900  0.64941900  1
  N  N21  1  0.87500000  0.48725600  0.26274400  1
  N  N22  1  0.76274400  0.62500000  0.51274400  1
  N  N23  1  0.10058100  0.58750100  0.13919400  1
  N  N24  1  0.33750100  0.35058100  0.11080600  1
  N  N25  1  0.88919400  0.83750100  0.14941900  1
  N  N26  1  0.62500000  0.51274400  0.76274400  1
  N  N27  1  0.58750100  0.13919400  0.10058100  1
  N  N28  1  0.12500000  0.98725600  0.23725600  1
  N  N29  1  0.91249900  0.86080600  0.60058100  1
  N  N30  1  0.73725600  0.37500000  0.01274400  1
  N  N31  1  0.13919400  0.10058100  0.58750100  1
  N  N32  1  0.11080600  0.33750100  0.35058100  1
  N  N33  1  0.37500000  0.01274400  0.73725600  1
  N  N34  1  0.08750100  0.36080600  0.89941900  1
  N  N35  1  0.89941900  0.08750100  0.36080600  1
  N  N36  1  0.41249900  0.63919400  0.39941900  1
  N  N37  1  0.48725600  0.26274400  0.87500000  1
  N  N38  1  0.38919400  0.66249900  0.85058100  1
  N  N39  1  0.64941900  0.61080600  0.16249900  1
  N  N40  1  0.83750100  0.14941900  0.88919400  1
  N  N41  1  0.23725600  0.12500000  0.98725600  1
  N  N42  1  0.16249900  0.64941900  0.61080600  1
  N  N43  1  0.51274400  0.76274400  0.62500000  1
  N  N44  1  0.60058100  0.91249900  0.86080600  1
  N  N45  1  0.66249900  0.85058100  0.38919400  1
  N  N46  1  0.01274400  0.73725600  0.37500000  1
  N  N47  1  0.14941900  0.88919400  0.83750100  1
  N  N48  1  0.36080600  0.89941900  0.08750100  1
  N  N49  1  0.86080600  0.60058100  0.91249900  1
  N  N50  1  0.39941900  0.41249900  0.63919400  1
  N  N51  1  0.85058100  0.38919400  0.66249900  1
  N  N52  1  0.98725600  0.23725600  0.12500000  1
  N  N53  1  0.63919400  0.39941900  0.41249900  1
  N  N54  1  0.35058100  0.11080600  0.33750100  1
  N  N55  1  0.26274400  0.87500000  0.48725600  1
  O  O56  1  0.14505100  0.32142200  0.84104800  1
  O  O57  1  0.33275600  0.07446700  0.25305500  1
  O  O58  1  0.83275600  0.42553300  0.74694500  1
  O  O59  1  0.32142200  0.84104800  0.14505100  1
  O  O60  1  0.57142200  0.10494900  0.59104800  1
  O  O61  1  0.90895200  0.42857800  0.60494900  1
  O  O62  1  0.11003700  0.43982900  0.94468800  1
  O  O63  1  0.05418400  0.30418400  0.12500000  1
  O  O64  1  0.99694500  0.82446700  0.58275600  1
  O  O65  1  0.65895200  0.85494900  0.82142200  1
  O  O66  1  0.74141000  0.59291900  0.59595900  1
  O  O67  1  0.57446700  0.24694500  0.66724400  1
  O  O68  1  0.13996300  0.69468800  0.68982900  1
  O  O69  1  0.09291900  0.90404100  0.25859000  1
  O  O70  1  0.36003700  0.30531200  0.18982900  1
  O  O71  1  0.99141000  0.65404100  0.34291900  1
  O  O72  1  0.65708100  0.49141000  0.84595900  1
  O  O73  1  0.07446700  0.25305500  0.33275600  1
  O  O74  1  0.25305500  0.33275600  0.07446700  1
  O  O75  1  0.64505100  0.17857800  0.15895200  1
  O  O76  1  0.15895200  0.64505100  0.17857800  1
  O  O77  1  0.35494900  0.67857800  0.34104800  1
  O  O78  1  0.42857800  0.60494900  0.90895200  1
  O  O79  1  0.82446700  0.58275600  0.99694500  1
  O  O80  1  0.56017100  0.44468800  0.38996300  1
  O  O81  1  0.55531200  0.88996300  0.93982900  1
  O  O82  1  0.90708100  0.40404100  0.24141000  1
  O  O83  1  0.94468800  0.11003700  0.43982900  1
  O  O84  1  0.62500000  0.44581600  0.69581600  1
  O  O85  1  0.92857800  0.89505100  0.09104800  1
  O  O86  1  0.67553300  0.41724400  0.49694500  1
  O  O87  1  0.89505100  0.09104800  0.92857800  1
  O  O88  1  0.93982900  0.55531200  0.88996300  1
  O  O89  1  0.30531200  0.18982900  0.36003700  1
  O  O90  1  0.84595900  0.65708100  0.49141000  1
  O  O91  1  0.09595900  0.75859000  0.40708100  1
  O  O92  1  0.69581600  0.62500000  0.44581600  1
  O  O93  1  0.15404100  0.15708100  0.00859000  1
  O  O94  1  0.25859000  0.09291900  0.90404100  1
  O  O95  1  0.81017100  0.86003700  0.19468800  1
  O  O96  1  0.12500000  0.05418400  0.30418400  1
  O  O97  1  0.59595900  0.74141000  0.59291900  1
  O  O98  1  0.60494900  0.90895200  0.42857800  1
  O  O99  1  0.19468800  0.81017100  0.86003700  1
  O  O100  1  0.40708100  0.09595900  0.75859000  1
  O  O101  1  0.85494900  0.82142200  0.65895200  1
  O  O102  1  0.32446700  0.91724400  0.00305500  1
  O  O103  1  0.49141000  0.84595900  0.65708100  1
  O  O104  1  0.24694500  0.66724400  0.57446700  1
  O  O105  1  0.10494900  0.59104800  0.57142200  1
  O  O106  1  0.84104800  0.14505100  0.32142200  1
  O  O107  1  0.84291900  0.50859000  0.34595900  1
  O  O108  1  0.41724400  0.49694500  0.67553300  1
  O  O109  1  0.61003700  0.06017100  0.05531200  1
  O  O110  1  0.80418400  0.37500000  0.94581600  1
  O  O111  1  0.94581600  0.80418400  0.37500000  1
  O  O112  1  0.06017100  0.05531200  0.61003700  1
  O  O113  1  0.17857800  0.15895200  0.64505100  1
  O  O114  1  0.34291900  0.99141000  0.65404100  1
  O  O115  1  0.05531200  0.61003700  0.06017100  1
  O  O116  1  0.66724400  0.57446700  0.24694500  1
  O  O117  1  0.44581600  0.69581600  0.62500000  1
  O  O118  1  0.34595900  0.84291900  0.50859000  1
  O  O119  1  0.75859000  0.40708100  0.09595900  1
  O  O120  1  0.34104800  0.35494900  0.67857800  1
  O  O121  1  0.82142200  0.65895200  0.85494900  1
  O  O122  1  0.16724400  0.92553300  0.75305500  1
  O  O123  1  0.37500000  0.94581600  0.80418400  1
  O  O124  1  0.55418400  0.19581600  0.87500000  1
  O  O125  1  0.42553300  0.74694500  0.83275600  1
  O  O126  1  0.30418400  0.12500000  0.05418400  1
  O  O127  1  0.87500000  0.55418400  0.19581600  1
  O  O128  1  0.88996300  0.93982900  0.55531200  1
  O  O129  1  0.59104800  0.57142200  0.10494900  1
  O  O130  1  0.17553300  0.08275600  0.50305500  1
  O  O131  1  0.38996300  0.56017100  0.44468800  1
  O  O132  1  0.50305500  0.17553300  0.08275600  1
  O  O133  1  0.19581600  0.87500000  0.55418400  1
  O  O134  1  0.40404100  0.24141000  0.90708100  1
  O  O135  1  0.18982900  0.36003700  0.30531200  1
  O  O136  1  0.58275600  0.99694500  0.82446700  1
  O  O137  1  0.90404100  0.25859000  0.09291900  1
  O  O138  1  0.08275600  0.50305500  0.17553300  1
  O  O139  1  0.75305500  0.16724400  0.92553300  1
  O  O140  1  0.39505100  0.40895200  0.07142200  1
  O  O141  1  0.92553300  0.75305500  0.16724400  1
  O  O142  1  0.80531200  0.31017100  0.63996300  1
  O  O143  1  0.74694500  0.83275600  0.42553300  1
  O  O144  1  0.65404100  0.34291900  0.99141000  1
  O  O145  1  0.63996300  0.80531200  0.31017100  1
  O  O146  1  0.07142200  0.39505100  0.40895200  1
  O  O147  1  0.09104800  0.92857800  0.89505100  1
  O  O148  1  0.50859000  0.34595900  0.84291900  1
  O  O149  1  0.00305500  0.32446700  0.91724400  1
  O  O150  1  0.68982900  0.13996300  0.69468800  1
  O  O151  1  0.44468800  0.38996300  0.56017100  1
  O  O152  1  0.91724400  0.00305500  0.32446700  1
  O  O153  1  0.43982900  0.94468800  0.11003700  1
  O  O154  1  0.24141000  0.90708100  0.40404100  1
  O  O155  1  0.00859000  0.15404100  0.15708100  1
  O  O156  1  0.31017100  0.63996300  0.80531200  1
  O  O157  1  0.15708100  0.00859000  0.15404100  1
  O  O158  1  0.67857800  0.34104800  0.35494900  1
  O  O159  1  0.86003700  0.19468800  0.81017100  1
  O  O160  1  0.59291900  0.59595900  0.74141000  1
  O  O161  1  0.69468800  0.68982900  0.13996300  1
  O  O162  1  0.49694500  0.67553300  0.41724400  1
  O  O163  1  0.40895200  0.07142200  0.39505100  1
