# generated using pymatgen
data_C
_symmetry_space_group_name_H-M   'P 1'
_cell_length_a   9.91610912
_cell_length_b   9.91610912
_cell_length_c   9.91610912
_cell_angle_alpha   60.00000000
_cell_angle_beta   60.00000000
_cell_angle_gamma   60.00000000
_symmetry_Int_Tables_number   1
_chemical_formula_structural   C
_chemical_formula_sum   C60
_cell_volume   689.45971189
_cell_formula_units_Z   60
loop_
 _symmetry_equiv_pos_site_id
 _symmetry_equiv_pos_as_xyz
  1  'x, y, z'
loop_
 _atom_site_type_symbol
 _atom_site_label
 _atom_site_symmetry_multiplicity
 _atom_site_fract_x
 _atom_site_fract_y
 _atom_site_fract_z
 _atom_site_occupancy
  C  C0  1  0.42695800  0.20215700  0.90145700  1
  C  C1  1  0.09854300  0.53057200  0.57304200  1
  C  C2  1  0.90161800  0.26583100  0.30143800  1
  C  C3  1  0.20215700  0.90145700  0.42695800  1
  C  C4  1  0.57304200  0.53057200  0.79784300  1
  C  C5  1  0.73416900  0.09838200  0.46888700  1
  C  C6  1  0.90145700  0.42695800  0.20215700  1
  C  C7  1  0.69856200  0.09838200  0.73416900  1
  C  C8  1  0.69900200  0.20094100  0.79905900  1
  C  C9  1  0.46888700  0.09838200  0.69856200  1
  C  C10  1  0.79784300  0.53057200  0.09854300  1
  C  C11  1  0.53111300  0.90161800  0.30143800  1
  C  C12  1  0.79905900  0.20094100  0.30099800  1
  C  C13  1  0.53057200  0.57304200  0.09854300  1
  C  C14  1  0.46942800  0.20215700  0.42695800  1
  C  C15  1  0.09854300  0.57304200  0.79784300  1
  C  C16  1  0.46888700  0.73416900  0.09838200  1
  C  C17  1  0.42695800  0.90145700  0.46942800  1
  C  C18  1  0.57304200  0.09854300  0.53057200  1
  C  C19  1  0.53057200  0.09854300  0.79784300  1
  C  C20  1  0.30143800  0.26583100  0.53111300  1
  C  C21  1  0.09854300  0.79784300  0.53057200  1
  C  C22  1  0.20094100  0.79905900  0.69900200  1
  C  C23  1  0.09838200  0.46888700  0.73416900  1
  C  C24  1  0.26583100  0.90161800  0.53111300  1
  C  C25  1  0.20215700  0.46942800  0.90145700  1
  C  C26  1  0.90145700  0.46942800  0.42695800  1
  C  C27  1  0.30099800  0.79905900  0.20094100  1
  C  C28  1  0.30143800  0.90161800  0.26583100  1
  C  C29  1  0.53057200  0.79784300  0.57304200  1
  C  C30  1  0.26583100  0.53111300  0.30143800  1
  C  C31  1  0.30143800  0.53111300  0.90161800  1
  C  C32  1  0.09838200  0.69856200  0.46888700  1
  C  C33  1  0.20094100  0.69900200  0.30099800  1
  C  C34  1  0.46888700  0.69856200  0.73416900  1
  C  C35  1  0.57304200  0.79784300  0.09854300  1
  C  C36  1  0.30099800  0.20094100  0.69900200  1
  C  C37  1  0.53111300  0.26583100  0.90161800  1
  C  C38  1  0.73416900  0.46888700  0.69856200  1
  C  C39  1  0.26583100  0.30143800  0.90161800  1
  C  C40  1  0.20215700  0.42695800  0.46942800  1
  C  C41  1  0.90161800  0.30143800  0.53111300  1
  C  C42  1  0.79905900  0.30099800  0.69900200  1
  C  C43  1  0.69856200  0.46888700  0.09838200  1
  C  C44  1  0.30099800  0.69900200  0.79905900  1
  C  C45  1  0.73416900  0.69856200  0.09838200  1
  C  C46  1  0.90145700  0.20215700  0.46942800  1
  C  C47  1  0.46942800  0.42695800  0.90145700  1
  C  C48  1  0.69856200  0.73416900  0.46888700  1
  C  C49  1  0.69900200  0.30099800  0.20094100  1
  C  C50  1  0.79905900  0.69900200  0.20094100  1
  C  C51  1  0.79784300  0.57304200  0.53057200  1
  C  C52  1  0.79784300  0.09854300  0.57304200  1
  C  C53  1  0.53111300  0.30143800  0.26583100  1
  C  C54  1  0.90161800  0.53111300  0.26583100  1
  C  C55  1  0.42695800  0.46942800  0.20215700  1
  C  C56  1  0.09838200  0.73416900  0.69856200  1
  C  C57  1  0.69900200  0.79905900  0.30099800  1
  C  C58  1  0.46942800  0.90145700  0.20215700  1
  C  C59  1  0.20094100  0.30099800  0.79905900  1
