# generated using pymatgen
data_Mn(GaS2)2
_symmetry_space_group_name_H-M   'P 1'
_cell_length_a   6.44441900
_cell_length_b   12.39767293
_cell_length_c   13.06592423
_cell_angle_alpha   115.35019666
_cell_angle_beta   99.04049376
_cell_angle_gamma   100.83049237
_symmetry_Int_Tables_number   1
_chemical_formula_structural   Mn(GaS2)2
_chemical_formula_sum   'Mn6 Ga12 S24'
_cell_volume   892.77788083
_cell_formula_units_Z   6
loop_
 _symmetry_equiv_pos_site_id
 _symmetry_equiv_pos_as_xyz
  1  'x, y, z'
loop_
 _atom_site_type_symbol
 _atom_site_label
 _atom_site_symmetry_multiplicity
 _atom_site_fract_x
 _atom_site_fract_y
 _atom_site_fract_z
 _atom_site_occupancy
  Mn  Mn0  1  0.46359700  0.21641500  0.43399900  1
  Mn  Mn1  1  0.11979100  0.86938900  0.74000000  1
  Mn  Mn2  1  0.53640300  0.78358500  0.56600100  1
  Mn  Mn3  1  0.70532900  0.95688900  0.91244300  1
  Mn  Mn4  1  0.29467100  0.04311100  0.08755700  1
  Mn  Mn5  1  0.88020900  0.13061100  0.26000000  1
  Ga  Ga6  1  0.29342800  0.67196300  0.91935700  1
  Ga  Ga7  1  0.45388000  0.83312700  0.25218100  1
  Ga  Ga8  1  0.30087400  0.41751900  0.25082000  1
  Ga  Ga9  1  0.70657200  0.32803700  0.08064300  1
  Ga  Ga10  1  0.03414400  0.88725500  0.40246800  1
  Ga  Ga11  1  0.12943700  0.24606700  0.91846700  1
  Ga  Ga12  1  0.96585600  0.11274500  0.59753200  1
  Ga  Ga13  1  0.87242600  0.51824000  0.40228900  1
  Ga  Ga14  1  0.12757400  0.48176000  0.59771100  1
  Ga  Ga15  1  0.54612000  0.16687300  0.74781900  1
  Ga  Ga16  1  0.69912600  0.58248100  0.74918000  1
  Ga  Ga17  1  0.87056300  0.75393300  0.08153300  1
  S  S18  1  0.74667300  0.74342500  0.23741400  1
  S  S19  1  0.25332700  0.25657500  0.76258600  1
  S  S20  1  0.42663200  0.41404500  0.60321500  1
  S  S21  1  0.67093100  0.15019300  0.08820300  1
  S  S22  1  0.59610400  0.59103000  0.91816500  1
  S  S23  1  0.07963800  0.05996900  0.91052100  1
  S  S24  1  0.01068400  0.50802700  0.76434200  1
  S  S25  1  0.25610600  0.23860700  0.26377900  1
  S  S26  1  0.82485200  0.32567900  0.91808100  1
  S  S27  1  0.98931600  0.49197300  0.23565800  1
  S  S28  1  0.91705300  0.91174900  0.56906400  1
  S  S29  1  0.92036200  0.94003100  0.08947900  1
  S  S30  1  0.08294700  0.08825100  0.43093600  1
  S  S31  1  0.40389600  0.40897000  0.08183500  1
  S  S32  1  0.32906900  0.84980700  0.91179700  1
  S  S33  1  0.84543600  0.34533400  0.43313800  1
  S  S34  1  0.57336800  0.58595500  0.39678500  1
  S  S35  1  0.49652000  0.97516500  0.73620000  1
  S  S36  1  0.32469700  0.81049400  0.39700600  1
  S  S37  1  0.50348000  0.02483500  0.26380000  1
  S  S38  1  0.74389400  0.76139300  0.73622100  1
  S  S39  1  0.15456400  0.65466600  0.56686200  1
  S  S40  1  0.17514800  0.67432100  0.08191900  1
  S  S41  1  0.67530300  0.18950600  0.60299400  1
