# generated using pymatgen
data_AlPO4
_symmetry_space_group_name_H-M   'P 1'
_cell_length_a   18.32587707
_cell_length_b   18.32587707
_cell_length_c   8.57018800
_cell_angle_alpha   90.00000000
_cell_angle_beta   90.00000000
_cell_angle_gamma   131.81257522
_symmetry_Int_Tables_number   1
_chemical_formula_structural   AlPO4
_chemical_formula_sum   'Al18 P18 O72'
_cell_volume   2145.20257499
_cell_formula_units_Z   18
loop_
 _symmetry_equiv_pos_site_id
 _symmetry_equiv_pos_as_xyz
  1  'x, y, z'
loop_
 _atom_site_type_symbol
 _atom_site_label
 _atom_site_symmetry_multiplicity
 _atom_site_fract_x
 _atom_site_fract_y
 _atom_site_fract_z
 _atom_site_occupancy
  Al  Al0  1  0.07452400  0.07452400  0.05148300  1
  Al  Al1  1  0.80248800  0.96592000  0.02357800  1
  Al  Al2  1  0.96592000  0.80248800  0.02357800  1
  Al  Al3  1  0.40979900  0.77549100  0.03003500  1
  Al  Al4  1  0.22450900  0.59020100  0.53003500  1
  Al  Al5  1  0.67085600  0.12397700  0.02703200  1
  Al  Al6  1  0.36214900  0.05776100  0.03181800  1
  Al  Al7  1  0.94223900  0.63785100  0.53181800  1
  Al  Al8  1  0.12397700  0.67085600  0.02703200  1
  Al  Al9  1  0.87602300  0.32914400  0.52703200  1
  Al  Al10  1  0.05776100  0.36214900  0.03181800  1
  Al  Al11  1  0.32914400  0.87602300  0.52703200  1
  Al  Al12  1  0.77549100  0.40979900  0.03003500  1
  Al  Al13  1  0.92547600  0.92547600  0.55148300  1
  Al  Al14  1  0.63785100  0.94223900  0.53181800  1
  Al  Al15  1  0.19751200  0.03408000  0.52357800  1
  Al  Al16  1  0.03408000  0.19751200  0.52357800  1
  Al  Al17  1  0.59020100  0.22450900  0.53003500  1
  P  P18  1  0.57788700  0.21699500  0.91201600  1
  P  P19  1  0.62049700  0.93201300  0.90376400  1
  P  P20  1  0.12435900  0.12435900  0.41849800  1
  P  P21  1  0.00211200  0.16598600  0.89038300  1
  P  P22  1  0.37950300  0.06798700  0.40376400  1
  P  P23  1  0.42211300  0.78300500  0.41201600  1
  P  P24  1  0.31746900  0.86845100  0.90907800  1
  P  P25  1  0.16598600  0.00211200  0.89038300  1
  P  P26  1  0.06798700  0.37950300  0.40376400  1
  P  P27  1  0.13154900  0.68253100  0.40907800  1
  P  P28  1  0.86845100  0.31746900  0.90907800  1
  P  P29  1  0.78300500  0.42211300  0.41201600  1
  P  P30  1  0.87564100  0.87564100  0.91849800  1
  P  P31  1  0.83401400  0.99788800  0.39038300  1
  P  P32  1  0.68253100  0.13154900  0.40907800  1
  P  P33  1  0.21699500  0.57788700  0.91201600  1
  P  P34  1  0.99788800  0.83401400  0.39038300  1
  P  P35  1  0.93201300  0.62049700  0.90376400  1
  O  O36  1  0.16957000  0.48046700  0.43245700  1
  O  O37  1  0.67634700  0.34759400  0.47016100  1
  O  O38  1  0.92213700  0.10558800  0.42956700  1
  O  O39  1  0.69459100  0.94399800  0.01243200  1
  O  O40  1  0.97147400  0.73747900  0.43154800  1
  O  O41  1  0.98522500  0.83879900  0.21638100  1
  O  O42  1  0.21497800  0.13691800  0.45265300  1
  O  O43  1  0.89441200  0.07786300  0.92956700  1
  O  O44  1  0.16120100  0.01477500  0.71638100  1
  O  O45  1  0.51953300  0.83043000  0.93245700  1
  O  O46  1  0.34759400  0.67634700  0.47016100  1
  O  O47  1  0.65240600  0.32365300  0.97016100  1
  O  O48  1  0.48046700  0.16957000  0.43245700  1
  O  O49  1  0.88233900  0.32777600  0.73097400  1
  O  O50  1  0.09509600  0.09509600  0.24850200  1
  O  O51  1  0.11766100  0.67222400  0.23097400  1
  O  O52  1  0.63514600  0.03360900  0.48768100  1
  O  O53  1  0.01477500  0.16120100  0.71638100  1
  O  O54  1  0.83043000  0.51953300  0.93245700  1
  O  O55  1  0.90490400  0.90490400  0.74850200  1
  O  O56  1  0.62932500  0.16458600  0.46678600  1
  O  O57  1  0.07786300  0.89441200  0.92956700  1
  O  O58  1  0.07288100  0.16201100  0.97820900  1
  O  O59  1  0.83021900  0.52406000  0.47474700  1
  O  O60  1  0.79146500  0.20804500  0.95370700  1
  O  O61  1  0.02852600  0.26252100  0.93154800  1
  O  O62  1  0.65127500  0.93985100  0.73331100  1
  O  O63  1  0.67222400  0.11766100  0.23097400  1
  O  O64  1  0.34872500  0.06014900  0.23331100  1
  O  O65  1  0.16201100  0.07288100  0.97820900  1
  O  O66  1  0.78496100  0.42532600  0.23267100  1
  O  O67  1  0.37067500  0.83541400  0.96678600  1
  O  O68  1  0.93985100  0.65127500  0.73331100  1
  O  O69  1  0.42532600  0.78496100  0.23267100  1
  O  O70  1  0.73747900  0.97147400  0.43154800  1
  O  O71  1  0.01114000  0.61590600  0.94057300  1
  O  O72  1  0.32777600  0.88233900  0.73097400  1
  O  O73  1  0.04109200  0.04109200  0.52572800  1
  O  O74  1  0.30540900  0.05600200  0.51243200  1
  O  O75  1  0.10558800  0.92213700  0.42956700  1
  O  O76  1  0.32365300  0.65240600  0.97016100  1
  O  O77  1  0.03360900  0.63514600  0.48768100  1
  O  O78  1  0.52406000  0.83021900  0.47474700  1
  O  O79  1  0.16458600  0.62932500  0.46678600  1
  O  O80  1  0.86308200  0.78502200  0.95265300  1
  O  O81  1  0.15974000  0.60671400  0.97103200  1
  O  O82  1  0.05600200  0.30540900  0.51243200  1
  O  O83  1  0.83541400  0.37067500  0.96678600  1
  O  O84  1  0.36485400  0.96639100  0.98768100  1
  O  O85  1  0.57467400  0.21503900  0.73267100  1
  O  O86  1  0.83798900  0.92711900  0.47820900  1
  O  O87  1  0.95890800  0.95890800  0.02572800  1
  O  O88  1  0.78502200  0.86308200  0.95265300  1
  O  O89  1  0.21503900  0.57467400  0.73267100  1
  O  O90  1  0.61590600  0.01114000  0.94057300  1
  O  O91  1  0.13691800  0.21497800  0.45265300  1
  O  O92  1  0.60671400  0.15974000  0.97103200  1
  O  O93  1  0.26252100  0.02852600  0.93154800  1
  O  O94  1  0.98886000  0.38409400  0.44057300  1
  O  O95  1  0.96639100  0.36485400  0.98768100  1
  O  O96  1  0.79195500  0.20853500  0.45370700  1
  O  O97  1  0.83879900  0.98522500  0.21638100  1
  O  O98  1  0.16978100  0.47594000  0.97474700  1
  O  O99  1  0.47594000  0.16978100  0.97474700  1
  O  O100  1  0.38409400  0.98886000  0.44057300  1
  O  O101  1  0.39328600  0.84026000  0.47103200  1
  O  O102  1  0.92711900  0.83798900  0.47820900  1
  O  O103  1  0.20853500  0.79195500  0.45370700  1
  O  O104  1  0.20804500  0.79146500  0.95370700  1
  O  O105  1  0.94399800  0.69459100  0.01243200  1
  O  O106  1  0.84026000  0.39328600  0.47103200  1
  O  O107  1  0.06014900  0.34872500  0.23331100  1
