# generated using pymatgen
data_PbI2
_symmetry_space_group_name_H-M   'P 1'
_cell_length_a   22.11188106
_cell_length_b   22.11188106
_cell_length_c   22.11188068
_cell_angle_alpha   12.15580045
_cell_angle_beta   12.15580045
_cell_angle_gamma   12.15580168
_symmetry_Int_Tables_number   1
_chemical_formula_structural   PbI2
_chemical_formula_sum   'Pb3 I6'
_cell_volume   416.70587722
_cell_formula_units_Z   3
loop_
 _symmetry_equiv_pos_site_id
 _symmetry_equiv_pos_as_xyz
  1  'x, y, z'
loop_
 _atom_site_type_symbol
 _atom_site_label
 _atom_site_symmetry_multiplicity
 _atom_site_fract_x
 _atom_site_fract_y
 _atom_site_fract_z
 _atom_site_occupancy
  Pb  Pb0  1  0.00000000  0.00000000  0.00000000  1
  Pb  Pb1  1  0.55554000  0.55554000  0.55554000  1
  Pb  Pb2  1  0.44446000  0.44446000  0.44446000  1
  I  I3  1  0.08234300  0.08234300  0.08234300  1
  I  I4  1  0.30458100  0.30458100  0.30458100  1
  I  I5  1  0.80658700  0.80658700  0.80658700  1
  I  I6  1  0.19341300  0.19341300  0.19341300  1
  I  I7  1  0.91765700  0.91765700  0.91765700  1
  I  I8  1  0.69541900  0.69541900  0.69541900  1
