# generated using pymatgen
data_Gd(C2N3)3
_symmetry_space_group_name_H-M   'P 1'
_cell_length_a   6.99078719
_cell_length_b   6.99078719
_cell_length_c   10.29520200
_cell_angle_alpha   90.00000000
_cell_angle_beta   90.00000000
_cell_angle_gamma   111.94458138
_symmetry_Int_Tables_number   1
_chemical_formula_structural   Gd(C2N3)3
_chemical_formula_sum   'Gd2 C12 N18'
_cell_volume   466.68342572
_cell_formula_units_Z   2
loop_
 _symmetry_equiv_pos_site_id
 _symmetry_equiv_pos_as_xyz
  1  'x, y, z'
loop_
 _atom_site_type_symbol
 _atom_site_label
 _atom_site_symmetry_multiplicity
 _atom_site_fract_x
 _atom_site_fract_y
 _atom_site_fract_z
 _atom_site_occupancy
  Gd  Gd0  1  0.28537600  0.71462400  0.75000000  1
  Gd  Gd1  1  0.71462400  0.28537600  0.25000000  1
  C  C2  1  0.99643700  0.29123200  0.55209100  1
  C  C3  1  0.44180800  0.27369200  0.75000000  1
  C  C4  1  0.55819200  0.72630800  0.25000000  1
  C  C5  1  0.70876800  0.00356300  0.94790900  1
  C  C6  1  0.29123200  0.99643700  0.44790900  1
  C  C7  1  0.29123200  0.99643700  0.05209100  1
  C  C8  1  0.00356300  0.70876800  0.05209100  1
  C  C9  1  0.00356300  0.70876800  0.44790900  1
  C  C10  1  0.70876800  0.00356300  0.55209100  1
  C  C11  1  0.72630800  0.55819200  0.75000000  1
  C  C12  1  0.27369200  0.44180800  0.25000000  1
  C  C13  1  0.99643700  0.29123200  0.94790900  1
  N  N14  1  0.41729700  0.14089200  0.39907300  1
  N  N15  1  0.35903500  0.09274300  0.75000000  1
  N  N16  1  0.84080300  0.15919700  0.48992500  1
  N  N17  1  0.58270300  0.85910800  0.89907300  1
  N  N18  1  0.09274300  0.35903500  0.25000000  1
  N  N19  1  0.85910800  0.58270300  0.39907300  1
  N  N20  1  0.14089200  0.41729700  0.89907300  1
  N  N21  1  0.90725700  0.64096500  0.75000000  1
  N  N22  1  0.84080300  0.15919700  0.01007500  1
  N  N23  1  0.14089200  0.41729700  0.60092700  1
  N  N24  1  0.15919700  0.84080300  0.98992500  1
  N  N25  1  0.41729700  0.14089200  0.10092700  1
  N  N26  1  0.58270300  0.85910800  0.60092700  1
  N  N27  1  0.85910800  0.58270300  0.10092700  1
  N  N28  1  0.15919700  0.84080300  0.51007500  1
  N  N29  1  0.64096500  0.90725700  0.25000000  1
  N  N30  1  0.52524100  0.47475900  0.75000000  1
  N  N31  1  0.47475900  0.52524100  0.25000000  1
