# generated using pymatgen
data_KAu(CN)2
_symmetry_space_group_name_H-M   'P 1'
_cell_length_a   9.64060804
_cell_length_b   9.64060804
_cell_length_c   9.64060735
_cell_angle_alpha   46.30765866
_cell_angle_beta   46.30765866
_cell_angle_gamma   46.30766090
_symmetry_Int_Tables_number   1
_chemical_formula_structural   KAu(CN)2
_chemical_formula_sum   'K3 Au3 C6 N6'
_cell_volume   427.56736547
_cell_formula_units_Z   3
loop_
 _symmetry_equiv_pos_site_id
 _symmetry_equiv_pos_as_xyz
  1  'x, y, z'
loop_
 _atom_site_type_symbol
 _atom_site_label
 _atom_site_symmetry_multiplicity
 _atom_site_fract_x
 _atom_site_fract_y
 _atom_site_fract_z
 _atom_site_occupancy
  K  K0  1  0.00000000  0.00000000  0.00000000  1
  K  K1  1  0.65605900  0.65605900  0.65605900  1
  K  K2  1  0.34394100  0.34394100  0.34394100  1
  Au  Au3  1  0.50000000  0.00000000  0.00000000  1
  Au  Au4  1  0.00000000  0.50000000  0.00000000  1
  Au  Au5  1  0.00000000  0.00000000  0.50000000  1
  C  C6  1  0.97952600  0.56615500  0.17018700  1
  C  C7  1  0.17018700  0.97952600  0.56615500  1
  C  C8  1  0.56615500  0.17018700  0.97952600  1
  C  C9  1  0.02047400  0.43384500  0.82981300  1
  C  C10  1  0.82981300  0.02047400  0.43384500  1
  C  C11  1  0.43384500  0.82981300  0.02047400  1
  N  N12  1  0.96714900  0.60478100  0.27119500  1
  N  N13  1  0.27119500  0.96714900  0.60478100  1
  N  N14  1  0.60478100  0.27119500  0.96714900  1
  N  N15  1  0.03285100  0.39521900  0.72880500  1
  N  N16  1  0.72880500  0.03285100  0.39521900  1
  N  N17  1  0.39521900  0.72880500  0.03285100  1
