# generated using pymatgen
data_Sb3Pd8
_symmetry_space_group_name_H-M   'P 1'
_cell_length_a   15.67567469
_cell_length_b   15.67567469
_cell_length_c   15.67567447
_cell_angle_alpha   28.82334588
_cell_angle_beta   28.82334588
_cell_angle_gamma   28.82334603
_symmetry_Int_Tables_number   1
_chemical_formula_structural   Sb3Pd8
_chemical_formula_sum   'Sb12 Pd32'
_cell_volume   791.69063510
_cell_formula_units_Z   4
loop_
 _symmetry_equiv_pos_site_id
 _symmetry_equiv_pos_as_xyz
  1  'x, y, z'
loop_
 _atom_site_type_symbol
 _atom_site_label
 _atom_site_symmetry_multiplicity
 _atom_site_fract_x
 _atom_site_fract_y
 _atom_site_fract_z
 _atom_site_occupancy
  Sb  Sb0  1  0.06865800  0.06865800  0.06865800  1
  Sb  Sb1  1  0.56865800  0.56865800  0.56865800  1
  Sb  Sb2  1  0.42290300  0.42290300  0.42290300  1
  Sb  Sb3  1  0.92290300  0.92290300  0.92290300  1
  Sb  Sb4  1  0.79230400  0.79230400  0.79230400  1
  Sb  Sb5  1  0.29230400  0.29230400  0.29230400  1
  Sb  Sb6  1  0.41113300  0.82284600  0.20336600  1
  Sb  Sb7  1  0.82284600  0.20336600  0.41113300  1
  Sb  Sb8  1  0.20336600  0.41113300  0.82284600  1
  Sb  Sb9  1  0.32284600  0.91113300  0.70336600  1
  Sb  Sb10  1  0.91113300  0.70336600  0.32284600  1
  Sb  Sb11  1  0.70336600  0.32284600  0.91113300  1
  Pd  Pd12  1  0.32611400  0.61125900  0.05435100  1
  Pd  Pd13  1  0.61125900  0.05435100  0.32611400  1
  Pd  Pd14  1  0.05435100  0.32611400  0.61125900  1
  Pd  Pd15  1  0.11125900  0.82611400  0.55435100  1
  Pd  Pd16  1  0.82611400  0.55435100  0.11125900  1
  Pd  Pd17  1  0.55435100  0.11125900  0.82611400  1
  Pd  Pd18  1  0.00856000  0.00856000  0.00856000  1
  Pd  Pd19  1  0.50856000  0.50856000  0.50856000  1
  Pd  Pd20  1  0.67662500  0.67662500  0.67662500  1
  Pd  Pd21  1  0.17662500  0.17662500  0.17662500  1
  Pd  Pd22  1  0.72617900  0.37499700  0.01511300  1
  Pd  Pd23  1  0.37499700  0.01511300  0.72617900  1
  Pd  Pd24  1  0.01511300  0.72617900  0.37499700  1
  Pd  Pd25  1  0.87499700  0.22617900  0.51511300  1
  Pd  Pd26  1  0.22617900  0.51511300  0.87499700  1
  Pd  Pd27  1  0.51511300  0.87499700  0.22617900  1
  Pd  Pd28  1  0.39490900  0.71296700  0.08605700  1
  Pd  Pd29  1  0.71296700  0.08605700  0.39490900  1
  Pd  Pd30  1  0.08605700  0.39490900  0.71296700  1
  Pd  Pd31  1  0.21296700  0.89490900  0.58605700  1
  Pd  Pd32  1  0.89490900  0.58605700  0.21296700  1
  Pd  Pd33  1  0.58605700  0.21296700  0.89490900  1
  Pd  Pd34  1  0.36574000  0.36574000  0.36574000  1
  Pd  Pd35  1  0.86574000  0.86574000  0.86574000  1
  Pd  Pd36  1  0.73662400  0.73662400  0.73662400  1
  Pd  Pd37  1  0.23662400  0.23662400  0.23662400  1
  Pd  Pd38  1  0.79799400  0.41280800  0.09519600  1
  Pd  Pd39  1  0.41280800  0.09519600  0.79799400  1
  Pd  Pd40  1  0.09519600  0.79799400  0.41280800  1
  Pd  Pd41  1  0.91280800  0.29799400  0.59519600  1
  Pd  Pd42  1  0.29799400  0.59519600  0.91280800  1
  Pd  Pd43  1  0.59519600  0.91280800  0.29799400  1
