# generated using pymatgen
data_RbC2N3
_symmetry_space_group_name_H-M   'P 1'
_cell_length_a   8.64083200
_cell_length_b   8.65275331
_cell_length_c   13.97384189
_cell_angle_alpha   101.00796191
_cell_angle_beta   103.49280383
_cell_angle_gamma   108.13598866
_symmetry_Int_Tables_number   1
_chemical_formula_structural   RbC2N3
_chemical_formula_sum   'Rb8 C16 N24'
_cell_volume   925.36866013
_cell_formula_units_Z   8
loop_
 _symmetry_equiv_pos_site_id
 _symmetry_equiv_pos_as_xyz
  1  'x, y, z'
loop_
 _atom_site_type_symbol
 _atom_site_label
 _atom_site_symmetry_multiplicity
 _atom_site_fract_x
 _atom_site_fract_y
 _atom_site_fract_z
 _atom_site_occupancy
  Rb  Rb0  1  0.39094400  0.34106100  0.08808000  1
  Rb  Rb1  1  0.19931800  0.16309400  0.37093800  1
  Rb  Rb2  1  0.24936700  0.69629100  0.58389700  1
  Rb  Rb3  1  0.71170700  0.17411400  0.86900600  1
  Rb  Rb4  1  0.61906100  0.66475700  0.91502700  1
  Rb  Rb5  1  0.75644100  0.30232000  0.41416300  1
  Rb  Rb6  1  0.28746500  0.83002800  0.12706500  1
  Rb  Rb7  1  0.80465900  0.83924100  0.62966400  1
  C  C8  1  0.89594000  0.80639500  0.38218200  1
  C  C9  1  0.07308100  0.48524900  0.88089900  1
  C  C10  1  0.70323900  0.10454400  0.12221700  1
  C  C11  1  0.92028600  0.50924500  0.11671100  1
  C  C12  1  0.51429400  0.41484100  0.62204200  1
  C  C13  1  0.94556900  0.51565000  0.72609700  1
  C  C14  1  0.94934500  0.06822800  0.10951500  1
  C  C15  1  0.45824300  0.84443900  0.39093400  1
  C  C16  1  0.29473500  0.22214200  0.77408400  1
  C  C17  1  0.10786700  0.19459100  0.61877900  1
  C  C18  1  0.04773000  0.93149800  0.88954000  1
  C  C19  1  0.05277300  0.48273300  0.27276900  1
  C  C20  1  0.70904500  0.78038500  0.22644200  1
  C  C21  1  0.54051200  0.15703100  0.60573500  1
  C  C22  1  0.29474900  0.89278700  0.87718000  1
  C  C23  1  0.48062000  0.58425000  0.37705400  1
  N  N24  1  0.15995400  0.13614100  0.69431300  1
  N  N25  1  0.93782600  0.56233100  0.65133800  1
  N  N26  1  0.81057900  0.49383600  0.04248400  1
  N  N27  1  0.09121300  0.07358900  0.14072500  1
  N  N28  1  0.48845500  0.72870800  0.43137400  1
  N  N29  1  0.43233800  0.95538200  0.35999400  1
  N  N30  1  0.95965100  0.77090700  0.45514900  1
  N  N31  1  0.61266400  0.14498800  0.16499600  1
  N  N32  1  0.41381600  0.28680600  0.84986200  1
  N  N33  1  0.79299800  0.05707000  0.06793900  1
  N  N34  1  0.56689100  0.04585600  0.63601400  1
  N  N35  1  0.20362900  0.94138100  0.93027500  1
  N  N36  1  0.06736600  0.43730500  0.34793900  1
  N  N37  1  0.04458400  0.23062500  0.54583700  1
  N  N38  1  0.59038800  0.71783500  0.15029200  1
  N  N39  1  0.38728300  0.85117500  0.83665500  1
  N  N40  1  0.84325100  0.86414700  0.30662700  1
  N  N41  1  0.05494200  0.54125100  0.19391300  1
  N  N42  1  0.90644600  0.92846300  0.85954000  1
  N  N43  1  0.18334500  0.49696300  0.95380200  1
  N  N44  1  0.51068400  0.27340500  0.56586900  1
  N  N45  1  0.93792500  0.45852500  0.80519600  1
  N  N46  1  0.47763800  0.45086000  0.33426400  1
  N  N47  1  0.51463900  0.54581200  0.66675400  1
