# generated using pymatgen
data_PNCl2
_symmetry_space_group_name_H-M   'P 1'
_cell_length_a   13.56074500
_cell_length_b   13.56074500
_cell_length_c   7.72382400
_cell_angle_alpha   90.00000000
_cell_angle_beta   90.00000000
_cell_angle_gamma   90.00000000
_symmetry_Int_Tables_number   1
_chemical_formula_structural   PNCl2
_chemical_formula_sum   'P8 N8 Cl16'
_cell_volume   1420.36338416
_cell_formula_units_Z   8
loop_
 _symmetry_equiv_pos_site_id
 _symmetry_equiv_pos_as_xyz
  1  'x, y, z'
loop_
 _atom_site_type_symbol
 _atom_site_label
 _atom_site_symmetry_multiplicity
 _atom_site_fract_x
 _atom_site_fract_y
 _atom_site_fract_z
 _atom_site_occupancy
  P  P0  1  0.06784700  0.79460200  0.71362900  1
  P  P1  1  0.56784700  0.29460200  0.78637100  1
  P  P2  1  0.93215300  0.20539800  0.71362900  1
  P  P3  1  0.43215300  0.70539800  0.78637100  1
  P  P4  1  0.20539800  0.06784700  0.28637100  1
  P  P5  1  0.70539800  0.56784700  0.21362900  1
  P  P6  1  0.29460200  0.43215300  0.21362900  1
  P  P7  1  0.79460200  0.93215300  0.28637100  1
  N  N8  1  0.34369000  0.34404100  0.29292400  1
  N  N9  1  0.65631000  0.65595900  0.29292400  1
  N  N10  1  0.84369000  0.84404100  0.20707600  1
  N  N11  1  0.15595900  0.84369000  0.79292400  1
  N  N12  1  0.34404100  0.65631000  0.70707600  1
  N  N13  1  0.84404100  0.15631000  0.79292400  1
  N  N14  1  0.15631000  0.15595900  0.20707600  1
  N  N15  1  0.65595900  0.34369000  0.70707600  1
  Cl  Cl16  1  0.25449600  0.94370300  0.17138400  1
  Cl  Cl17  1  0.27280700  0.46041200  0.96002700  1
  Cl  Cl18  1  0.72719300  0.53958800  0.96002700  1
  Cl  Cl19  1  0.96041200  0.22719300  0.46002700  1
  Cl  Cl20  1  0.46041200  0.72719300  0.03997300  1
  Cl  Cl21  1  0.55629700  0.75449600  0.67138400  1
  Cl  Cl22  1  0.03958800  0.77280700  0.46002700  1
  Cl  Cl23  1  0.94370300  0.74550400  0.82861600  1
  Cl  Cl24  1  0.22719300  0.03958800  0.53997300  1
  Cl  Cl25  1  0.75449600  0.44370300  0.32861600  1
  Cl  Cl26  1  0.24550400  0.55629700  0.32861600  1
  Cl  Cl27  1  0.53958800  0.27280700  0.03997300  1
  Cl  Cl28  1  0.05629700  0.25449600  0.82861600  1
  Cl  Cl29  1  0.74550400  0.05629700  0.17138400  1
  Cl  Cl30  1  0.44370300  0.24550400  0.67138400  1
  Cl  Cl31  1  0.77280700  0.96041200  0.53997300  1
