# generated using pymatgen
data_CuCSN
_symmetry_space_group_name_H-M   'P 1'
_cell_length_a   5.91519214
_cell_length_b   5.91519214
_cell_length_c   5.91519229
_cell_angle_alpha   38.01868666
_cell_angle_beta   38.01868666
_cell_angle_gamma   38.01868234
_symmetry_Int_Tables_number   1
_chemical_formula_structural   CuCSN
_chemical_formula_sum   'Cu1 C1 S1 N1'
_cell_volume   70.48107386
_cell_formula_units_Z   1
loop_
 _symmetry_equiv_pos_site_id
 _symmetry_equiv_pos_as_xyz
  1  'x, y, z'
loop_
 _atom_site_type_symbol
 _atom_site_label
 _atom_site_symmetry_multiplicity
 _atom_site_fract_x
 _atom_site_fract_y
 _atom_site_fract_z
 _atom_site_occupancy
  Cu  Cu0  1  0.00010100  0.00010100  0.00010100  1
  C  C1  1  0.18754500  0.18754500  0.18754500  1
  S  S2  1  0.28886100  0.28886100  0.28886100  1
  N  N3  1  0.11617300  0.11617300  0.11617300  1
