# generated using pymatgen
data_CsNiC3(SN)3
_symmetry_space_group_name_H-M   'P 1'
_cell_length_a   13.29920600
_cell_length_b   5.54089800
_cell_length_c   13.16886088
_cell_angle_alpha   71.74940718
_cell_angle_beta   90.00000000
_cell_angle_gamma   90.00000000
_symmetry_Int_Tables_number   1
_chemical_formula_structural   CsNiC3(SN)3
_chemical_formula_sum   'Cs4 Ni4 C12 S12 N12'
_cell_volume   921.59187013
_cell_formula_units_Z   4
loop_
 _symmetry_equiv_pos_site_id
 _symmetry_equiv_pos_as_xyz
  1  'x, y, z'
loop_
 _atom_site_type_symbol
 _atom_site_label
 _atom_site_symmetry_multiplicity
 _atom_site_fract_x
 _atom_site_fract_y
 _atom_site_fract_z
 _atom_site_occupancy
  Cs  Cs0  1  0.27087900  0.93585900  0.71749600  1
  Cs  Cs1  1  0.72912100  0.06414100  0.28250400  1
  Cs  Cs2  1  0.22912100  0.93585900  0.21749600  1
  Cs  Cs3  1  0.77087900  0.06414100  0.78250400  1
  Ni  Ni4  1  0.00000000  0.50000000  0.50000000  1
  Ni  Ni5  1  0.00000000  0.00000000  0.00000000  1
  Ni  Ni6  1  0.50000000  0.50000000  0.00000000  1
  Ni  Ni7  1  0.50000000  0.00000000  0.50000000  1
  C  C8  1  0.90585200  0.96208400  0.57414700  1
  C  C9  1  0.55018300  0.68080000  0.73758100  1
  C  C10  1  0.05018300  0.31920000  0.76241900  1
  C  C11  1  0.40585200  0.03791600  0.92585300  1
  C  C12  1  0.59414800  0.96208400  0.07414700  1
  C  C13  1  0.88201200  0.51897400  0.99046500  1
  C  C14  1  0.94981700  0.68080000  0.23758100  1
  C  C15  1  0.09414800  0.03791600  0.42585300  1
  C  C16  1  0.38201200  0.48102600  0.50953500  1
  C  C17  1  0.61798800  0.51897400  0.49046500  1
  C  C18  1  0.44981700  0.31920000  0.26241900  1
  C  C19  1  0.11798800  0.48102600  0.00953500  1
  S  S20  1  0.10877000  0.49011100  0.65401100  1
  S  S21  1  0.66040400  0.23080100  0.51550500  1
  S  S22  1  0.35675600  0.30970600  0.92273800  1
  S  S23  1  0.89123000  0.50988900  0.34598900  1
  S  S24  1  0.39123000  0.49011100  0.15401100  1
  S  S25  1  0.64324400  0.69029400  0.07726200  1
  S  S26  1  0.14324400  0.30970600  0.42273800  1
  S  S27  1  0.85675600  0.69029400  0.57726200  1
  S  S28  1  0.33959600  0.76919900  0.48449500  1
  S  S29  1  0.60877000  0.50988900  0.84598900  1
  S  S30  1  0.16040400  0.76919900  0.98449500  1
  S  S31  1  0.83959600  0.23080100  0.01550500  1
  N  N32  1  0.51056800  0.80708100  0.65853200  1
  N  N33  1  0.91406000  0.72719900  0.97176200  1
  N  N34  1  0.98943200  0.80708100  0.15853200  1
  N  N35  1  0.44129900  0.83847300  0.93016700  1
  N  N36  1  0.55870100  0.16152700  0.06983300  1
  N  N37  1  0.41406000  0.27280100  0.52823800  1
  N  N38  1  0.58594000  0.72719900  0.47176200  1
  N  N39  1  0.94129900  0.16152700  0.56983300  1
  N  N40  1  0.48943200  0.19291900  0.34146800  1
  N  N41  1  0.05870100  0.83847300  0.43016700  1
  N  N42  1  0.08594000  0.27280100  0.02823800  1
  N  N43  1  0.01056800  0.19291900  0.84146800  1
