# generated using pymatgen
data_Fe(CuS)2
_symmetry_space_group_name_H-M   'P 1'
_cell_length_a   7.64732731
_cell_length_b   7.64732731
_cell_length_c   7.64732731
_cell_angle_alpha   60.00000000
_cell_angle_beta   60.00000000
_cell_angle_gamma   60.00000000
_symmetry_Int_Tables_number   1
_chemical_formula_structural   Fe(CuS)2
_chemical_formula_sum   'Fe4 Cu8 S8'
_cell_volume   316.23798810
_cell_formula_units_Z   4
loop_
 _symmetry_equiv_pos_site_id
 _symmetry_equiv_pos_as_xyz
  1  'x, y, z'
loop_
 _atom_site_type_symbol
 _atom_site_label
 _atom_site_symmetry_multiplicity
 _atom_site_fract_x
 _atom_site_fract_y
 _atom_site_fract_z
 _atom_site_occupancy
  Fe  Fe0  1  0.87478700  0.87478700  0.87478700  1
  Fe  Fe1  1  0.87478700  0.37564000  0.87478700  1
  Fe  Fe2  1  0.87478700  0.87478700  0.37564000  1
  Fe  Fe3  1  0.37564000  0.87478700  0.87478700  1
  Cu  Cu4  1  0.13030600  0.60908200  0.13030600  1
  Cu  Cu5  1  0.13030600  0.13030600  0.60908200  1
  Cu  Cu6  1  0.14358100  0.61880600  0.61880600  1
  Cu  Cu7  1  0.60908200  0.13030600  0.13030600  1
  Cu  Cu8  1  0.61880600  0.14358100  0.61880600  1
  Cu  Cu9  1  0.61880600  0.61880600  0.14358100  1
  Cu  Cu10  1  0.61880600  0.61880600  0.61880600  1
  Cu  Cu11  1  0.13030600  0.13030600  0.13030600  1
  S  S12  1  0.50271600  0.99728400  0.99728400  1
  S  S13  1  0.50271600  0.99728400  0.50271600  1
  S  S14  1  0.99728400  0.50271600  0.99728400  1
  S  S15  1  0.99728400  0.50271600  0.50271600  1
  S  S16  1  0.99728400  0.99728400  0.50271600  1
  S  S17  1  0.00000000  0.00000000  0.00000000  1
  S  S18  1  0.50271600  0.50271600  0.99728400  1
  S  S19  1  0.50000000  0.50000000  0.50000000  1
