# generated using pymatgen
data_WN18
_symmetry_space_group_name_H-M   'P 1'
_cell_length_a   9.51656471
_cell_length_b   9.51656471
_cell_length_c   7.31527000
_cell_angle_alpha   90.00000000
_cell_angle_beta   90.00000000
_cell_angle_gamma   120.00000493
_symmetry_Int_Tables_number   1
_chemical_formula_structural   WN18
_chemical_formula_sum   'W2 N36'
_cell_volume   573.74825846
_cell_formula_units_Z   2
loop_
 _symmetry_equiv_pos_site_id
 _symmetry_equiv_pos_as_xyz
  1  'x, y, z'
loop_
 _atom_site_type_symbol
 _atom_site_label
 _atom_site_symmetry_multiplicity
 _atom_site_fract_x
 _atom_site_fract_y
 _atom_site_fract_z
 _atom_site_occupancy
  W  W0  1  0.33333300  0.66666700  0.00783400  1
  W  W1  1  0.66666700  0.33333300  0.99216600  1
  N  N2  1  0.46511600  0.23730600  0.84304900  1
  N  N3  1  0.22781000  0.46511600  0.15695100  1
  N  N4  1  0.64712400  0.52815000  0.30753700  1
  N  N5  1  0.09215200  0.69019700  0.55586700  1
  N  N6  1  0.77219000  0.53488400  0.84304900  1
  N  N7  1  0.79268100  0.79277300  0.82620200  1
  N  N8  1  0.54298600  0.14114400  0.16348300  1
  N  N9  1  0.33349600  0.11425100  0.83738700  1
  N  N10  1  0.78075500  0.66650400  0.83738700  1
  N  N11  1  0.59804500  0.90784800  0.55586700  1
  N  N12  1  0.76269400  0.22781000  0.84304900  1
  N  N13  1  0.88102600  0.35287600  0.30753700  1
  N  N14  1  0.99990900  0.79268100  0.17379800  1
  N  N15  1  0.00009100  0.20731900  0.82620200  1
  N  N16  1  0.85885600  0.40184300  0.16348300  1
  N  N17  1  0.14114400  0.59815700  0.83651700  1
  N  N18  1  0.90784800  0.30980300  0.44413300  1
  N  N19  1  0.20722700  0.99990900  0.82620200  1
  N  N20  1  0.66650400  0.88574900  0.16261300  1
  N  N21  1  0.11897400  0.64712400  0.69246300  1
  N  N22  1  0.79277300  0.00009100  0.17379800  1
  N  N23  1  0.35287600  0.47185000  0.69246300  1
  N  N24  1  0.40184300  0.54298600  0.83651700  1
  N  N25  1  0.88574900  0.21924500  0.83738700  1
  N  N26  1  0.40195500  0.09215200  0.44413300  1
  N  N27  1  0.23730600  0.77219000  0.15695100  1
  N  N28  1  0.45701400  0.85885600  0.83651700  1
  N  N29  1  0.52815000  0.88102600  0.69246300  1
  N  N30  1  0.69019700  0.59804500  0.44413300  1
  N  N31  1  0.53488400  0.76269400  0.15695100  1
  N  N32  1  0.20731900  0.20722700  0.17379800  1
  N  N33  1  0.47185000  0.11897400  0.30753700  1
  N  N34  1  0.21924500  0.33349600  0.16261300  1
  N  N35  1  0.11425100  0.78075500  0.16261300  1
  N  N36  1  0.30980300  0.40195500  0.55586700  1
  N  N37  1  0.59815700  0.45701400  0.16348300  1
