# generated using pymatgen
data_As8S9
_symmetry_space_group_name_H-M   'P 1'
_cell_length_a   8.60399500
_cell_length_b   9.90713978
_cell_length_c   22.22517146
_cell_angle_alpha   95.25705762
_cell_angle_beta   95.23029114
_cell_angle_gamma   99.79822583
_symmetry_Int_Tables_number   1
_chemical_formula_structural   As8S9
_chemical_formula_sum   'As24 S27'
_cell_volume   1847.97451160
_cell_formula_units_Z   3
loop_
 _symmetry_equiv_pos_site_id
 _symmetry_equiv_pos_as_xyz
  1  'x, y, z'
loop_
 _atom_site_type_symbol
 _atom_site_label
 _atom_site_symmetry_multiplicity
 _atom_site_fract_x
 _atom_site_fract_y
 _atom_site_fract_z
 _atom_site_occupancy
  As  As0  1  0.12408600  0.37806600  0.03776300  1
  As  As1  1  0.98861100  0.50634100  0.35309500  1
  As  As2  1  0.38992800  0.20567900  0.68578100  1
  As  As3  1  0.92620000  0.26340300  0.84776900  1
  As  As4  1  0.08817500  0.86907200  0.16936400  1
  As  As5  1  0.39445800  0.16777100  0.34309600  1
  As  As6  1  0.63955100  0.98983100  0.62852000  1
  As  As7  1  0.40168400  0.64980500  0.98806000  1
  As  As8  1  0.33211900  0.72727800  0.56543400  1
  As  As9  1  0.68869400  0.83947400  0.77206500  1
  As  As10  1  0.35419800  0.15686900  0.03288600  1
  As  As11  1  0.91359900  0.75339800  0.24280300  1
  As  As12  1  0.59828500  0.74955100  0.38651900  1
  As  As13  1  0.27388500  0.23579400  0.25243300  1
  As  As14  1  0.66149600  0.52440500  0.41918200  1
  As  As15  1  0.95227900  0.12652500  0.91694400  1
  As  As16  1  0.23222800  0.79912400  0.71486200  1
  As  As17  1  0.55186800  0.38016000  0.05526500  1
  As  As18  1  0.19055500  0.92331400  0.87093200  1
  As  As19  1  0.57767500  0.03045400  0.00528800  1
  As  As20  1  0.10188400  0.81409700  0.60906800  1
  As  As21  1  0.38123700  0.40318600  0.37853900  1
  As  As22  1  0.47648100  0.97781700  0.71675100  1
  As  As23  1  0.01892700  0.35554700  0.25910300  1
  S  S24  1  0.10291000  0.70724500  0.86253100  1
  S  S25  1  0.15537900  0.51200800  0.95118600  1
  S  S26  1  0.10352100  0.58608900  0.57537400  1
  S  S27  1  0.16038300  0.14433800  0.61944000  1
  S  S28  1  0.08246000  0.09995200  0.18580300  1
  S  S29  1  0.18584000  0.79780200  0.25535000  1
  S  S30  1  0.52582600  0.75170600  0.84822200  1
  S  S31  1  0.49158100  0.93994300  0.88380900  1
  S  S32  1  0.54403000  0.48774100  0.96603300  1
  S  S33  1  0.33216800  0.35851300  0.47676300  1
  S  S34  1  0.30386400  0.80559800  0.46985600  1
  S  S35  1  0.49990200  0.49546100  0.52772400  1
  S  S36  1  0.52700700  0.17598500  0.60384200  1
  S  S37  1  0.34190600  0.49745500  0.09389400  1
  S  S38  1  0.44128100  0.09123800  0.12793700  1
  S  S39  1  0.74515500  0.22150800  0.00712700  1
  S  S40  1  0.54042200  0.88624800  0.46890300  1
  S  S41  1  0.49528000  0.25323700  0.19202700  1
  S  S42  1  0.84253300  0.93304400  0.30133900  1
  S  S43  1  0.84530900  0.10560800  0.70172100  1
  S  S44  1  0.98803700  0.23908300  0.65546700  1
  S  S45  1  0.15321700  0.97551100  0.77090600  1
  S  S46  1  0.73263300  0.52027800  0.31898800  1
  S  S47  1  0.85206500  0.87239400  0.38777000  1
  S  S48  1  0.95134000  0.26879900  0.34303400  1
  S  S49  1  0.00093000  0.56015200  0.01225300  1
  S  S50  1  0.63131600  0.69203200  0.69451400  1
