# generated using pymatgen
data_Tl8Cu4F11
_symmetry_space_group_name_H-M   'P 1'
_cell_length_a   5.16661300
_cell_length_b   12.48787907
_cell_length_c   15.09138141
_cell_angle_alpha   91.57253760
_cell_angle_beta   93.58154013
_cell_angle_gamma   101.69339254
_symmetry_Int_Tables_number   1
_chemical_formula_structural   Tl8Cu4F11
_chemical_formula_sum   'Tl16 Cu8 F22'
_cell_volume   950.82485798
_cell_formula_units_Z   2
loop_
 _symmetry_equiv_pos_site_id
 _symmetry_equiv_pos_as_xyz
  1  'x, y, z'
loop_
 _atom_site_type_symbol
 _atom_site_label
 _atom_site_symmetry_multiplicity
 _atom_site_fract_x
 _atom_site_fract_y
 _atom_site_fract_z
 _atom_site_occupancy
  Tl  Tl0  1  0.30546900  0.17585900  0.99946800  1
  Tl  Tl1  1  0.79812400  0.43060600  0.29650100  1
  Tl  Tl2  1  0.02534700  0.72656200  0.53473900  1
  Tl  Tl3  1  0.14195500  0.99621200  0.78777200  1
  Tl  Tl4  1  0.28564900  0.04070400  0.40146300  1
  Tl  Tl5  1  0.64779400  0.35459200  0.65741700  1
  Tl  Tl6  1  0.91687400  0.55112900  0.87250200  1
  Tl  Tl7  1  0.15361600  0.89399800  0.06083800  1
  Tl  Tl8  1  0.79917300  0.18212700  0.81435300  1
  Tl  Tl9  1  0.17370700  0.40193900  0.09409100  1
  Tl  Tl10  1  0.44110200  0.65878500  0.33338300  1
  Tl  Tl11  1  0.61269000  0.93510600  0.59911500  1
  Tl  Tl12  1  0.70788700  0.07340900  0.20989800  1
  Tl  Tl13  1  0.95927400  0.26198100  0.47331800  1
  Tl  Tl14  1  0.35635800  0.61060000  0.70600400  1
  Tl  Tl15  1  0.53499200  0.69340100  0.05704800  1
  Cu  Cu16  1  0.20553100  0.10049800  0.64088400  1
  Cu  Cu17  1  0.36775800  0.39170700  0.88048400  1
  Cu  Cu18  1  0.01001800  0.68969300  0.19404400  1
  Cu  Cu19  1  0.79676000  0.86632100  0.30967200  1
  Cu  Cu20  1  0.86117000  0.00117100  0.93397200  1
  Cu  Cu21  1  0.78301000  0.79318100  0.82680400  1
  Cu  Cu22  1  0.25334600  0.23653600  0.23515200  1
  Cu  Cu23  1  0.48082700  0.50360100  0.50578200  1
  F  F24  1  0.08893000  0.82615800  0.25315700  1
  F  F25  1  0.03535500  0.69541300  0.98589100  1
  F  F26  1  0.21741800  0.10559900  0.16937100  1
  F  F27  1  0.50485900  0.36027400  0.48434100  1
  F  F28  1  0.94265100  0.73578600  0.73388400  1
  F  F29  1  0.61044400  0.82824700  0.92628300  1
  F  F30  1  0.09520300  0.97640800  0.53761300  1
  F  F31  1  0.33490800  0.25748400  0.82202900  1
  F  F32  1  0.91429200  0.54952600  0.14605100  1
  F  F33  1  0.97781700  0.64398700  0.38296700  1
  F  F34  1  0.56519400  0.13343000  0.55263000  1
  F  F35  1  0.92870600  0.35478000  0.94157400  1
  F  F36  1  0.04481500  0.50182900  0.59054700  1
  F  F37  1  0.75853200  0.28494800  0.17035600  1
  F  F38  1  0.13350000  0.25311600  0.62676900  1
  F  F39  1  0.42763300  0.53187400  0.93154900  1
  F  F40  1  0.60862900  0.86338500  0.17275700  1
  F  F41  1  0.58068000  0.89583300  0.39790600  1
  F  F42  1  0.26811200  0.36498700  0.30065200  1
  F  F43  1  0.50311100  0.65264300  0.52764400  1
  F  F44  1  0.59000400  0.94768100  0.76876600  1
  F  F45  1  0.62577600  0.04189200  0.02755700  1
