# generated using pymatgen
data_Cu2GeTe3
_symmetry_space_group_name_H-M   'P 1'
_cell_length_a   7.35251239
_cell_length_b   7.35251239
_cell_length_c   7.38236107
_cell_angle_alpha   80.45025993
_cell_angle_beta   80.45025993
_cell_angle_gamma   119.95255925
_symmetry_Int_Tables_number   1
_chemical_formula_structural   Cu2GeTe3
_chemical_formula_sum   'Cu4 Ge2 Te6'
_cell_volume   326.22321078
_cell_formula_units_Z   2
loop_
 _symmetry_equiv_pos_site_id
 _symmetry_equiv_pos_as_xyz
  1  'x, y, z'
loop_
 _atom_site_type_symbol
 _atom_site_label
 _atom_site_symmetry_multiplicity
 _atom_site_fract_x
 _atom_site_fract_y
 _atom_site_fract_z
 _atom_site_occupancy
  Cu  Cu0  1  0.99102900  0.15982500  0.00538300  1
  Cu  Cu1  1  0.33450800  0.83494900  0.00227400  1
  Cu  Cu2  1  0.15982500  0.99102900  0.50538300  1
  Cu  Cu3  1  0.83494900  0.33450800  0.50227400  1
  Ge  Ge4  1  0.67733300  0.50556700  0.99109900  1
  Ge  Ge5  1  0.50556700  0.67733300  0.49109900  1
  Te  Te6  1  0.05493000  0.88894000  0.87372200  1
  Te  Te7  1  0.70670800  0.19990500  0.87130900  1
  Te  Te8  1  0.35520000  0.53563100  0.88432100  1
  Te  Te9  1  0.53563100  0.35520000  0.38432100  1
  Te  Te10  1  0.19990500  0.70670800  0.37130900  1
  Te  Te11  1  0.88894000  0.05493000  0.37372200  1
