# generated using pymatgen
data_Ti5Fe11O24
_symmetry_space_group_name_H-M   'P 1'
_cell_length_a   11.06396839
_cell_length_b   14.97935246
_cell_length_c   9.82018791
_cell_angle_alpha   26.40909560
_cell_angle_beta   49.98828747
_cell_angle_gamma   37.47981252
_symmetry_Int_Tables_number   1
_chemical_formula_structural   Ti5Fe11O24
_chemical_formula_sum   'Ti5 Fe11 O24'
_cell_volume   426.41874921
_cell_formula_units_Z   1
loop_
 _symmetry_equiv_pos_site_id
 _symmetry_equiv_pos_as_xyz
  1  'x, y, z'
loop_
 _atom_site_type_symbol
 _atom_site_label
 _atom_site_symmetry_multiplicity
 _atom_site_fract_x
 _atom_site_fract_y
 _atom_site_fract_z
 _atom_site_occupancy
  Ti  Ti0  1  0.17833400  0.50956100  0.83841500  1
  Ti  Ti1  1  0.17970600  0.00578200  0.34532500  1
  Ti  Ti2  1  0.68731900  0.50495700  0.83377200  1
  Ti  Ti3  1  0.41479300  0.00805600  0.85482200  1
  Ti  Ti4  1  0.92120200  0.99090100  0.87520300  1
  Fe  Fe5  1  0.32026100  0.00487100  0.64235100  1
  Fe  Fe6  1  0.32477500  0.49984500  0.14363800  1
  Fe  Fe7  1  0.07589000  0.49514000  0.66020500  1
  Fe  Fe8  1  0.42804000  0.49712400  0.35647300  1
  Fe  Fe9  1  0.81771000  0.00098200  0.64870700  1
  Fe  Fe10  1  0.06689700  0.99582400  0.14956600  1
  Fe  Fe11  1  0.82516200  0.50005500  0.14393900  1
  Fe  Fe12  1  0.57965600  0.49403000  0.64492900  1
  Fe  Fe13  1  0.92625800  0.50085700  0.35606500  1
  Fe  Fe14  1  0.57531100  0.99954000  0.15479300  1
  Fe  Fe15  1  0.67612000  0.00147300  0.35222800  1
  O  O16  1  0.27292000  0.18118600  0.07857100  1
  O  O17  1  0.11153500  0.34923700  0.22890400  1
  O  O18  1  0.16458200  0.14533400  0.74215600  1
  O  O19  1  0.02702200  0.71078800  0.03896000  1
  O  O20  1  0.45233300  0.15168400  0.44380500  1
  O  O21  1  0.30961400  0.33194600  0.56311300  1
  O  O22  1  0.76033800  0.20559900  0.06213700  1
  O  O23  1  0.60345000  0.35521800  0.23586000  1
  O  O24  1  0.21833700  0.62031300  0.47828000  1
  O  O25  1  0.65653300  0.14995600  0.74118800  1
  O  O26  1  0.05606400  0.82747400  0.58366500  1
  O  O27  1  0.52717800  0.69374300  0.05919400  1
  O  O28  1  0.45656400  0.30718700  0.95597500  1
  O  O29  1  0.96064100  0.15190700  0.42981300  1
  O  O30  1  0.34539700  0.87036500  0.22369700  1
  O  O31  1  0.81267900  0.32528200  0.56051600  1
  O  O32  1  0.37796700  0.67778400  0.73225700  1
  O  O33  1  0.21284900  0.81038400  0.94758000  1
  O  O34  1  0.70263700  0.64459400  0.46779800  1
  O  O35  1  0.55292200  0.83306200  0.57683300  1
  O  O36  1  0.95840900  0.31083400  0.95469700  1
  O  O37  1  0.85637600  0.86072400  0.23352900  1
  O  O38  1  0.89698200  0.65817600  0.74490400  1
  O  O39  1  0.70892200  0.81321200  0.94079300  1
