# generated using pymatgen
data_La2(SO7)3
_symmetry_space_group_name_H-M   'P 1'
_cell_length_a   10.54341951
_cell_length_b   10.54341951
_cell_length_c   8.10230400
_cell_angle_alpha   90.00000000
_cell_angle_beta   90.00000000
_cell_angle_gamma   119.99999694
_symmetry_Int_Tables_number   1
_chemical_formula_structural   La2(SO7)3
_chemical_formula_sum   'La4 S6 O42'
_cell_volume   780.01356077
_cell_formula_units_Z   2
loop_
 _symmetry_equiv_pos_site_id
 _symmetry_equiv_pos_as_xyz
  1  'x, y, z'
loop_
 _atom_site_type_symbol
 _atom_site_label
 _atom_site_symmetry_multiplicity
 _atom_site_fract_x
 _atom_site_fract_y
 _atom_site_fract_z
 _atom_site_occupancy
  La  La0  1  0.00000000  0.00000000  0.50000000  1
  La  La1  1  0.00000000  0.00000000  0.00000000  1
  La  La2  1  0.33333300  0.66666700  0.75000000  1
  La  La3  1  0.66666700  0.33333300  0.25000000  1
  S  S4  1  0.77544700  0.73231200  0.25000000  1
  S  S5  1  0.95686500  0.22455300  0.25000000  1
  S  S6  1  0.26768800  0.04313500  0.25000000  1
  S  S7  1  0.22455300  0.26768800  0.75000000  1
  S  S8  1  0.04313500  0.77544700  0.75000000  1
  S  S9  1  0.73231200  0.95686500  0.75000000  1
  O  O10  1  0.94083400  0.82416500  0.25000000  1
  O  O11  1  0.88333100  0.05916600  0.25000000  1
  O  O12  1  0.17583500  0.11666900  0.25000000  1
  O  O13  1  0.05916600  0.17583500  0.75000000  1
  O  O14  1  0.11666900  0.94083400  0.75000000  1
  O  O15  1  0.82416500  0.88333100  0.75000000  1
  O  O16  1  0.73392400  0.57062500  0.25000000  1
  O  O17  1  0.83670100  0.26607600  0.25000000  1
  O  O18  1  0.42937500  0.16329900  0.25000000  1
  O  O19  1  0.26607600  0.42937500  0.75000000  1
  O  O20  1  0.16329900  0.73392400  0.75000000  1
  O  O21  1  0.57062500  0.83670100  0.75000000  1
  O  O22  1  0.72261200  0.76274500  0.40392700  1
  O  O23  1  0.04013300  0.27738800  0.40392700  1
  O  O24  1  0.23725500  0.95986700  0.40392700  1
  O  O25  1  0.27738800  0.23725500  0.90392700  1
  O  O26  1  0.95986700  0.72261200  0.90392700  1
  O  O27  1  0.76274500  0.04013300  0.90392700  1
  O  O28  1  0.27738800  0.23725500  0.59607300  1
  O  O29  1  0.95986700  0.72261200  0.59607300  1
  O  O30  1  0.76274500  0.04013300  0.59607300  1
  O  O31  1  0.72261200  0.76274500  0.09607300  1
  O  O32  1  0.04013300  0.27738800  0.09607300  1
  O  O33  1  0.23725500  0.95986700  0.09607300  1
  O  O34  1  0.11084800  0.60571100  0.25000000  1
  O  O35  1  0.49486300  0.88915200  0.25000000  1
  O  O36  1  0.39428900  0.50513700  0.25000000  1
  O  O37  1  0.88915200  0.39428900  0.75000000  1
  O  O38  1  0.50513700  0.11084800  0.75000000  1
  O  O39  1  0.60571100  0.49486300  0.75000000  1
  O  O40  1  0.41003500  0.57731100  0.38586800  1
  O  O41  1  0.16727700  0.58996500  0.38586800  1
  O  O42  1  0.42268900  0.83272300  0.38586800  1
  O  O43  1  0.58996500  0.42268900  0.88586800  1
  O  O44  1  0.83272300  0.41003500  0.88586800  1
  O  O45  1  0.57731100  0.16727700  0.88586800  1
  O  O46  1  0.58996500  0.42268900  0.61413200  1
  O  O47  1  0.83272300  0.41003500  0.61413200  1
  O  O48  1  0.57731100  0.16727700  0.61413200  1
  O  O49  1  0.41003500  0.57731100  0.11413200  1
  O  O50  1  0.16727700  0.58996500  0.11413200  1
  O  O51  1  0.42268900  0.83272300  0.11413200  1
