# generated using pymatgen
data_YbCe9O20
_symmetry_space_group_name_H-M   'P 1'
_cell_length_a   6.68411100
_cell_length_b   7.71776876
_cell_length_c   8.63605390
_cell_angle_alpha   102.80005417
_cell_angle_beta   97.49708086
_cell_angle_gamma   106.66616272
_symmetry_Int_Tables_number   1
_chemical_formula_structural   YbCe9O20
_chemical_formula_sum   'Yb1 Ce9 O20'
_cell_volume   407.10797680
_cell_formula_units_Z   1
loop_
 _symmetry_equiv_pos_site_id
 _symmetry_equiv_pos_as_xyz
  1  'x, y, z'
loop_
 _atom_site_type_symbol
 _atom_site_label
 _atom_site_symmetry_multiplicity
 _atom_site_fract_x
 _atom_site_fract_y
 _atom_site_fract_z
 _atom_site_occupancy
  Yb  Yb0  1  0.00000000  0.00000000  0.00000000  1
  Ce  Ce1  1  0.80103000  0.60239400  0.60255800  1
  Ce  Ce2  1  0.00000000  0.50000000  0.00000000  1
  Ce  Ce3  1  0.59913500  0.19804000  0.19826100  1
  Ce  Ce4  1  0.80089400  0.09967900  0.60279600  1
  Ce  Ce5  1  0.60328300  0.70203200  0.19902200  1
  Ce  Ce6  1  0.19897000  0.39760600  0.39744200  1
  Ce  Ce7  1  0.39671700  0.29796800  0.80097800  1
  Ce  Ce8  1  0.19910600  0.90032100  0.39720400  1
  Ce  Ce9  1  0.40086500  0.80196000  0.80173900  1
  O  O10  1  0.85029000  0.32483000  0.45125300  1
  O  O11  1  0.64306700  0.92313800  0.05146800  1
  O  O12  1  0.85091400  0.82598600  0.45050800  1
  O  O13  1  0.94905500  0.77029400  0.15312700  1
  O  O14  1  0.44906300  0.52367800  0.65001800  1
  O  O15  1  0.64845100  0.42508700  0.04911500  1
  O  O16  1  0.74808800  0.37439200  0.75044000  1
  O  O17  1  0.25497000  0.12731700  0.25460700  1
  O  O18  1  0.94891400  0.28052800  0.15302300  1
  O  O19  1  0.55094500  0.97444700  0.35060000  1
  O  O20  1  0.05108600  0.71947200  0.84697700  1
  O  O21  1  0.44905500  0.02555300  0.64940000  1
  O  O22  1  0.74503000  0.87268300  0.74539300  1
  O  O23  1  0.35154900  0.57491300  0.95088500  1
  O  O24  1  0.25191200  0.62560800  0.24956000  1
  O  O25  1  0.05094500  0.22970600  0.84687300  1
  O  O26  1  0.55093700  0.47632200  0.34998200  1
  O  O27  1  0.14908600  0.17401400  0.54949200  1
  O  O28  1  0.35693300  0.07686200  0.94853200  1
  O  O29  1  0.14971000  0.67517000  0.54874700  1
