# generated using pymatgen
data_Mg3V2O6
_symmetry_space_group_name_H-M   'P 1'
_cell_length_a   5.94293100
_cell_length_b   6.08008538
_cell_length_c   15.15351417
_cell_angle_alpha   90.91192324
_cell_angle_beta   90.58694975
_cell_angle_gamma   118.94754316
_symmetry_Int_Tables_number   1
_chemical_formula_structural   Mg3V2O6
_chemical_formula_sum   'Mg12 V8 O24'
_cell_volume   478.97930973
_cell_formula_units_Z   4
loop_
 _symmetry_equiv_pos_site_id
 _symmetry_equiv_pos_as_xyz
  1  'x, y, z'
loop_
 _atom_site_type_symbol
 _atom_site_label
 _atom_site_symmetry_multiplicity
 _atom_site_fract_x
 _atom_site_fract_y
 _atom_site_fract_z
 _atom_site_occupancy
  Mg  Mg0  1  0.68588500  0.86673700  0.85976600  1
  Mg  Mg1  1  0.54473600  0.57909400  0.00871500  1
  Mg  Mg2  1  0.00911700  0.50774700  0.62424600  1
  Mg  Mg3  1  0.67445200  0.34192600  0.82837700  1
  Mg  Mg4  1  0.35762300  0.21197300  0.19487900  1
  Mg  Mg5  1  0.19991600  0.90380400  0.33568600  1
  Mg  Mg6  1  0.99505000  0.99541200  0.50325300  1
  Mg  Mg7  1  0.65259100  0.81651900  0.68814300  1
  Mg  Mg8  1  0.33250600  0.67338200  0.17055200  1
  Mg  Mg9  1  0.96057000  0.42600400  0.36914700  1
  Mg  Mg10  1  0.83847700  0.67195400  0.17086700  1
  Mg  Mg11  1  0.27487000  0.07001600  0.01920000  1
  V  V12  1  0.17239400  0.34554900  0.82835900  1
  V  V13  1  0.49085500  0.99085200  0.50169200  1
  V  V14  1  0.34332300  0.17089200  0.66502400  1
  V  V15  1  0.17050200  0.83373000  0.83051900  1
  V  V16  1  0.65761100  0.81796000  0.33188000  1
  V  V17  1  0.49088000  0.48804100  0.49476900  1
  V  V18  1  0.99406500  0.48248200  0.00089600  1
  V  V19  1  0.82945000  0.16063000  0.16702600  1
  O  O20  1  0.33228600  0.66909300  0.91615700  1
  O  O21  1  0.84083000  0.66334400  0.91942100  1
  O  O22  1  0.01195200  0.51429300  0.75906700  1
  O  O23  1  0.87024100  0.21346200  0.90767600  1
  O  O24  1  0.64158300  0.32119000  0.58391200  1
  O  O25  1  0.49142600  0.49051800  0.75399700  1
  O  O26  1  0.33789600  0.17915800  0.89967700  1
  O  O27  1  0.19343800  0.33146400  0.58028900  1
  O  O28  1  0.50158400  0.99655300  0.75837200  1
  O  O29  1  0.32858900  0.15533300  0.43223000  1
  O  O30  1  0.18743500  0.86520500  0.58631900  1
  O  O31  1  0.00278500  0.99654300  0.75633600  1
  O  O32  1  0.79141300  0.10586700  0.42161700  1
  O  O33  1  0.00137400  0.00671600  0.24724100  1
  O  O34  1  0.65425300  0.81441600  0.56341100  1
  O  O35  1  0.82939100  0.67225700  0.41000100  1
  O  O36  1  0.49979200  0.99928700  0.25050300  1
  O  O37  1  0.66826600  0.84346700  0.09897700  1
  O  O38  1  0.32928800  0.67640500  0.41074400  1
  O  O39  1  0.52271800  0.54303700  0.24517800  1
  O  O40  1  0.13284200  0.77356700  0.08638600  1
  O  O41  1  0.99769000  0.49338200  0.24007800  1
  O  O42  1  0.17787000  0.33060200  0.07924700  1
  O  O43  1  0.64685200  0.32346900  0.08349700  1
