# generated using pymatgen
data_U11O5
_symmetry_space_group_name_H-M   'P 1'
_cell_length_a   3.31902400
_cell_length_b   7.96945464
_cell_length_c   11.71219248
_cell_angle_alpha   85.56635172
_cell_angle_beta   82.41052348
_cell_angle_gamma   78.75063386
_symmetry_Int_Tables_number   1
_chemical_formula_structural   U11O5
_chemical_formula_sum   'U11 O5'
_cell_volume   300.75973348
_cell_formula_units_Z   1
loop_
 _symmetry_equiv_pos_site_id
 _symmetry_equiv_pos_as_xyz
  1  'x, y, z'
loop_
 _atom_site_type_symbol
 _atom_site_label
 _atom_site_symmetry_multiplicity
 _atom_site_fract_x
 _atom_site_fract_y
 _atom_site_fract_z
 _atom_site_occupancy
  U  U0  1  0.91983500  0.05310800  0.97275900  1
  U  U1  1  0.77374700  0.68422900  0.85933700  1
  U  U2  1  0.54385600  0.29115400  0.81020700  1
  U  U3  1  0.21290200  0.90372400  0.77923100  1
  U  U4  1  0.81195200  0.51575900  0.66370100  1
  U  U5  1  0.73912400  0.20425600  0.51913800  1
  U  U6  1  0.35253800  0.81757400  0.41072700  1
  U  U7  1  0.04638800  0.41552000  0.38321000  1
  U  U8  1  0.79850300  0.03085700  0.32680700  1
  U  U9  1  0.24987400  0.38286800  0.10024800  1
  U  U10  1  0.53483200  0.70282900  0.19600200  1
  O  O11  1  0.31455300  0.52089700  0.93366300  1
  O  O12  1  0.88999800  0.65695000  0.49896700  1
  O  O13  1  0.67411900  0.06049400  0.68456500  1
  O  O14  1  0.25588700  0.19271000  0.24428100  1
  O  O15  1  0.95007200  0.90797800  0.13988400  1
