# generated using pymatgen
data_VMoO5
_symmetry_space_group_name_H-M   'P 1'
_cell_length_a   5.17214461
_cell_length_b   5.29826433
_cell_length_c   7.47436310
_cell_angle_alpha   102.28218747
_cell_angle_beta   71.60399602
_cell_angle_gamma   77.09325305
_symmetry_Int_Tables_number   1
_chemical_formula_structural   VMoO5
_chemical_formula_sum   'V2 Mo2 O10'
_cell_volume   180.34567052
_cell_formula_units_Z   2
loop_
 _symmetry_equiv_pos_site_id
 _symmetry_equiv_pos_as_xyz
  1  'x, y, z'
loop_
 _atom_site_type_symbol
 _atom_site_label
 _atom_site_symmetry_multiplicity
 _atom_site_fract_x
 _atom_site_fract_y
 _atom_site_fract_z
 _atom_site_occupancy
  V  V0  1  0.04382000  0.64691700  0.18259600  1
  V  V1  1  0.54379500  0.64693300  0.68263700  1
  Mo  Mo2  1  0.55895300  0.33599500  0.25070900  1
  Mo  Mo3  1  0.05895900  0.33597500  0.75072300  1
  O  O4  1  0.75825700  0.75229300  0.78908400  1
  O  O5  1  0.25832500  0.75226800  0.28909100  1
  O  O6  1  0.23245700  0.58563800  0.89173200  1
  O  O7  1  0.73244600  0.58564000  0.39175600  1
  O  O8  1  0.77623800  0.00312900  0.21218300  1
  O  O9  1  0.27622700  0.00311900  0.71217000  1
  O  O10  1  0.30583600  0.26767100  0.14364900  1
  O  O11  1  0.80579600  0.26764100  0.64361600  1
  O  O12  1  0.82445000  0.40838700  0.03002100  1
  O  O13  1  0.32443700  0.40839600  0.53003200  1
