# generated using pymatgen
data_K6U4O15
_symmetry_space_group_name_H-M   'P 1'
_cell_length_a   7.67597022
_cell_length_b   7.67597022
_cell_length_c   25.00253000
_cell_angle_alpha   90.00000000
_cell_angle_beta   90.00000000
_cell_angle_gamma   109.04689232
_symmetry_Int_Tables_number   1
_chemical_formula_structural   K6U4O15
_chemical_formula_sum   'K18 U12 O45'
_cell_volume   1392.50907796
_cell_formula_units_Z   3
loop_
 _symmetry_equiv_pos_site_id
 _symmetry_equiv_pos_as_xyz
  1  'x, y, z'
loop_
 _atom_site_type_symbol
 _atom_site_label
 _atom_site_symmetry_multiplicity
 _atom_site_fract_x
 _atom_site_fract_y
 _atom_site_fract_z
 _atom_site_occupancy
  K  K0  1  0.75012800  0.24987200  0.00000000  1
  K  K1  1  0.00000000  0.00000000  0.88022300  1
  K  K2  1  0.00000000  0.50000000  0.87493000  1
  K  K3  1  0.24987200  0.75012800  0.00000000  1
  K  K4  1  0.24994500  0.76770900  0.74693900  1
  K  K5  1  0.50000000  0.50000000  0.62061900  1
  K  K6  1  0.75005500  0.23229100  0.74693900  1
  K  K7  1  0.50000000  0.50000000  0.88431900  1
  K  K8  1  0.74120100  0.25879900  0.50000000  1
  K  K9  1  0.00000000  0.00000000  0.37064800  1
  K  K10  1  0.25879900  0.74120100  0.50000000  1
  K  K11  1  0.00000000  0.00000000  0.62935200  1
  K  K12  1  0.50000000  0.50000000  0.11568100  1
  K  K13  1  0.23229100  0.75005500  0.25306100  1
  K  K14  1  0.50000000  0.00000000  0.12507000  1
  K  K15  1  0.50000000  0.50000000  0.37938100  1
  K  K16  1  0.76770900  0.24994500  0.25306100  1
  K  K17  1  0.00000000  0.00000000  0.11977700  1
  U  U18  1  0.24371200  0.24180300  0.74930200  1
  U  U19  1  0.24949700  0.24949700  0.00000000  1
  U  U20  1  0.50000000  0.00000000  0.87510200  1
  U  U21  1  0.74315800  0.74315800  0.50000000  1
  U  U22  1  0.75628800  0.75819700  0.74930200  1
  U  U23  1  0.75050300  0.75050300  0.00000000  1
  U  U24  1  0.00000000  0.50000000  0.62492100  1
  U  U25  1  0.25684200  0.25684200  0.50000000  1
  U  U26  1  0.50000000  0.00000000  0.37507900  1
  U  U27  1  0.75819700  0.75628800  0.25069800  1
  U  U28  1  0.00000000  0.50000000  0.12489800  1
  U  U29  1  0.24180300  0.24371200  0.25069800  1
  O  O30  1  0.85619600  0.64347300  0.94581600  1
  O  O31  1  0.87499400  0.62428500  0.06402600  1
  O  O32  1  0.00000000  0.00000000  0.00000000  1
  O  O33  1  0.15550800  0.36689600  0.80183000  1
  O  O34  1  0.35652700  0.14380400  0.05418400  1
  O  O35  1  0.36644000  0.15369200  0.69634400  1
  O  O36  1  0.37571500  0.12500600  0.93597400  1
  O  O37  1  0.38252200  0.14011500  0.80869300  1
  O  O38  1  0.12500600  0.37571500  0.06402600  1
  O  O39  1  0.14380400  0.35652700  0.94581600  1
  O  O40  1  0.65530900  0.86564400  0.55256000  1
  O  O41  1  0.28567800  0.78906700  0.87235900  1
  O  O42  1  0.71432200  0.21093300  0.87235900  1
  O  O43  1  0.86564400  0.65530900  0.44744000  1
  O  O44  1  0.50000000  0.50000000  0.00000000  1
  O  O45  1  0.62428500  0.87499400  0.93597400  1
  O  O46  1  0.88200000  0.63886200  0.56079500  1
  O  O47  1  0.86073600  0.61840300  0.68871400  1
  O  O48  1  0.61747800  0.85988500  0.80869300  1
  O  O49  1  0.63356000  0.84630800  0.69634400  1
  O  O50  1  0.64347300  0.85619600  0.05418400  1
  O  O51  1  0.79037400  0.29040100  0.62520100  1
  O  O52  1  0.36689600  0.15550800  0.19817000  1
  O  O53  1  0.20962600  0.70959900  0.62520100  1
  O  O54  1  0.84449200  0.63310400  0.80183000  1
  O  O55  1  0.36113800  0.11800000  0.43920500  1
  O  O56  1  0.00000000  0.00000000  0.74877300  1
  O  O57  1  0.13926400  0.38159700  0.68871400  1
  O  O58  1  0.38159700  0.13926400  0.31128600  1
  O  O59  1  0.11800000  0.36113800  0.56079500  1
  O  O60  1  0.13435600  0.34469100  0.44744000  1
  O  O61  1  0.29040100  0.79037400  0.37479900  1
  O  O62  1  0.70959900  0.20962600  0.37479900  1
  O  O63  1  0.84630800  0.63356000  0.30365600  1
  O  O64  1  0.34469100  0.13435600  0.55256000  1
  O  O65  1  0.63886200  0.88200000  0.43920500  1
  O  O66  1  0.85988500  0.61747800  0.19130700  1
  O  O67  1  0.50000000  0.50000000  0.50000000  1
  O  O68  1  0.61840300  0.86073600  0.31128600  1
  O  O69  1  0.63310400  0.84449200  0.19817000  1
  O  O70  1  0.78906700  0.28567800  0.12764100  1
  O  O71  1  0.21093300  0.71432200  0.12764100  1
  O  O72  1  0.14011500  0.38252200  0.19130700  1
  O  O73  1  0.00000000  0.00000000  0.25122700  1
  O  O74  1  0.15369200  0.36644000  0.30365600  1
