# generated using pymatgen
data_Lu2Se3
_symmetry_space_group_name_H-M   'P 1'
_cell_length_a   14.20877891
_cell_length_b   14.20877891
_cell_length_c   14.20877891
_cell_angle_alpha   144.86648741
_cell_angle_beta   144.86648741
_cell_angle_gamma   50.53353310
_symmetry_Int_Tables_number   1
_chemical_formula_structural   Lu2Se3
_chemical_formula_sum   'Lu16 Se24'
_cell_volume   945.24440863
_cell_formula_units_Z   8
loop_
 _symmetry_equiv_pos_site_id
 _symmetry_equiv_pos_as_xyz
  1  'x, y, z'
loop_
 _atom_site_type_symbol
 _atom_site_label
 _atom_site_symmetry_multiplicity
 _atom_site_fract_x
 _atom_site_fract_y
 _atom_site_fract_z
 _atom_site_occupancy
  Lu  Lu0  1  0.17299300  0.29974000  0.39284300  1
  Lu  Lu1  1  0.58154000  0.08154000  0.50000000  1
  Lu  Lu2  1  0.37500000  0.74119800  0.86619800  1
  Lu  Lu3  1  0.16846000  0.16846000  0.00000000  1
  Lu  Lu4  1  0.84310300  0.95026000  0.37325400  1
  Lu  Lu5  1  0.57700700  0.46984900  0.62674600  1
  Lu  Lu6  1  0.87500000  0.50880200  0.13380200  1
  Lu  Lu7  1  0.04974000  0.42299300  0.89284300  1
  Lu  Lu8  1  0.83154000  0.83154000  0.00000000  1
  Lu  Lu9  1  0.49119800  0.62500000  0.36619800  1
  Lu  Lu10  1  0.25880200  0.12500000  0.63380200  1
  Lu  Lu11  1  0.53015100  0.15689700  0.10715700  1
  Lu  Lu12  1  0.91846000  0.41846000  0.50000000  1
  Lu  Lu13  1  0.70026000  0.09310300  0.87325400  1
  Lu  Lu14  1  0.90689700  0.78015100  0.60715700  1
  Lu  Lu15  1  0.21984900  0.82700700  0.12674600  1
  Se  Se16  1  0.53724000  0.42049400  0.74823600  1
  Se  Se17  1  0.24587200  0.00055900  0.11702600  1
  Se  Se18  1  0.88353300  0.12884600  0.88297400  1
  Se  Se19  1  0.50412800  0.12115400  0.25468700  1
  Se  Se20  1  0.86646700  0.24944100  0.74531300  1
  Se  Se21  1  0.21276000  0.46099700  0.38325400  1
  Se  Se22  1  0.67225800  0.78900300  0.25176400  1
  Se  Se23  1  0.07774200  0.82950600  0.61674600  1
  Se  Se24  1  0.18887500  0.09138200  0.74382100  1
  Se  Se25  1  0.90861800  0.65243900  0.09749300  1
  Se  Se26  1  0.55494600  0.81112500  0.90250700  1
  Se  Se27  1  0.17049400  0.78724000  0.24823600  1
  Se  Se28  1  0.53900300  0.92225800  0.75176400  1
  Se  Se29  1  0.34756100  0.44505400  0.25617900  1
  Se  Se30  1  0.87884600  0.13353300  0.38297400  1
  Se  Se31  1  0.75055900  0.49587200  0.61702600  1
  Se  Se32  1  0.87115400  0.75412800  0.75468700  1
  Se  Se33  1  0.57950600  0.32774200  0.11674600  1
  Se  Se34  1  0.21099700  0.46276000  0.88325400  1
  Se  Se35  1  0.84138200  0.43887500  0.24382100  1
  Se  Se36  1  0.19505400  0.59756100  0.75617900  1
  Se  Se37  1  0.99944100  0.11646700  0.24531300  1
  Se  Se38  1  0.56112500  0.80494600  0.40250700  1
  Se  Se39  1  0.40243900  0.15861800  0.59749300  1
