# generated using pymatgen
data_Tl5SnF9
_symmetry_space_group_name_H-M   'P 1'
_cell_length_a   7.22337800
_cell_length_b   8.32358000
_cell_length_c   9.84076600
_cell_angle_alpha   90.00000000
_cell_angle_beta   90.00000000
_cell_angle_gamma   90.00000000
_symmetry_Int_Tables_number   1
_chemical_formula_structural   Tl5SnF9
_chemical_formula_sum   'Tl10 Sn2 F18'
_cell_volume   591.66980345
_cell_formula_units_Z   2
loop_
 _symmetry_equiv_pos_site_id
 _symmetry_equiv_pos_as_xyz
  1  'x, y, z'
loop_
 _atom_site_type_symbol
 _atom_site_label
 _atom_site_symmetry_multiplicity
 _atom_site_fract_x
 _atom_site_fract_y
 _atom_site_fract_z
 _atom_site_occupancy
  Tl  Tl0  1  0.05172200  0.77434700  0.57329300  1
  Tl  Tl1  1  0.05172200  0.22565300  0.57329300  1
  Tl  Tl2  1  0.45447500  0.00000000  0.76674100  1
  Tl  Tl3  1  0.43816800  0.23087900  0.08658700  1
  Tl  Tl4  1  0.43816800  0.76912100  0.08658700  1
  Tl  Tl5  1  0.55172200  0.22565300  0.42670700  1
  Tl  Tl6  1  0.55172200  0.77434700  0.42670700  1
  Tl  Tl7  1  0.95447500  0.00000000  0.23325900  1
  Tl  Tl8  1  0.93816800  0.76912100  0.91341300  1
  Tl  Tl9  1  0.93816800  0.23087900  0.91341300  1
  Sn  Sn10  1  0.49576000  0.50000000  0.75013100  1
  Sn  Sn11  1  0.99576000  0.50000000  0.24986900  1
  F  F12  1  0.10688700  0.50000000  0.06398200  1
  F  F13  1  0.17282400  0.67624700  0.30226200  1
  F  F14  1  0.17282400  0.32375300  0.30226200  1
  F  F15  1  0.21103500  0.00000000  0.01742900  1
  F  F16  1  0.30800000  0.00000000  0.51559700  1
  F  F17  1  0.31665100  0.67470400  0.80364100  1
  F  F18  1  0.31665100  0.32529600  0.80364100  1
  F  F19  1  0.38505200  0.50000000  0.56493600  1
  F  F20  1  0.53373400  0.00000000  0.24681600  1
  F  F21  1  0.60688700  0.50000000  0.93601800  1
  F  F22  1  0.67282400  0.67624700  0.69773800  1
  F  F23  1  0.67282400  0.32375300  0.69773800  1
  F  F24  1  0.71103500  0.00000000  0.98257100  1
  F  F25  1  0.80800000  0.00000000  0.48440300  1
  F  F26  1  0.81665100  0.67470400  0.19635900  1
  F  F27  1  0.81665100  0.32529600  0.19635900  1
  F  F28  1  0.88505200  0.50000000  0.43506400  1
  F  F29  1  0.03373400  0.00000000  0.75318400  1
