# generated using pymatgen
data_LuBr3O8
_symmetry_space_group_name_H-M   'P 1'
_cell_length_a   14.06499900
_cell_length_b   6.81383400
_cell_length_c   9.98018945
_cell_angle_alpha   73.62201087
_cell_angle_beta   90.00000000
_cell_angle_gamma   90.00000000
_symmetry_Int_Tables_number   1
_chemical_formula_structural   LuBr3O8
_chemical_formula_sum   'Lu4 Br12 O32'
_cell_volume   917.65593893
_cell_formula_units_Z   4
loop_
 _symmetry_equiv_pos_site_id
 _symmetry_equiv_pos_as_xyz
  1  'x, y, z'
loop_
 _atom_site_type_symbol
 _atom_site_label
 _atom_site_symmetry_multiplicity
 _atom_site_fract_x
 _atom_site_fract_y
 _atom_site_fract_z
 _atom_site_occupancy
  Lu  Lu0  1  0.37658000  0.10203400  0.22914500  1
  Lu  Lu1  1  0.12342000  0.10203400  0.72914500  1
  Lu  Lu2  1  0.62342000  0.89796600  0.77085500  1
  Lu  Lu3  1  0.87658000  0.89796600  0.27085500  1
  Br  Br4  1  0.35051700  0.23883100  0.56544200  1
  Br  Br5  1  0.14948300  0.23883100  0.06544200  1
  Br  Br6  1  0.64948300  0.76116900  0.43455800  1
  Br  Br7  1  0.85051700  0.76116900  0.93455800  1
  Br  Br8  1  0.12569600  0.90181500  0.40707400  1
  Br  Br9  1  0.37430400  0.90181500  0.90707400  1
  Br  Br10  1  0.87430400  0.09818500  0.59292600  1
  Br  Br11  1  0.62569600  0.09818500  0.09292600  1
  Br  Br12  1  0.25603200  0.66156400  0.69719800  1
  Br  Br13  1  0.24396800  0.66156400  0.19719800  1
  Br  Br14  1  0.74396800  0.33843600  0.30280200  1
  Br  Br15  1  0.75603200  0.33843600  0.80280200  1
  O  O16  1  0.27715600  0.86022100  0.27812900  1
  O  O17  1  0.22284400  0.86022100  0.77812900  1
  O  O18  1  0.72284400  0.13977900  0.72187100  1
  O  O19  1  0.77715600  0.13977900  0.22187100  1
  O  O20  1  0.44355100  0.59228900  0.21271700  1
  O  O21  1  0.05644900  0.59228900  0.71271700  1
  O  O22  1  0.55644900  0.40771100  0.78728300  1
  O  O23  1  0.94355100  0.40771100  0.28728300  1
  O  O24  1  0.32865900  0.21967700  0.39775500  1
  O  O25  1  0.17134100  0.21967700  0.89775500  1
  O  O26  1  0.67134100  0.78032300  0.60224500  1
  O  O27  1  0.82865900  0.78032300  0.10224500  1
  O  O28  1  0.25976800  0.32310400  0.12076000  1
  O  O29  1  0.24023200  0.32310400  0.62076000  1
  O  O30  1  0.74023200  0.67689600  0.87924000  1
  O  O31  1  0.75976800  0.67689600  0.37924000  1
  O  O32  1  0.49451700  0.95390100  0.45098100  1
  O  O33  1  0.00548300  0.95390100  0.95098100  1
  O  O34  1  0.50548300  0.04609900  0.54901900  1
  O  O35  1  0.99451700  0.04609900  0.04901900  1
  O  O36  1  0.39546000  0.03872600  0.02561800  1
  O  O37  1  0.10454000  0.03872600  0.52561800  1
  O  O38  1  0.60454000  0.96127400  0.97438200  1
  O  O39  1  0.89546000  0.96127400  0.47438200  1
  O  O40  1  0.46495000  0.71294800  0.28132500  1
  O  O41  1  0.03505000  0.71294800  0.78132500  1
  O  O42  1  0.53505000  0.28705200  0.71867500  1
  O  O43  1  0.96495000  0.28705200  0.21867500  1
  O  O44  1  0.52425600  0.17816600  0.16556500  1
  O  O45  1  0.97574400  0.17816600  0.66556500  1
  O  O46  1  0.47574400  0.82183400  0.83443500  1
  O  O47  1  0.02425600  0.82183400  0.33443500  1
