# generated using pymatgen
data_La3(MoO5)2
_symmetry_space_group_name_H-M   'P 1'
_cell_length_a   5.66825700
_cell_length_b   6.30019445
_cell_length_c   7.32080061
_cell_angle_alpha   79.21097532
_cell_angle_beta   67.29850848
_cell_angle_gamma   65.52501352
_symmetry_Int_Tables_number   1
_chemical_formula_structural   La3(MoO5)2
_chemical_formula_sum   'La3 Mo2 O10'
_cell_volume   219.39218625
_cell_formula_units_Z   1
loop_
 _symmetry_equiv_pos_site_id
 _symmetry_equiv_pos_as_xyz
  1  'x, y, z'
loop_
 _atom_site_type_symbol
 _atom_site_label
 _atom_site_symmetry_multiplicity
 _atom_site_fract_x
 _atom_site_fract_y
 _atom_site_fract_z
 _atom_site_occupancy
  La  La0  1  0.79702600  0.60581500  0.79040600  1
  La  La1  1  0.19393900  0.37255100  0.20198200  1
  La  La2  1  0.57877300  0.20989700  0.59601100  1
  Mo  Mo3  1  0.01960000  0.01501600  0.91012000  1
  Mo  Mo4  1  0.35351600  0.79413200  0.38804000  1
  O  O5  1  0.41588500  0.90581300  0.76853500  1
  O  O6  1  0.97890300  0.76887700  0.06629600  1
  O  O7  1  0.20733300  0.53159500  0.48985400  1
  O  O8  1  0.00154300  0.92289200  0.67640400  1
  O  O9  1  0.64664700  0.27272000  0.91079200  1
  O  O10  1  0.49727300  0.67608800  0.14688900  1
  O  O11  1  0.04697600  0.04358500  0.31901700  1
  O  O12  1  0.67269600  0.56186900  0.47186400  1
  O  O13  1  0.10430500  0.29555200  0.92227600  1
  O  O14  1  0.47830900  0.03426800  0.36677600  1
