# generated using pymatgen
data_Ca16HN8
_symmetry_space_group_name_H-M   'P 1'
_cell_length_a   7.29611600
_cell_length_b   10.35846100
_cell_length_c   14.71143500
_cell_angle_alpha   90.00000000
_cell_angle_beta   90.00000000
_cell_angle_gamma   90.00000000
_symmetry_Int_Tables_number   1
_chemical_formula_structural   Ca16HN8
_chemical_formula_sum   'Ca32 H2 N16'
_cell_volume   1111.83925331
_cell_formula_units_Z   2
loop_
 _symmetry_equiv_pos_site_id
 _symmetry_equiv_pos_as_xyz
  1  'x, y, z'
loop_
 _atom_site_type_symbol
 _atom_site_label
 _atom_site_symmetry_multiplicity
 _atom_site_fract_x
 _atom_site_fract_y
 _atom_site_fract_z
 _atom_site_occupancy
  Ca  Ca0  1  0.22003800  0.73529100  0.00023100  1
  Ca  Ca1  1  0.00000000  0.51062300  0.88897300  1
  Ca  Ca2  1  0.77996200  0.73529100  0.00023100  1
  Ca  Ca3  1  0.72518700  0.23615600  0.75163900  1
  Ca  Ca4  1  0.72450400  0.26429900  0.99821800  1
  Ca  Ca5  1  0.50000000  0.48540500  0.89002900  1
  Ca  Ca6  1  0.50000000  0.01561200  0.64017200  1
  Ca  Ca7  1  0.50000000  0.01480100  0.86002800  1
  Ca  Ca8  1  0.27549600  0.26429900  0.99821800  1
  Ca  Ca9  1  0.27481300  0.23615600  0.75163900  1
  Ca  Ca10  1  0.22450400  0.73570100  0.49821800  1
  Ca  Ca11  1  0.22009800  0.76479100  0.74973800  1
  Ca  Ca12  1  0.00000000  0.98902400  0.86061700  1
  Ca  Ca13  1  0.00000000  0.98461600  0.63939300  1
  Ca  Ca14  1  0.00000000  0.51459500  0.39002900  1
  Ca  Ca15  1  0.00000000  0.51576700  0.60931500  1
  Ca  Ca16  1  0.77549600  0.73570100  0.49821800  1
  Ca  Ca17  1  0.77990200  0.76479100  0.74973800  1
  Ca  Ca18  1  0.72009800  0.23520900  0.24973800  1
  Ca  Ca19  1  0.72003800  0.26470900  0.50023100  1
  Ca  Ca20  1  0.50000000  0.48937700  0.38897300  1
  Ca  Ca21  1  0.50000000  0.48468000  0.61044500  1
  Ca  Ca22  1  0.50000000  0.01538400  0.13939300  1
  Ca  Ca23  1  0.50000000  0.01097600  0.36061700  1
  Ca  Ca24  1  0.27996200  0.26470900  0.50023100  1
  Ca  Ca25  1  0.27990200  0.23520900  0.24973800  1
  Ca  Ca26  1  0.22518700  0.76384400  0.25163900  1
  Ca  Ca27  1  0.00000000  0.98438800  0.14017200  1
  Ca  Ca28  1  0.00000000  0.98519900  0.36002800  1
  Ca  Ca29  1  0.00000000  0.51532000  0.11044500  1
  Ca  Ca30  1  0.77481300  0.76384400  0.25163900  1
  Ca  Ca31  1  0.50000000  0.48423300  0.10931500  1
  H  H32  1  0.00000000  0.26434500  0.86063100  1
  H  H33  1  0.50000000  0.73565500  0.36063100  1
  N  N34  1  0.00000000  0.75033300  0.87480900  1
  N  N35  1  0.50000000  0.25074900  0.62499500  1
  N  N36  1  0.50000000  0.25000300  0.87508000  1
  N  N37  1  0.24976300  0.00036300  0.75061000  1
  N  N38  1  0.24991700  0.49948300  0.99940000  1
  N  N39  1  0.00000000  0.74999700  0.37508000  1
  N  N40  1  0.00000000  0.75043600  0.62450900  1
  N  N41  1  0.74991700  0.50051700  0.49940000  1
  N  N42  1  0.75023700  0.00036300  0.75061000  1
  N  N43  1  0.50000000  0.24956400  0.12450900  1
  N  N44  1  0.50000000  0.24966700  0.37480900  1
  N  N45  1  0.25023700  0.99963700  0.25061000  1
  N  N46  1  0.25008300  0.50051700  0.49940000  1
  N  N47  1  0.00000000  0.74925100  0.12499500  1
  N  N48  1  0.74976300  0.99963700  0.25061000  1
  N  N49  1  0.75008300  0.49948300  0.99940000  1
