# generated using pymatgen
data_Sm2ZnS4
_symmetry_space_group_name_H-M   'P 1'
_cell_length_a   7.36958963
_cell_length_b   7.36958963
_cell_length_c   7.36958963
_cell_angle_alpha   111.29417894
_cell_angle_beta   111.29417894
_cell_angle_gamma   105.88377464
_symmetry_Int_Tables_number   1
_chemical_formula_structural   Sm2ZnS4
_chemical_formula_sum   'Sm4 Zn2 S8'
_cell_volume   307.21296221
_cell_formula_units_Z   2
loop_
 _symmetry_equiv_pos_site_id
 _symmetry_equiv_pos_as_xyz
  1  'x, y, z'
loop_
 _atom_site_type_symbol
 _atom_site_label
 _atom_site_symmetry_multiplicity
 _atom_site_fract_x
 _atom_site_fract_y
 _atom_site_fract_z
 _atom_site_occupancy
  Sm  Sm0  1  0.87500000  0.47923900  0.10423900  1
  Sm  Sm1  1  0.22923900  0.12500000  0.60423900  1
  Sm  Sm2  1  0.37500000  0.77076100  0.89576100  1
  Sm  Sm3  1  0.52076100  0.62500000  0.39576100  1
  Zn  Zn4  1  0.75000000  0.25000000  0.50000000  1
  Zn  Zn5  1  0.00000000  0.00000000  0.00000000  1
  S  S6  1  0.64664600  0.99338900  0.78112500  1
  S  S7  1  0.10335400  0.38447900  0.84674300  1
  S  S8  1  0.74338900  0.89664600  0.28112500  1
  S  S9  1  0.00661100  0.78773600  0.65325700  1
  S  S10  1  0.21226400  0.86552100  0.21887500  1
  S  S11  1  0.13447900  0.35335400  0.34674300  1
  S  S12  1  0.53773600  0.25661100  0.15325700  1
  S  S13  1  0.61552100  0.46226400  0.71887500  1
