# generated using pymatgen
data_Sm2PbS4
_symmetry_space_group_name_H-M   'P 1'
_cell_length_a   7.46772689
_cell_length_b   7.46772689
_cell_length_c   7.46772689
_cell_angle_alpha   109.40221712
_cell_angle_beta   109.40221712
_cell_angle_gamma   109.60931599
_symmetry_Int_Tables_number   1
_chemical_formula_structural   Sm2PbS4
_chemical_formula_sum   'Sm4 Pb2 S8'
_cell_volume   320.58374380
_cell_formula_units_Z   2
loop_
 _symmetry_equiv_pos_site_id
 _symmetry_equiv_pos_as_xyz
  1  'x, y, z'
loop_
 _atom_site_type_symbol
 _atom_site_label
 _atom_site_symmetry_multiplicity
 _atom_site_fract_x
 _atom_site_fract_y
 _atom_site_fract_z
 _atom_site_occupancy
  Sm  Sm0  1  0.49421700  0.87500000  0.11921700  1
  Sm  Sm1  1  0.12500000  0.24421700  0.61921700  1
  Sm  Sm2  1  0.75578300  0.37500000  0.88078300  1
  Sm  Sm3  1  0.62500000  0.50578300  0.38078300  1
  Pb  Pb4  1  0.25000000  0.75000000  0.50000000  1
  Pb  Pb5  1  0.00000000  0.00000000  0.00000000  1
  S  S6  1  0.01351700  0.60987600  0.74653200  1
  S  S7  1  0.39012400  0.13665600  0.40364100  1
  S  S8  1  0.85987600  0.76351700  0.24653200  1
  S  S9  1  0.38665600  0.14012400  0.90364100  1
  S  S10  1  0.23648300  0.48301500  0.09635900  1
  S  S11  1  0.73301500  0.98648300  0.59635900  1
  S  S12  1  0.86334400  0.26698500  0.25346800  1
  S  S13  1  0.51698500  0.61334400  0.75346800  1
