# generated using pymatgen
data_Nd2PbSe4
_symmetry_space_group_name_H-M   'P 1'
_cell_length_a   7.83962503
_cell_length_b   7.83962503
_cell_length_c   7.83962503
_cell_angle_alpha   109.41801808
_cell_angle_beta   109.41801808
_cell_angle_gamma   109.57767822
_symmetry_Int_Tables_number   1
_chemical_formula_structural   Nd2PbSe4
_chemical_formula_sum   'Nd4 Pb2 Se8'
_cell_volume   370.90514407
_cell_formula_units_Z   2
loop_
 _symmetry_equiv_pos_site_id
 _symmetry_equiv_pos_as_xyz
  1  'x, y, z'
loop_
 _atom_site_type_symbol
 _atom_site_label
 _atom_site_symmetry_multiplicity
 _atom_site_fract_x
 _atom_site_fract_y
 _atom_site_fract_z
 _atom_site_occupancy
  Nd  Nd0  1  0.99397000  0.37500000  0.11897000  1
  Nd  Nd1  1  0.25603000  0.87500000  0.88103000  1
  Nd  Nd2  1  0.62500000  0.74397000  0.61897000  1
  Nd  Nd3  1  0.12500000  0.00603000  0.38103000  1
  Pb  Pb4  1  0.75000000  0.25000000  0.50000000  1
  Pb  Pb5  1  0.50000000  0.50000000  0.00000000  1
  Se  Se6  1  0.51784700  0.11522000  0.74782100  1
  Se  Se7  1  0.88478000  0.63260000  0.40262700  1
  Se  Se8  1  0.36522000  0.26784700  0.24782100  1
  Se  Se9  1  0.22997400  0.48215300  0.59737300  1
  Se  Se10  1  0.88260000  0.63478000  0.90262700  1
  Se  Se11  1  0.36740000  0.77002600  0.25217900  1
  Se  Se12  1  0.73215300  0.97997400  0.09737300  1
  Se  Se13  1  0.02002600  0.11740000  0.75217900  1
