# generated using pymatgen
data_MgMo3Se4
_symmetry_space_group_name_H-M   'P 1'
_cell_length_a   9.30709300
_cell_length_b   9.49319020
_cell_length_c   9.69189392
_cell_angle_alpha   66.53996489
_cell_angle_beta   64.88839760
_cell_angle_gamma   65.36500474
_symmetry_Int_Tables_number   1
_chemical_formula_structural   MgMo3Se4
_chemical_formula_sum   'Mg4 Mo12 Se16'
_cell_volume   678.87436651
_cell_formula_units_Z   4
loop_
 _symmetry_equiv_pos_site_id
 _symmetry_equiv_pos_as_xyz
  1  'x, y, z'
loop_
 _atom_site_type_symbol
 _atom_site_label
 _atom_site_symmetry_multiplicity
 _atom_site_fract_x
 _atom_site_fract_y
 _atom_site_fract_z
 _atom_site_occupancy
  Mg  Mg0  1  0.36764900  0.27834100  0.67878200  1
  Mg  Mg1  1  0.22042600  0.77624400  0.76437800  1
  Mg  Mg2  1  0.77957400  0.22375600  0.23562200  1
  Mg  Mg3  1  0.63235100  0.72165900  0.32121800  1
  Mo  Mo4  1  0.55235400  0.68718200  0.86045800  1
  Mo  Mo5  1  0.81301700  0.64324600  0.93760400  1
  Mo  Mo6  1  0.86134800  0.55693300  0.68167600  1
  Mo  Mo7  1  0.64000900  0.93961900  0.81741300  1
  Mo  Mo8  1  0.68363800  0.85392000  0.56356300  1
  Mo  Mo9  1  0.94533400  0.81102000  0.64021200  1
  Mo  Mo10  1  0.05466600  0.18898000  0.35978800  1
  Mo  Mo11  1  0.31636200  0.14608000  0.43643700  1
  Mo  Mo12  1  0.35999100  0.06038100  0.18258700  1
  Mo  Mo13  1  0.13865200  0.44306700  0.31832400  1
  Mo  Mo14  1  0.18698300  0.35675400  0.06239600  1
  Mo  Mo15  1  0.44764600  0.31281800  0.13954200  1
  Se  Se16  1  0.49523000  0.22718100  0.89664600  1
  Se  Se17  1  0.73466400  0.39539100  0.96450200  1
  Se  Se18  1  0.59693100  0.59491700  0.62123600  1
  Se  Se19  1  0.37947400  0.98193800  0.73401300  1
  Se  Se20  1  0.11650600  0.52035400  0.76596600  1
  Se  Se21  1  0.89439900  0.89129900  0.89373200  1
  Se  Se22  1  0.98284600  0.73103300  0.39782700  1
  Se  Se23  1  0.76282200  0.10589600  0.53353500  1
  Se  Se24  1  0.23717800  0.89410400  0.46646500  1
  Se  Se25  1  0.01715400  0.26896700  0.60217300  1
  Se  Se26  1  0.10560100  0.10870100  0.10626800  1
  Se  Se27  1  0.88349400  0.47964600  0.23403400  1
  Se  Se28  1  0.62052600  0.01806200  0.26598700  1
  Se  Se29  1  0.40306900  0.40508300  0.37876400  1
  Se  Se30  1  0.26533600  0.60460900  0.03549800  1
  Se  Se31  1  0.50477000  0.77281900  0.10335400  1
