# generated using pymatgen
data_CaZr4O9
_symmetry_space_group_name_H-M   'P 1'
_cell_length_a   15.78166895
_cell_length_b   15.78166895
_cell_length_c   6.50253640
_cell_angle_alpha   86.55588061
_cell_angle_beta   86.55588061
_cell_angle_gamma   12.75878592
_symmetry_Int_Tables_number   1
_chemical_formula_structural   CaZr4O9
_chemical_formula_sum   'Ca2 Zr8 O18'
_cell_volume   357.01396785
_cell_formula_units_Z   2
loop_
 _symmetry_equiv_pos_site_id
 _symmetry_equiv_pos_as_xyz
  1  'x, y, z'
loop_
 _atom_site_type_symbol
 _atom_site_label
 _atom_site_symmetry_multiplicity
 _atom_site_fract_x
 _atom_site_fract_y
 _atom_site_fract_z
 _atom_site_occupancy
  Ca  Ca0  1  0.50000000  0.50000000  0.00000000  1
  Ca  Ca1  1  0.00000000  0.00000000  0.50000000  1
  Zr  Zr2  1  0.09314300  0.09314300  0.82090300  1
  Zr  Zr3  1  0.60537600  0.60537600  0.29684000  1
  Zr  Zr4  1  0.90685700  0.90685700  0.17909700  1
  Zr  Zr5  1  0.70265900  0.70265900  0.60094900  1
  Zr  Zr6  1  0.39462400  0.39462400  0.70316000  1
  Zr  Zr7  1  0.29734100  0.29734100  0.39905100  1
  Zr  Zr8  1  0.19961600  0.19961600  0.10041500  1
  Zr  Zr9  1  0.80038400  0.80038400  0.89958500  1
  O  O10  1  0.57250800  0.57250800  0.02862300  1
  O  O11  1  0.97161500  0.97161500  0.20407100  1
  O  O12  1  0.07146100  0.07146100  0.39348200  1
  O  O13  1  0.38783400  0.38783400  0.34981600  1
  O  O14  1  0.92853900  0.92853900  0.60651800  1
  O  O15  1  0.02838500  0.02838500  0.79592900  1
  O  O16  1  0.86688000  0.86688000  0.91215800  1
  O  O17  1  0.76880400  0.76880400  0.61754300  1
  O  O18  1  0.32846500  0.32846500  0.68133100  1
  O  O19  1  0.18092600  0.18092600  0.73392000  1
  O  O20  1  0.42749200  0.42749200  0.97137700  1
  O  O21  1  0.28009500  0.28009500  0.03934500  1
  O  O22  1  0.71990500  0.71990500  0.96065500  1
  O  O23  1  0.81907400  0.81907400  0.26608000  1
  O  O24  1  0.67153500  0.67153500  0.31866900  1
  O  O25  1  0.13312000  0.13312000  0.08784200  1
  O  O26  1  0.23119600  0.23119600  0.38245700  1
  O  O27  1  0.61216600  0.61216600  0.65018400  1
