# generated using pymatgen
data_Co7(RuO6)2
_symmetry_space_group_name_H-M   'P 1'
_cell_length_a   5.87823919
_cell_length_b   17.63532585
_cell_length_c   15.56370613
_cell_angle_alpha   19.10977801
_cell_angle_beta   53.80813481
_cell_angle_gamma   57.93385868
_symmetry_Int_Tables_number   1
_chemical_formula_structural   Co7(RuO6)2
_chemical_formula_sum   'Co14 Ru4 O24'
_cell_volume   424.03670772
_cell_formula_units_Z   2
loop_
 _symmetry_equiv_pos_site_id
 _symmetry_equiv_pos_as_xyz
  1  'x, y, z'
loop_
 _atom_site_type_symbol
 _atom_site_label
 _atom_site_symmetry_multiplicity
 _atom_site_fract_x
 _atom_site_fract_y
 _atom_site_fract_z
 _atom_site_occupancy
  Co  Co0  1  0.12510100  0.29772500  0.11207000  1
  Co  Co1  1  0.49419900  0.15692900  0.01197800  1
  Co  Co2  1  0.50871900  0.51170000  0.98502300  1
  Co  Co3  1  0.11785300  0.61388900  0.14212700  1
  Co  Co4  1  0.50382800  0.17126000  0.49788700  1
  Co  Co5  1  0.49921100  0.83540200  0.99774800  1
  Co  Co6  1  0.13171100  0.96462500  0.11836000  1
  Co  Co7  1  0.49903100  0.33552500  0.49767200  1
  Co  Co8  1  0.49656200  0.49922000  0.49758400  1
  Co  Co9  1  0.88180800  0.05726100  0.85234700  1
  Co  Co10  1  0.50169400  0.83378700  0.49890000  1
  Co  Co11  1  0.87823400  0.36970000  0.88630200  1
  Co  Co12  1  0.00199800  0.83362700  0.49896400  1
  Co  Co13  1  0.87096400  0.70600100  0.87699900  1
  Ru  Ru14  1  0.48002900  0.00835100  0.49855000  1
  Ru  Ru15  1  0.02124200  0.16319200  0.49553900  1
  Ru  Ru16  1  0.52293300  0.66037000  0.49829700  1
  Ru  Ru17  1  0.97958400  0.50736800  0.49986100  1
  O  O18  1  0.25486500  0.05681500  0.26979600  1
  O  O19  1  0.27623300  0.28427200  0.20957500  1
  O  O20  1  0.73441500  0.05179700  0.28935500  1
  O  O21  1  0.27547600  0.40464000  0.25113700  1
  O  O22  1  0.71550900  0.25670100  0.25343500  1
  O  O23  1  0.28836000  0.09404800  0.73284900  1
  O  O24  1  0.26447500  0.58671000  0.25493900  1
  O  O25  1  0.26527400  0.28002800  0.71294600  1
  O  O26  1  0.73441800  0.39063100  0.28284400  1
  O  O27  1  0.26687600  0.73982200  0.25174200  1
  O  O28  1  0.71082300  0.57696300  0.26207100  1
  O  O29  1  0.73375400  0.08451200  0.74007700  1
  O  O30  1  0.28686600  0.41150600  0.74419100  1
  O  O31  1  0.26697400  0.91786500  0.25499700  1
  O  O32  1  0.73025300  0.73752500  0.25629100  1
  O  O33  1  0.26975500  0.61535800  0.70888800  1
  O  O34  1  0.72464600  0.26519300  0.74491400  1
  O  O35  1  0.72401500  0.91619300  0.25817200  1
  O  O36  1  0.72643000  0.38471800  0.78739200  1
  O  O37  1  0.27908600  0.75166000  0.73932200  1
  O  O38  1  0.74810900  0.61071200  0.72814300  1
  O  O39  1  0.27095200  0.93331600  0.73854900  1
  O  O40  1  0.73696600  0.75097100  0.74135600  1
  O  O41  1  0.73277200  0.93037300  0.74438900  1
