# generated using pymatgen
data_MnH12C2NCl3O2
_symmetry_space_group_name_H-M   'P 1'
_cell_length_a   10.74736260
_cell_length_b   10.74736260
_cell_length_c   9.39721800
_cell_angle_alpha   90.00000000
_cell_angle_beta   90.00000000
_cell_angle_gamma   109.55004524
_symmetry_Int_Tables_number   1
_chemical_formula_structural   MnH12C2NCl3O2
_chemical_formula_sum   'Mn4 H48 C8 N4 Cl12 O8'
_cell_volume   1022.85751555
_cell_formula_units_Z   4
loop_
 _symmetry_equiv_pos_site_id
 _symmetry_equiv_pos_as_xyz
  1  'x, y, z'
loop_
 _atom_site_type_symbol
 _atom_site_label
 _atom_site_symmetry_multiplicity
 _atom_site_fract_x
 _atom_site_fract_y
 _atom_site_fract_z
 _atom_site_occupancy
  Mn  Mn0  1  0.26791500  0.26791500  0.71448600  1
  Mn  Mn1  1  0.73208500  0.73208500  0.28551400  1
  Mn  Mn2  1  0.23208500  0.23208500  0.21448600  1
  Mn  Mn3  1  0.76791500  0.76791500  0.78551400  1
  H  H4  1  0.98741600  0.32432000  0.91077000  1
  H  H5  1  0.67568000  0.01258400  0.08923000  1
  H  H6  1  0.17568000  0.51258400  0.41077000  1
  H  H7  1  0.48741600  0.82432000  0.58923000  1
  H  H8  1  0.01258400  0.67568000  0.08923000  1
  H  H9  1  0.32432000  0.98741600  0.91077000  1
  H  H10  1  0.82432000  0.48741600  0.58923000  1
  H  H11  1  0.51258400  0.17568000  0.41077000  1
  H  H12  1  0.81998000  0.31173400  0.87095400  1
  H  H13  1  0.68826600  0.18002000  0.12904600  1
  H  H14  1  0.18826600  0.68002000  0.37095400  1
  H  H15  1  0.31998000  0.81173400  0.62904600  1
  H  H16  1  0.18002000  0.68826600  0.12904600  1
  H  H17  1  0.31173400  0.81998000  0.87095400  1
  H  H18  1  0.81173400  0.31998000  0.62904600  1
  H  H19  1  0.68002000  0.18826600  0.37095400  1
  H  H20  1  0.13947200  0.61562100  0.54511300  1
  H  H21  1  0.38437900  0.86052800  0.45488700  1
  H  H22  1  0.88437900  0.36052800  0.04511300  1
  H  H23  1  0.63947200  0.11562100  0.95488700  1
  H  H24  1  0.86052800  0.38437900  0.45488700  1
  H  H25  1  0.61562100  0.13947200  0.54511300  1
  H  H26  1  0.11562100  0.63947200  0.95488700  1
  H  H27  1  0.36052800  0.88437900  0.04511300  1
  H  H28  1  0.98770500  0.15512600  0.65943300  1
  H  H29  1  0.84487400  0.01229500  0.34056700  1
  H  H30  1  0.34487400  0.51229500  0.15943300  1
  H  H31  1  0.48770500  0.65512600  0.84056700  1
  H  H32  1  0.01229500  0.84487400  0.34056700  1
  H  H33  1  0.15512600  0.98770500  0.65943300  1
  H  H34  1  0.65512600  0.48770500  0.84056700  1
  H  H35  1  0.51229500  0.34487400  0.15943300  1
  H  H36  1  0.25388500  0.44244800  0.03301000  1
  H  H37  1  0.55755200  0.74611500  0.96699000  1
  H  H38  1  0.05755200  0.24611500  0.53301000  1
  H  H39  1  0.75388500  0.94244800  0.46699000  1
  H  H40  1  0.74611500  0.55755200  0.96699000  1
  H  H41  1  0.44244800  0.25388500  0.03301000  1
  H  H42  1  0.94244800  0.75388500  0.46699000  1
  H  H43  1  0.24611500  0.05755200  0.53301000  1
  H  H44  1  0.34987200  0.59851000  0.58324900  1
  H  H45  1  0.40149000  0.65012800  0.41675100  1
  H  H46  1  0.90149000  0.15012800  0.08324900  1
  H  H47  1  0.84987200  0.09851000  0.91675100  1
  H  H48  1  0.65012800  0.40149000  0.41675100  1
  H  H49  1  0.59851000  0.34987200  0.58324900  1
  H  H50  1  0.09851000  0.84987200  0.91675100  1
  H  H51  1  0.15012800  0.90149000  0.08324900  1
  C  C52  1  0.88705900  0.29926100  0.95295100  1
  C  C53  1  0.70073900  0.11294100  0.04704900  1
  C  C54  1  0.20073900  0.61294100  0.45295100  1
  C  C55  1  0.38705900  0.79926100  0.54704900  1
  C  C56  1  0.11294100  0.70073900  0.04704900  1
  C  C57  1  0.29926100  0.88705900  0.95295100  1
  C  C58  1  0.79926100  0.38705900  0.54704900  1
  C  C59  1  0.61294100  0.20073900  0.45295100  1
  N  N60  1  0.34100800  0.65899200  0.50000000  1
  N  N61  1  0.84100800  0.15899200  0.00000000  1
  N  N62  1  0.65899200  0.34100800  0.50000000  1
  N  N63  1  0.15899200  0.84100800  0.00000000  1
  Cl  Cl64  1  0.16579600  0.16579600  0.95238300  1
  Cl  Cl65  1  0.83420400  0.83420400  0.04761700  1
  Cl  Cl66  1  0.33420400  0.33420400  0.45238300  1
  Cl  Cl67  1  0.66579600  0.66579600  0.54761700  1
  Cl  Cl68  1  0.29129300  0.50288900  0.79096200  1
  Cl  Cl69  1  0.49711100  0.70870700  0.20903800  1
  Cl  Cl70  1  0.99711100  0.20870700  0.29096200  1
  Cl  Cl71  1  0.79129300  0.00288900  0.70903800  1
  Cl  Cl72  1  0.70870700  0.49711100  0.20903800  1
  Cl  Cl73  1  0.50288900  0.29129300  0.79096200  1
  Cl  Cl74  1  0.00288900  0.79129300  0.70903800  1
  Cl  Cl75  1  0.20870700  0.99711100  0.29096200  1
  O  O76  1  0.26242300  0.43945100  0.13696300  1
  O  O77  1  0.56054900  0.73757700  0.86303700  1
  O  O78  1  0.06054900  0.23757700  0.63696300  1
  O  O79  1  0.76242300  0.93945100  0.36303700  1
  O  O80  1  0.73757700  0.56054900  0.86303700  1
  O  O81  1  0.43945100  0.26242300  0.13696300  1
  O  O82  1  0.93945100  0.76242300  0.36303700  1
  O  O83  1  0.23757700  0.06054900  0.63696300  1
