# generated using pymatgen
data_Na7Cu3O8
_symmetry_space_group_name_H-M   'P 1'
_cell_length_a   5.51065600
_cell_length_b   6.53044400
_cell_length_c   7.42831495
_cell_angle_alpha   106.06380302
_cell_angle_beta   108.56219229
_cell_angle_gamma   90.21269990
_symmetry_Int_Tables_number   1
_chemical_formula_structural   Na7Cu3O8
_chemical_formula_sum   'Na7 Cu3 O8'
_cell_volume   242.28205634
_cell_formula_units_Z   1
loop_
 _symmetry_equiv_pos_site_id
 _symmetry_equiv_pos_as_xyz
  1  'x, y, z'
loop_
 _atom_site_type_symbol
 _atom_site_label
 _atom_site_symmetry_multiplicity
 _atom_site_fract_x
 _atom_site_fract_y
 _atom_site_fract_z
 _atom_site_occupancy
  Na  Na0  1  0.27173800  0.41585100  0.38538100  1
  Na  Na1  1  0.56186700  0.16063000  0.72172000  1
  Na  Na2  1  0.76329700  0.60658700  0.04294000  1
  Na  Na3  1  0.00000000  0.00000000  0.50000000  1
  Na  Na4  1  0.23670300  0.39341300  0.95706000  1
  Na  Na5  1  0.43813300  0.83937000  0.27828000  1
  Na  Na6  1  0.72826200  0.58414900  0.61461900  1
  Cu  Cu7  1  0.72669400  0.24138700  0.23327900  1
  Cu  Cu8  1  0.00000000  0.00000000  0.00000000  1
  Cu  Cu9  1  0.27330600  0.75861300  0.76672100  1
  O  O10  1  0.60158600  0.50315100  0.26025800  1
  O  O11  1  0.62330400  0.19091800  0.43010900  1
  O  O12  1  0.89455100  0.27572800  0.05305500  1
  O  O13  1  0.84865300  0.97065400  0.18127300  1
  O  O14  1  0.15134700  0.02934600  0.81872700  1
  O  O15  1  0.10544900  0.72427200  0.94694500  1
  O  O16  1  0.37669600  0.80908200  0.56989100  1
  O  O17  1  0.39841400  0.49684900  0.73974200  1
