# generated using pymatgen
data_Ba11W4O23
_symmetry_space_group_name_H-M   'P 1'
_cell_length_a   12.54066751
_cell_length_b   12.51782724
_cell_length_c   12.74629283
_cell_angle_alpha   59.61575002
_cell_angle_beta   59.46039475
_cell_angle_gamma   58.04227428
_symmetry_Int_Tables_number   1
_chemical_formula_structural   Ba11W4O23
_chemical_formula_sum   'Ba22 W8 O46'
_cell_volume   1383.23713515
_cell_formula_units_Z   2
loop_
 _symmetry_equiv_pos_site_id
 _symmetry_equiv_pos_as_xyz
  1  'x, y, z'
loop_
 _atom_site_type_symbol
 _atom_site_label
 _atom_site_symmetry_multiplicity
 _atom_site_fract_x
 _atom_site_fract_y
 _atom_site_fract_z
 _atom_site_occupancy
  Ba  Ba0  1  0.23703703  0.22934025  0.23166687  1
  Ba  Ba1  1  0.12693094  0.61878883  0.15519363  1
  Ba  Ba2  1  0.13210788  0.15355602  0.61188283  1
  Ba  Ba3  1  0.21804729  0.26714915  0.78786873  1
  Ba  Ba4  1  0.13836567  0.63092433  0.56536838  1
  Ba  Ba5  1  0.26818496  0.81129914  0.20893730  1
  Ba  Ba6  1  0.59656181  0.15432184  0.15658261  1
  Ba  Ba7  1  0.34464200  0.37807704  0.37192627  1
  Ba  Ba8  1  0.12685195  0.77009399  0.77621648  1
  Ba  Ba9  1  0.62100410  0.14909183  0.56492243  1
  Ba  Ba10  1  0.62504650  0.53281379  0.17322348  1
  Ba  Ba11  1  0.35629371  0.86286570  0.43062220  1
  Ba  Ba12  1  0.36101802  0.42377320  0.86600308  1
  Ba  Ba13  1  0.99686037  0.16532510  0.17841017  1
  Ba  Ba14  1  0.37517593  0.86159017  0.83663068  1
  Ba  Ba15  1  0.71286241  0.19445802  0.79597805  1
  Ba  Ba16  1  0.84073582  0.36903673  0.44123386  1
  Ba  Ba17  1  0.73326620  0.75551370  0.20986864  1
  Ba  Ba18  1  0.61839945  0.62801650  0.62128581  1
  Ba  Ba19  1  0.83045958  0.39602440  0.86678637  1
  Ba  Ba20  1  0.84528936  0.85557853  0.38316279  1
  Ba  Ba21  1  0.75870726  0.77180642  0.77571087  1
  W  W22  1  0.97646092  0.01223288  0.00755788  1
  W  W23  1  0.98854411  0.00141313  0.50694717  1
  W  W24  1  0.98464246  0.50521771  0.50013933  1
  W  W25  1  0.46285291  0.03022765  0.98963988  1
  W  W26  1  0.48579924  0.00606980  0.50196655  1
  W  W27  1  0.47593498  0.51362422  0.99911724  1
  W  W28  1  0.48326228  0.50599496  0.51463459  1
  W  W29  1  0.95251808  0.51300762  0.03923874  1
  O  O30  1  0.10007516  0.39664156  0.37981207  1
  O  O31  1  0.40628819  0.95140669  0.17465870  1
  O  O32  1  0.12294028  0.39567789  0.58300937  1
  O  O33  1  0.08362753  0.62874295  0.38202126  1
  O  O34  1  0.36699979  0.39725969  0.11543265  1
  O  O35  1  0.35423129  0.11534207  0.40743813  1
  O  O36  1  0.36835132  0.61524918  0.12109026  1
  O  O37  1  0.36110911  0.10570222  0.62885093  1
  O  O38  1  0.59869570  0.38948843  0.09831567  1
  O  O39  1  0.56543398  0.14192830  0.38958460  1
  O  O40  1  0.39323559  0.59756474  0.38600290  1
  O  O41  1  0.38783470  0.38312283  0.61759324  1
  O  O42  1  0.33529768  0.62419395  0.62158929  1
  O  O43  1  0.62555209  0.38992695  0.41328372  1
  O  O44  1  0.10004942  0.92521095  0.88857549  1
  O  O45  1  0.50468895  0.15178320  0.00187619  1
  O  O46  1  0.57361832  0.63360643  0.42281070  1
  O  O47  1  0.57863199  0.41394010  0.64038312  1
  O  O48  1  0.87500861  0.40212263  0.05526681  1
  O  O49  1  0.87622071  0.02380960  0.42705009  1
  O  O50  1  0.34281390  0.62820756  0.90920045  1
  O  O51  1  0.39750076  0.87549238  0.61275704  1
  O  O52  1  0.80090832  0.66699187  0.99178970  1
  O  O53  1  0.83560400  0.12252768  0.59736747  1
  O  O54  1  0.85554090  0.50848503  0.21087141  1
  O  O55  1  0.60012867  0.90893293  0.37778220  1
  O  O56  1  0.58030536  0.41523772  0.87790905  1
  O  O57  1  0.03529451  0.62405480  0.00886956  1
  O  O58  1  0.10893442  0.35282079  0.06848162  1
  O  O59  1  0.10738223  0.98336577  0.57825587  1
  O  O60  1  0.03251420  0.15747867  0.36496213  1
  O  O61  1  0.35172297  0.98130471  0.97428463  1
  O  O62  1  0.58051032  0.62937940  0.88973623  1
  O  O63  1  0.61123687  0.90413559  0.59687148  1
  O  O64  1  0.89361149  0.37712149  0.62136092  1
  O  O65  1  0.86164917  0.60984870  0.40017002  1
  O  O66  1  0.82582781  0.14445819  0.95365766  1
  O  O67  1  0.86593676  0.90747289  0.12706673  1
  O  O68  1  0.58758070  0.03638910  0.82153960  1
  O  O69  1  0.86759529  0.61711942  0.60875343  1
  O  O70  1  0.03423574  0.15707773  0.93677729  1
  O  O71  1  0.04015618  0.94370309  0.14582485  1
  O  O72  1  0.00221093  0.51094900  0.78667008  1
  O  O73  1  0.96105587  0.84258427  0.65109057  1
  O  O74  1  0.14041142  0.88399408  0.40782513  1
  O  O75  1  0.06993756  0.52893511  0.84156082  1
