# generated using pymatgen
data_Yb(HoS2)2
_symmetry_space_group_name_H-M   'P 1'
_cell_length_a   7.19842247
_cell_length_b   7.19842247
_cell_length_c   7.19842247
_cell_angle_alpha   109.39706072
_cell_angle_beta   109.39706072
_cell_angle_gamma   109.61964249
_symmetry_Int_Tables_number   1
_chemical_formula_structural   Yb(HoS2)2
_chemical_formula_sum   'Yb2 Ho4 S8'
_cell_volume   287.13617973
_cell_formula_units_Z   2
loop_
 _symmetry_equiv_pos_site_id
 _symmetry_equiv_pos_as_xyz
  1  'x, y, z'
loop_
 _atom_site_type_symbol
 _atom_site_label
 _atom_site_symmetry_multiplicity
 _atom_site_fract_x
 _atom_site_fract_y
 _atom_site_fract_z
 _atom_site_occupancy
  Yb  Yb0  1  0.25000000  0.75000000  0.50000000  1
  Yb  Yb1  1  0.00000000  0.00000000  0.00000000  1
  Ho  Ho2  1  0.49779700  0.87500000  0.12279700  1
  Ho  Ho3  1  0.75220300  0.37500000  0.87720300  1
  Ho  Ho4  1  0.12500000  0.24779700  0.62279700  1
  Ho  Ho5  1  0.62500000  0.50220300  0.37720300  1
  S  S6  1  0.01643800  0.61907300  0.74980300  1
  S  S7  1  0.86907300  0.76643800  0.24980300  1
  S  S8  1  0.38092700  0.13073000  0.39736400  1
  S  S9  1  0.73336500  0.98356200  0.60263600  1
  S  S10  1  0.86927000  0.26663500  0.25019700  1
  S  S11  1  0.38073000  0.13092700  0.89736400  1
  S  S12  1  0.23356200  0.48336500  0.10263600  1
  S  S13  1  0.51663500  0.61927000  0.75019700  1
