# generated using pymatgen
data_Ba5Bi5O13
_symmetry_space_group_name_H-M   'P 1'
_cell_length_a   6.37110114
_cell_length_b   6.37110114
_cell_length_c   25.61536618
_cell_angle_alpha   80.66649677
_cell_angle_beta   80.66649677
_cell_angle_gamma   58.33466867
_symmetry_Int_Tables_number   1
_chemical_formula_structural   Ba5Bi5O13
_chemical_formula_sum   'Ba10 Bi10 O26'
_cell_volume   869.56469024
_cell_formula_units_Z   2
loop_
 _symmetry_equiv_pos_site_id
 _symmetry_equiv_pos_as_xyz
  1  'x, y, z'
loop_
 _atom_site_type_symbol
 _atom_site_label
 _atom_site_symmetry_multiplicity
 _atom_site_fract_x
 _atom_site_fract_y
 _atom_site_fract_z
 _atom_site_occupancy
  Ba  Ba0  1  0.29689500  0.83878100  0.85290200  1
  Ba  Ba1  1  0.75792100  0.15601300  0.65191300  1
  Ba  Ba2  1  0.22669700  0.47144900  0.45311100  1
  Ba  Ba3  1  0.50408900  0.97266000  0.25144700  1
  Ba  Ba4  1  0.83230800  0.44806900  0.04570700  1
  Ba  Ba5  1  0.02734000  0.49591100  0.74855300  1
  Ba  Ba6  1  0.52855100  0.77330300  0.54688900  1
  Ba  Ba7  1  0.84398700  0.24207900  0.34808700  1
  Ba  Ba8  1  0.16121900  0.70310500  0.14709800  1
  Ba  Ba9  1  0.55193100  0.16769200  0.95429300  1
  Bi  Bi10  1  0.93276000  0.49626800  0.89668100  1
  Bi  Bi11  1  0.40576400  0.79638200  0.70036500  1
  Bi  Bi12  1  0.87907900  0.12092100  0.50000000  1
  Bi  Bi13  1  0.20361800  0.59423600  0.29963500  1
  Bi  Bi14  1  0.50373200  0.06724000  0.10331900  1
  Bi  Bi15  1  0.67911000  0.12749200  0.80406900  1
  Bi  Bi16  1  0.14748100  0.43713900  0.60262500  1
  Bi  Bi17  1  0.56286100  0.85251900  0.39737400  1
  Bi  Bi18  1  0.87250800  0.32089000  0.19593100  1
  Bi  Bi19  1  0.20039400  0.79960600  0.00000000  1
  O  O20  1  0.56765100  0.91816200  0.75216400  1
  O  O21  1  0.01988200  0.22589300  0.56117000  1
  O  O22  1  0.38079100  0.72964400  0.35134800  1
  O  O23  1  0.69904400  0.19326300  0.15054500  1
  O  O24  1  0.06653200  0.68780000  0.93716800  1
  O  O25  1  0.07283000  0.88937000  0.75987700  1
  O  O26  1  0.52476000  0.25476000  0.55206900  1
  O  O27  1  0.74524000  0.47524000  0.44793100  1
  O  O28  1  0.11063000  0.92717000  0.24012300  1
  O  O29  1  0.56420500  0.66307800  0.94921500  1
  O  O30  1  0.33692200  0.43579500  0.05078500  1
  O  O31  1  0.80673700  0.30095600  0.84945500  1
  O  O32  1  0.27035600  0.61920900  0.64865200  1
  O  O33  1  0.77410700  0.98011800  0.43883000  1
  O  O34  1  0.08183800  0.43234900  0.24783600  1
  O  O35  1  0.31220000  0.93346800  0.06283200  1
  O  O36  1  0.31784100  0.25946300  0.85425600  1
  O  O37  1  0.56575200  0.42537400  0.74183500  1
  O  O38  1  0.78432600  0.59796800  0.65241800  1
  O  O39  1  0.00592700  0.72364400  0.54048900  1
  O  O40  1  0.27635600  0.99407300  0.45951100  1
  O  O41  1  0.40203200  0.21567400  0.34758200  1
  O  O42  1  0.57462600  0.43424800  0.25816500  1
  O  O43  1  0.74053700  0.68215900  0.14574400  1
  O  O44  1  0.80067500  0.95565700  0.04305700  1
  O  O45  1  0.04434300  0.19932500  0.95694300  1
