# generated using pymatgen
data_KPb2Cl5
_symmetry_space_group_name_H-M   'P 1'
_cell_length_a   8.38120900
_cell_length_b   9.00202400
_cell_length_c   12.38338100
_cell_angle_alpha   90.00000000
_cell_angle_beta   90.00000000
_cell_angle_gamma   90.00000000
_symmetry_Int_Tables_number   1
_chemical_formula_structural   KPb2Cl5
_chemical_formula_sum   'K4 Pb8 Cl20'
_cell_volume   934.29940490
_cell_formula_units_Z   4
loop_
 _symmetry_equiv_pos_site_id
 _symmetry_equiv_pos_as_xyz
  1  'x, y, z'
loop_
 _atom_site_type_symbol
 _atom_site_label
 _atom_site_symmetry_multiplicity
 _atom_site_fract_x
 _atom_site_fract_y
 _atom_site_fract_z
 _atom_site_occupancy
  K  K0  1  0.52864300  0.50518700  0.17578600  1
  K  K1  1  0.97135700  0.50518700  0.67578600  1
  K  K2  1  0.02864300  0.00518700  0.32421400  1
  K  K3  1  0.47135700  0.00518700  0.82421400  1
  Pb  Pb4  1  0.49035500  0.01543600  0.17837700  1
  Pb  Pb5  1  0.58373600  0.24881500  0.49578400  1
  Pb  Pb6  1  0.91626400  0.24881500  0.99578400  1
  Pb  Pb7  1  0.00964500  0.01543600  0.67837700  1
  Pb  Pb8  1  0.99035500  0.51543600  0.32162300  1
  Pb  Pb9  1  0.08373600  0.74881500  0.00421600  1
  Pb  Pb10  1  0.41626400  0.74881500  0.50421600  1
  Pb  Pb11  1  0.50964500  0.51543600  0.82162300  1
  Cl  Cl12  1  0.54962600  0.24332000  0.00352200  1
  Cl  Cl13  1  0.63975000  0.73073400  0.69194500  1
  Cl  Cl14  1  0.68205000  0.53803100  0.41770700  1
  Cl  Cl15  1  0.65180600  0.95295600  0.40440000  1
  Cl  Cl16  1  0.68517400  0.26555900  0.72440900  1
  Cl  Cl17  1  0.81482600  0.26555900  0.22440900  1
  Cl  Cl18  1  0.84819400  0.95295600  0.90440000  1
  Cl  Cl19  1  0.81795000  0.53803100  0.91770700  1
  Cl  Cl20  1  0.86025000  0.73073400  0.19194500  1
  Cl  Cl21  1  0.95037400  0.24332000  0.50352200  1
  Cl  Cl22  1  0.04962600  0.74332000  0.49647800  1
  Cl  Cl23  1  0.13975000  0.23073400  0.80805500  1
  Cl  Cl24  1  0.15180600  0.45295600  0.09560000  1
  Cl  Cl25  1  0.18205000  0.03803100  0.08229300  1
  Cl  Cl26  1  0.18517400  0.76555900  0.77559100  1
  Cl  Cl27  1  0.31482600  0.76555900  0.27559100  1
  Cl  Cl28  1  0.31795000  0.03803100  0.58229300  1
  Cl  Cl29  1  0.34819400  0.45295600  0.59560000  1
  Cl  Cl30  1  0.36025000  0.23073400  0.30805500  1
  Cl  Cl31  1  0.45037400  0.74332000  0.99647800  1
