# generated using pymatgen
data_TiNiO3
_symmetry_space_group_name_H-M   'P 1'
_cell_length_a   5.50334700
_cell_length_b   9.02318311
_cell_length_c   9.02573046
_cell_angle_alpha   68.39944746
_cell_angle_beta   84.67834924
_cell_angle_gamma   84.88082678
_symmetry_Int_Tables_number   1
_chemical_formula_structural   TiNiO3
_chemical_formula_sum   'Ti8 Ni8 O24'
_cell_volume   414.19017707
_cell_formula_units_Z   8
loop_
 _symmetry_equiv_pos_site_id
 _symmetry_equiv_pos_as_xyz
  1  'x, y, z'
loop_
 _atom_site_type_symbol
 _atom_site_label
 _atom_site_symmetry_multiplicity
 _atom_site_fract_x
 _atom_site_fract_y
 _atom_site_fract_z
 _atom_site_occupancy
  Ti  Ti0  1  0.29557100  0.82818000  0.82073000  1
  Ti  Ti1  1  0.20862600  0.42287300  0.93344300  1
  Ti  Ti2  1  0.20913600  0.93706700  0.41483600  1
  Ti  Ti3  1  0.71960900  0.42738000  0.42981400  1
  Ti  Ti4  1  0.28939400  0.56781000  0.57543100  1
  Ti  Ti5  1  0.78811400  0.07179900  0.57327300  1
  Ti  Ti6  1  0.77943200  0.58681400  0.07346000  1
  Ti  Ti7  1  0.31617200  0.07126900  0.06260200  1
  Ni  Ni8  1  0.71345100  0.92581200  0.92935000  1
  Ni  Ni9  1  0.80451000  0.82367200  0.32437700  1
  Ni  Ni10  1  0.79661400  0.32643700  0.82899900  1
  Ni  Ni11  1  0.70249900  0.67364700  0.67430100  1
  Ni  Ni12  1  0.30286700  0.32477600  0.32610000  1
  Ni  Ni13  1  0.20190800  0.17786800  0.67443800  1
  Ni  Ni14  1  0.19937800  0.67431400  0.18028700  1
  Ni  Ni15  1  0.71369900  0.17869200  0.17408700  1
  O  O16  1  0.33900200  0.78681700  0.62641300  1
  O  O17  1  0.16252600  0.62987700  0.96095600  1
  O  O18  1  0.01972800  0.96483400  0.77855200  1
  O  O19  1  0.01403300  0.52646800  0.71803600  1
  O  O20  1  0.84878600  0.88565400  0.52799400  1
  O  O21  1  0.84425800  0.27815500  0.61910000  1
  O  O22  1  0.85102800  0.76729100  0.12824400  1
  O  O23  1  0.64815900  0.71692300  0.88129200  1
  O  O24  1  0.64565300  0.12618000  0.97868900  1
  O  O25  1  0.65140900  0.61460300  0.47594300  1
  O  O26  1  0.48117300  0.47462800  0.78077600  1
  O  O27  1  0.49304700  0.97289100  0.28249800  1
  O  O28  1  0.51262400  0.02357600  0.71811700  1
  O  O29  1  0.51464000  0.52590200  0.22086000  1
  O  O30  1  0.34861700  0.38441500  0.52703000  1
  O  O31  1  0.34172600  0.88116900  0.02326800  1
  O  O32  1  0.34671300  0.28659800  0.11575400  1
  O  O33  1  0.15977400  0.22032900  0.88609500  1
  O  O34  1  0.16253600  0.71967100  0.38972500  1
  O  O35  1  0.15291400  0.11652100  0.47311200  1
  O  O36  1  0.98930000  0.47048200  0.28478500  1
  O  O37  1  0.02938600  0.02830100  0.22113500  1
  O  O38  1  0.86041600  0.39276000  0.02789800  1
  O  O39  1  0.66057200  0.21729700  0.38795400  1
