# generated using pymatgen
data_Yb(PrS2)2
_symmetry_space_group_name_H-M   'P 1'
_cell_length_a   7.43830865
_cell_length_b   7.43830865
_cell_length_c   7.43830865
_cell_angle_alpha   109.56020571
_cell_angle_beta   109.56020571
_cell_angle_gamma   109.29339669
_symmetry_Int_Tables_number   1
_chemical_formula_structural   Yb(PrS2)2
_chemical_formula_sum   'Yb2 Pr4 S8'
_cell_volume   316.80903573
_cell_formula_units_Z   2
loop_
 _symmetry_equiv_pos_site_id
 _symmetry_equiv_pos_as_xyz
  1  'x, y, z'
loop_
 _atom_site_type_symbol
 _atom_site_label
 _atom_site_symmetry_multiplicity
 _atom_site_fract_x
 _atom_site_fract_y
 _atom_site_fract_z
 _atom_site_occupancy
  Yb  Yb0  1  0.50000000  0.50000000  0.00000000  1
  Yb  Yb1  1  0.25000000  0.75000000  0.50000000  1
  Pr  Pr2  1  0.00404400  0.62500000  0.87904400  1
  Pr  Pr3  1  0.87500000  0.99595600  0.62095600  1
  Pr  Pr4  1  0.74595600  0.12500000  0.12095600  1
  Pr  Pr5  1  0.37500000  0.25404400  0.37904400  1
  S  S6  1  0.12519700  0.37720400  0.10518800  1
  S  S7  1  0.77001000  0.52201600  0.39481200  1
  S  S8  1  0.62279600  0.72798400  0.74799400  1
  S  S9  1  0.27201600  0.02001000  0.89481200  1
  S  S10  1  0.47798400  0.87279600  0.24799400  1
  S  S11  1  0.97999000  0.87480300  0.25200600  1
  S  S12  1  0.62480300  0.22999000  0.75200600  1
  S  S13  1  0.12720400  0.37519700  0.60518800  1
