# generated using pymatgen
data_La3O2F5
_symmetry_space_group_name_H-M   'P 1'
_cell_length_a   4.13788200
_cell_length_b   4.18361239
_cell_length_c   17.60809533
_cell_angle_alpha   89.62650018
_cell_angle_beta   89.70160861
_cell_angle_gamma   88.66628713
_symmetry_Int_Tables_number   1
_chemical_formula_structural   La3O2F5
_chemical_formula_sum   'La6 O4 F10'
_cell_volume   304.72597073
_cell_formula_units_Z   2
loop_
 _symmetry_equiv_pos_site_id
 _symmetry_equiv_pos_as_xyz
  1  'x, y, z'
loop_
 _atom_site_type_symbol
 _atom_site_label
 _atom_site_symmetry_multiplicity
 _atom_site_fract_x
 _atom_site_fract_y
 _atom_site_fract_z
 _atom_site_occupancy
  La  La0  1  0.22555200  0.73004200  0.91485100  1
  La  La1  1  0.25207500  0.73411900  0.59970900  1
  La  La2  1  0.25572900  0.83510200  0.25341300  1
  La  La3  1  0.75623800  0.25658000  0.73735600  1
  La  La4  1  0.74820200  0.23312800  0.41075700  1
  La  La5  1  0.76126400  0.24235400  0.07298900  1
  O  O6  1  0.27858300  0.25435500  0.00533900  1
  O  O7  1  0.25092700  0.22298300  0.66371500  1
  O  O8  1  0.25122300  0.22280900  0.34401700  1
  O  O9  1  0.75051400  0.73657700  0.66282600  1
  F  F10  1  0.22442000  0.58517900  0.78265200  1
  F  F11  1  0.24910000  0.23326500  0.50095300  1
  F  F12  1  0.25938600  0.25025800  0.15897000  1
  F  F13  1  0.75016000  0.74432400  0.99826300  1
  F  F14  1  0.69323900  0.79877600  0.83962700  1
  F  F15  1  0.75050000  0.72285100  0.33739100  1
  F  F16  1  0.74906000  0.73149200  0.49024100  1
  F  F17  1  0.75498300  0.72903900  0.15042100  1
  F  F18  1  0.75631500  0.17407200  0.24544600  1
  F  F19  1  0.93452900  0.25869400  0.88539800  1
