# generated using pymatgen
data_Cr2HO4
_symmetry_space_group_name_H-M   'P 1'
_cell_length_a   3.01045800
_cell_length_b   4.30925400
_cell_length_c   4.81092649
_cell_angle_alpha   87.46676025
_cell_angle_beta   90.00000000
_cell_angle_gamma   90.00000000
_symmetry_Int_Tables_number   1
_chemical_formula_structural   Cr2HO4
_chemical_formula_sum   'Cr2 H1 O4'
_cell_volume   62.35033111
_cell_formula_units_Z   1
loop_
 _symmetry_equiv_pos_site_id
 _symmetry_equiv_pos_as_xyz
  1  'x, y, z'
loop_
 _atom_site_type_symbol
 _atom_site_label
 _atom_site_symmetry_multiplicity
 _atom_site_fract_x
 _atom_site_fract_y
 _atom_site_fract_z
 _atom_site_occupancy
  Cr  Cr0  1  0.00000000  0.00000000  0.00000000  1
  Cr  Cr1  1  0.50000000  0.50000000  0.50000000  1
  H  H2  1  0.50000000  0.50000000  0.00000000  1
  O  O3  1  0.00000000  0.26138100  0.66502900  1
  O  O4  1  0.50000000  0.26092400  0.14325500  1
  O  O5  1  0.50000000  0.73907600  0.85674500  1
  O  O6  1  0.00000000  0.73861900  0.33497100  1
