# generated using pymatgen
data_Ho4Si2S3O7
_symmetry_space_group_name_H-M   'P 1'
_cell_length_a   10.71719846
_cell_length_b   10.71719846
_cell_length_c   10.71719846
_cell_angle_alpha   113.83847925
_cell_angle_beta   113.83847925
_cell_angle_gamma   101.05088037
_symmetry_Int_Tables_number   1
_chemical_formula_structural   Ho4Si2S3O7
_chemical_formula_sum   'Ho16 Si8 S12 O28'
_cell_volume   932.56732517
_cell_formula_units_Z   4
loop_
 _symmetry_equiv_pos_site_id
 _symmetry_equiv_pos_as_xyz
  1  'x, y, z'
loop_
 _atom_site_type_symbol
 _atom_site_label
 _atom_site_symmetry_multiplicity
 _atom_site_fract_x
 _atom_site_fract_y
 _atom_site_fract_z
 _atom_site_occupancy
  Ho  Ho0  1  0.42231500  0.92231500  0.84463000  1
  Ho  Ho1  1  0.67231500  0.32768500  0.00000000  1
  Ho  Ho2  1  0.32768500  0.67231500  0.00000000  1
  Ho  Ho3  1  0.07768500  0.57768500  0.15537000  1
  Ho  Ho4  1  0.32768500  0.32768500  0.65537000  1
  Ho  Ho5  1  0.07768500  0.92231500  0.50000000  1
  Ho  Ho6  1  0.42231500  0.57768500  0.50000000  1
  Ho  Ho7  1  0.67231500  0.67231500  0.34463000  1
  Ho  Ho8  1  0.71631700  0.98076600  0.26444900  1
  Ho  Ho9  1  0.71631700  0.45186700  0.73555100  1
  Ho  Ho10  1  0.01923400  0.28368300  0.73555100  1
  Ho  Ho11  1  0.20186700  0.96631700  0.23555100  1
  Ho  Ho12  1  0.73076600  0.96631700  0.76444900  1
  Ho  Ho13  1  0.03368300  0.79813300  0.76444900  1
  Ho  Ho14  1  0.03368300  0.26923400  0.23555100  1
  Ho  Ho15  1  0.54813300  0.28368300  0.26444900  1
  Si  Si16  1  0.47073000  0.84562100  0.37489100  1
  Si  Si17  1  0.47073000  0.09583900  0.62510900  1
  Si  Si18  1  0.15437900  0.52927000  0.62510900  1
  Si  Si19  1  0.84583900  0.72073000  0.12510900  1
  Si  Si20  1  0.59562100  0.72073000  0.87489100  1
  Si  Si21  1  0.27927000  0.15416100  0.87489100  1
  Si  Si22  1  0.27927000  0.40437900  0.12510900  1
  Si  Si23  1  0.90416100  0.52927000  0.37489100  1
  S  S24  1  0.37500000  0.97908300  0.10408300  1
  S  S25  1  0.72908300  0.12500000  0.10408300  1
  S  S26  1  0.02091700  0.62500000  0.89591700  1
  S  S27  1  0.87500000  0.27091700  0.89591700  1
  S  S28  1  0.37500000  0.27091700  0.39591700  1
  S  S29  1  0.02091700  0.12500000  0.39591700  1
  S  S30  1  0.72908300  0.62500000  0.60408300  1
  S  S31  1  0.87500000  0.97908300  0.60408300  1
  S  S32  1  0.00000000  0.00000000  0.00000000  1
  S  S33  1  0.75000000  0.25000000  0.50000000  1
  S  S34  1  0.25000000  0.75000000  0.50000000  1
  S  S35  1  0.50000000  0.50000000  0.00000000  1
  O  O36  1  0.54900800  0.81586800  0.26686000  1
  O  O37  1  0.54900800  0.28214700  0.73314000  1
  O  O38  1  0.18413200  0.45099200  0.73314000  1
  O  O39  1  0.03214700  0.79900800  0.23314000  1
  O  O40  1  0.56586800  0.79900800  0.76686000  1
  O  O41  1  0.20099200  0.96785300  0.76686000  1
  O  O42  1  0.20099200  0.43413200  0.23314000  1
  O  O43  1  0.71785300  0.45099200  0.26686000  1
  O  O44  1  0.52456700  0.02456700  0.50000000  1
  O  O45  1  0.77456700  0.77456700  0.00000000  1
  O  O46  1  0.22543300  0.22543300  0.00000000  1
  O  O47  1  0.97543300  0.47543300  0.50000000  1
  O  O48  1  0.20976500  0.47498600  0.01742200  1
  O  O49  1  0.45756400  0.19234300  0.98257800  1
  O  O50  1  0.52501400  0.79023500  0.98257800  1
  O  O51  1  0.94234300  0.45976500  0.23477900  1
  O  O52  1  0.22498600  0.70756400  0.76522100  1
  O  O53  1  0.54023500  0.05765700  0.76522100  1
  O  O54  1  0.29243600  0.77501400  0.23477900  1
  O  O55  1  0.80765700  0.54243600  0.01742200  1
  O  O56  1  0.54023500  0.77501400  0.48257800  1
  O  O57  1  0.29243600  0.05765700  0.51742200  1
  O  O58  1  0.22498600  0.45976500  0.51742200  1
  O  O59  1  0.80765700  0.79023500  0.26522100  1
  O  O60  1  0.52501400  0.54243600  0.73477900  1
  O  O61  1  0.20976500  0.19234300  0.73477900  1
  O  O62  1  0.45756400  0.47498600  0.26522100  1
  O  O63  1  0.94234300  0.70756400  0.48257800  1
