# generated using pymatgen
data_KPF6
_symmetry_space_group_name_H-M   'P 1'
_cell_length_a   5.69582498
_cell_length_b   5.69582498
_cell_length_c   5.69582500
_cell_angle_alpha   57.20779588
_cell_angle_beta   57.20779588
_cell_angle_gamma   57.20779007
_symmetry_Int_Tables_number   1
_chemical_formula_structural   KPF6
_chemical_formula_sum   'K1 P1 F6'
_cell_volume   122.26004094
_cell_formula_units_Z   1
loop_
 _symmetry_equiv_pos_site_id
 _symmetry_equiv_pos_as_xyz
  1  'x, y, z'
loop_
 _atom_site_type_symbol
 _atom_site_label
 _atom_site_symmetry_multiplicity
 _atom_site_fract_x
 _atom_site_fract_y
 _atom_site_fract_z
 _atom_site_occupancy
  K  K0  1  0.50000000  0.50000000  0.50000000  1
  P  P1  1  0.00000000  0.00000000  0.00000000  1
  F  F2  1  0.07460900  0.07460900  0.65126100  1
  F  F3  1  0.65126100  0.07460900  0.07460900  1
  F  F4  1  0.07460900  0.65126100  0.07460900  1
  F  F5  1  0.92539100  0.34873900  0.92539100  1
  F  F6  1  0.34873900  0.92539100  0.92539100  1
  F  F7  1  0.92539100  0.92539100  0.34873900  1
