# generated using pymatgen
data_Nd2PbS4
_symmetry_space_group_name_H-M   'P 1'
_cell_length_a   7.51691684
_cell_length_b   7.51691684
_cell_length_c   7.51691684
_cell_angle_alpha   109.41234077
_cell_angle_beta   109.41234077
_cell_angle_gamma   109.58904465
_symmetry_Int_Tables_number   1
_chemical_formula_structural   Nd2PbS4
_chemical_formula_sum   'Nd4 Pb2 S8'
_cell_volume   326.96101158
_cell_formula_units_Z   2
loop_
 _symmetry_equiv_pos_site_id
 _symmetry_equiv_pos_as_xyz
  1  'x, y, z'
loop_
 _atom_site_type_symbol
 _atom_site_label
 _atom_site_symmetry_multiplicity
 _atom_site_fract_x
 _atom_site_fract_y
 _atom_site_fract_z
 _atom_site_occupancy
  Nd  Nd0  1  0.12500000  0.50628800  0.88128800  1
  Nd  Nd1  1  0.49371200  0.37500000  0.61871200  1
  Nd  Nd2  1  0.62500000  0.24371200  0.11871200  1
  Nd  Nd3  1  0.75628800  0.87500000  0.38128800  1
  Pb  Pb4  1  0.00000000  0.00000000  0.00000000  1
  Pb  Pb5  1  0.25000000  0.75000000  0.50000000  1
  S  S6  1  0.86280900  0.61512900  0.09557600  1
  S  S7  1  0.86512900  0.61280900  0.59557600  1
  S  S8  1  0.38487100  0.48044700  0.24768000  1
  S  S9  1  0.01723300  0.26955300  0.40442400  1
  S  S10  1  0.23276700  0.13719100  0.75232000  1
  S  S11  1  0.51955300  0.76723300  0.90442400  1
  S  S12  1  0.38719100  0.98276700  0.25232000  1
  S  S13  1  0.73044700  0.13487100  0.74768000  1
