# generated using pymatgen
data_Sb26O53
_symmetry_space_group_name_H-M   'P 1'
_cell_length_a   4.97978000
_cell_length_b   5.54024300
_cell_length_c   39.97684109
_cell_angle_alpha   92.68941714
_cell_angle_beta   93.02571289
_cell_angle_gamma   90.07700466
_symmetry_Int_Tables_number   1
_chemical_formula_structural   Sb26O53
_chemical_formula_sum   'Sb26 O53'
_cell_volume   1100.16998770
_cell_formula_units_Z   1
loop_
 _symmetry_equiv_pos_site_id
 _symmetry_equiv_pos_as_xyz
  1  'x, y, z'
loop_
 _atom_site_type_symbol
 _atom_site_label
 _atom_site_symmetry_multiplicity
 _atom_site_fract_x
 _atom_site_fract_y
 _atom_site_fract_z
 _atom_site_occupancy
  Sb  Sb0  1  0.23254800  0.02597100  0.86907200  1
  Sb  Sb1  1  0.17640600  0.47442500  0.93776000  1
  Sb  Sb2  1  0.65668400  0.70473700  0.72155600  1
  Sb  Sb3  1  0.65493600  0.11518400  0.79553300  1
  Sb  Sb4  1  0.65213300  0.54023200  0.86867700  1
  Sb  Sb5  1  0.73588300  0.98778600  0.94563400  1
  Sb  Sb6  1  0.07534900  0.39622800  0.57281000  1
  Sb  Sb7  1  0.07479800  0.80079100  0.64643200  1
  Sb  Sb8  1  0.07123800  0.20525300  0.72015600  1
  Sb  Sb9  1  0.15262700  0.61334000  0.79501900  1
  Sb  Sb10  1  0.49023400  0.09436700  0.42411700  1
  Sb  Sb11  1  0.49197700  0.49610100  0.49754900  1
  Sb  Sb12  1  0.49082300  0.89794400  0.57106000  1
  Sb  Sb13  1  0.57419300  0.30074200  0.64643400  1
  Sb  Sb14  1  0.91001100  0.79881800  0.27570800  1
  Sb  Sb15  1  0.90520300  0.19560900  0.34863600  1
  Sb  Sb16  1  0.90562300  0.59611700  0.42184000  1
  Sb  Sb17  1  0.99125000  0.99593100  0.49751100  1
  Sb  Sb18  1  0.33892200  0.87554600  0.20104600  1
  Sb  Sb19  1  0.32744900  0.29348200  0.27291300  1
  Sb  Sb20  1  0.40463700  0.69536500  0.34860800  1
  Sb  Sb21  1  0.72516200  0.64732100  0.08117000  1
  Sb  Sb22  1  0.80976100  0.99826400  0.14236000  1
  Sb  Sb23  1  0.81658800  0.39697200  0.20081500  1
  Sb  Sb24  1  0.24929600  0.59159100  0.01275300  1
  Sb  Sb25  1  0.27907000  0.12382200  0.06049700  1
  O  O26  1  0.51960000  0.86661200  0.89908300  1
  O  O27  1  0.46565400  0.61700000  0.96785000  1
  O  O28  1  0.39520300  0.36940000  0.89970000  1
  O  O29  1  0.97402400  0.55162400  0.74826800  1
  O  O30  1  0.96363800  0.32895600  0.81230200  1
  O  O31  1  0.78874300  0.04966700  0.74871300  1
  O  O32  1  0.99193300  0.75730200  0.92282700  1
  O  O33  1  0.85984900  0.82737100  0.81254200  1
  O  O34  1  0.02246700  0.38582100  0.97930200  1
  O  O35  1  0.93383300  0.22520900  0.91639700  1
  O  O36  1  0.39025100  0.24100200  0.59981100  1
  O  O37  1  0.05646300  0.89309700  0.99460000  1
  O  O38  1  0.37446200  0.02222400  0.66426400  1
  O  O39  1  0.21241200  0.73930900  0.59994600  1
  O  O40  1  0.44619500  0.39896400  0.77815400  1
  O  O41  1  0.29066400  0.52219000  0.66435600  1
  O  O42  1  0.53121100  0.18268800  0.84281000  1
  O  O43  1  0.34673100  0.89938000  0.77870600  1
  O  O44  1  0.80608200  0.93823200  0.45086400  1
  O  O45  1  0.32438400  0.67512600  0.84251300  1
  O  O46  1  0.79032400  0.71848700  0.51536800  1
  O  O47  1  0.62949100  0.43624700  0.45104400  1
  O  O48  1  0.85906900  0.08010300  0.62888700  1
  O  O49  1  0.70922400  0.21815900  0.51545400  1
  O  O50  1  0.93600700  0.86346800  0.69309800  1
  O  O51  1  0.77478400  0.57941000  0.62894800  1
  O  O52  1  0.22098700  0.63877100  0.30206200  1
  O  O53  1  0.75804500  0.36209100  0.69324800  1
  O  O54  1  0.20282200  0.41833700  0.36644600  1
  O  O55  1  0.04329000  0.13611200  0.30217100  1
  O  O56  1  0.27529200  0.77495500  0.47994900  1
  O  O57  1  0.12278700  0.91772000  0.36651700  1
  O  O58  1  0.35407600  0.55617800  0.54420700  1
  O  O59  1  0.19306700  0.27393800  0.48001500  1
  O  O60  1  0.66943800  0.32360900  0.15409800  1
  O  O61  1  0.17602200  0.05463800  0.54435500  1
  O  O62  1  0.61725200  0.11704900  0.21955400  1
  O  O63  1  0.50481100  0.82385000  0.15763200  1
  O  O64  1  0.68851200  0.47423800  0.33113100  1
  O  O65  1  0.52854900  0.59714700  0.22052500  1
  O  O66  1  0.76706000  0.25471400  0.39522700  1
  O  O67  1  0.60750700  0.97244200  0.33088900  1
  O  O68  1  0.97418200  0.03125600  0.02423000  1
  O  O69  1  0.58985500  0.75313200  0.39540000  1
  O  O70  1  0.02603100  0.55823600  0.05206100  1
  O  O71  1  0.09203400  0.13881800  0.18024400  1
  O  O72  1  0.18895200  0.95698700  0.24672800  1
  O  O73  1  0.01046200  0.68528200  0.18743400  1
  O  O74  1  0.00963900  0.44466300  0.24657900  1
  O  O75  1  0.48271000  0.82773800  0.03989400  1
  O  O76  1  0.01969000  0.75207100  0.11984700  1
  O  O77  1  0.47401900  0.32752500  0.02902600  1
  O  O78  1  0.66664500  0.02312900  0.09471900  1
