# generated using pymatgen
data_Tb14Ti10O41
_symmetry_space_group_name_H-M   'P 1'
_cell_length_a   7.29426357
_cell_length_b   7.29426357
_cell_length_c   17.69676519
_cell_angle_alpha   89.37181493
_cell_angle_beta   89.37181493
_cell_angle_gamma   60.20950617
_symmetry_Int_Tables_number   1
_chemical_formula_structural   Tb14Ti10O41
_chemical_formula_sum   'Tb14 Ti10 O41'
_cell_volume   817.08178514
_cell_formula_units_Z   1
loop_
 _symmetry_equiv_pos_site_id
 _symmetry_equiv_pos_as_xyz
  1  'x, y, z'
loop_
 _atom_site_type_symbol
 _atom_site_label
 _atom_site_symmetry_multiplicity
 _atom_site_fract_x
 _atom_site_fract_y
 _atom_site_fract_z
 _atom_site_occupancy
  Tb  Tb0  1  0.83390000  0.83390000  0.17041400  1
  Tb  Tb1  1  0.00099400  0.00099400  0.00169500  1
  Tb  Tb2  1  0.83397900  0.33503700  0.16724000  1
  Tb  Tb3  1  0.33503700  0.83397900  0.16724000  1
  Tb  Tb4  1  0.49836900  0.49836900  0.50042900  1
  Tb  Tb5  1  0.66178900  0.66178900  0.33166800  1
  Tb  Tb6  1  0.51666000  0.00227100  0.49121900  1
  Tb  Tb7  1  0.00227100  0.51666000  0.49121900  1
  Tb  Tb8  1  0.31138000  0.31138000  0.65797200  1
  Tb  Tb9  1  0.16841300  0.67733000  0.83403200  1
  Tb  Tb10  1  0.84988900  0.84988900  0.66531100  1
  Tb  Tb11  1  0.67733000  0.16841300  0.83403200  1
  Tb  Tb12  1  0.67756700  0.67756700  0.85420800  1
  Tb  Tb13  1  0.16201000  0.16201000  0.82606500  1
  Ti  Ti14  1  0.01427700  0.49385800  0.00393600  1
  Ti  Ti15  1  0.49385800  0.01427700  0.00393600  1
  Ti  Ti16  1  0.49719900  0.49719900  0.00159800  1
  Ti  Ti17  1  0.16920400  0.66878000  0.33215300  1
  Ti  Ti18  1  0.99804200  0.99804200  0.50214000  1
  Ti  Ti19  1  0.33565000  0.33565000  0.16920700  1
  Ti  Ti20  1  0.16739300  0.16739300  0.33347400  1
  Ti  Ti21  1  0.66878000  0.16920400  0.33215300  1
  Ti  Ti22  1  0.82204000  0.35293300  0.66945700  1
  Ti  Ti23  1  0.35293300  0.82204000  0.66945700  1
  O  O24  1  0.79219900  0.79219900  0.01007600  1
  O  O25  1  0.60262100  0.19882200  0.22270800  1
  O  O26  1  0.79321300  0.41787300  0.01482300  1
  O  O27  1  0.00083300  0.00083300  0.12662000  1
  O  O28  1  0.19882200  0.60262100  0.22270800  1
  O  O29  1  0.46970200  0.46970200  0.35132100  1
  O  O30  1  0.47477400  0.47477400  0.11254100  1
  O  O31  1  0.22200100  0.84979500  0.56805100  1
  O  O32  1  0.26954600  0.86501100  0.30367900  1
  O  O33  1  0.19989300  0.19989300  0.22435800  1
  O  O34  1  0.41787300  0.79321300  0.01482300  1
  O  O35  1  0.47864700  0.04922400  0.11374200  1
  O  O36  1  0.46754600  0.05861400  0.35776000  1
  O  O37  1  0.66566900  0.66566900  0.20759500  1
  O  O38  1  0.86501100  0.26954600  0.30367900  1
  O  O39  1  0.66105400  0.66105400  0.45607000  1
  O  O40  1  0.84979500  0.22200100  0.56805100  1
  O  O41  1  0.12807300  0.12807300  0.69478000  1
  O  O42  1  0.13004400  0.13004400  0.44220000  1
  O  O43  1  0.94868300  0.50846500  0.62998000  1
  O  O44  1  0.03296600  0.47922700  0.88492700  1
  O  O45  1  0.84816200  0.84816200  0.53639600  1
  O  O46  1  0.86361700  0.86361700  0.30476000  1
  O  O47  1  0.04922400  0.47864700  0.11374200  1
  O  O48  1  0.05861400  0.46754600  0.35776000  1
  O  O49  1  0.15413300  0.71181500  0.43968000  1
  O  O50  1  0.19586700  0.64205400  0.70711900  1
  O  O51  1  0.32998500  0.32998500  0.53757800  1
  O  O52  1  0.50846500  0.94868300  0.62998000  1
  O  O53  1  0.47922700  0.03296600  0.88492700  1
  O  O54  1  0.82954100  0.82954100  0.79079600  1
  O  O55  1  0.62397300  0.19050900  0.98902500  1
  O  O56  1  0.71181500  0.15413300  0.43968000  1
  O  O57  1  0.55411600  0.55411600  0.62845500  1
  O  O58  1  0.49937300  0.49937300  0.88724600  1
  O  O59  1  0.64205400  0.19586700  0.70711900  1
  O  O60  1  0.81753800  0.39324900  0.77563700  1
  O  O61  1  0.00843200  0.00843200  0.87646200  1
  O  O62  1  0.19050900  0.62397300  0.98902500  1
  O  O63  1  0.39324900  0.81753800  0.77563700  1
  O  O64  1  0.19084200  0.19084200  0.99656400  1
