# generated using pymatgen
data_KTbRuC6(N3O2)2
_symmetry_space_group_name_H-M   'P 1'
_cell_length_a   7.56270666
_cell_length_b   7.56270666
_cell_length_c   14.28246600
_cell_angle_alpha   90.00000000
_cell_angle_beta   90.00000000
_cell_angle_gamma   122.67807343
_symmetry_Int_Tables_number   1
_chemical_formula_structural   KTbRuC6(N3O2)2
_chemical_formula_sum   'K2 Tb2 Ru2 C12 N12 O8'
_cell_volume   687.58128642
_cell_formula_units_Z   2
loop_
 _symmetry_equiv_pos_site_id
 _symmetry_equiv_pos_as_xyz
  1  'x, y, z'
loop_
 _atom_site_type_symbol
 _atom_site_label
 _atom_site_symmetry_multiplicity
 _atom_site_fract_x
 _atom_site_fract_y
 _atom_site_fract_z
 _atom_site_occupancy
  K  K0  1  0.51863400  0.48136600  0.25000000  1
  K  K1  1  0.48136600  0.51863400  0.75000000  1
  Tb  Tb2  1  0.83091700  0.16908300  0.25000000  1
  Tb  Tb3  1  0.16908300  0.83091700  0.75000000  1
  Ru  Ru4  1  0.50000000  0.50000000  0.50000000  1
  Ru  Ru5  1  0.50000000  0.50000000  0.00000000  1
  C  C6  1  0.62845000  0.37155000  0.07800700  1
  C  C7  1  0.37155000  0.62845000  0.92199300  1
  C  C8  1  0.62845000  0.37155000  0.42199300  1
  C  C9  1  0.37155000  0.62845000  0.57800700  1
  C  C10  1  0.24866000  0.36542800  0.41332900  1
  C  C11  1  0.36542800  0.24866000  0.58667100  1
  C  C12  1  0.24866000  0.36542800  0.08667100  1
  C  C13  1  0.36542800  0.24866000  0.91332900  1
  C  C14  1  0.75134000  0.63457200  0.58667100  1
  C  C15  1  0.63457200  0.75134000  0.41332900  1
  C  C16  1  0.75134000  0.63457200  0.91332900  1
  C  C17  1  0.63457200  0.75134000  0.08667100  1
  N  N18  1  0.69522300  0.30477700  0.13284000  1
  N  N19  1  0.30477700  0.69522300  0.86716000  1
  N  N20  1  0.69522300  0.30477700  0.36716000  1
  N  N21  1  0.30477700  0.69522300  0.63284000  1
  N  N22  1  0.11738300  0.29952800  0.35516300  1
  N  N23  1  0.29952800  0.11738300  0.64483700  1
  N  N24  1  0.11738300  0.29952800  0.14483700  1
  N  N25  1  0.29952800  0.11738300  0.85516300  1
  N  N26  1  0.88261700  0.70047200  0.64483700  1
  N  N27  1  0.70047200  0.88261700  0.35516300  1
  N  N28  1  0.88261700  0.70047200  0.85516300  1
  N  N29  1  0.70047200  0.88261700  0.14483700  1
  O  O30  1  0.34904800  0.93346300  0.25000000  1
  O  O31  1  0.93346300  0.34904800  0.75000000  1
  O  O32  1  0.65095200  0.06653700  0.75000000  1
  O  O33  1  0.06653700  0.65095200  0.25000000  1
  O  O34  1  0.18287400  0.81712600  0.32196600  1
  O  O35  1  0.81712600  0.18287400  0.67803400  1
  O  O36  1  0.18287400  0.81712600  0.17803400  1
  O  O37  1  0.81712600  0.18287400  0.82196600  1
