# generated using pymatgen
data_Ba3P4O13
_symmetry_space_group_name_H-M   'P 1'
_cell_length_a   6.91537600
_cell_length_b   7.32337093
_cell_length_c   7.64113766
_cell_angle_alpha   76.24647581
_cell_angle_beta   78.40630030
_cell_angle_gamma   63.29588998
_symmetry_Int_Tables_number   1
_chemical_formula_structural   Ba3P4O13
_chemical_formula_sum   'Ba3 P4 O13'
_cell_volume   333.80768495
_cell_formula_units_Z   1
loop_
 _symmetry_equiv_pos_site_id
 _symmetry_equiv_pos_as_xyz
  1  'x, y, z'
loop_
 _atom_site_type_symbol
 _atom_site_label
 _atom_site_symmetry_multiplicity
 _atom_site_fract_x
 _atom_site_fract_y
 _atom_site_fract_z
 _atom_site_occupancy
  Ba  Ba0  1  0.03936600  0.08187300  0.92636700  1
  Ba  Ba1  1  0.47334800  0.28409000  0.60102800  1
  Ba  Ba2  1  0.48710500  0.81237400  0.39671300  1
  P  P3  1  0.95180200  0.76055500  0.67407800  1
  P  P4  1  0.48430800  0.31958200  0.07979800  1
  P  P5  1  0.52247900  0.60576200  0.94931600  1
  P  P6  1  0.02415600  0.26481400  0.38236500  1
  O  O7  1  0.09139100  0.45388500  0.24580000  1
  O  O8  1  0.22437200  0.38145100  0.07449800  1
  O  O9  1  0.17432400  0.16369300  0.53794500  1
  O  O10  1  0.15200600  0.65388300  0.53823800  1
  O  O11  1  0.55430600  0.22110300  0.26521400  1
  O  O12  1  0.40996900  0.77393800  0.06697000  1
  O  O13  1  0.59658800  0.18253800  0.93389100  1
  O  O14  1  0.45080800  0.65504100  0.76388900  1
  O  O15  1  0.78811300  0.39619100  0.44778100  1
  O  O16  1  0.07167500  0.10748800  0.26338100  1
  O  O17  1  0.73521100  0.87673600  0.58338400  1
  O  O18  1  0.78597600  0.52154200  0.95601100  1
  O  O19  1  0.93229600  0.50706000  0.77923400  1
