# generated using pymatgen
data_K5U2O4F9
_symmetry_space_group_name_H-M   'P 1'
_cell_length_a   6.43598100
_cell_length_b   10.95876745
_cell_length_c   13.23071184
_cell_angle_alpha   102.04571454
_cell_angle_beta   90.00000000
_cell_angle_gamma   107.07632383
_symmetry_Int_Tables_number   1
_chemical_formula_structural   K5U2O4F9
_chemical_formula_sum   'K10 U4 O8 F18'
_cell_volume   870.51090308
_cell_formula_units_Z   2
loop_
 _symmetry_equiv_pos_site_id
 _symmetry_equiv_pos_as_xyz
  1  'x, y, z'
loop_
 _atom_site_type_symbol
 _atom_site_label
 _atom_site_symmetry_multiplicity
 _atom_site_fract_x
 _atom_site_fract_y
 _atom_site_fract_z
 _atom_site_occupancy
  K  K0  1  0.19083000  0.91703300  0.43485500  1
  K  K1  1  0.50433400  0.43291500  0.62171100  1
  K  K2  1  0.07141900  0.56708500  0.87828900  1
  K  K3  1  0.72620200  0.91703300  0.93485500  1
  K  K4  1  0.92858100  0.43291500  0.12171100  1
  K  K5  1  0.49566600  0.56708500  0.37828900  1
  K  K6  1  0.80917000  0.08296700  0.56514500  1
  K  K7  1  0.00000000  0.50000000  0.50000000  1
  K  K8  1  0.27379800  0.08296700  0.06514500  1
  K  K9  1  0.50000000  0.50000000  0.00000000  1
  U  U10  1  0.43586500  0.21769000  0.80916000  1
  U  U11  1  0.21817500  0.78231000  0.69084000  1
  U  U12  1  0.78182500  0.21769000  0.30916000  1
  U  U13  1  0.56413500  0.78231000  0.19084000  1
  O  O14  1  0.75355100  0.76859800  0.08703400  1
  O  O15  1  0.64177500  0.21856800  0.71246800  1
  O  O16  1  0.24644900  0.23140200  0.91296600  1
  O  O17  1  0.98495400  0.23140200  0.41296600  1
  O  O18  1  0.35822500  0.78143200  0.28753200  1
  O  O19  1  0.42320500  0.78143200  0.78753200  1
  O  O20  1  0.57679500  0.21856800  0.21246800  1
  O  O21  1  0.01504600  0.76859800  0.58703400  1
  F  F22  1  0.54432000  0.10410900  0.40328200  1
  F  F23  1  0.63648700  0.37071400  0.41891600  1
  F  F24  1  0.23041200  0.00000000  0.75000000  1
  F  F25  1  0.45568000  0.89589100  0.59671800  1
  F  F26  1  0.55978900  0.10410900  0.90328200  1
  F  F27  1  0.00207000  0.42585500  0.30704000  1
  F  F28  1  0.57621600  0.57414500  0.19296000  1
  F  F29  1  0.76958800  0.00000000  0.25000000  1
  F  F30  1  0.01287600  0.79587100  0.82949300  1
  F  F31  1  0.73422700  0.37071400  0.91891600  1
  F  F32  1  0.36351300  0.62928600  0.58108400  1
  F  F33  1  0.26577300  0.62928600  0.08108400  1
  F  F34  1  0.98712400  0.20412900  0.17050700  1
  F  F35  1  0.99793000  0.57414500  0.69296000  1
  F  F36  1  0.44021100  0.89589100  0.09671800  1
  F  F37  1  0.78299600  0.79587100  0.32949300  1
  F  F38  1  0.21700400  0.20412900  0.67050700  1
  F  F39  1  0.42378400  0.42585500  0.80704000  1
