# generated using pymatgen
data_Dy14(PbS8)3
_symmetry_space_group_name_H-M   'P 1'
_cell_length_a   7.30471635
_cell_length_b   7.30471635
_cell_length_c   18.86991683
_cell_angle_alpha   75.05478590
_cell_angle_beta   75.05478590
_cell_angle_gamma   70.09043212
_symmetry_Int_Tables_number   1
_chemical_formula_structural   Dy14(PbS8)3
_chemical_formula_sum   'Dy14 Pb3 S24'
_cell_volume   898.50109509
_cell_formula_units_Z   1
loop_
 _symmetry_equiv_pos_site_id
 _symmetry_equiv_pos_as_xyz
  1  'x, y, z'
loop_
 _atom_site_type_symbol
 _atom_site_label
 _atom_site_symmetry_multiplicity
 _atom_site_fract_x
 _atom_site_fract_y
 _atom_site_fract_z
 _atom_site_occupancy
  Dy  Dy0  1  0.79037600  0.29255200  0.80319700  1
  Dy  Dy1  1  0.81411500  0.82828600  0.96269900  1
  Dy  Dy2  1  0.13341300  0.61857800  0.12135500  1
  Dy  Dy3  1  0.38142200  0.86658700  0.87864500  1
  Dy  Dy4  1  0.45865900  0.96215300  0.46052200  1
  Dy  Dy5  1  0.16425800  0.17226900  0.28662400  1
  Dy  Dy6  1  0.17171400  0.18588500  0.03730100  1
  Dy  Dy7  1  0.70744800  0.20962400  0.19680300  1
  Dy  Dy8  1  0.20463200  0.45725900  0.83752400  1
  Dy  Dy9  1  0.49626700  0.49198900  0.62943100  1
  Dy  Dy10  1  0.50801100  0.50373300  0.37056900  1
  Dy  Dy11  1  0.03784700  0.54134100  0.53947800  1
  Dy  Dy12  1  0.54274100  0.79536800  0.16247600  1
  Dy  Dy13  1  0.82773100  0.83574200  0.71337600  1
  Pb  Pb14  1  0.95856500  0.71408100  0.33141100  1
  Pb  Pb15  1  0.28591900  0.04143500  0.66858900  1
  Pb  Pb16  1  0.87681900  0.12318100  0.50000000  1
  S  S17  1  0.04249500  0.16072500  0.91492400  1
  S  S18  1  0.51737100  0.16325000  0.91740100  1
  S  S19  1  0.37428500  0.50091900  0.24415000  1
  S  S20  1  0.41655500  0.80289100  0.03777600  1
  S  S21  1  0.85822700  0.49778300  0.24542500  1
  S  S22  1  0.83675000  0.48262900  0.08259900  1
  S  S23  1  0.76727600  0.62258100  0.86599700  1
  S  S24  1  0.03776100  0.90433100  0.80351700  1
  S  S25  1  0.69363100  0.81595200  0.58893400  1
  S  S26  1  0.19710900  0.58344500  0.96222400  1
  S  S27  1  0.74961500  0.13000100  0.36359900  1
  S  S28  1  0.19630100  0.81542400  0.58311400  1
  S  S29  1  0.18457600  0.80369900  0.41688600  1
  S  S30  1  0.09566900  0.96223900  0.19648300  1
  S  S31  1  0.37741900  0.23272400  0.13400300  1
  S  S32  1  0.83927500  0.95750500  0.08507600  1
  S  S33  1  0.53614100  0.91336100  0.29327100  1
  S  S34  1  0.08663900  0.46385900  0.70672900  1
  S  S35  1  0.50221700  0.14177300  0.75457500  1
  S  S36  1  0.41913200  0.29998000  0.53248100  1
  S  S37  1  0.70002000  0.58086800  0.46751900  1
  S  S38  1  0.18404800  0.30636900  0.41106600  1
  S  S39  1  0.86999900  0.25038500  0.63640100  1
  S  S40  1  0.49908100  0.62571500  0.75585000  1
