# generated using pymatgen
data_Ca(YbS2)2
_symmetry_space_group_name_H-M   'P 1'
_cell_length_a   7.32030304
_cell_length_b   7.32030304
_cell_length_c   7.32030304
_cell_angle_alpha   111.34534998
_cell_angle_beta   111.34534998
_cell_angle_gamma   105.78467597
_symmetry_Int_Tables_number   1
_chemical_formula_structural   Ca(YbS2)2
_chemical_formula_sum   'Ca2 Yb4 S8'
_cell_volume   301.04122326
_cell_formula_units_Z   2
loop_
 _symmetry_equiv_pos_site_id
 _symmetry_equiv_pos_as_xyz
  1  'x, y, z'
loop_
 _atom_site_type_symbol
 _atom_site_label
 _atom_site_symmetry_multiplicity
 _atom_site_fract_x
 _atom_site_fract_y
 _atom_site_fract_z
 _atom_site_occupancy
  Ca  Ca0  1  0.75000000  0.25000000  0.50000000  1
  Ca  Ca1  1  0.00000000  0.00000000  0.00000000  1
  Yb  Yb2  1  0.25272400  0.62500000  0.12772400  1
  Yb  Yb3  1  0.37500000  0.50272400  0.62772400  1
  Yb  Yb4  1  0.49727600  0.12500000  0.87227600  1
  Yb  Yb5  1  0.87500000  0.74727600  0.37227600  1
  S  S6  1  0.26408900  0.03751700  0.41847100  1
  S  S7  1  0.48591100  0.40438200  0.27342900  1
  S  S8  1  0.78751700  0.51408900  0.91847100  1
  S  S9  1  0.59561800  0.86904600  0.08152900  1
  S  S10  1  0.61904600  0.84561800  0.58152900  1
  S  S11  1  0.15438200  0.73591100  0.77342900  1
  S  S12  1  0.96248300  0.38095400  0.22657100  1
  S  S13  1  0.13095400  0.21248300  0.72657100  1
