# generated using pymatgen
data_LaN3O13
_symmetry_space_group_name_H-M   'P 1'
_cell_length_a   10.44914300
_cell_length_b   6.72101700
_cell_length_c   7.36550750
_cell_angle_alpha   86.88216702
_cell_angle_beta   90.00000000
_cell_angle_gamma   90.00000000
_symmetry_Int_Tables_number   1
_chemical_formula_structural   LaN3O13
_chemical_formula_sum   'La2 N6 O26'
_cell_volume   516.50558181
_cell_formula_units_Z   2
loop_
 _symmetry_equiv_pos_site_id
 _symmetry_equiv_pos_as_xyz
  1  'x, y, z'
loop_
 _atom_site_type_symbol
 _atom_site_label
 _atom_site_symmetry_multiplicity
 _atom_site_fract_x
 _atom_site_fract_y
 _atom_site_fract_z
 _atom_site_occupancy
  La  La0  1  0.25000000  0.78892300  0.41071200  1
  La  La1  1  0.75000000  0.21107700  0.58928800  1
  N  N2  1  0.25000000  0.24218400  0.48022600  1
  N  N3  1  0.75000000  0.75781600  0.51977400  1
  N  N4  1  0.49648700  0.71606500  0.19182200  1
  N  N5  1  0.99648700  0.28393500  0.80817800  1
  N  N6  1  0.50351300  0.28393500  0.80817800  1
  N  N7  1  0.00351300  0.71606500  0.19182200  1
  O  O8  1  0.35406200  0.14938100  0.46012800  1
  O  O9  1  0.85406200  0.85061900  0.53987200  1
  O  O10  1  0.64593800  0.85061900  0.53987200  1
  O  O11  1  0.14593800  0.14938100  0.46012800  1
  O  O12  1  0.25000000  0.42032700  0.52336700  1
  O  O13  1  0.75000000  0.57967300  0.47663300  1
  O  O14  1  0.46077300  0.89340800  0.22326300  1
  O  O15  1  0.96077300  0.10659200  0.77673700  1
  O  O16  1  0.53922700  0.10659200  0.77673700  1
  O  O17  1  0.03922700  0.89340800  0.22326300  1
  O  O18  1  0.59466500  0.68177400  0.10796300  1
  O  O19  1  0.09466500  0.31822600  0.89203700  1
  O  O20  1  0.40533500  0.31822600  0.89203700  1
  O  O21  1  0.90533500  0.68177400  0.10796300  1
  O  O22  1  0.42224500  0.57607800  0.25492500  1
  O  O23  1  0.92224500  0.42392200  0.74507500  1
  O  O24  1  0.57775500  0.42392200  0.74507500  1
  O  O25  1  0.07775500  0.57607800  0.25492500  1
  O  O26  1  0.25000000  0.91932500  0.98565300  1
  O  O27  1  0.75000000  0.08067500  0.01434700  1
  O  O28  1  0.25000000  0.76879400  0.89698500  1
  O  O29  1  0.75000000  0.23120600  0.10301500  1
  O  O30  1  0.34834900  0.78411400  0.71699900  1
  O  O31  1  0.84834900  0.21588600  0.28300100  1
  O  O32  1  0.65165100  0.21588600  0.28300100  1
  O  O33  1  0.15165100  0.78411400  0.71699900  1
