# generated using pymatgen
data_K2Zr2Cu(OF2)6
_symmetry_space_group_name_H-M   'P 1'
_cell_length_a   9.48472000
_cell_length_b   7.19325300
_cell_length_c   12.29310479
_cell_angle_alpha   63.95721312
_cell_angle_beta   90.00000000
_cell_angle_gamma   90.00000000
_symmetry_Int_Tables_number   1
_chemical_formula_structural   K2Zr2Cu(OF2)6
_chemical_formula_sum   'K4 Zr4 Cu2 O12 F24'
_cell_volume   753.55210901
_cell_formula_units_Z   2
loop_
 _symmetry_equiv_pos_site_id
 _symmetry_equiv_pos_as_xyz
  1  'x, y, z'
loop_
 _atom_site_type_symbol
 _atom_site_label
 _atom_site_symmetry_multiplicity
 _atom_site_fract_x
 _atom_site_fract_y
 _atom_site_fract_z
 _atom_site_occupancy
  K  K0  1  0.68797700  0.58205200  0.91890900  1
  K  K1  1  0.18797700  0.41794800  0.58109100  1
  K  K2  1  0.31202300  0.41794800  0.08109100  1
  K  K3  1  0.81202300  0.58205200  0.41890900  1
  Zr  Zr4  1  0.98849800  0.80259600  0.66412900  1
  Zr  Zr5  1  0.48849800  0.19740400  0.83587100  1
  Zr  Zr6  1  0.01150200  0.19740400  0.33587100  1
  Zr  Zr7  1  0.51150200  0.80259600  0.16412900  1
  Cu  Cu8  1  0.50000000  0.00000000  0.50000000  1
  Cu  Cu9  1  0.00000000  0.00000000  0.00000000  1
  O  O10  1  0.60349800  0.76371200  0.54710900  1
  O  O11  1  0.10349800  0.23628800  0.95289100  1
  O  O12  1  0.39650200  0.23628800  0.45289100  1
  O  O13  1  0.89650200  0.76371200  0.04710900  1
  O  O14  1  0.87329100  0.03269900  0.88125200  1
  O  O15  1  0.37329100  0.96730100  0.61874800  1
  O  O16  1  0.12670900  0.96730100  0.11874800  1
  O  O17  1  0.62670900  0.03269900  0.38125200  1
  O  O18  1  0.65622300  0.08342600  0.59409500  1
  O  O19  1  0.15622300  0.91657400  0.90590500  1
  O  O20  1  0.34377700  0.91657400  0.40590500  1
  O  O21  1  0.84377700  0.08342600  0.09409500  1
  F  F22  1  0.52637700  0.95090300  0.79728800  1
  F  F23  1  0.02637700  0.04909700  0.70271200  1
  F  F24  1  0.47362300  0.04909700  0.20271200  1
  F  F25  1  0.97362300  0.95090300  0.29728800  1
  F  F26  1  0.95303100  0.62089300  0.84126400  1
  F  F27  1  0.45303100  0.37910700  0.65873600  1
  F  F28  1  0.04696900  0.37910700  0.15873600  1
  F  F29  1  0.54696900  0.62089300  0.34126400  1
  F  F30  1  0.94257700  0.59603600  0.59940400  1
  F  F31  1  0.44257700  0.40396400  0.90059600  1
  F  F32  1  0.05742300  0.40396400  0.40059600  1
  F  F33  1  0.55742300  0.59603600  0.09940400  1
  F  F34  1  0.87889800  0.03475200  0.50042600  1
  F  F35  1  0.37889800  0.96524800  0.99957400  1
  F  F36  1  0.12110200  0.96524800  0.49957400  1
  F  F37  1  0.62110200  0.03475200  0.00042600  1
  F  F38  1  0.68028000  0.32649800  0.79463100  1
  F  F39  1  0.18028000  0.67350200  0.70536900  1
  F  F40  1  0.31972000  0.67350200  0.20536900  1
  F  F41  1  0.81972000  0.32649800  0.29463100  1
  F  F42  1  0.75823200  0.81130900  0.69490500  1
  F  F43  1  0.25823200  0.18869100  0.80509500  1
  F  F44  1  0.24176800  0.18869100  0.30509500  1
  F  F45  1  0.74176800  0.81130900  0.19490500  1
