# generated using pymatgen
data_Sr(SbO3)2
_symmetry_space_group_name_H-M   'P 1'
_cell_length_a   7.30746029
_cell_length_b   7.30746029
_cell_length_c   12.59826055
_cell_angle_alpha   73.46700419
_cell_angle_beta   73.46700419
_cell_angle_gamma   60.96488794
_symmetry_Int_Tables_number   1
_chemical_formula_structural   Sr(SbO3)2
_chemical_formula_sum   'Sr4 Sb8 O24'
_cell_volume   555.19433826
_cell_formula_units_Z   4
loop_
 _symmetry_equiv_pos_site_id
 _symmetry_equiv_pos_as_xyz
  1  'x, y, z'
loop_
 _atom_site_type_symbol
 _atom_site_label
 _atom_site_symmetry_multiplicity
 _atom_site_fract_x
 _atom_site_fract_y
 _atom_site_fract_z
 _atom_site_occupancy
  Sr  Sr0  1  0.81735400  0.60086500  0.71762600  1
  Sr  Sr1  1  0.60086500  0.81735400  0.21762600  1
  Sr  Sr2  1  0.39913500  0.18264600  0.78237400  1
  Sr  Sr3  1  0.18264600  0.39913500  0.28237400  1
  Sb  Sb4  1  0.50000000  0.00000000  0.50000000  1
  Sb  Sb5  1  0.00000000  0.00000000  0.50000000  1
  Sb  Sb6  1  0.00000000  0.50000000  0.00000000  1
  Sb  Sb7  1  0.50000000  0.50000000  0.50000000  1
  Sb  Sb8  1  0.24292400  0.75707600  0.75000000  1
  Sb  Sb9  1  0.50000000  0.50000000  0.00000000  1
  Sb  Sb10  1  0.00000000  0.00000000  0.00000000  1
  Sb  Sb11  1  0.75707600  0.24292400  0.25000000  1
  O  O12  1  0.79296600  0.87937500  0.52912000  1
  O  O13  1  0.11121100  0.55702100  0.83412700  1
  O  O14  1  0.47977500  0.58084500  0.83795100  1
  O  O15  1  0.39990800  0.27060600  0.55555300  1
  O  O16  1  0.41915500  0.52022500  0.66204900  1
  O  O17  1  0.27060600  0.39990800  0.05555300  1
  O  O18  1  0.71312100  0.21308100  0.96243000  1
  O  O19  1  0.55702100  0.11121100  0.33412700  1
  O  O20  1  0.78691900  0.28687900  0.53757000  1
  O  O21  1  0.11111500  0.99863700  0.83297200  1
  O  O22  1  0.99863700  0.11111500  0.33297200  1
  O  O23  1  0.12062500  0.20703400  0.97088000  1
  O  O24  1  0.00136300  0.88888500  0.66702800  1
  O  O25  1  0.87937500  0.79296600  0.02912000  1
  O  O26  1  0.88888500  0.00136300  0.16702800  1
  O  O27  1  0.21308100  0.71312100  0.46243000  1
  O  O28  1  0.28687900  0.78691900  0.03757000  1
  O  O29  1  0.44297900  0.88878900  0.66587300  1
  O  O30  1  0.72939400  0.60009200  0.94444700  1
  O  O31  1  0.58084500  0.47977500  0.33795100  1
  O  O32  1  0.60009200  0.72939400  0.44444700  1
  O  O33  1  0.52022500  0.41915500  0.16204900  1
  O  O34  1  0.20703400  0.12062500  0.47088000  1
  O  O35  1  0.88878900  0.44297900  0.16587300  1
