# generated using pymatgen
data_Cd3(BiO2)10
_symmetry_space_group_name_H-M   'P 1'
_cell_length_a   8.83868085
_cell_length_b   8.83868085
_cell_length_c   10.32987730
_cell_angle_alpha   54.83332771
_cell_angle_beta   54.83332771
_cell_angle_gamma   69.48323614
_symmetry_Int_Tables_number   1
_chemical_formula_structural   Cd3(BiO2)10
_chemical_formula_sum   'Cd3 Bi10 O20'
_cell_volume   539.08010047
_cell_formula_units_Z   1
loop_
 _symmetry_equiv_pos_site_id
 _symmetry_equiv_pos_as_xyz
  1  'x, y, z'
loop_
 _atom_site_type_symbol
 _atom_site_label
 _atom_site_symmetry_multiplicity
 _atom_site_fract_x
 _atom_site_fract_y
 _atom_site_fract_z
 _atom_site_occupancy
  Cd  Cd0  1  0.99969700  0.00030300  0.00000000  1
  Cd  Cd1  1  0.32055700  0.30715200  0.86894000  1
  Cd  Cd2  1  0.69284800  0.67944300  0.13106000  1
  Bi  Bi3  1  0.18082700  0.82633500  0.68134400  1
  Bi  Bi4  1  0.13310300  0.50121400  0.18948900  1
  Bi  Bi5  1  0.17366500  0.81917300  0.31865600  1
  Bi  Bi6  1  0.33926400  0.32947400  0.50088800  1
  Bi  Bi7  1  0.50260600  0.13492600  0.17612200  1
  Bi  Bi8  1  0.49878600  0.86689700  0.81051100  1
  Bi  Bi9  1  0.67052600  0.66073600  0.49911200  1
  Bi  Bi10  1  0.81435300  0.15762200  0.70282500  1
  Bi  Bi11  1  0.86507400  0.49739400  0.82387800  1
  Bi  Bi12  1  0.84237800  0.18564700  0.29717500  1
  O  O13  1  0.00208700  0.73439300  0.01037900  1
  O  O14  1  0.25597500  0.27420400  0.37579200  1
  O  O15  1  0.98252000  0.26267000  0.75541600  1
  O  O16  1  0.11725600  0.62669400  0.61269100  1
  O  O17  1  0.00182400  0.65007400  0.34947600  1
  O  O18  1  0.37330600  0.88274400  0.38730900  1
  O  O19  1  0.24797100  0.24175400  0.14028100  1
  O  O20  1  0.36703500  0.61324100  0.74240600  1
  O  O21  1  0.26560700  0.99791300  0.98962100  1
  O  O22  1  0.38675900  0.63296500  0.25759400  1
  O  O23  1  0.64462500  0.00145500  0.00430200  1
  O  O24  1  0.62313500  0.36584000  0.26575300  1
  O  O25  1  0.63416000  0.37686500  0.73424700  1
  O  O26  1  0.34992600  0.99817600  0.65052400  1
  O  O27  1  0.61906000  0.12484500  0.63769800  1
  O  O28  1  0.75824600  0.75202900  0.85971900  1
  O  O29  1  0.72579600  0.74402500  0.62420800  1
  O  O30  1  0.87515500  0.38094000  0.36230200  1
  O  O31  1  0.73733000  0.01748000  0.24458400  1
  O  O32  1  0.99854500  0.35537500  0.99569800  1
