# generated using pymatgen
data_GaCuTe2
_symmetry_space_group_name_H-M   'P 1'
_cell_length_a   6.98735260
_cell_length_b   6.98735260
_cell_length_c   6.98735260
_cell_angle_alpha   131.64143631
_cell_angle_beta   131.64143631
_cell_angle_gamma   70.79593220
_symmetry_Int_Tables_number   1
_chemical_formula_structural   GaCuTe2
_chemical_formula_sum   'Ga2 Cu2 Te4'
_cell_volume   186.61221596
_cell_formula_units_Z   2
loop_
 _symmetry_equiv_pos_site_id
 _symmetry_equiv_pos_as_xyz
  1  'x, y, z'
loop_
 _atom_site_type_symbol
 _atom_site_label
 _atom_site_symmetry_multiplicity
 _atom_site_fract_x
 _atom_site_fract_y
 _atom_site_fract_z
 _atom_site_occupancy
  Ga  Ga0  1  0.00000000  0.00000000  0.00000000  1
  Ga  Ga1  1  0.75000000  0.25000000  0.50000000  1
  Cu  Cu2  1  0.50000000  0.50000000  0.00000000  1
  Cu  Cu3  1  0.25000000  0.75000000  0.50000000  1
  Te  Te4  1  0.00649400  0.50649400  0.50000000  1
  Te  Te5  1  0.74350600  0.74350600  0.00000000  1
  Te  Te6  1  0.49350600  0.99350600  0.50000000  1
  Te  Te7  1  0.25649400  0.25649400  0.00000000  1
