# generated using pymatgen
data_Zn8B4H3O15F
_symmetry_space_group_name_H-M   'P 1'
_cell_length_a   4.94907500
_cell_length_b   6.42372600
_cell_length_c   23.15620352
_cell_angle_alpha   84.29899625
_cell_angle_beta   90.00000000
_cell_angle_gamma   90.00000000
_symmetry_Int_Tables_number   1
_chemical_formula_structural   Zn8B4H3O15F
_chemical_formula_sum   'Zn16 B8 H6 O30 F2'
_cell_volume   732.52926042
_cell_formula_units_Z   2
loop_
 _symmetry_equiv_pos_site_id
 _symmetry_equiv_pos_as_xyz
  1  'x, y, z'
loop_
 _atom_site_type_symbol
 _atom_site_label
 _atom_site_symmetry_multiplicity
 _atom_site_fract_x
 _atom_site_fract_y
 _atom_site_fract_z
 _atom_site_occupancy
  Zn  Zn0  1  0.00710100  0.14053300  0.98053700  1
  Zn  Zn1  1  0.00719200  0.13969200  0.73099300  1
  Zn  Zn2  1  0.51959400  0.63724600  0.14632800  1
  Zn  Zn3  1  0.51955700  0.63716600  0.89632900  1
  Zn  Zn4  1  0.51865100  0.63583000  0.39379700  1
  Zn  Zn5  1  0.52010300  0.63686800  0.64554200  1
  Zn  Zn6  1  0.50261600  0.85713400  0.51876000  1
  Zn  Zn7  1  0.50719200  0.86030800  0.26900700  1
  Zn  Zn8  1  0.50710100  0.85946700  0.01946300  1
  Zn  Zn9  1  0.50709600  0.85848000  0.76944600  1
  Zn  Zn10  1  0.02010300  0.36313200  0.35445800  1
  Zn  Zn11  1  0.01865100  0.36417000  0.60620300  1
  Zn  Zn12  1  0.01955700  0.36283400  0.10367100  1
  Zn  Zn13  1  0.01959400  0.36275400  0.85367200  1
  Zn  Zn14  1  0.00261600  0.14286600  0.48124000  1
  Zn  Zn15  1  0.00709600  0.14152000  0.23055400  1
  B  B16  1  0.50255000  0.19309800  0.41547400  1
  B  B17  1  0.50248500  0.19228500  0.16390300  1
  B  B18  1  0.50238100  0.19186900  0.91402100  1
  B  B19  1  0.50291300  0.19049800  0.66445500  1
  B  B20  1  0.00291300  0.80950200  0.33554500  1
  B  B21  1  0.00255000  0.80690200  0.58452600  1
  B  B22  1  0.00238100  0.80813100  0.08597900  1
  B  B23  1  0.00248500  0.80771500  0.83609700  1
  H  H24  1  0.67940700  0.51694000  0.24520300  1
  H  H25  1  0.67892800  0.51691200  0.99508500  1
  H  H26  1  0.67739800  0.51703900  0.74456200  1
  H  H27  1  0.17739800  0.48296100  0.25543800  1
  H  H28  1  0.17892800  0.48308800  0.00491500  1
  H  H29  1  0.17940700  0.48306000  0.75479700  1
  O  O30  1  0.72451400  0.82508600  0.58938200  1
  O  O31  1  0.72535200  0.83343100  0.34062300  1
  O  O32  1  0.72470100  0.83077300  0.09123800  1
  O  O33  1  0.72470800  0.83041900  0.84122700  1
  O  O34  1  0.63445700  0.34288100  0.12727000  1
  O  O35  1  0.63461600  0.34236200  0.87738300  1
  O  O36  1  0.63621100  0.34354600  0.37889100  1
  O  O37  1  0.63400600  0.34176000  0.62811100  1
  O  O38  1  0.63678400  0.07238000  0.95832100  1
  O  O39  1  0.63865600  0.06726300  0.45797600  1
  O  O40  1  0.63746800  0.07271600  0.20806000  1
  O  O41  1  0.63842900  0.07017000  0.70845800  1
  O  O42  1  0.51474600  0.59584100  0.23159700  1
  O  O43  1  0.51389500  0.59632600  0.73096700  1
  O  O44  1  0.51469600  0.59602700  0.98155300  1
  O  O45  1  0.22451400  0.17491400  0.41061800  1
  O  O46  1  0.22470800  0.16958100  0.15877300  1
  O  O47  1  0.22470100  0.16922700  0.90876200  1
  O  O48  1  0.22535200  0.16656900  0.65937700  1
  O  O49  1  0.13400600  0.65824000  0.37188900  1
  O  O50  1  0.13621100  0.65645400  0.62110900  1
  O  O51  1  0.13461600  0.65763800  0.12261700  1
  O  O52  1  0.13445700  0.65711900  0.87273000  1
  O  O53  1  0.13842900  0.92983000  0.29154200  1
  O  O54  1  0.13865600  0.93273700  0.54202400  1
  O  O55  1  0.13746800  0.92728400  0.79194000  1
  O  O56  1  0.13678400  0.92762000  0.04167900  1
  O  O57  1  0.01389500  0.40367400  0.26903300  1
  O  O58  1  0.01469600  0.40397300  0.01844700  1
  O  O59  1  0.01474600  0.40415900  0.76840300  1
  F  F60  1  0.52178900  0.60614600  0.47780700  1
  F  F61  1  0.02178900  0.39385400  0.52219300  1
