# generated using pymatgen
data_I
_symmetry_space_group_name_H-M   'P 1'
_cell_length_a   5.02086974
_cell_length_b   4.92542230
_cell_length_c   3.23696905
_cell_angle_alpha   72.61291150
_cell_angle_beta   69.41737170
_cell_angle_gamma   37.96971680
_symmetry_Int_Tables_number   1
_chemical_formula_structural   I
_chemical_formula_sum   I1
_cell_volume   46.07380230
_cell_formula_units_Z   1
loop_
 _symmetry_equiv_pos_site_id
 _symmetry_equiv_pos_as_xyz
  1  'x, y, z'
loop_
 _atom_site_type_symbol
 _atom_site_label
 _atom_site_symmetry_multiplicity
 _atom_site_fract_x
 _atom_site_fract_y
 _atom_site_fract_z
 _atom_site_occupancy
  I  I0  1  0.00000000  0.00000000  0.00000000  1
