# generated using pymatgen
data_LuAgS2
_symmetry_space_group_name_H-M   'P 1'
_cell_length_a   7.03232281
_cell_length_b   7.03232281
_cell_length_c   7.03232281
_cell_angle_alpha   135.10732894
_cell_angle_beta   135.08996213
_cell_angle_gamma   65.37696622
_symmetry_Int_Tables_number   1
_chemical_formula_structural   LuAgS2
_chemical_formula_sum   'Lu2 Ag2 S4'
_cell_volume   170.74344831
_cell_formula_units_Z   2
loop_
 _symmetry_equiv_pos_site_id
 _symmetry_equiv_pos_as_xyz
  1  'x, y, z'
loop_
 _atom_site_type_symbol
 _atom_site_label
 _atom_site_symmetry_multiplicity
 _atom_site_fract_x
 _atom_site_fract_y
 _atom_site_fract_z
 _atom_site_occupancy
  Lu  Lu0  1  0.11531800  0.62515500  0.99016300  1
  Lu  Lu1  1  0.36500900  0.37484500  0.49016300  1
  Ag  Ag2  1  0.62492000  0.12175000  0.00317000  1
  Ag  Ag3  1  0.88142000  0.87825000  0.50317000  1
  S  S4  1  0.88896300  0.39777600  0.99118700  1
  S  S5  1  0.34907900  0.85259800  0.99648100  1
  S  S6  1  0.59341100  0.60222400  0.49118700  1
  S  S7  1  0.14388300  0.14740200  0.49648100  1
