# generated using pymatgen
data_Ca2HoF7
_symmetry_space_group_name_H-M   'P 1'
_cell_length_a   4.30468047
_cell_length_b   4.30468047
_cell_length_c   30.33645987
_cell_angle_alpha   84.61415345
_cell_angle_beta   84.61415345
_cell_angle_gamma   50.68387091
_symmetry_Int_Tables_number   1
_chemical_formula_structural   Ca2HoF7
_chemical_formula_sum   'Ca6 Ho3 F21'
_cell_volume   432.55668105
_cell_formula_units_Z   3
loop_
 _symmetry_equiv_pos_site_id
 _symmetry_equiv_pos_as_xyz
  1  'x, y, z'
loop_
 _atom_site_type_symbol
 _atom_site_label
 _atom_site_symmetry_multiplicity
 _atom_site_fract_x
 _atom_site_fract_y
 _atom_site_fract_z
 _atom_site_occupancy
  Ca  Ca0  1  0.98530000  0.98530000  0.00229600  1
  Ca  Ca1  1  0.69258300  0.69258300  0.08884300  1
  Ca  Ca2  1  0.11083500  0.11083500  0.21115900  1
  Ca  Ca3  1  0.52609200  0.52609200  0.33351900  1
  Ca  Ca4  1  0.09731100  0.09731100  0.45458800  1
  Ca  Ca5  1  0.47638700  0.47638700  0.87625400  1
  Ho  Ho6  1  0.82644700  0.82644700  0.54930500  1
  Ho  Ho7  1  0.39076800  0.39076800  0.65800200  1
  Ho  Ho8  1  0.95378600  0.95378600  0.76675400  1
  F  F9  1  0.01161800  0.01161800  0.09440700  1
  F  F10  1  0.69440100  0.69440100  0.16400700  1
  F  F11  1  0.41368100  0.41368100  0.22173500  1
  F  F12  1  0.11208900  0.11208900  0.28600300  1
  F  F13  1  0.78450000  0.78450000  0.46902800  1
  F  F14  1  0.83069100  0.83069100  0.34355200  1
  F  F15  1  0.53679000  0.53679000  0.40796300  1
  F  F16  1  0.32627600  0.32627600  0.58587500  1
  F  F17  1  0.44799800  0.44799800  0.50468900  1
  F  F18  1  0.11981700  0.11981700  0.53141300  1
  F  F19  1  0.87483900  0.87483900  0.69467800  1
  F  F20  1  0.97978800  0.97978800  0.61115600  1
  F  F21  1  0.40320200  0.40320200  0.80497600  1
  F  F22  1  0.66734200  0.66734200  0.63647100  1
  F  F23  1  0.53683200  0.53683200  0.72058600  1
  F  F24  1  0.22458600  0.22458600  0.74374400  1
  F  F25  1  0.01481500  0.01481500  0.93492900  1
  F  F26  1  0.07524800  0.07524800  0.83148000  1
  F  F27  1  0.76624200  0.76624200  0.88279300  1
  F  F28  1  0.66356300  0.66356300  0.01025500  1
  F  F29  1  0.33894800  0.33894800  0.05009700  1
