# generated using pymatgen
data_K3Nd3I10
_symmetry_space_group_name_H-M   'P 1'
_cell_length_a   14.46959900
_cell_length_b   9.10295200
_cell_length_c   9.99929508
_cell_angle_alpha   86.81524650
_cell_angle_beta   90.00000000
_cell_angle_gamma   90.00000000
_symmetry_Int_Tables_number   1
_chemical_formula_structural   K3Nd3I10
_chemical_formula_sum   'K6 Nd6 I20'
_cell_volume   1315.03370054
_cell_formula_units_Z   2
loop_
 _symmetry_equiv_pos_site_id
 _symmetry_equiv_pos_as_xyz
  1  'x, y, z'
loop_
 _atom_site_type_symbol
 _atom_site_label
 _atom_site_symmetry_multiplicity
 _atom_site_fract_x
 _atom_site_fract_y
 _atom_site_fract_z
 _atom_site_occupancy
  K  K0  1  0.84491400  0.20433000  0.28175000  1
  K  K1  1  0.34491400  0.79567000  0.71825000  1
  K  K2  1  0.65778100  0.70969400  0.75486400  1
  K  K3  1  0.68646400  0.73886300  0.26461900  1
  K  K4  1  0.18646400  0.26113700  0.73538100  1
  K  K5  1  0.15778100  0.29030600  0.24513600  1
  Nd  Nd6  1  0.81249700  0.27077900  0.80290000  1
  Nd  Nd7  1  0.56849800  0.17589200  0.94899200  1
  Nd  Nd8  1  0.06849800  0.82410800  0.05100800  1
  Nd  Nd9  1  0.31249700  0.72922100  0.19710000  1
  Nd  Nd10  1  0.98821100  0.68841600  0.53430800  1
  Nd  Nd11  1  0.48821100  0.31158400  0.46569200  1
  I  I12  1  0.98960100  0.17400000  0.98521400  1
  I  I13  1  0.32206400  0.08484300  0.44589600  1
  I  I14  1  0.60649800  0.11058400  0.27398700  1
  I  I15  1  0.55390800  0.03984500  0.66481700  1
  I  I16  1  0.25064400  0.01874700  0.03369100  1
  I  I17  1  0.75064400  0.98125300  0.96630900  1
  I  I18  1  0.05390800  0.96015500  0.33518300  1
  I  I19  1  0.10649800  0.88941600  0.72601300  1
  I  I20  1  0.82206400  0.91515700  0.55410400  1
  I  I21  1  0.48960100  0.82600000  0.01478600  1
  I  I22  1  0.47584300  0.67236600  0.44236100  1
  I  I23  1  0.19725700  0.55846100  0.98853700  1
  I  I24  1  0.91998400  0.59670100  0.83179200  1
  I  I25  1  0.92629100  0.60519000  0.23494100  1
  I  I26  1  0.19954700  0.58889600  0.45559700  1
  I  I27  1  0.69954700  0.41110400  0.54440300  1
  I  I28  1  0.42629100  0.39481000  0.76505900  1
  I  I29  1  0.41998400  0.40329900  0.16820800  1
  I  I30  1  0.69725700  0.44153900  0.01146300  1
  I  I31  1  0.97584300  0.32763400  0.55763900  1
