# generated using pymatgen
data_Dy10Ti6O27
_symmetry_space_group_name_H-M   'P 1'
_cell_length_a   7.29365823
_cell_length_b   7.29365823
_cell_length_c   24.26862297
_cell_angle_alpha   81.98305312
_cell_angle_beta   81.98305312
_cell_angle_gamma   60.58555122
_symmetry_Int_Tables_number   1
_chemical_formula_structural   Dy10Ti6O27
_chemical_formula_sum   'Dy20 Ti12 O54'
_cell_volume   1109.83564317
_cell_formula_units_Z   2
loop_
 _symmetry_equiv_pos_site_id
 _symmetry_equiv_pos_as_xyz
  1  'x, y, z'
loop_
 _atom_site_type_symbol
 _atom_site_label
 _atom_site_symmetry_multiplicity
 _atom_site_fract_x
 _atom_site_fract_y
 _atom_site_fract_z
 _atom_site_occupancy
  Dy  Dy0  1  0.27996600  0.74915000  0.24383600  1
  Dy  Dy1  1  0.74915000  0.27996600  0.24383600  1
  Dy  Dy2  1  0.62685300  0.14898400  0.11277800  1
  Dy  Dy3  1  0.25228600  0.25228600  0.23479100  1
  Dy  Dy4  1  0.14898400  0.62685300  0.11277800  1
  Dy  Dy5  1  0.86448800  0.37762500  0.37271600  1
  Dy  Dy6  1  0.98606500  0.98606500  0.50610600  1
  Dy  Dy7  1  0.87689300  0.87689300  0.37971000  1
  Dy  Dy8  1  0.47757500  0.47757500  0.49641100  1
  Dy  Dy9  1  0.37762500  0.86448800  0.37271600  1
  Dy  Dy10  1  0.38250100  0.38250100  0.36374200  1
  Dy  Dy11  1  0.11545100  0.65163200  0.63387500  1
  Dy  Dy12  1  0.25313200  0.25313200  0.75103500  1
  Dy  Dy13  1  0.88406400  0.88406400  0.87531900  1
  Dy  Dy14  1  0.73334900  0.73334900  0.75590500  1
  Dy  Dy15  1  0.65163200  0.11545100  0.63387500  1
  Dy  Dy16  1  0.62104200  0.62104200  0.63837400  1
  Dy  Dy17  1  0.38886800  0.90022700  0.87958200  1
  Dy  Dy18  1  0.99799900  0.99799900  0.99772000  1
  Dy  Dy19  1  0.90022700  0.38886800  0.87958200  1
  Ti  Ti20  1  0.00885100  0.51319400  0.99859700  1
  Ti  Ti21  1  0.51319400  0.00885100  0.99859700  1
  Ti  Ti22  1  0.50969600  0.50969600  0.99303500  1
  Ti  Ti23  1  0.75594200  0.75594200  0.24597000  1
  Ti  Ti24  1  0.49563600  0.00137900  0.49215400  1
  Ti  Ti25  1  0.00137900  0.49563600  0.49215400  1
  Ti  Ti26  1  0.10543600  0.10543600  0.13538000  1
  Ti  Ti27  1  0.75764300  0.24838500  0.75255100  1
  Ti  Ti28  1  0.62803200  0.62803200  0.11848600  1
  Ti  Ti29  1  0.37785900  0.37785900  0.87411200  1
  Ti  Ti30  1  0.24838500  0.75764300  0.75255100  1
  Ti  Ti31  1  0.14117300  0.14117300  0.61550600  1
  O  O32  1  0.97615300  0.97615300  0.08980800  1
  O  O33  1  0.30559100  0.80419000  0.14508500  1
  O  O34  1  0.80419000  0.30559100  0.14508500  1
  O  O35  1  0.20632300  0.61640300  0.01593300  1
  O  O36  1  0.40351800  0.40351800  0.26899300  1
  O  O37  1  0.51642200  0.04260900  0.40957400  1
  O  O38  1  0.50455700  0.50455700  0.08327200  1
  O  O39  1  0.65924200  0.02973500  0.20797500  1
  O  O40  1  0.61640300  0.20632300  0.01593300  1
  O  O41  1  0.63319200  0.63319200  0.20528200  1
  O  O42  1  0.26066600  0.26066600  0.13912000  1
  O  O43  1  0.04260900  0.51642200  0.40957400  1
  O  O44  1  0.56127400  0.90090400  0.07853600  1
  O  O45  1  0.02973500  0.65924200  0.20797500  1
  O  O46  1  0.38765300  0.94646700  0.28198000  1
  O  O47  1  0.80776300  0.80776300  0.48489600  1
  O  O48  1  0.82269900  0.27629200  0.66848000  1
  O  O49  1  0.74935600  0.74935600  0.32414400  1
  O  O50  1  0.83951100  0.37636600  0.48547000  1
  O  O51  1  0.90090400  0.56127400  0.07853600  1
  O  O52  1  0.94646700  0.38765300  0.28198000  1
  O  O53  1  0.07603600  0.07603600  0.21159200  1
  O  O54  1  0.04288400  0.04288400  0.41128700  1
  O  O55  1  0.52543700  0.52543700  0.40504400  1
  O  O56  1  0.27629200  0.82269900  0.66848000  1
  O  O57  1  0.73122100  0.19829800  0.33508100  1
  O  O58  1  0.37636600  0.83951100  0.48547000  1
  O  O59  1  0.64101200  0.16358800  0.54025700  1
  O  O60  1  0.97575900  0.97575900  0.77480200  1
  O  O61  1  0.08132100  0.52590400  0.91669000  1
  O  O62  1  0.99592600  0.99592600  0.59643000  1
  O  O63  1  0.11103200  0.60548100  0.73037300  1
  O  O64  1  0.16358800  0.64101200  0.54025700  1
  O  O65  1  0.19829800  0.73122100  0.33508100  1
  O  O66  1  0.27867600  0.27867600  0.65377800  1
  O  O67  1  0.29933700  0.29933700  0.48442200  1
  O  O68  1  0.77664700  0.77664700  0.65736000  1
  O  O69  1  0.72654100  0.72654100  0.84675000  1
  O  O70  1  0.52590400  0.08132100  0.91669000  1
  O  O71  1  0.91124800  0.37512600  0.77930400  1
  O  O72  1  0.97714700  0.40079500  0.57694500  1
  O  O73  1  0.60548100  0.11103200  0.73037300  1
  O  O74  1  0.41635100  0.81889400  0.98120200  1
  O  O75  1  0.24506600  0.24506600  0.84395800  1
  O  O76  1  0.50456600  0.50456600  0.91727700  1
  O  O77  1  0.56072200  0.56072200  0.73036800  1
  O  O78  1  0.40079500  0.97714700  0.57694500  1
  O  O79  1  0.37512600  0.91124800  0.77930400  1
  O  O80  1  0.03992900  0.03992900  0.90594000  1
  O  O81  1  0.25747800  0.63202300  0.82803900  1
  O  O82  1  0.81889400  0.41635100  0.98120200  1
  O  O83  1  0.82899900  0.82899900  0.97750600  1
  O  O84  1  0.63202300  0.25747800  0.82803900  1
  O  O85  1  0.22579400  0.22579400  0.00984000  1
