# generated using pymatgen
data_NaTaO3
_symmetry_space_group_name_H-M   'P 1'
_cell_length_a   7.57148176
_cell_length_b   7.44413558
_cell_length_c   14.78526202
_cell_angle_alpha   59.02675537
_cell_angle_beta   60.28675963
_cell_angle_gamma   59.44014064
_symmetry_Int_Tables_number   1
_chemical_formula_structural   NaTaO3
_chemical_formula_sum   'Na8 Ta8 O24'
_cell_volume   583.54908244
_cell_formula_units_Z   8
loop_
 _symmetry_equiv_pos_site_id
 _symmetry_equiv_pos_as_xyz
  1  'x, y, z'
loop_
 _atom_site_type_symbol
 _atom_site_label
 _atom_site_symmetry_multiplicity
 _atom_site_fract_x
 _atom_site_fract_y
 _atom_site_fract_z
 _atom_site_occupancy
  Na  Na0  1  0.01173800  0.99570500  0.47663200  1
  Na  Na1  1  0.99146800  0.52176100  0.22782700  1
  Na  Na2  1  0.52948800  0.98266400  0.23710000  1
  Na  Na3  1  0.52065000  0.49533200  0.25418700  1
  Na  Na4  1  0.02980500  0.46406200  0.77265300  1
  Na  Na5  1  0.51070900  0.48553900  0.51385600  1
  Na  Na6  1  0.48748200  0.50399500  0.75288900  1
  Na  Na7  1  0.49251200  0.54148000  0.97413000  1
  Ta  Ta8  1  0.99577500  0.00225900  0.99862400  1
  Ta  Ta9  1  0.00093200  0.99307200  0.24694200  1
  Ta  Ta10  1  0.49869400  0.99686900  0.00546900  1
  Ta  Ta11  1  0.48324800  0.98757100  0.48759500  1
  Ta  Ta12  1  0.99891900  0.00396700  0.74683900  1
  Ta  Ta13  1  0.59763800  0.00296300  0.69979400  1
  Ta  Ta14  1  0.99971600  0.50198000  0.00392200  1
  Ta  Ta15  1  0.98375900  0.48493400  0.48543600  1
  O  O16  1  0.06694600  0.68246000  0.03854900  1
  O  O17  1  0.06286800  0.75604200  0.38632400  1
  O  O18  1  0.68262500  0.06213400  0.04337000  1
  O  O19  1  0.29719200  0.31397000  0.45249600  1
  O  O20  1  0.31631000  0.92281000  0.17939700  1
  O  O21  1  0.04477000  0.07251300  0.84582200  1
  O  O22  1  0.70328500  0.09048400  0.34648500  1
  O  O23  1  0.68338900  0.67344100  0.05117700  1
  O  O24  1  0.05888500  0.68357200  0.84845200  1
  O  O25  1  0.63250400  0.05408300  0.55490100  1
  O  O26  1  0.95307200  0.30739900  0.17358000  1
  O  O27  1  0.37829100  0.90454000  0.42841300  1
  O  O28  1  0.40532400  0.28473300  0.70904400  1
  O  O29  1  0.30877900  0.31019300  0.97903700  1
  O  O30  1  0.28361800  0.92509100  0.64548800  1
  O  O31  1  0.92599700  0.38772700  0.41367500  1
  O  O32  1  0.92874600  0.89607100  0.17987000  1
  O  O33  1  0.68130800  0.05263600  0.85133400  1
  O  O34  1  0.68368000  0.67836000  0.53302700  1
  O  O35  1  0.94241500  0.31821000  0.64493200  1
  O  O36  1  0.56272500  0.72962200  0.79421800  1
  O  O37  1  0.29280200  0.93239200  0.99225500  1
  O  O38  1  0.92846100  0.30914800  0.98166100  1
  O  O39  1  0.89947600  0.93821800  0.66759900  1
