# generated using pymatgen
data_K2ZnH12(SO7)2
_symmetry_space_group_name_H-M   'P 1'
_cell_length_a   12.26161300
_cell_length_b   7.95641800
_cell_length_c   9.57380063
_cell_angle_alpha   67.61131968
_cell_angle_beta   90.00000000
_cell_angle_gamma   90.00000000
_symmetry_Int_Tables_number   1
_chemical_formula_structural   K2ZnH12(SO7)2
_chemical_formula_sum   'K4 Zn2 H24 S4 O28'
_cell_volume   863.60166291
_cell_formula_units_Z   2
loop_
 _symmetry_equiv_pos_site_id
 _symmetry_equiv_pos_as_xyz
  1  'x, y, z'
loop_
 _atom_site_type_symbol
 _atom_site_label
 _atom_site_symmetry_multiplicity
 _atom_site_fract_x
 _atom_site_fract_y
 _atom_site_fract_z
 _atom_site_occupancy
  K  K0  1  0.68114600  0.35468300  0.83797100  1
  K  K1  1  0.18114600  0.64531700  0.66202900  1
  K  K2  1  0.31885400  0.64531700  0.16202900  1
  K  K3  1  0.81885400  0.35468300  0.33797100  1
  Zn  Zn4  1  0.50000000  0.00000000  0.50000000  1
  Zn  Zn5  1  0.00000000  0.00000000  0.00000000  1
  H  H6  1  0.13800300  0.13837900  0.75586100  1
  H  H7  1  0.20394300  0.30138800  0.96780700  1
  H  H8  1  0.63800300  0.86162100  0.74413900  1
  H  H9  1  0.89618300  0.96518800  0.64334300  1
  H  H10  1  0.96447300  0.64089600  0.85275200  1
  H  H11  1  0.39618300  0.03481200  0.85665700  1
  H  H12  1  0.01932500  0.55500900  0.14225700  1
  H  H13  1  0.53552700  0.64089600  0.35275200  1
  H  H14  1  0.48067500  0.55500900  0.64225700  1
  H  H15  1  0.03552700  0.35910400  0.14724800  1
  H  H16  1  0.78082500  0.05177700  0.61760800  1
  H  H17  1  0.71917500  0.05177700  0.11760800  1
  H  H18  1  0.70394300  0.69861200  0.53219300  1
  H  H19  1  0.51932500  0.44499100  0.35774300  1
  H  H20  1  0.36199700  0.13837900  0.25586100  1
  H  H21  1  0.98067500  0.44499100  0.85774300  1
  H  H22  1  0.10381700  0.03481200  0.35665700  1
  H  H23  1  0.60381700  0.96518800  0.14334300  1
  H  H24  1  0.21917500  0.94822300  0.38239200  1
  H  H25  1  0.46447300  0.35910400  0.64724800  1
  H  H26  1  0.29605700  0.30138800  0.46780700  1
  H  H27  1  0.86199700  0.86162100  0.24413900  1
  H  H28  1  0.79605700  0.69861200  0.03219300  1
  H  H29  1  0.28082500  0.94822300  0.88239200  1
  S  S30  1  0.12035800  0.32338100  0.51232200  1
  S  S31  1  0.37964200  0.32338100  0.01232200  1
  S  S32  1  0.87964200  0.67661900  0.48767800  1
  S  S33  1  0.62035800  0.67661900  0.98767800  1
  O  O34  1  0.97160800  0.57258400  0.78586900  1
  O  O35  1  0.14083300  0.91984100  0.37537700  1
  O  O36  1  0.02839200  0.42741600  0.21413100  1
  O  O37  1  0.50007100  0.76038500  0.48038600  1
  O  O38  1  0.38821500  0.77966400  0.42115500  1
  O  O39  1  0.87219200  0.72607300  0.30473900  1
  O  O40  1  0.12780800  0.27392700  0.69526100  1
  O  O41  1  0.62780800  0.72607300  0.80473900  1
  O  O42  1  0.64083300  0.08015900  0.12462300  1
  O  O43  1  0.85462800  0.03985900  0.08728600  1
  O  O44  1  0.85916700  0.08015900  0.62462300  1
  O  O45  1  0.35462800  0.96014100  0.41271400  1
  O  O46  1  0.61178500  0.22033600  0.57884500  1
  O  O47  1  0.47160800  0.42741600  0.71413100  1
  O  O48  1  0.35916700  0.91984100  0.87537700  1
  O  O49  1  0.00007100  0.23961500  0.01961400  1
  O  O50  1  0.25403300  0.40297200  0.95282300  1
  O  O51  1  0.99992900  0.76038500  0.98038600  1
  O  O52  1  0.75403300  0.59702800  0.54717700  1
  O  O53  1  0.37219200  0.27392700  0.19526100  1
  O  O54  1  0.24596700  0.40297200  0.45282200  1
  O  O55  1  0.52839200  0.57258400  0.28586900  1
  O  O56  1  0.14537200  0.96014100  0.91271400  1
  O  O57  1  0.74596700  0.59702800  0.04717700  1
  O  O58  1  0.11178500  0.77966400  0.92115500  1
  O  O59  1  0.64537200  0.03985900  0.58728600  1
  O  O60  1  0.49992900  0.23961500  0.51961400  1
  O  O61  1  0.88821500  0.22033600  0.07884500  1
