# generated using pymatgen
data_YAgSe2
_symmetry_space_group_name_H-M   'P 1'
_cell_length_a   8.10138158
_cell_length_b   10.91057685
_cell_length_c   7.29901914
_cell_angle_alpha   28.84980171
_cell_angle_beta   55.98268734
_cell_angle_gamma   41.79738461
_symmetry_Int_Tables_number   1
_chemical_formula_structural   YAgSe2
_chemical_formula_sum   'Y2 Ag2 Se4'
_cell_volume   198.51265934
_cell_formula_units_Z   2
loop_
 _symmetry_equiv_pos_site_id
 _symmetry_equiv_pos_as_xyz
  1  'x, y, z'
loop_
 _atom_site_type_symbol
 _atom_site_label
 _atom_site_symmetry_multiplicity
 _atom_site_fract_x
 _atom_site_fract_y
 _atom_site_fract_z
 _atom_site_occupancy
  Y  Y0  1  0.99580000  0.00453800  0.99662100  1
  Y  Y1  1  0.75241200  0.49478400  0.00817800  1
  Ag  Ag2  1  0.49919500  0.00885900  0.98683300  1
  Ag  Ag3  1  0.24158300  0.50275100  0.00175100  1
  Se  Se4  1  0.23861800  0.99634200  0.52989400  1
  Se  Se5  1  0.75799700  0.00272700  0.47414300  1
  Se  Se6  1  0.50859100  0.50595200  0.47178700  1
  Se  Se7  1  0.98434300  0.50278800  0.52483700  1
