# generated using pymatgen
data_Pr2Pb17Se20
_symmetry_space_group_name_H-M   'P 1'
_cell_length_a   9.80726462
_cell_length_b   9.80726462
_cell_length_c   29.17940980
_cell_angle_alpha   78.38116449
_cell_angle_beta   78.38116449
_cell_angle_gamma   25.97542342
_symmetry_Int_Tables_number   1
_chemical_formula_structural   Pr2Pb17Se20
_chemical_formula_sum   'Pr2 Pb17 Se20'
_cell_volume   1202.68437286
_cell_formula_units_Z   1
loop_
 _symmetry_equiv_pos_site_id
 _symmetry_equiv_pos_as_xyz
  1  'x, y, z'
loop_
 _atom_site_type_symbol
 _atom_site_label
 _atom_site_symmetry_multiplicity
 _atom_site_fract_x
 _atom_site_fract_y
 _atom_site_fract_z
 _atom_site_occupancy
  Pr  Pr0  1  0.40340100  0.40340100  0.90323800  1
  Pr  Pr1  1  0.59659900  0.59659900  0.09676200  1
  Pb  Pb2  1  0.69804300  0.69804300  0.94943600  1
  Pb  Pb3  1  0.20295400  0.20295400  0.20103300  1
  Pb  Pb4  1  0.30195700  0.30195700  0.05056400  1
  Pb  Pb5  1  0.80117200  0.80117200  0.29788500  1
  Pb  Pb6  1  0.90517800  0.90517800  0.14465100  1
  Pb  Pb7  1  0.39820800  0.39820800  0.40176200  1
  Pb  Pb8  1  0.49732600  0.49732600  0.25212800  1
  Pb  Pb9  1  0.00000000  0.00000000  0.50000000  1
  Pb  Pb10  1  0.10107300  0.10107300  0.35063800  1
  Pb  Pb11  1  0.70108100  0.70108100  0.44852400  1
  Pb  Pb12  1  0.60179200  0.60179200  0.59823800  1
  Pb  Pb13  1  0.19882800  0.19882800  0.70211500  1
  Pb  Pb14  1  0.29891900  0.29891900  0.55147600  1
  Pb  Pb15  1  0.89892700  0.89892700  0.64936200  1
  Pb  Pb16  1  0.79704600  0.79704600  0.79896700  1
  Pb  Pb17  1  0.50267400  0.50267400  0.74787200  1
  Pb  Pb18  1  0.09482200  0.09482200  0.85534900  1
  Se  Se19  1  0.54886000  0.54886000  0.92068200  1
  Se  Se20  1  0.15187400  0.15187400  0.02965200  1
  Se  Se21  1  0.74500800  0.74500800  0.12293500  1
  Se  Se22  1  0.84812600  0.84812600  0.97034800  1
  Se  Se23  1  0.45114000  0.45114000  0.07931800  1
  Se  Se24  1  0.34680600  0.34680600  0.22846800  1
  Se  Se25  1  0.95155400  0.95155400  0.32332900  1
  Se  Se26  1  0.05331400  0.05331400  0.16990300  1
  Se  Se27  1  0.54961100  0.54961100  0.42481600  1
  Se  Se28  1  0.64870400  0.64870400  0.27428800  1
  Se  Se29  1  0.24821900  0.24821900  0.37730700  1
  Se  Se30  1  0.14862200  0.14862200  0.52655000  1
  Se  Se31  1  0.85137800  0.85137800  0.47345000  1
  Se  Se32  1  0.75178100  0.75178100  0.62269300  1
  Se  Se33  1  0.45038900  0.45038900  0.57518400  1
  Se  Se34  1  0.35129600  0.35129600  0.72571200  1
  Se  Se35  1  0.04844600  0.04844600  0.67667100  1
  Se  Se36  1  0.94668600  0.94668600  0.83009700  1
  Se  Se37  1  0.65319400  0.65319400  0.77153200  1
  Se  Se38  1  0.25499200  0.25499200  0.87706500  1
