# generated using pymatgen
data_Ag2CO3
_symmetry_space_group_name_H-M   'P 1'
_cell_length_a   3.44682300
_cell_length_b   9.23145400
_cell_length_c   15.89507100
_cell_angle_alpha   90.00000000
_cell_angle_beta   90.00000000
_cell_angle_gamma   90.00000000
_symmetry_Int_Tables_number   1
_chemical_formula_structural   Ag2CO3
_chemical_formula_sum   'Ag12 C6 O18'
_cell_volume   505.76825196
_cell_formula_units_Z   6
loop_
 _symmetry_equiv_pos_site_id
 _symmetry_equiv_pos_as_xyz
  1  'x, y, z'
loop_
 _atom_site_type_symbol
 _atom_site_label
 _atom_site_symmetry_multiplicity
 _atom_site_fract_x
 _atom_site_fract_y
 _atom_site_fract_z
 _atom_site_occupancy
  Ag  Ag0  1  0.00000000  0.17307100  0.92234000  1
  Ag  Ag1  1  0.50000000  0.32464500  0.07106300  1
  Ag  Ag2  1  0.50000000  0.34865400  0.74783300  1
  Ag  Ag3  1  0.00000000  0.67307100  0.07766000  1
  Ag  Ag4  1  0.00000000  0.66904000  0.41962300  1
  Ag  Ag5  1  0.00000000  0.65709600  0.74897900  1
  Ag  Ag6  1  0.50000000  0.82464500  0.92893700  1
  Ag  Ag7  1  0.50000000  0.81976600  0.57875100  1
  Ag  Ag8  1  0.50000000  0.84865400  0.25216700  1
  Ag  Ag9  1  0.00000000  0.16904000  0.58037700  1
  Ag  Ag10  1  0.00000000  0.15709600  0.25102100  1
  Ag  Ag11  1  0.50000000  0.31976600  0.42124900  1
  C  C12  1  0.00000000  0.00083700  0.08368600  1
  C  C13  1  0.50000000  0.00054900  0.75077500  1
  C  C14  1  0.00000000  0.49848700  0.58240600  1
  C  C15  1  0.50000000  0.50054900  0.24922500  1
  C  C16  1  0.00000000  0.50083700  0.91631400  1
  C  C17  1  0.00000000  0.99848700  0.41759400  1
  O  O18  1  0.50000000  0.61125700  0.19837300  1
  O  O19  1  0.00000000  0.88912000  0.13315100  1
  O  O20  1  0.00000000  0.98151300  0.00205500  1
  O  O21  1  0.50000000  0.11125700  0.80162700  1
  O  O22  1  0.00000000  0.13048700  0.11426400  1
  O  O23  1  0.50000000  0.36885700  0.21663800  1
  O  O24  1  0.00000000  0.38912000  0.86684900  1
  O  O25  1  0.00000000  0.38913200  0.63395900  1
  O  O26  1  0.00000000  0.48151300  0.99794500  1
  O  O27  1  0.00000000  0.47666200  0.50212100  1
  O  O28  1  0.50000000  0.51720300  0.32983600  1
  O  O29  1  0.00000000  0.63065400  0.61199700  1
  O  O30  1  0.00000000  0.63048700  0.88573600  1
  O  O31  1  0.50000000  0.86885700  0.78336200  1
  O  O32  1  0.00000000  0.88913200  0.36604100  1
  O  O33  1  0.00000000  0.97666200  0.49787900  1
  O  O34  1  0.50000000  0.01720300  0.67016400  1
  O  O35  1  0.00000000  0.13065400  0.38800300  1
