# generated using pymatgen
data_YbBiO3
_symmetry_space_group_name_H-M   'P 1'
_cell_length_a   8.51553500
_cell_length_b   8.57633757
_cell_length_c   9.89737385
_cell_angle_alpha   94.52343039
_cell_angle_beta   113.33686069
_cell_angle_gamma   102.84506464
_symmetry_Int_Tables_number   1
_chemical_formula_structural   YbBiO3
_chemical_formula_sum   'Yb8 Bi8 O24'
_cell_volume   635.73392319
_cell_formula_units_Z   8
loop_
 _symmetry_equiv_pos_site_id
 _symmetry_equiv_pos_as_xyz
  1  'x, y, z'
loop_
 _atom_site_type_symbol
 _atom_site_label
 _atom_site_symmetry_multiplicity
 _atom_site_fract_x
 _atom_site_fract_y
 _atom_site_fract_z
 _atom_site_occupancy
  Yb  Yb0  1  0.13343800  0.93311900  0.69708800  1
  Yb  Yb1  1  0.39159600  0.84174800  0.13847500  1
  Yb  Yb2  1  0.59636900  0.65461700  0.43598900  1
  Yb  Yb3  1  0.11070000  0.42139100  0.20411200  1
  Yb  Yb4  1  0.85476800  0.55419400  0.79333200  1
  Yb  Yb5  1  0.34525400  0.28818900  0.56348400  1
  Yb  Yb6  1  0.64755800  0.22922700  0.93977100  1
  Yb  Yb7  1  0.85127100  0.06708400  0.28172400  1
  Bi  Bi8  1  0.19647200  0.85508800  0.37260900  1
  Bi  Bi9  1  0.98135700  0.01011000  0.97695300  1
  Bi  Bi10  1  0.49689800  0.74774600  0.77930200  1
  Bi  Bi11  1  0.75451400  0.63654100  0.12336800  1
  Bi  Bi12  1  0.23520000  0.34306300  0.87286100  1
  Bi  Bi13  1  0.00330100  0.48154500  0.51825800  1
  Bi  Bi14  1  0.48762400  0.24162800  0.23895800  1
  Bi  Bi15  1  0.74131200  0.13798600  0.61751500  1
  O  O16  1  0.09743600  0.83337200  0.92247000  1
  O  O17  1  0.31620500  0.83556700  0.60778700  1
  O  O18  1  0.97745100  0.87902700  0.16355400  1
  O  O19  1  0.65951500  0.79207700  0.25916100  1
  O  O20  1  0.31182900  0.69382600  0.29598700  1
  O  O21  1  0.91154800  0.66424400  0.58781800  1
  O  O22  1  0.61929600  0.64233800  0.67122200  1
  O  O23  1  0.27489500  0.50599600  0.68454500  1
  O  O24  1  0.98640800  0.61939000  0.32538700  1
  O  O25  1  0.42473200  0.39815300  0.36956100  1
  O  O26  1  0.07342700  0.32414400  0.39696800  1
  O  O27  1  0.86865200  0.48071600  0.01531300  1
  O  O28  1  0.55813600  0.40795500  0.10714400  1
  O  O29  1  0.21778900  0.21607100  0.07781800  1
  O  O30  1  0.96701600  0.37248300  0.69803100  1
  O  O31  1  0.63706500  0.29170200  0.70798200  1
  O  O32  1  0.34190700  0.19134000  0.78108600  1
  O  O33  1  0.00627700  0.10480300  0.78478300  1
  O  O34  1  0.75383500  0.27538000  0.40772700  1
  O  O35  1  0.40227400  0.03078800  0.33786700  1
  O  O36  1  0.10768300  0.02205100  0.46969800  1
  O  O37  1  0.90338100  0.16883700  0.09457300  1
  O  O38  1  0.54890900  0.07325600  0.11336100  1
  O  O39  1  0.70670200  0.98310800  0.81625600  1
