# generated using pymatgen
data_Na3AlF6
_symmetry_space_group_name_H-M   'P 1'
_cell_length_a   5.63055196
_cell_length_b   5.63055196
_cell_length_c   5.63055270
_cell_angle_alpha   59.57699796
_cell_angle_beta   59.57699796
_cell_angle_gamma   59.57700069
_symmetry_Int_Tables_number   1
_chemical_formula_structural   Na3AlF6
_chemical_formula_sum   'Na3 Al1 F6'
_cell_volume   125.00912905
_cell_formula_units_Z   1
loop_
 _symmetry_equiv_pos_site_id
 _symmetry_equiv_pos_as_xyz
  1  'x, y, z'
loop_
 _atom_site_type_symbol
 _atom_site_label
 _atom_site_symmetry_multiplicity
 _atom_site_fract_x
 _atom_site_fract_y
 _atom_site_fract_z
 _atom_site_occupancy
  Na  Na0  1  0.00000000  0.00000000  0.00000000  1
  Na  Na1  1  0.25121900  0.25121900  0.25121900  1
  Na  Na2  1  0.74878100  0.74878100  0.74878100  1
  Al  Al3  1  0.50000000  0.50000000  0.50000000  1
  F  F4  1  0.81558500  0.28559200  0.62659500  1
  F  F5  1  0.71440800  0.37340500  0.18441500  1
  F  F6  1  0.37340500  0.18441500  0.71440800  1
  F  F7  1  0.62659500  0.81558500  0.28559200  1
  F  F8  1  0.28559200  0.62659500  0.81558500  1
  F  F9  1  0.18441500  0.71440800  0.37340500  1
