# generated using pymatgen
data_Na4Al3Si3NO13
_symmetry_space_group_name_H-M   'P 1'
_cell_length_a   9.29733400
_cell_length_b   9.25470200
_cell_length_c   9.29859200
_cell_angle_alpha   89.97336883
_cell_angle_beta   90.00000000
_cell_angle_gamma   90.00000000
_symmetry_Int_Tables_number   1
_chemical_formula_structural   Na4Al3Si3NO13
_chemical_formula_sum   'Na8 Al6 Si6 N2 O26'
_cell_volume   800.08848068
_cell_formula_units_Z   2
loop_
 _symmetry_equiv_pos_site_id
 _symmetry_equiv_pos_as_xyz
  1  'x, y, z'
loop_
 _atom_site_type_symbol
 _atom_site_label
 _atom_site_symmetry_multiplicity
 _atom_site_fract_x
 _atom_site_fract_y
 _atom_site_fract_z
 _atom_site_occupancy
  Na  Na0  1  0.78058900  0.78451800  0.78517500  1
  Na  Na1  1  0.21941100  0.78451800  0.78517500  1
  Na  Na2  1  0.28066600  0.28429100  0.71471800  1
  Na  Na3  1  0.71933400  0.28429100  0.71471800  1
  Na  Na4  1  0.28998200  0.70644500  0.28427100  1
  Na  Na5  1  0.71001800  0.70644500  0.28427100  1
  Na  Na6  1  0.20983600  0.20640600  0.21590200  1
  Na  Na7  1  0.79016400  0.20640600  0.21590200  1
  Al  Al8  1  0.24991200  0.49971200  0.00030900  1
  Al  Al9  1  0.75008800  0.49971200  0.00030900  1
  Al  Al10  1  0.50000000  0.00272800  0.74976800  1
  Al  Al11  1  0.00000000  0.75023100  0.50168800  1
  Al  Al12  1  0.00000000  0.24999600  0.49782200  1
  Al  Al13  1  0.50000000  0.99801800  0.25021600  1
  Si  Si14  1  0.50000000  0.25001300  0.99594300  1
  Si  Si15  1  0.50000000  0.75021600  0.00331700  1
  Si  Si16  1  0.00000000  0.50420500  0.75020300  1
  Si  Si17  1  0.25024600  0.99967900  0.50027500  1
  Si  Si18  1  0.74975400  0.99967900  0.50027500  1
  Si  Si19  1  0.00000000  0.49632500  0.24988900  1
  N  N20  1  0.50000000  0.48567600  0.50207000  1
  N  N21  1  0.00000000  0.98579100  0.99790800  1
  O  O22  1  0.35036100  0.34131200  0.99722500  1
  O  O23  1  0.35072700  0.65827500  0.99872700  1
  O  O24  1  0.64963900  0.34131200  0.99722500  1
  O  O25  1  0.64927300  0.65827500  0.99872700  1
  O  O26  1  0.14916000  0.50052500  0.84200500  1
  O  O27  1  0.85084000  0.50052500  0.84200500  1
  O  O28  1  0.50000000  0.16840400  0.83918700  1
  O  O29  1  0.50000000  0.85231000  0.86083600  1
  O  O30  1  0.34210000  0.00149800  0.64995600  1
  O  O31  1  0.65790000  0.00149800  0.64995600  1
  O  O32  1  0.00000000  0.36185800  0.64813700  1
  O  O33  1  0.00000000  0.66052300  0.66799600  1
  O  O34  1  0.15820500  0.14946100  0.50024000  1
  O  O35  1  0.15859500  0.84995800  0.50383300  1
  O  O36  1  0.84179500  0.14946100  0.50024000  1
  O  O37  1  0.84140500  0.84995800  0.50383300  1
  O  O38  1  0.50000000  0.53256000  0.37269400  1
  O  O39  1  0.00000000  0.34110900  0.33366500  1
  O  O40  1  0.00000000  0.63756000  0.35292900  1
  O  O41  1  0.34313000  0.99831900  0.35235200  1
  O  O42  1  0.65687000  0.99831900  0.35235200  1
  O  O43  1  0.50000000  0.14688000  0.13654300  1
  O  O44  1  0.50000000  0.83373100  0.15768100  1
  O  O45  1  0.14832000  0.49935400  0.15707200  1
  O  O46  1  0.85168000  0.49935400  0.15707200  1
  O  O47  1  0.00000000  0.03235600  0.12738800  1
