# generated using pymatgen
data_Ta4Cu2O11
_symmetry_space_group_name_H-M   'P 1'
_cell_length_a   6.26721473
_cell_length_b   6.26721473
_cell_length_c   13.08020957
_cell_angle_alpha   76.40153828
_cell_angle_beta   76.40153828
_cell_angle_gamma   60.36697844
_symmetry_Int_Tables_number   1
_chemical_formula_structural   Ta4Cu2O11
_chemical_formula_sum   'Ta8 Cu4 O22'
_cell_volume   429.73306662
_cell_formula_units_Z   2
loop_
 _symmetry_equiv_pos_site_id
 _symmetry_equiv_pos_as_xyz
  1  'x, y, z'
loop_
 _atom_site_type_symbol
 _atom_site_label
 _atom_site_symmetry_multiplicity
 _atom_site_fract_x
 _atom_site_fract_y
 _atom_site_fract_z
 _atom_site_occupancy
  Ta  Ta0  1  0.00000000  0.50000000  0.00000000  1
  Ta  Ta1  1  0.75368300  0.88172300  0.75277600  1
  Ta  Ta2  1  0.11827700  0.24631700  0.74722400  1
  Ta  Ta3  1  0.39516800  0.60483200  0.75000000  1
  Ta  Ta4  1  0.50000000  0.00000000  0.50000000  1
  Ta  Ta5  1  0.60483200  0.39516800  0.25000000  1
  Ta  Ta6  1  0.88172300  0.75368300  0.25277600  1
  Ta  Ta7  1  0.24631700  0.11827700  0.24722400  1
  Cu  Cu8  1  0.00000000  0.00000000  0.00000000  1
  Cu  Cu9  1  0.50000000  0.50000000  0.00000000  1
  Cu  Cu10  1  0.00000000  0.00000000  0.50000000  1
  Cu  Cu11  1  0.50000000  0.50000000  0.50000000  1
  O  O12  1  0.09851600  0.58824000  0.72286900  1
  O  O13  1  0.49481600  0.75509400  0.24843800  1
  O  O14  1  0.00197700  0.99802300  0.25000000  1
  O  O15  1  0.77361700  0.75839500  0.90181300  1
  O  O16  1  0.06848900  0.24664800  0.90894300  1
  O  O17  1  0.28354900  0.55501100  0.90757500  1
  O  O18  1  0.50518400  0.24490600  0.75156200  1
  O  O19  1  0.41176000  0.90148400  0.77713100  1
  O  O20  1  0.75509400  0.49481600  0.74843800  1
  O  O21  1  0.99802300  0.00197700  0.75000000  1
  O  O22  1  0.75335200  0.93151100  0.59105700  1
  O  O23  1  0.24160500  0.22638400  0.59818700  1
  O  O24  1  0.44498900  0.71645100  0.59242500  1
  O  O25  1  0.55501100  0.28354900  0.40757500  1
  O  O26  1  0.75839500  0.77361600  0.40181300  1
  O  O27  1  0.24664800  0.06848900  0.40894300  1
  O  O28  1  0.24490600  0.50518400  0.25156200  1
  O  O29  1  0.58824000  0.09851600  0.22286900  1
  O  O30  1  0.71645100  0.44498900  0.09242500  1
  O  O31  1  0.93151100  0.75335200  0.09105700  1
  O  O32  1  0.22638400  0.24160500  0.09818700  1
  O  O33  1  0.90148400  0.41176000  0.27713100  1
