# generated using pymatgen
data_La5YbS8
_symmetry_space_group_name_H-M   'P 1'
_cell_length_a   7.52613495
_cell_length_b   7.52613495
_cell_length_c   7.52613495
_cell_angle_alpha   109.51084296
_cell_angle_beta   109.51084296
_cell_angle_gamma   109.39200502
_symmetry_Int_Tables_number   1
_chemical_formula_structural   La5YbS8
_chemical_formula_sum   'La5 Yb1 S8'
_cell_volume   328.16592964
_cell_formula_units_Z   1
loop_
 _symmetry_equiv_pos_site_id
 _symmetry_equiv_pos_as_xyz
  1  'x, y, z'
loop_
 _atom_site_type_symbol
 _atom_site_label
 _atom_site_symmetry_multiplicity
 _atom_site_fract_x
 _atom_site_fract_y
 _atom_site_fract_z
 _atom_site_occupancy
  La  La0  1  0.87707800  0.50112200  0.12267500  1
  La  La1  1  0.75000000  0.25000000  0.50000000  1
  La  La2  1  0.37844700  0.75440300  0.87732500  1
  La  La3  1  0.49887800  0.62155300  0.37595500  1
  La  La4  1  0.24559700  0.12292200  0.62404500  1
  Yb  Yb5  1  0.00000000  0.00000000  0.00000000  1
  S  S6  1  0.12100500  0.36987500  0.39406400  1
  S  S7  1  0.97581100  0.72694100  0.60593600  1
  S  S8  1  0.77475600  0.87450400  0.25027500  1
  S  S9  1  0.47551900  0.22524400  0.09974800  1
  S  S10  1  0.63012500  0.02418900  0.75113000  1
  S  S11  1  0.62422900  0.52448100  0.74972500  1
  S  S12  1  0.12549600  0.37577100  0.90025200  1
  S  S13  1  0.27305900  0.87899500  0.24887000  1
