# generated using pymatgen
data_LaCl3O7
_symmetry_space_group_name_H-M   'P 1'
_cell_length_a   8.44286584
_cell_length_b   10.73204852
_cell_length_c   7.00817503
_cell_angle_alpha   132.10308448
_cell_angle_beta   99.87688078
_cell_angle_gamma   91.88713294
_symmetry_Int_Tables_number   1
_chemical_formula_structural   LaCl3O7
_chemical_formula_sum   'La2 Cl6 O14'
_cell_volume   454.54708627
_cell_formula_units_Z   2
loop_
 _symmetry_equiv_pos_site_id
 _symmetry_equiv_pos_as_xyz
  1  'x, y, z'
loop_
 _atom_site_type_symbol
 _atom_site_label
 _atom_site_symmetry_multiplicity
 _atom_site_fract_x
 _atom_site_fract_y
 _atom_site_fract_z
 _atom_site_occupancy
  La  La0  1  0.69169300  0.66742100  0.99356600  1
  La  La1  1  0.30830700  0.33257900  0.00643400  1
  Cl  Cl2  1  0.69401400  0.21427200  0.98658000  1
  Cl  Cl3  1  0.30598600  0.78572800  0.01342000  1
  Cl  Cl4  1  0.50722500  0.71267500  0.48829800  1
  Cl  Cl5  1  0.49277500  0.28732500  0.51170200  1
  Cl  Cl6  1  0.97534400  0.37617000  0.60041400  1
  Cl  Cl7  1  0.02465600  0.62383000  0.39958600  1
  O  O8  1  0.88815400  0.56914800  0.16654100  1
  O  O9  1  0.11184600  0.43085200  0.83345900  1
  O  O10  1  0.71491000  0.98600800  0.17948800  1
  O  O11  1  0.28509000  0.01399200  0.82051200  1
  O  O12  1  0.80366800  0.92250700  0.01615000  1
  O  O13  1  0.19633200  0.07749300  0.98385000  1
  O  O14  1  0.99933100  0.92087300  0.41416500  1
  O  O15  1  0.00066900  0.07912700  0.58583500  1
  O  O16  1  0.87337000  0.51609800  0.68756900  1
  O  O17  1  0.12663000  0.48390200  0.31243100  1
  O  O18  1  0.43806400  0.67887200  0.83542100  1
  O  O19  1  0.56193600  0.32112800  0.16457900  1
  O  O20  1  0.59842900  0.72959500  0.31344800  1
  O  O21  1  0.40157100  0.27040500  0.68655200  1
