# generated using pymatgen
data_Ba3Si3N5ClO
_symmetry_space_group_name_H-M   'P 1'
_cell_length_a   9.58713006
_cell_length_b   9.58713006
_cell_length_c   5.59977294
_cell_angle_alpha   88.96227063
_cell_angle_beta   88.96227063
_cell_angle_gamma   120.86507874
_symmetry_Int_Tables_number   1
_chemical_formula_structural   Ba3Si3N5ClO
_chemical_formula_sum   'Ba6 Si6 N10 Cl2 O2'
_cell_volume   441.50272957
_cell_formula_units_Z   2
loop_
 _symmetry_equiv_pos_site_id
 _symmetry_equiv_pos_as_xyz
  1  'x, y, z'
loop_
 _atom_site_type_symbol
 _atom_site_label
 _atom_site_symmetry_multiplicity
 _atom_site_fract_x
 _atom_site_fract_y
 _atom_site_fract_z
 _atom_site_occupancy
  Ba  Ba0  1  0.36639100  0.21285700  0.76365400  1
  Ba  Ba1  1  0.80323100  0.15211200  0.75925300  1
  Ba  Ba2  1  0.83518800  0.63904700  0.74847700  1
  Ba  Ba3  1  0.21285700  0.36639100  0.26365400  1
  Ba  Ba4  1  0.15211200  0.80323100  0.25925300  1
  Ba  Ba5  1  0.63904700  0.83518800  0.24847700  1
  Si  Si6  1  0.53315200  0.12396600  0.24692500  1
  Si  Si7  1  0.59195500  0.46876300  0.25315500  1
  Si  Si8  1  0.87401300  0.40593200  0.26471200  1
  Si  Si9  1  0.12396600  0.53315200  0.74692500  1
  Si  Si10  1  0.46876300  0.59195500  0.75315500  1
  Si  Si11  1  0.40593200  0.87401300  0.76471200  1
  N  N12  1  0.46511200  0.25778500  0.26270400  1
  N  N13  1  0.73895600  0.19919700  0.26407000  1
  N  N14  1  0.79939900  0.53450300  0.23930200  1
  N  N15  1  0.00075200  0.45463900  0.50377200  1
  N  N16  1  0.25778500  0.46511200  0.76270400  1
  N  N17  1  0.19919700  0.73895600  0.76407000  1
  N  N18  1  0.54770200  0.54525700  0.50482200  1
  N  N19  1  0.54525700  0.54770200  0.00482200  1
  N  N20  1  0.53450300  0.79939900  0.73930200  1
  N  N21  1  0.45463900  0.00075200  0.00377200  1
  Cl  Cl22  1  0.00591300  0.00375300  0.53081700  1
  Cl  Cl23  1  0.00375300  0.00591300  0.03081700  1
  O  O24  1  0.99638400  0.44404200  0.00433900  1
  O  O25  1  0.44404200  0.99638400  0.50433900  1
