# generated using pymatgen
data_Na2Sr3As4
_symmetry_space_group_name_H-M   'P 1'
_cell_length_a   9.34155800
_cell_length_b   9.64551300
_cell_length_c   13.86755231
_cell_angle_alpha   56.93830115
_cell_angle_beta   90.00000000
_cell_angle_gamma   90.00000000
_symmetry_Int_Tables_number   1
_chemical_formula_structural   Na2Sr3As4
_chemical_formula_sum   'Na8 Sr12 As16'
_cell_volume   1047.20521001
_cell_formula_units_Z   4
loop_
 _symmetry_equiv_pos_site_id
 _symmetry_equiv_pos_as_xyz
  1  'x, y, z'
loop_
 _atom_site_type_symbol
 _atom_site_label
 _atom_site_symmetry_multiplicity
 _atom_site_fract_x
 _atom_site_fract_y
 _atom_site_fract_z
 _atom_site_occupancy
  Na  Na0  1  0.92953800  0.24613100  0.21725100  1
  Na  Na1  1  0.70884100  0.84396800  0.86008200  1
  Na  Na2  1  0.79115900  0.84396800  0.36008200  1
  Na  Na3  1  0.57046200  0.24613100  0.71725100  1
  Na  Na4  1  0.42953800  0.75386900  0.28274900  1
  Na  Na5  1  0.20884100  0.15603200  0.63991800  1
  Na  Na6  1  0.29115900  0.15603200  0.13991800  1
  Na  Na7  1  0.07046200  0.75386900  0.78274900  1
  Sr  Sr8  1  0.05437300  0.27019300  0.94082100  1
  Sr  Sr9  1  0.96869500  0.42483000  0.64702800  1
  Sr  Sr10  1  0.82383000  0.10285600  0.56954400  1
  Sr  Sr11  1  0.67617000  0.10285600  0.06954400  1
  Sr  Sr12  1  0.44562700  0.27019300  0.44082100  1
  Sr  Sr13  1  0.53130500  0.42483000  0.14702800  1
  Sr  Sr14  1  0.46869500  0.57517000  0.85297200  1
  Sr  Sr15  1  0.55437300  0.72980700  0.55917900  1
  Sr  Sr16  1  0.32383000  0.89714400  0.93045600  1
  Sr  Sr17  1  0.17617000  0.89714400  0.43045600  1
  Sr  Sr18  1  0.03130500  0.57517000  0.35297200  1
  Sr  Sr19  1  0.94562700  0.72980700  0.05917900  1
  As  As20  1  0.02009800  0.96234200  0.19118400  1
  As  As21  1  0.88884400  0.76764400  0.60223100  1
  As  As22  1  0.77947100  0.48019800  0.97342400  1
  As  As23  1  0.77473800  0.51125900  0.78123700  1
  As  As24  1  0.72526200  0.51125900  0.28123700  1
  As  As25  1  0.72052900  0.48019800  0.47342400  1
  As  As26  1  0.61115600  0.76764400  0.10223100  1
  As  As27  1  0.47990200  0.96234200  0.69118400  1
  As  As28  1  0.52009800  0.03765800  0.30881600  1
  As  As29  1  0.38884400  0.23235600  0.89776900  1
  As  As30  1  0.27947100  0.51980200  0.52657600  1
  As  As31  1  0.27473800  0.48874100  0.71876300  1
  As  As32  1  0.22526200  0.48874100  0.21876300  1
  As  As33  1  0.11115600  0.23235600  0.39776900  1
  As  As34  1  0.22052900  0.51980200  0.02657600  1
  As  As35  1  0.97990200  0.03765800  0.80881600  1
