# generated using pymatgen
data_Ta4AgS8
_symmetry_space_group_name_H-M   'P 1'
_cell_length_a   5.80744400
_cell_length_b   6.73114587
_cell_length_c   13.63180043
_cell_angle_alpha   97.11509600
_cell_angle_beta   94.11386846
_cell_angle_gamma   89.80033269
_symmetry_Int_Tables_number   1
_chemical_formula_structural   Ta4AgS8
_chemical_formula_sum   'Ta8 Ag2 S16'
_cell_volume   527.40356492
_cell_formula_units_Z   2
loop_
 _symmetry_equiv_pos_site_id
 _symmetry_equiv_pos_as_xyz
  1  'x, y, z'
loop_
 _atom_site_type_symbol
 _atom_site_label
 _atom_site_symmetry_multiplicity
 _atom_site_fract_x
 _atom_site_fract_y
 _atom_site_fract_z
 _atom_site_occupancy
  Ta  Ta0  1  0.20977900  0.07045200  0.77444700  1
  Ta  Ta1  1  0.21013800  0.56708200  0.77444700  1
  Ta  Ta2  1  0.71371300  0.31824200  0.77362700  1
  Ta  Ta3  1  0.78986200  0.43291800  0.22555300  1
  Ta  Ta4  1  0.71544300  0.81868700  0.77462500  1
  Ta  Ta5  1  0.79022100  0.92954800  0.22555300  1
  Ta  Ta6  1  0.28628700  0.68175800  0.22637300  1
  Ta  Ta7  1  0.28455700  0.18131300  0.22537500  1
  Ag  Ag8  1  0.66932800  0.25670600  0.52443000  1
  Ag  Ag9  1  0.33067200  0.74329400  0.47557000  1
  S  S10  1  0.13833000  0.96497100  0.34280400  1
  S  S11  1  0.10286400  0.90176100  0.11113600  1
  S  S12  1  0.13845100  0.45639700  0.34272300  1
  S  S13  1  0.10284600  0.40396300  0.11134500  1
  S  S14  1  0.89715400  0.59603700  0.88865500  1
  S  S15  1  0.86154900  0.54360300  0.65727700  1
  S  S16  1  0.63926100  0.21032600  0.34185400  1
  S  S17  1  0.60219100  0.15333400  0.11351800  1
  S  S18  1  0.89713600  0.09823900  0.88886400  1
  S  S19  1  0.86167000  0.03502900  0.65719600  1
  S  S20  1  0.64611100  0.71074200  0.34210900  1
  S  S21  1  0.59995800  0.65315600  0.11178800  1
  S  S22  1  0.39780900  0.84666600  0.88648200  1
  S  S23  1  0.36073900  0.78967400  0.65814600  1
  S  S24  1  0.40004200  0.34684400  0.88821200  1
  S  S25  1  0.35388900  0.28925800  0.65789100  1
