# generated using pymatgen
data_NdTi2CdO6F
_symmetry_space_group_name_H-M   'P 1'
_cell_length_a   7.27845338
_cell_length_b   7.27845338
_cell_length_c   7.27845338
_cell_angle_alpha   120.78214300
_cell_angle_beta   118.38590667
_cell_angle_gamma   90.73438259
_symmetry_Int_Tables_number   1
_chemical_formula_structural   NdTi2CdO6F
_chemical_formula_sum   'Nd2 Ti4 Cd2 O12 F2'
_cell_volume   274.19023850
_cell_formula_units_Z   2
loop_
 _symmetry_equiv_pos_site_id
 _symmetry_equiv_pos_as_xyz
  1  'x, y, z'
loop_
 _atom_site_type_symbol
 _atom_site_label
 _atom_site_symmetry_multiplicity
 _atom_site_fract_x
 _atom_site_fract_y
 _atom_site_fract_z
 _atom_site_occupancy
  Nd  Nd0  1  0.50000000  0.00000000  0.50000000  1
  Nd  Nd1  1  0.00000000  0.00000000  0.00000000  1
  Ti  Ti2  1  0.50000000  0.00000000  0.00000000  1
  Ti  Ti3  1  0.50000000  0.50000000  0.50000000  1
  Ti  Ti4  1  0.50000000  0.50000000  0.00000000  1
  Ti  Ti5  1  0.00000000  0.50000000  0.50000000  1
  Cd  Cd6  1  0.00000000  0.00000000  0.50000000  1
  Cd  Cd7  1  0.00000000  0.50000000  0.00000000  1
  O  O8  1  0.41779100  0.16779100  0.25000000  1
  O  O9  1  0.42949300  0.17189600  0.84829500  1
  O  O10  1  0.82360100  0.17189600  0.24240300  1
  O  O11  1  0.42949300  0.58119800  0.25759700  1
  O  O12  1  0.82622600  0.57622600  0.25000000  1
  O  O13  1  0.82360100  0.58119800  0.65170500  1
  O  O14  1  0.17639900  0.41880200  0.34829500  1
  O  O15  1  0.17377400  0.42377400  0.75000000  1
  O  O16  1  0.17639900  0.82810400  0.75759700  1
  O  O17  1  0.57050700  0.41880200  0.74240300  1
  O  O18  1  0.58220900  0.83220900  0.75000000  1
  O  O19  1  0.57050700  0.82810400  0.15170500  1
  F  F20  1  0.87748500  0.12748500  0.75000000  1
  F  F21  1  0.12251500  0.87251500  0.25000000  1
