# generated using pymatgen
data_Mg2TiO4
_symmetry_space_group_name_H-M   'P 1'
_cell_length_a   10.32729031
_cell_length_b   10.32729031
_cell_length_c   6.08037143
_cell_angle_alpha   89.87146777
_cell_angle_beta   89.87146777
_cell_angle_gamma   72.17593051
_symmetry_Int_Tables_number   1
_chemical_formula_structural   Mg2TiO4
_chemical_formula_sum   'Mg16 Ti8 O32'
_cell_volume   617.36010481
_cell_formula_units_Z   8
loop_
 _symmetry_equiv_pos_site_id
 _symmetry_equiv_pos_as_xyz
  1  'x, y, z'
loop_
 _atom_site_type_symbol
 _atom_site_label
 _atom_site_symmetry_multiplicity
 _atom_site_fract_x
 _atom_site_fract_y
 _atom_site_fract_z
 _atom_site_occupancy
  Mg  Mg0  1  0.62224200  0.37775800  0.00000000  1
  Mg  Mg1  1  0.12570000  0.37497500  0.00093100  1
  Mg  Mg2  1  0.12582400  0.12316500  0.24886800  1
  Mg  Mg3  1  0.62463100  0.62670500  0.24877200  1
  Mg  Mg4  1  0.30967600  0.56257700  0.24318200  1
  Mg  Mg5  1  0.81236700  0.06553800  0.24677900  1
  Mg  Mg6  1  0.43736000  0.18638600  0.25566600  1
  Mg  Mg7  1  0.94108600  0.68616900  0.25931000  1
  Mg  Mg8  1  0.12554400  0.87445600  0.50000000  1
  Mg  Mg9  1  0.31383100  0.05891400  0.74069000  1
  Mg  Mg10  1  0.43742300  0.69032400  0.75681800  1
  Mg  Mg11  1  0.81361400  0.56264000  0.74433400  1
  Mg  Mg12  1  0.93446200  0.18763300  0.75322100  1
  Mg  Mg13  1  0.37329500  0.37536900  0.75122800  1
  Mg  Mg14  1  0.87683500  0.87417600  0.75113200  1
  Mg  Mg15  1  0.62502500  0.87430000  0.99906900  1
  Ti  Ti16  1  0.11946900  0.88053100  0.00000000  1
  Ti  Ti17  1  0.37710500  0.87287000  0.25429700  1
  Ti  Ti18  1  0.87286300  0.37711400  0.23255600  1
  Ti  Ti19  1  0.12813700  0.36357900  0.50231200  1
  Ti  Ti20  1  0.63642100  0.87186300  0.49768800  1
  Ti  Ti21  1  0.61622900  0.38377100  0.50000000  1
  Ti  Ti22  1  0.12713000  0.62289500  0.74570300  1
  Ti  Ti23  1  0.62288600  0.12713700  0.76744400  1
  O  O24  1  0.25119400  0.98726400  0.01624500  1
  O  O25  1  0.49689000  0.75799200  0.03141000  1
  O  O26  1  0.75610900  0.49502600  0.02709200  1
  O  O27  1  0.99286000  0.25703400  0.03089700  1
  O  O28  1  0.24839500  0.76569700  0.24095900  1
  O  O29  1  0.74624100  0.26818800  0.26035500  1
  O  O30  1  0.00093000  0.48283100  0.26366300  1
  O  O31  1  0.50424100  0.98362600  0.25862800  1
  O  O32  1  0.23431200  0.26473000  0.26389000  1
  O  O33  1  0.51312700  0.48633300  0.26274300  1
  O  O34  1  0.01513200  0.98373400  0.23511200  1
  O  O35  1  0.73740400  0.76517000  0.26363700  1
  O  O36  1  0.25475900  0.99031800  0.46668900  1
  O  O37  1  0.74730800  0.48821900  0.47980800  1
  O  O38  1  0.74037500  0.99903200  0.51624700  1
  O  O39  1  0.23660600  0.49984900  0.51777200  1
  O  O40  1  0.00968200  0.74524100  0.53331100  1
  O  O41  1  0.50015100  0.76339400  0.48222800  1
  O  O42  1  0.51178100  0.25269200  0.52019200  1
  O  O43  1  0.00096800  0.25962500  0.48375300  1
  O  O44  1  0.01626600  0.98486800  0.76488800  1
  O  O45  1  0.51366700  0.48687300  0.73725700  1
  O  O46  1  0.23483000  0.26259600  0.73636300  1
  O  O47  1  0.73527000  0.76568800  0.73611000  1
  O  O48  1  0.51716900  0.99907000  0.73633700  1
  O  O49  1  0.73181200  0.25375900  0.73964500  1
  O  O50  1  0.23430300  0.75160500  0.75904100  1
  O  O51  1  0.01637400  0.49575900  0.74137200  1
  O  O52  1  0.01273600  0.74880600  0.98375500  1
  O  O53  1  0.24200800  0.50311000  0.96859000  1
  O  O54  1  0.50497400  0.24389100  0.97290800  1
  O  O55  1  0.74296600  0.00714000  0.96910300  1
