# generated using pymatgen
data_Mg2TiO4
_symmetry_space_group_name_H-M   'P 1'
_cell_length_a   6.07605800
_cell_length_b   10.33750548
_cell_length_c   14.75342785
_cell_angle_alpha   91.48907475
_cell_angle_beta   90.05213288
_cell_angle_gamma   90.07760078
_symmetry_Int_Tables_number   1
_chemical_formula_structural   Mg2TiO4
_chemical_formula_sum   'Mg24 Ti12 O48'
_cell_volume   926.36752442
_cell_formula_units_Z   12
loop_
 _symmetry_equiv_pos_site_id
 _symmetry_equiv_pos_as_xyz
  1  'x, y, z'
loop_
 _atom_site_type_symbol
 _atom_site_label
 _atom_site_symmetry_multiplicity
 _atom_site_fract_x
 _atom_site_fract_y
 _atom_site_fract_z
 _atom_site_occupancy
  Mg  Mg0  1  0.00450400  0.41357000  0.58319400  1
  Mg  Mg1  1  0.99578000  0.75107900  0.25168700  1
  Mg  Mg2  1  0.99614800  0.25190000  0.24885300  1
  Mg  Mg3  1  0.24917000  0.83465300  0.91677000  1
  Mg  Mg4  1  0.25160100  0.16451300  0.58291800  1
  Mg  Mg5  1  0.24526200  0.50107900  0.25014000  1
  Mg  Mg6  1  0.24430500  0.33290200  0.79223400  1
  Mg  Mg7  1  0.25323700  0.66451600  0.45959500  1
  Mg  Mg8  1  0.24517800  0.99989800  0.12629100  1
  Mg  Mg9  1  0.25920600  0.66567500  0.70803900  1
  Mg  Mg10  1  0.25043600  0.00277800  0.37486800  1
  Mg  Mg11  1  0.25785500  0.33393000  0.03923400  1
  Mg  Mg12  1  0.50014700  0.08348300  0.91678300  1
  Mg  Mg13  1  0.74223900  0.83621100  0.79181400  1
  Mg  Mg14  1  0.75979300  0.16312400  0.70873100  1
  Mg  Mg15  1  0.74878300  0.16513900  0.45676400  1
  Mg  Mg16  1  0.74570500  0.49943400  0.37556800  1
  Mg  Mg17  1  0.74122200  0.50175300  0.12376200  1
  Mg  Mg18  1  0.75214900  0.83405800  0.04359200  1
  Mg  Mg19  1  0.75363200  0.49889000  0.75001700  1
  Mg  Mg20  1  0.74736100  0.16800000  0.08231900  1
  Mg  Mg21  1  0.75237000  0.83353900  0.41758700  1
  Mg  Mg22  1  0.00138000  0.58213900  0.91579200  1
  Mg  Mg23  1  0.00296100  0.91648900  0.58440300  1
  Ti  Ti24  1  0.00043600  0.07984700  0.92177300  1
  Ti  Ti25  1  0.25445700  0.00072000  0.75008800  1
  Ti  Ti26  1  0.23578900  0.33352300  0.41558500  1
  Ti  Ti27  1  0.23099300  0.66600000  0.08467700  1
  Ti  Ti28  1  0.50311200  0.59302800  0.91402200  1
  Ti  Ti29  1  0.50154300  0.91669700  0.57844100  1
  Ti  Ti30  1  0.50530800  0.40866500  0.58728700  1
  Ti  Ti31  1  0.49552200  0.25554300  0.24362800  1
  Ti  Ti32  1  0.49565700  0.74748100  0.25578400  1
  Ti  Ti33  1  0.74500400  0.33410300  0.91458100  1
  Ti  Ti34  1  0.77011400  0.66429000  0.58447700  1
  Ti  Ti35  1  0.76049800  0.00177600  0.25031700  1
  O  O36  1  0.01726000  0.92896000  0.83356700  1
  O  O37  1  0.03453500  0.07620800  0.66929900  1
  O  O38  1  0.03151300  0.25144300  0.49409000  1
  O  O39  1  0.02640600  0.41263500  0.33728700  1
  O  O40  1  0.02321400  0.58891100  0.16294900  1
  O  O41  1  0.02958700  0.74498100  0.00426200  1
  O  O42  1  0.24143200  0.15109100  0.83510000  1
  O  O43  1  0.26269600  0.48224800  0.50066800  1
  O  O44  1  0.25740700  0.81825400  0.16881400  1
  O  O45  1  0.26287700  0.51745300  0.99985300  1
  O  O46  1  0.26116800  0.84759900  0.66563800  1
  O  O47  1  0.25943500  0.18332000  0.33018300  1
  O  O48  1  0.26424900  0.65664600  0.84350100  1
  O  O49  1  0.26694500  0.34108600  0.65654900  1
  O  O50  1  0.23527900  0.01075000  0.99099400  1
  O  O51  1  0.26767000  0.98870600  0.50972900  1
  O  O52  1  0.25886300  0.32529500  0.17506000  1
  O  O53  1  0.25863800  0.67726900  0.32444900  1
  O  O54  1  0.46851600  0.92448500  0.83150000  1
  O  O55  1  0.51569500  0.91187100  0.32538000  1
  O  O56  1  0.51825300  0.42076700  0.84133100  1
  O  O57  1  0.47713900  0.59845000  0.16862800  1
  O  O58  1  0.51482600  0.09004400  0.17333700  1
  O  O59  1  0.51998200  0.75502600  0.50907600  1
  O  O60  1  0.53146200  0.25172100  0.99315000  1
  O  O61  1  0.52365100  0.57474000  0.65784400  1
  O  O62  1  0.47889000  0.40393100  0.33090200  1
  O  O63  1  0.48516800  0.06920000  0.66780200  1
  O  O64  1  0.48339700  0.26199200  0.50012100  1
  O  O65  1  0.48376900  0.73927400  0.99878400  1
  O  O66  1  0.76422500  0.00984600  0.99008300  1
  O  O67  1  0.74179700  0.34015400  0.65619900  1
  O  O68  1  0.73688000  0.65794000  0.84263000  1
  O  O69  1  0.73315900  0.67742400  0.32472900  1
  O  O70  1  0.73502300  0.32479100  0.17551800  1
  O  O71  1  0.73817000  0.98948700  0.51103900  1
  O  O72  1  0.73649800  0.83798300  0.17867200  1
  O  O73  1  0.75968800  0.16989600  0.84412400  1
  O  O74  1  0.74152200  0.50199200  0.51097300  1
  O  O75  1  0.74160000  0.82711000  0.65618500  1
  O  O76  1  0.73381600  0.16431200  0.32156700  1
  O  O77  1  0.74116000  0.49804800  0.98850700  1
  O  O78  1  0.98301100  0.24649400  0.99177300  1
  O  O79  1  0.96990200  0.41499600  0.83807100  1
  O  O80  1  0.97723700  0.58548800  0.66206800  1
  O  O81  1  0.97278500  0.74475400  0.50440100  1
  O  O82  1  0.96789600  0.92365000  0.33015600  1
  O  O83  1  0.96685600  0.08085800  0.17184300  1
