# generated using pymatgen
data_NaCa9TaTi9O30
_symmetry_space_group_name_H-M   'P 1'
_cell_length_a   38.47727400
_cell_length_b   5.42412300
_cell_length_c   5.52755243
_cell_angle_alpha   89.97743433
_cell_angle_beta   90.00000000
_cell_angle_gamma   90.00000000
_symmetry_Int_Tables_number   1
_chemical_formula_structural   NaCa9TaTi9O30
_chemical_formula_sum   'Na2 Ca18 Ta2 Ti18 O60'
_cell_volume   1153.63032087
_cell_formula_units_Z   2
loop_
 _symmetry_equiv_pos_site_id
 _symmetry_equiv_pos_as_xyz
  1  'x, y, z'
loop_
 _atom_site_type_symbol
 _atom_site_label
 _atom_site_symmetry_multiplicity
 _atom_site_fract_x
 _atom_site_fract_y
 _atom_site_fract_z
 _atom_site_occupancy
  Na  Na0  1  0.00000000  0.48859300  0.47697000  1
  Na  Na1  1  0.00000000  0.00929700  0.96923600  1
  Ca  Ca2  1  0.30051700  0.98596000  0.04296900  1
  Ca  Ca3  1  0.50000000  0.98771900  0.04259600  1
  Ca  Ca4  1  0.69948300  0.98596000  0.04296900  1
  Ca  Ca5  1  0.89885300  0.99006900  0.04673200  1
  Ca  Ca6  1  0.10114700  0.99006900  0.04673200  1
  Ca  Ca7  1  0.50000000  0.51171700  0.54224500  1
  Ca  Ca8  1  0.30065700  0.50951800  0.54111200  1
  Ca  Ca9  1  0.69934300  0.50951800  0.54111200  1
  Ca  Ca10  1  0.89839500  0.51479300  0.54375700  1
  Ca  Ca11  1  0.10160500  0.51479300  0.54375700  1
  Ca  Ca12  1  0.20098600  0.48988900  0.45613500  1
  Ca  Ca13  1  0.40023500  0.48820100  0.45772400  1
  Ca  Ca14  1  0.79901400  0.48988900  0.45613500  1
  Ca  Ca15  1  0.59976500  0.48820100  0.45772400  1
  Ca  Ca16  1  0.40017700  0.01211600  0.95739200  1
  Ca  Ca17  1  0.20079700  0.01411400  0.95476900  1
  Ca  Ca18  1  0.79920300  0.01411400  0.95476900  1
  Ca  Ca19  1  0.59982300  0.01211600  0.95739200  1
  Ta  Ta20  1  0.05039400  0.49488900  0.00643500  1
  Ta  Ta21  1  0.94960600  0.49488900  0.00643500  1
  Ti  Ti22  1  0.25008600  0.98818700  0.49880600  1
  Ti  Ti23  1  0.34988100  0.99920400  0.50025300  1
  Ti  Ti24  1  0.45001500  0.99925600  0.49978900  1
  Ti  Ti25  1  0.54998500  0.99925600  0.49978900  1
  Ti  Ti26  1  0.74991400  0.98818700  0.49880600  1
  Ti  Ti27  1  0.95161500  0.00155000  0.51060300  1
  Ti  Ti28  1  0.04838500  0.00155000  0.51060300  1
  Ti  Ti29  1  0.25095800  0.48982700  0.99520700  1
  Ti  Ti30  1  0.45018400  0.49938900  0.99959400  1
  Ti  Ti31  1  0.64925400  0.49911700  0.99956100  1
  Ti  Ti32  1  0.84829000  0.51399600  0.00267800  1
  Ti  Ti33  1  0.15171000  0.51399600  0.00267800  1
  Ti  Ti34  1  0.35074600  0.49911700  0.99956100  1
  Ti  Ti35  1  0.54981600  0.49938900  0.99959400  1
  Ti  Ti36  1  0.74904200  0.48982700  0.99520700  1
  Ti  Ti37  1  0.14999900  0.01578500  0.49902500  1
  Ti  Ti38  1  0.65011900  0.99920400  0.50025300  1
  Ti  Ti39  1  0.85000100  0.01578500  0.49902500  1
  O  O40  1  0.20108200  0.91989500  0.52002100  1
  O  O41  1  0.40027200  0.92045300  0.51955600  1
  O  O42  1  0.59972800  0.92045300  0.51955600  1
  O  O43  1  0.79891800  0.91989500  0.52002100  1
  O  O44  1  0.00000000  0.92372000  0.51537300  1
  O  O45  1  0.25919300  0.78933000  0.78718400  1
  O  O46  1  0.45862200  0.78656600  0.78609400  1
  O  O47  1  0.54137800  0.78656600  0.78609400  1
  O  O48  1  0.74080700  0.78933000  0.78718400  1
  O  O49  1  0.65818100  0.78707200  0.78608900  1
  O  O50  1  0.85779000  0.78623500  0.78799200  1
  O  O51  1  0.34181900  0.78707200  0.78608900  1
  O  O52  1  0.93991700  0.78219400  0.77759300  1
  O  O53  1  0.06008300  0.78219400  0.77759300  1
  O  O54  1  0.14221000  0.78623500  0.78799200  1
  O  O55  1  0.25905800  0.71509700  0.28750600  1
  O  O56  1  0.34178900  0.71418200  0.28577900  1
  O  O57  1  0.45859300  0.71356900  0.28589000  1
  O  O58  1  0.54140700  0.71356900  0.28589000  1
  O  O59  1  0.74094200  0.71509700  0.28750600  1
  O  O60  1  0.85794500  0.70817700  0.28536200  1
  O  O61  1  0.06044100  0.71438500  0.28067100  1
  O  O62  1  0.93955900  0.71438500  0.28067100  1
  O  O63  1  0.65821100  0.71418200  0.28577900  1
  O  O64  1  0.14205500  0.70817700  0.28536200  1
  O  O65  1  0.20046200  0.58271800  0.01996300  1
  O  O66  1  0.40016100  0.58089300  0.01954000  1
  O  O67  1  0.79953800  0.58271800  0.01996300  1
  O  O68  1  0.00000000  0.57710000  0.01519800  1
  O  O69  1  0.59983900  0.58089300  0.01954000  1
  O  O70  1  0.50000000  0.41985900  0.98099800  1
  O  O71  1  0.69972200  0.42018000  0.98100900  1
  O  O72  1  0.30027800  0.42018000  0.98100900  1
  O  O73  1  0.10090500  0.41585100  0.97691600  1
  O  O74  1  0.89909500  0.41585100  0.97691600  1
  O  O75  1  0.15945200  0.28735100  0.71077100  1
  O  O76  1  0.24188000  0.29089000  0.71555900  1
  O  O77  1  0.44157700  0.28711000  0.71477900  1
  O  O78  1  0.35878700  0.28803600  0.71479900  1
  O  O79  1  0.75812000  0.29089000  0.71555900  1
  O  O80  1  0.55842300  0.28711000  0.71477900  1
  O  O81  1  0.64121300  0.28803600  0.71479900  1
  O  O82  1  0.84054800  0.28735100  0.71077100  1
  O  O83  1  0.95681900  0.28357200  0.70825900  1
  O  O84  1  0.04318100  0.28357200  0.70825900  1
  O  O85  1  0.15937000  0.20893000  0.21117200  1
  O  O86  1  0.35884300  0.21477300  0.21395300  1
  O  O87  1  0.24204200  0.21661900  0.21364400  1
  O  O88  1  0.55844400  0.21389500  0.21413100  1
  O  O89  1  0.75795800  0.21661900  0.21364400  1
  O  O90  1  0.84063000  0.20893000  0.21117200  1
  O  O91  1  0.44155600  0.21389500  0.21413100  1
  O  O92  1  0.64115700  0.21477300  0.21395300  1
  O  O93  1  0.95625200  0.20442800  0.21036100  1
  O  O94  1  0.04374800  0.20442800  0.21036100  1
  O  O95  1  0.30064100  0.08123400  0.48072000  1
  O  O96  1  0.50000000  0.08032700  0.48071100  1
  O  O97  1  0.69935900  0.08123400  0.48072000  1
  O  O98  1  0.89873100  0.08133800  0.48048300  1
  O  O99  1  0.10126900  0.08133800  0.48048300  1
