# generated using pymatgen
data_Ba5Ho8Zn4O21
_symmetry_space_group_name_H-M   'P 1'
_cell_length_a   10.20909234
_cell_length_b   10.20909234
_cell_length_c   10.20909234
_cell_angle_alpha   94.53245429
_cell_angle_beta   94.53245429
_cell_angle_gamma   147.34687226
_symmetry_Int_Tables_number   1
_chemical_formula_structural   Ba5Ho8Zn4O21
_chemical_formula_sum   'Ba5 Ho8 Zn4 O21'
_cell_volume   550.95824666
_cell_formula_units_Z   1
loop_
 _symmetry_equiv_pos_site_id
 _symmetry_equiv_pos_as_xyz
  1  'x, y, z'
loop_
 _atom_site_type_symbol
 _atom_site_label
 _atom_site_symmetry_multiplicity
 _atom_site_fract_x
 _atom_site_fract_y
 _atom_site_fract_z
 _atom_site_occupancy
  Ba  Ba0  1  0.53535800  0.86044600  0.39580400  1
  Ba  Ba1  1  0.86044600  0.46464200  0.32508800  1
  Ba  Ba2  1  0.13955400  0.53535800  0.67491200  1
  Ba  Ba3  1  0.46464200  0.13955400  0.60419600  1
  Ba  Ba4  1  0.00000000  0.00000000  0.00000000  1
  Ho  Ho5  1  0.41131400  0.64192600  0.05324000  1
  Ho  Ho6  1  0.64192600  0.58868600  0.23061200  1
  Ho  Ho7  1  0.35807400  0.41131400  0.76938800  1
  Ho  Ho8  1  0.58868600  0.35807400  0.94676000  1
  Ho  Ho9  1  0.24740700  0.83191800  0.07932400  1
  Ho  Ho10  1  0.83191800  0.75259300  0.58451100  1
  Ho  Ho11  1  0.16808200  0.24740700  0.41548900  1
  Ho  Ho12  1  0.75259300  0.16808200  0.92067600  1
  Zn  Zn13  1  0.04051600  0.74966600  0.79018200  1
  Zn  Zn14  1  0.74966600  0.95948400  0.70915000  1
  Zn  Zn15  1  0.25033400  0.04051600  0.29085000  1
  Zn  Zn16  1  0.95948400  0.25033400  0.20981800  1
  O  O17  1  0.89999600  0.49448100  0.89149200  1
  O  O18  1  0.49448100  0.60298900  0.59448500  1
  O  O19  1  0.00850500  0.89999600  0.40551500  1
  O  O20  1  0.60298900  0.00850500  0.10850800  1
  O  O21  1  0.10000400  0.50551900  0.10850800  1
  O  O22  1  0.50551900  0.39701100  0.40551500  1
  O  O23  1  0.99149500  0.10000400  0.59448500  1
  O  O24  1  0.39701100  0.99149500  0.89149200  1
  O  O25  1  0.07286100  0.29860900  0.87050600  1
  O  O26  1  0.29860900  0.42810300  0.22574800  1
  O  O27  1  0.20235500  0.07286100  0.77425200  1
  O  O28  1  0.42810300  0.20235500  0.12949400  1
  O  O29  1  0.92713900  0.70139100  0.12949400  1
  O  O30  1  0.70139100  0.57189700  0.77425200  1
  O  O31  1  0.79764500  0.92713900  0.22574800  1
  O  O32  1  0.57189700  0.79764500  0.87050600  1
  O  O33  1  0.62848700  0.03807700  0.66656400  1
  O  O34  1  0.50000000  0.50000000  0.00000000  1
  O  O35  1  0.37151300  0.96192300  0.33343600  1
  O  O36  1  0.96192300  0.62848700  0.59041000  1
  O  O37  1  0.03807700  0.37151300  0.40959000  1
