# generated using pymatgen
data_Ti7(Fe3O8)3
_symmetry_space_group_name_H-M   'P 1'
_cell_length_a   5.14663300
_cell_length_b   5.61262688
_cell_length_c   15.12570868
_cell_angle_alpha   83.75059585
_cell_angle_beta   89.94290387
_cell_angle_gamma   89.78948249
_symmetry_Int_Tables_number   1
_chemical_formula_structural   Ti7(Fe3O8)3
_chemical_formula_sum   'Ti7 Fe9 O24'
_cell_volume   434.32375955
_cell_formula_units_Z   1
loop_
 _symmetry_equiv_pos_site_id
 _symmetry_equiv_pos_as_xyz
  1  'x, y, z'
loop_
 _atom_site_type_symbol
 _atom_site_label
 _atom_site_symmetry_multiplicity
 _atom_site_fract_x
 _atom_site_fract_y
 _atom_site_fract_z
 _atom_site_occupancy
  Ti  Ti0  1  0.99919700  0.71239800  0.42699400  1
  Ti  Ti1  1  0.49641600  0.20945200  0.17729000  1
  Ti  Ti2  1  0.99607200  0.29319400  0.07364000  1
  Ti  Ti3  1  0.00005000  0.28695700  0.81974600  1
  Ti  Ti4  1  0.49535100  0.78099700  0.82551000  1
  Ti  Ti5  1  0.01212000  0.29616300  0.57001900  1
  Ti  Ti6  1  0.49956400  0.78920900  0.32168500  1
  Fe  Fe7  1  0.49664900  0.20711500  0.67367500  1
  Fe  Fe8  1  0.49603300  0.79299600  0.57319200  1
  Fe  Fe9  1  0.99675900  0.29030300  0.32202800  1
  Fe  Fe10  1  0.50502400  0.79477000  0.07568700  1
  Fe  Fe11  1  0.00405300  0.71136600  0.17577600  1
  Fe  Fe12  1  0.00689000  0.71070000  0.93018400  1
  Fe  Fe13  1  0.49536300  0.20578900  0.93050600  1
  Fe  Fe14  1  0.99752300  0.71327400  0.67663400  1
  Fe  Fe15  1  0.50632500  0.21144600  0.42782100  1
  O  O16  1  0.81657800  0.01189200  0.87109900  1
  O  O17  1  0.63340200  0.85089300  0.70887100  1
  O  O18  1  0.32874000  0.84622400  0.44623100  1
  O  O19  1  0.28986300  0.48768500  0.62711200  1
  O  O20  1  0.13143100  0.34990100  0.45349200  1
  O  O21  1  0.83073500  0.33543200  0.19753900  1
  O  O22  1  0.80350800  0.97388300  0.37872500  1
  O  O23  1  0.62977100  0.84779300  0.20539900  1
  O  O24  1  0.35718500  0.83542000  0.94654100  1
  O  O25  1  0.16845600  0.66019200  0.30218400  1
  O  O26  1  0.86170500  0.64428800  0.04814100  1
  O  O27  1  0.31134500  0.47859500  0.12660700  1
  O  O28  1  0.70251000  0.52046300  0.86800200  1
  O  O29  1  0.12755500  0.34132800  0.95277200  1
  O  O30  1  0.84303200  0.33592900  0.70889900  1
  O  O31  1  0.67674600  0.15000300  0.05498400  1
  O  O32  1  0.32154300  0.15247300  0.79604400  1
  O  O33  1  0.19221700  0.02409900  0.62065300  1
  O  O34  1  0.17577900  0.63863800  0.80494600  1
  O  O35  1  0.86151100  0.64687500  0.54226800  1
  O  O36  1  0.68951900  0.52241200  0.37174100  1
  O  O37  1  0.67711800  0.16587100  0.55590700  1
  O  O38  1  0.36665800  0.14719700  0.29318500  1
  O  O39  1  0.19970400  0.02638400  0.11826900  1
