# generated using pymatgen
data_Na(NO2)2
_symmetry_space_group_name_H-M   'P 1'
_cell_length_a   4.46797404
_cell_length_b   4.46797404
_cell_length_c   6.26628695
_cell_angle_alpha   75.55718534
_cell_angle_beta   75.55718534
_cell_angle_gamma   84.93206260
_symmetry_Int_Tables_number   1
_chemical_formula_structural   Na(NO2)2
_chemical_formula_sum   'Na1 N2 O4'
_cell_volume   117.26538517
_cell_formula_units_Z   1
loop_
 _symmetry_equiv_pos_site_id
 _symmetry_equiv_pos_as_xyz
  1  'x, y, z'
loop_
 _atom_site_type_symbol
 _atom_site_label
 _atom_site_symmetry_multiplicity
 _atom_site_fract_x
 _atom_site_fract_y
 _atom_site_fract_z
 _atom_site_occupancy
  Na  Na0  1  0.50000000  0.50000000  0.50000000  1
  N  N1  1  0.91919000  0.91919000  0.06707300  1
  N  N2  1  0.08081000  0.08081000  0.93292700  1
  O  O3  1  0.67425200  0.88805100  0.65485600  1
  O  O4  1  0.88805100  0.67425200  0.65485600  1
  O  O5  1  0.32574800  0.11194900  0.34514400  1
  O  O6  1  0.11194900  0.32574800  0.34514400  1
