# generated using pymatgen
data_YAl6Si30(N15O)3
_symmetry_space_group_name_H-M   'P 1'
_cell_length_a   7.88675200
_cell_length_b   7.89765939
_cell_length_c   17.12592949
_cell_angle_alpha   90.12122280
_cell_angle_beta   90.14375206
_cell_angle_gamma   119.80109460
_symmetry_Int_Tables_number   1
_chemical_formula_structural   YAl6Si30(N15O)3
_chemical_formula_sum   'Y1 Al6 Si30 N45 O3'
_cell_volume   925.64340851
_cell_formula_units_Z   1
loop_
 _symmetry_equiv_pos_site_id
 _symmetry_equiv_pos_as_xyz
  1  'x, y, z'
loop_
 _atom_site_type_symbol
 _atom_site_label
 _atom_site_symmetry_multiplicity
 _atom_site_fract_x
 _atom_site_fract_y
 _atom_site_fract_z
 _atom_site_occupancy
  Y  Y0  1  0.67382000  0.32589700  0.08725800  1
  Al  Al1  1  0.49203900  0.89772100  0.09759400  1
  Al  Al2  1  0.08384600  0.25458900  0.99696000  1
  Al  Al3  1  0.57522600  0.08856000  0.26679200  1
  Al  Al4  1  0.91445500  0.16889700  0.82825700  1
  Al  Al5  1  0.91116800  0.16389500  0.49718100  1
  Al  Al6  1  0.91685700  0.17279100  0.16718200  1
  Si  Si7  1  0.15620100  0.91019100  0.99629300  1
  Si  Si8  1  0.15522000  0.90992900  0.66239800  1
  Si  Si9  1  0.15781200  0.91320600  0.33128700  1
  Si  Si10  1  0.48970000  0.90957100  0.76138800  1
  Si  Si11  1  0.49193900  0.90856500  0.43259200  1
  Si  Si12  1  0.07763600  0.56373500  0.76070000  1
  Si  Si13  1  0.08011800  0.56451800  0.43026100  1
  Si  Si14  1  0.08706000  0.56945700  0.09635300  1
  Si  Si15  1  0.74583700  0.83114900  0.99636100  1
  Si  Si16  1  0.74473000  0.83335400  0.66476900  1
  Si  Si17  1  0.74609600  0.83570200  0.33618800  1
  Si  Si18  1  0.83412200  0.74550300  0.83052300  1
  Si  Si19  1  0.83598200  0.74213100  0.49922100  1
  Si  Si20  1  0.83402800  0.75457500  0.16816800  1
  Si  Si21  1  0.42714300  0.51143500  0.76070000  1
  Si  Si22  1  0.42925900  0.51134600  0.42948800  1
  Si  Si23  1  0.42538500  0.51125100  0.09589800  1
  Si  Si24  1  0.08901900  0.26122200  0.33277800  1
  Si  Si25  1  0.08916000  0.25987800  0.66315300  1
  Si  Si26  1  0.51415200  0.43119800  0.92746500  1
  Si  Si27  1  0.51682100  0.43061200  0.59594000  1
  Si  Si28  1  0.52171400  0.43959900  0.26609600  1
  Si  Si29  1  0.92998100  0.48892500  0.92536800  1
  Si  Si30  1  0.92053600  0.48480800  0.59631300  1
  Si  Si31  1  0.92213900  0.49040800  0.26674600  1
  Si  Si32  1  0.24881300  0.08603400  0.83519100  1
  Si  Si33  1  0.24724900  0.08230400  0.17165300  1
  Si  Si34  1  0.25007700  0.08728400  0.50297500  1
  Si  Si35  1  0.56940900  0.07516800  0.92464100  1
  Si  Si36  1  0.57058700  0.08473900  0.59610800  1
  N  N37  1  0.60472100  0.95224400  0.67098200  1
  N  N38  1  0.61023000  0.95013500  0.34510600  1
  N  N39  1  0.61017400  0.95288000  0.99968500  1
  N  N40  1  0.04339000  0.66041000  0.67230000  1
  N  N41  1  0.04822800  0.66421700  0.34144600  1
  N  N42  1  0.04702400  0.65812700  0.00622900  1
  N  N43  1  0.99248900  0.98775200  0.99834800  1
  N  N44  1  0.00452900  0.98967300  0.82939300  1
  N  N45  1  0.99797800  0.00264300  0.66500400  1
  N  N46  1  0.00474000  0.98742900  0.49762100  1
  N  N47  1  0.00480200  0.99585700  0.16366500  1
  N  N48  1  0.32921600  0.66591100  0.77846600  1
  N  N49  1  0.33046500  0.66433300  0.44859200  1
  N  N50  1  0.32243700  0.64869200  0.12033800  1
  N  N51  1  0.67693500  0.68951400  0.75032600  1
  N  N52  1  0.68036400  0.68161600  0.41851900  1
  N  N53  1  0.67861500  0.68174400  0.08448000  1
  N  N54  1  0.68541100  0.67745300  0.91522100  1
  N  N55  1  0.68757900  0.68036900  0.58376400  1
  N  N56  1  0.68417100  0.69201200  0.25044700  1
  N  N57  1  0.00958700  0.32592500  0.74374300  1
  N  N58  1  0.00913000  0.32551100  0.41370300  1
  N  N59  1  0.97737700  0.32626600  0.07932400  1
  N  N60  1  0.34857000  0.38715600  0.67099400  1
  N  N61  1  0.36302400  0.38519000  0.00824000  1
  N  N62  1  0.34824200  0.38976200  0.33870900  1
  N  N63  1  0.39449200  0.34132000  0.83634800  1
  N  N64  1  0.39275200  0.34154900  0.50441900  1
  N  N65  1  0.40706100  0.34104500  0.16952500  1
  N  N66  1  0.95103500  0.60679500  0.83616900  1
  N  N67  1  0.95404700  0.60451600  0.50589000  1
  N  N68  1  0.94128700  0.60133800  0.16975600  1
  N  N69  1  0.67081600  0.33208900  0.94854700  1
  N  N70  1  0.66916700  0.33410300  0.61475500  1
  N  N71  1  0.67621000  0.35294900  0.28463100  1
  N  N72  1  0.31903200  0.00686400  0.91851400  1
  N  N73  1  0.31900900  0.00931500  0.58661000  1
  N  N74  1  0.30846000  0.00291000  0.25309400  1
  N  N75  1  0.00987800  0.33162700  0.91176400  1
  N  N76  1  0.01032500  0.33213500  0.25320700  1
  N  N77  1  0.00348200  0.32279900  0.58423900  1
  N  N78  1  0.64067000  0.04536400  0.83440000  1
  N  N79  1  0.63984700  0.04030200  0.50719200  1
  N  N80  1  0.65120800  0.07456500  0.16668000  1
  N  N81  1  0.99911800  0.00470700  0.33389800  1
  O  O82  1  0.31056500  0.99132300  0.74993000  1
  O  O83  1  0.31311600  0.99284100  0.41872900  1
  O  O84  1  0.31032200  0.99991000  0.08275000  1
