# generated using pymatgen
data_Ca10Mg7Al6Si17O60
_symmetry_space_group_name_H-M   'P 1'
_cell_length_a   5.31594300
_cell_length_b   6.63168283
_cell_length_c   32.49377216
_cell_angle_alpha   86.15359045
_cell_angle_beta   87.50549156
_cell_angle_gamma   78.15416118
_symmetry_Int_Tables_number   1
_chemical_formula_structural   Ca10Mg7Al6Si17O60
_chemical_formula_sum   'Ca10 Mg7 Al6 Si17 O60'
_cell_volume   1118.08357180
_cell_formula_units_Z   1
loop_
 _symmetry_equiv_pos_site_id
 _symmetry_equiv_pos_as_xyz
  1  'x, y, z'
loop_
 _atom_site_type_symbol
 _atom_site_label
 _atom_site_symmetry_multiplicity
 _atom_site_fract_x
 _atom_site_fract_y
 _atom_site_fract_z
 _atom_site_occupancy
  Ca  Ca0  1  0.30512700  0.70005200  0.05963400  1
  Ca  Ca1  1  0.51109000  0.69926000  0.26088900  1
  Ca  Ca2  1  0.71183400  0.70001900  0.46094800  1
  Ca  Ca3  1  0.88937900  0.30008900  0.14032200  1
  Ca  Ca4  1  0.91097400  0.70203800  0.66200500  1
  Ca  Ca5  1  0.09056100  0.30115800  0.34029300  1
  Ca  Ca6  1  0.11008700  0.68542100  0.86118200  1
  Ca  Ca7  1  0.29233600  0.29913900  0.53979400  1
  Ca  Ca8  1  0.49068400  0.29973700  0.73821400  1
  Ca  Ca9  1  0.67990900  0.31814500  0.93715300  1
  Mg  Mg10  1  0.43097600  0.08914100  0.18165300  1
  Mg  Mg11  1  0.63201500  0.09053200  0.38175800  1
  Mg  Mg12  1  0.83708800  0.09036100  0.58201900  1
  Mg  Mg13  1  0.76232800  0.90955100  0.01615000  1
  Mg  Mg14  1  0.96778800  0.90624000  0.21853800  1
  Mg  Mg15  1  0.16891700  0.90706400  0.41860200  1
  Mg  Mg16  1  0.37991800  0.91141800  0.62055900  1
  Al  Al17  1  0.03348800  0.09510300  0.78229500  1
  Al  Al18  1  0.23166200  0.09904400  0.98013700  1
  Al  Al19  1  0.44779800  0.80862500  0.72582700  1
  Al  Al20  1  0.61912700  0.38054200  0.83731100  1
  Al  Al21  1  0.56937000  0.90226700  0.81864200  1
  Al  Al22  1  0.63537600  0.81920900  0.92190600  1
  Si  Si23  1  0.33994100  0.19313200  0.07481900  1
  Si  Si24  1  0.38961300  0.61903900  0.16132600  1
  Si  Si25  1  0.54455900  0.19191100  0.27588800  1
  Si  Si26  1  0.59253700  0.61959200  0.36152300  1
  Si  Si27  1  0.74578800  0.19229700  0.47565300  1
  Si  Si28  1  0.81067900  0.37945700  0.03766500  1
  Si  Si29  1  0.79546600  0.61974200  0.56172900  1
  Si  Si30  1  0.95709800  0.19116900  0.67722600  1
  Si  Si31  1  0.85045200  0.80759300  0.12340700  1
  Si  Si32  1  0.00696000  0.37922000  0.23833500  1
  Si  Si33  1  0.98564200  0.60893900  0.76121500  1
  Si  Si34  1  0.15271600  0.19513400  0.87786800  1
  Si  Si35  1  0.05447800  0.80761000  0.32391200  1
  Si  Si36  1  0.20743800  0.38020200  0.43810800  1
  Si  Si37  1  0.18054000  0.61982500  0.96057700  1
  Si  Si38  1  0.25659800  0.80746200  0.52423900  1
  Si  Si39  1  0.41555000  0.38076200  0.63837200  1
  O  O40  1  0.06607200  0.37364700  0.06684700  1
  O  O41  1  0.29926300  0.10620400  0.12125900  1
  O  O42  1  0.27094700  0.37067700  0.26569800  1
  O  O43  1  0.38039500  0.03632400  0.03737300  1
  O  O44  1  0.33498400  0.79529800  0.19438400  1
  O  O45  1  0.49749300  0.11078100  0.32243200  1
  O  O46  1  0.47156000  0.37079400  0.46559200  1
  O  O47  1  0.49827000  0.38390500  0.17670600  1
  O  O48  1  0.59875300  0.02689900  0.24030200  1
  O  O49  1  0.57825900  0.32613500  0.07195100  1
  O  O50  1  0.53610400  0.79597900  0.39450000  1
  O  O51  1  0.70083100  0.11073400  0.52231100  1
  O  O52  1  0.61879100  0.66674200  0.12560400  1
  O  O53  1  0.67768800  0.36129200  0.66764900  1
  O  O54  1  0.70206000  0.38473300  0.37691300  1
  O  O55  1  0.79949900  0.02736400  0.44016000  1
  O  O56  1  0.69613300  0.61352800  0.02202300  1
  O  O57  1  0.77843500  0.33050100  0.27376700  1
  O  O58  1  0.88760100  0.20008100  0.00451800  1
  O  O59  1  0.74295100  0.79719900  0.59457600  1
  O  O60  1  0.92690900  0.12012000  0.72594400  1
  O  O61  1  0.82064500  0.66917900  0.32560200  1
  O  O62  1  0.88697900  0.36859400  0.86912900  1
  O  O63  1  0.90640400  0.38534200  0.57733000  1
  O  O64  1  0.79887600  0.97263000  0.15872200  1
  O  O65  1  0.00853300  0.02520100  0.64222300  1
  O  O66  1  0.89585300  0.61264800  0.22176200  1
  O  O67  1  0.97877400  0.33152400  0.47350000  1
  O  O68  1  0.89143500  0.88651000  0.07619200  1
  O  O69  1  0.06323000  0.20226500  0.20511000  1
  O  O70  1  0.92356900  0.80334400  0.79298100  1
  O  O71  1  0.10304700  0.10988700  0.92594200  1
  O  O72  1  0.02303200  0.66855200  0.52565300  1
  O  O73  1  0.09770400  0.37440500  0.78126200  1
  O  O74  1  0.00069500  0.97353200  0.35892200  1
  O  O75  1  0.20379600  0.02933600  0.84066800  1
  O  O76  1  0.09656400  0.61347700  0.42152500  1
  O  O77  1  0.12701000  0.63096000  0.13302200  1
  O  O78  1  0.18373000  0.33390800  0.67368600  1
  O  O79  1  0.10142200  0.88665200  0.27683400  1
  O  O80  1  0.26420000  0.20281900  0.40508000  1
  O  O81  1  0.13842600  0.80806600  0.99317800  1
  O  O82  1  0.20806800  0.65439300  0.72675100  1
  O  O83  1  0.28556100  0.38293200  0.97992900  1
  O  O84  1  0.20401800  0.97279100  0.55947200  1
  O  O85  1  0.31088200  0.61662800  0.62351300  1
  O  O86  1  0.32959400  0.62972100  0.33337900  1
  O  O87  1  0.38419600  0.32521900  0.87604400  1
  O  O88  1  0.30212200  0.88702200  0.47718900  1
  O  O89  1  0.46915100  0.20867500  0.60458700  1
  O  O90  1  0.40274700  0.65925500  0.92554900  1
  O  O91  1  0.37836000  0.97808800  0.76730300  1
  O  O92  1  0.49839000  0.63791300  0.82210700  1
  O  O93  1  0.53218500  0.62954700  0.53365500  1
  O  O94  1  0.51995900  0.91140700  0.67803000  1
  O  O95  1  0.69404000  0.17606100  0.80336000  1
  O  O96  1  0.56595700  0.99692100  0.96100400  1
  O  O97  1  0.72811800  0.60752400  0.73562100  1
  O  O98  1  0.69696000  0.89093100  0.87077500  1
  O  O99  1  0.91888300  0.62996700  0.93520800  1
