# generated using pymatgen
data_Ca18Eu2P12(SO16)3
_symmetry_space_group_name_H-M   'P 1'
_cell_length_a   6.68839200
_cell_length_b   9.84698355
_cell_length_c   17.02864833
_cell_angle_alpha   89.91123093
_cell_angle_beta   89.97296824
_cell_angle_gamma   89.98081022
_symmetry_Int_Tables_number   1
_chemical_formula_structural   Ca18Eu2P12(SO16)3
_chemical_formula_sum   'Ca18 Eu2 P12 S3 O48'
_cell_volume   1121.51352163
_cell_formula_units_Z   1
loop_
 _symmetry_equiv_pos_site_id
 _symmetry_equiv_pos_as_xyz
  1  'x, y, z'
loop_
 _atom_site_type_symbol
 _atom_site_label
 _atom_site_symmetry_multiplicity
 _atom_site_fract_x
 _atom_site_fract_y
 _atom_site_fract_z
 _atom_site_occupancy
  Ca  Ca0  1  0.23830000  0.13971900  0.12120200  1
  Ca  Ca1  1  0.00427900  0.50204300  0.16471900  1
  Ca  Ca2  1  0.51212700  0.49680800  0.16858600  1
  Ca  Ca3  1  0.25444400  0.61063200  0.36788200  1
  Ca  Ca4  1  0.25382600  0.63982300  0.62368300  1
  Ca  Ca5  1  0.24056900  0.74450700  0.00932500  1
  Ca  Ca6  1  0.76695700  0.88543300  0.12912400  1
  Ca  Ca7  1  0.49341000  0.99558000  0.33488300  1
  Ca  Ca8  1  0.00211500  0.00224000  0.32936200  1
  Ca  Ca9  1  0.00165000  0.99707300  0.66983100  1
  Ca  Ca10  1  0.51006900  0.00281400  0.66671900  1
  Ca  Ca11  1  0.23759000  0.11290700  0.86995400  1
  Ca  Ca12  1  0.76352100  0.25781500  0.99229000  1
  Ca  Ca13  1  0.75005900  0.35826400  0.37532000  1
  Ca  Ca14  1  0.74997700  0.38812800  0.63321600  1
  Ca  Ca15  1  0.48908900  0.50485100  0.83027800  1
  Ca  Ca16  1  0.99773100  0.49901900  0.83587500  1
  Ca  Ca17  1  0.76721400  0.86344500  0.87820900  1
  Eu  Eu18  1  0.75415200  0.74217100  0.49400200  1
  Eu  Eu19  1  0.25143900  0.25719900  0.50581300  1
  P  P20  1  0.25265900  0.32640700  0.29239300  1
  P  P21  1  0.25763600  0.39246700  0.01520700  1
  P  P22  1  0.75336600  0.72418400  0.30887200  1
  P  P23  1  0.25804800  0.78000200  0.18777600  1
  P  P24  1  0.25737400  0.82827200  0.79597900  1
  P  P25  1  0.25312300  0.89970000  0.51766700  1
  P  P26  1  0.75391000  0.10035700  0.48249800  1
  P  P27  1  0.74776500  0.17120400  0.20162700  1
  P  P28  1  0.74675800  0.21762100  0.81416100  1
  P  P29  1  0.25117300  0.27558700  0.69090200  1
  P  P30  1  0.74760000  0.61152000  0.98508200  1
  P  P31  1  0.75303300  0.67306600  0.70789000  1
  S  S32  1  0.00036500  0.49956400  0.50018500  1
  S  S33  1  0.00140100  0.00021400  0.99990000  1
  S  S34  1  0.50160800  0.49974100  0.50002900  1
  O  O35  1  0.06290600  0.32298600  0.04478900  1
  O  O36  1  0.43278300  0.29530500  0.03793900  1
  O  O37  1  0.75619100  0.32022000  0.17309700  1
  O  O38  1  0.25330200  0.32960300  0.20026100  1
  O  O39  1  0.43883300  0.40816900  0.31886000  1
  O  O40  1  0.06543900  0.40699400  0.31939300  1
  O  O41  1  0.27599100  0.52719000  0.06438700  1
  O  O42  1  0.75541600  0.57935100  0.07369400  1
  O  O43  1  0.75501800  0.60336400  0.25165000  1
  O  O44  1  0.27421800  0.63899600  0.23105500  1
  O  O45  1  0.56798900  0.72365300  0.36426100  1
  O  O46  1  0.94162300  0.72532900  0.36257900  1
  O  O47  1  0.43536600  0.79535100  0.12852100  1
  O  O48  1  0.06498200  0.76884300  0.13685500  1
  O  O49  1  0.06841800  0.81762500  0.54627700  1
  O  O50  1  0.44060600  0.81970500  0.54493800  1
  O  O51  1  0.75530600  0.81879500  0.67458500  1
  O  O52  1  0.27327300  0.83366400  0.70396600  1
  O  O53  1  0.74928300  0.86442100  0.26490200  1
  O  O54  1  0.25183300  0.89870500  0.24717900  1
  O  O55  1  0.43460500  0.90944300  0.83235000  1
  O  O56  1  0.06425900  0.90884900  0.81598800  1
  O  O57  1  0.25030800  0.92647600  0.42877300  1
  O  O58  1  0.75217800  0.96470100  0.43415200  1
  O  O59  1  0.25243200  0.03518400  0.56623400  1
  O  O60  1  0.75609000  0.07402500  0.57131000  1
  O  O61  1  0.57610900  0.09118400  0.16104500  1
  O  O62  1  0.94370100  0.09138400  0.18507500  1
  O  O63  1  0.75627600  0.09977000  0.75410900  1
  O  O64  1  0.25354900  0.13572000  0.73479400  1
  O  O65  1  0.72319300  0.16516400  0.29348800  1
  O  O66  1  0.25227800  0.18007900  0.32506400  1
  O  O67  1  0.93843000  0.18028200  0.45297100  1
  O  O68  1  0.56787400  0.18140600  0.45560100  1
  O  O69  1  0.57508500  0.19568200  0.87465600  1
  O  O70  1  0.94202800  0.23484500  0.86299200  1
  O  O71  1  0.43752100  0.27449600  0.63615400  1
  O  O72  1  0.06457600  0.27606200  0.63690000  1
  O  O73  1  0.72099600  0.35760500  0.77057000  1
  O  O74  1  0.25008700  0.39589900  0.74820700  1
  O  O75  1  0.25224500  0.42298400  0.92617800  1
  O  O76  1  0.72005700  0.47708700  0.93600100  1
  O  O77  1  0.56773300  0.59177900  0.67988600  1
  O  O78  1  0.94072500  0.59116500  0.68322600  1
  O  O79  1  0.74801200  0.67110400  0.79992600  1
  O  O80  1  0.25048200  0.68010600  0.82564900  1
  O  O81  1  0.94434200  0.67515400  0.95388300  1
  O  O82  1  0.57750900  0.71372000  0.96519200  1
