# generated using pymatgen
data_Ta2W2O11
_symmetry_space_group_name_H-M   'P 1'
_cell_length_a   7.34349069
_cell_length_b   7.34349069
_cell_length_c   13.93528022
_cell_angle_alpha   69.72065413
_cell_angle_beta   69.72065413
_cell_angle_gamma   59.72781197
_symmetry_Int_Tables_number   1
_chemical_formula_structural   Ta2W2O11
_chemical_formula_sum   'Ta4 W4 O22'
_cell_volume   594.92429601
_cell_formula_units_Z   2
loop_
 _symmetry_equiv_pos_site_id
 _symmetry_equiv_pos_as_xyz
  1  'x, y, z'
loop_
 _atom_site_type_symbol
 _atom_site_label
 _atom_site_symmetry_multiplicity
 _atom_site_fract_x
 _atom_site_fract_y
 _atom_site_fract_z
 _atom_site_occupancy
  Ta  Ta0  1  0.00696900  0.47338900  0.54043500  1
  Ta  Ta1  1  0.69191200  0.77892200  0.22841800  1
  Ta  Ta2  1  0.52661100  0.99303100  0.45956500  1
  Ta  Ta3  1  0.22107800  0.30808800  0.77158200  1
  W  W4  1  0.00674400  0.99325600  0.00000000  1
  W  W5  1  0.50216300  0.00909800  0.98707100  1
  W  W6  1  0.99090200  0.49783700  0.01292900  1
  W  W7  1  0.51955700  0.48044300  0.50000000  1
  O  O8  1  0.28238500  0.90914400  0.02419300  1
  O  O9  1  0.61937400  0.58512300  0.34963900  1
  O  O10  1  0.91069000  0.27619800  0.02854000  1
  O  O11  1  0.78992600  0.39950000  0.52857800  1
  O  O12  1  0.88445600  0.53218000  0.15110700  1
  O  O13  1  0.22887900  0.21049600  0.49101100  1
  O  O14  1  0.11385900  0.09311800  0.85440400  1
  O  O15  1  0.59601100  0.98300100  0.31875400  1
  O  O16  1  0.27585800  0.28198100  0.02384700  1
  O  O17  1  0.49402800  0.91333900  0.14603100  1
  O  O18  1  0.60050000  0.21007400  0.47142200  1
  O  O19  1  0.42537400  0.77049600  0.51632300  1
  O  O20  1  0.46782000  0.11554400  0.84889300  1
  O  O21  1  0.71801900  0.72414200  0.97615300  1
  O  O22  1  0.78950400  0.77112100  0.50898900  1
  O  O23  1  0.90688200  0.88614100  0.14559600  1
  O  O24  1  0.08666100  0.50597200  0.85396900  1
  O  O25  1  0.22950400  0.57462600  0.48367700  1
  O  O26  1  0.01699900  0.40398900  0.68124600  1
  O  O27  1  0.09085600  0.71761500  0.97580700  1
  O  O28  1  0.41487700  0.38062600  0.65036100  1
  O  O29  1  0.72380200  0.08931000  0.97146000  1
