# generated using pymatgen
data_Mg54Ag17
_symmetry_space_group_name_H-M   'P 1'
_cell_length_a   12.44401331
_cell_length_b   12.44401331
_cell_length_c   12.44401331
_cell_angle_alpha   110.60566709
_cell_angle_beta   110.18673783
_cell_angle_gamma   107.63696627
_symmetry_Int_Tables_number   1
_chemical_formula_structural   Mg54Ag17
_chemical_formula_sum   'Mg54 Ag17'
_cell_volume   1482.24799019
_cell_formula_units_Z   1
loop_
 _symmetry_equiv_pos_site_id
 _symmetry_equiv_pos_as_xyz
  1  'x, y, z'
loop_
 _atom_site_type_symbol
 _atom_site_label
 _atom_site_symmetry_multiplicity
 _atom_site_fract_x
 _atom_site_fract_y
 _atom_site_fract_z
 _atom_site_occupancy
  Mg  Mg0  1  0.39374000  0.12657500  0.52031500  1
  Mg  Mg1  1  0.60626000  0.12657500  0.73283500  1
  Mg  Mg2  1  0.39374000  0.87342500  0.26716500  1
  Mg  Mg3  1  0.60626000  0.87342500  0.47968500  1
  Mg  Mg4  1  0.10814800  0.32501700  0.43316500  1
  Mg  Mg5  1  0.89185200  0.32501700  0.21686900  1
  Mg  Mg6  1  0.10814800  0.67498300  0.78313100  1
  Mg  Mg7  1  0.89185200  0.67498300  0.56683500  1
  Mg  Mg8  1  0.08495500  0.90153700  0.18341700  1
  Mg  Mg9  1  0.91504500  0.09846300  0.81658300  1
  Mg  Mg10  1  0.28188000  0.09846300  0.18341700  1
  Mg  Mg11  1  0.71812000  0.90153700  0.81658300  1
  Mg  Mg12  1  0.92416400  0.60324700  0.32091700  1
  Mg  Mg13  1  0.07583600  0.39675300  0.67908300  1
  Mg  Mg14  1  0.71767000  0.39675300  0.32091700  1
  Mg  Mg15  1  0.28233000  0.60324700  0.67908300  1
  Mg  Mg16  1  0.83134400  0.22038000  0.38903700  1
  Mg  Mg17  1  0.61540700  0.50000000  0.11540700  1
  Mg  Mg18  1  0.38459300  0.50000000  0.88459300  1
  Mg  Mg19  1  0.41830900  0.41992000  0.62104900  1
  Mg  Mg20  1  0.58169100  0.20274000  0.00161100  1
  Mg  Mg21  1  0.20112900  0.58008000  0.99838900  1
  Mg  Mg22  1  0.79887100  0.79726000  0.37895100  1
  Mg  Mg23  1  0.58169100  0.58008000  0.37895100  1
  Mg  Mg24  1  0.41830900  0.79726000  0.99838900  1
  Mg  Mg25  1  0.79887100  0.41992000  0.00161100  1
  Mg  Mg26  1  0.20112900  0.20274000  0.62104900  1
  Mg  Mg27  1  0.70739000  0.62829200  0.69376900  1
  Mg  Mg28  1  0.29261000  0.98637900  0.92090200  1
  Mg  Mg29  1  0.06547700  0.37170800  0.07909800  1
  Mg  Mg30  1  0.93452300  0.01362100  0.30623100  1
  Mg  Mg31  1  0.29261000  0.37170800  0.30623100  1
  Mg  Mg32  1  0.70739000  0.01362100  0.07909800  1
  Mg  Mg33  1  0.93452300  0.62829200  0.92090200  1
  Mg  Mg34  1  0.06547700  0.98637900  0.69376900  1
  Mg  Mg35  1  0.46743600  0.66738800  0.56297800  1
  Mg  Mg36  1  0.53256400  0.09554200  0.19995200  1
  Mg  Mg37  1  0.89559000  0.33261200  0.80004800  1
  Mg  Mg38  1  0.10441000  0.90445800  0.43702200  1
  Mg  Mg39  1  0.53256400  0.33261200  0.43702200  1
  Mg  Mg40  1  0.46743600  0.90445800  0.80004800  1
  Mg  Mg41  1  0.10441000  0.66738800  0.19995200  1
  Mg  Mg42  1  0.89559000  0.09554200  0.56297800  1
  Mg  Mg43  1  0.00000000  0.88597200  0.88597200  1
  Mg  Mg44  1  0.00000000  0.11402800  0.11402800  1
  Mg  Mg45  1  0.35463800  0.85463800  0.50000000  1
  Mg  Mg46  1  0.64536200  0.14536200  0.50000000  1
  Mg  Mg47  1  0.66440000  0.56224400  0.89784400  1
  Mg  Mg48  1  0.33560000  0.23344300  0.89784400  1
  Mg  Mg49  1  0.33560000  0.43775600  0.10215600  1
  Mg  Mg50  1  0.66440000  0.76655700  0.10215600  1
  Mg  Mg51  1  0.83134400  0.44230700  0.61096300  1
  Mg  Mg52  1  0.16865600  0.77962000  0.61096300  1
  Mg  Mg53  1  0.16865600  0.55769300  0.38903700  1
  Ag  Ag54  1  0.20753100  0.16790300  0.37543400  1
  Ag  Ag55  1  0.79246900  0.16790300  0.96037100  1
  Ag  Ag56  1  0.20753100  0.83209700  0.03962900  1
  Ag  Ag57  1  0.79246900  0.83209700  0.62456600  1
  Ag  Ag58  1  0.87734800  0.70987800  0.16747000  1
  Ag  Ag59  1  0.12265200  0.29012200  0.83253000  1
  Ag  Ag60  1  0.45759200  0.29012200  0.16747000  1
  Ag  Ag61  1  0.54240800  0.70987800  0.83253000  1
  Ag  Ag62  1  0.66668700  0.96585900  0.29917200  1
  Ag  Ag63  1  0.33331300  0.63248600  0.29917200  1
  Ag  Ag64  1  0.33331300  0.03414100  0.70082800  1
  Ag  Ag65  1  0.66668700  0.36751400  0.70082800  1
  Ag  Ag66  1  0.16871900  0.16871900  0.00000000  1
  Ag  Ag67  1  0.83128100  0.83128100  0.00000000  1
  Ag  Ag68  1  0.50000000  0.68911000  0.18911000  1
  Ag  Ag69  1  0.50000000  0.31089000  0.81089000  1
  Ag  Ag70  1  0.00000000  0.50000000  0.50000000  1
