# generated using pymatgen
data_SrMg2Al6(Si3O10)3
_symmetry_space_group_name_H-M   'P 1'
_cell_length_a   10.25837000
_cell_length_b   10.26730399
_cell_length_c   14.35633776
_cell_angle_alpha   89.43826583
_cell_angle_beta   89.29227046
_cell_angle_gamma   60.52819053
_symmetry_Int_Tables_number   1
_chemical_formula_structural   SrMg2Al6(Si3O10)3
_chemical_formula_sum   'Sr2 Mg4 Al12 Si18 O60'
_cell_volume   1316.31228899
_cell_formula_units_Z   2
loop_
 _symmetry_equiv_pos_site_id
 _symmetry_equiv_pos_as_xyz
  1  'x, y, z'
loop_
 _atom_site_type_symbol
 _atom_site_label
 _atom_site_symmetry_multiplicity
 _atom_site_fract_x
 _atom_site_fract_y
 _atom_site_fract_z
 _atom_site_occupancy
  Sr  Sr0  1  0.97483100  0.02015100  0.76127300  1
  Sr  Sr1  1  0.01548600  0.99927100  0.25675500  1
  Mg  Mg2  1  0.67174600  0.66222400  0.75096900  1
  Mg  Mg3  1  0.67233700  0.66661200  0.25097700  1
  Mg  Mg4  1  0.32575000  0.33860800  0.75052500  1
  Mg  Mg5  1  0.32561700  0.33201700  0.25199600  1
  Al  Al6  1  0.89967100  0.76433000  0.38627300  1
  Al  Al7  1  0.99750800  0.50027300  0.24874400  1
  Al  Al8  1  0.49694700  0.99591700  0.75210200  1
  Al  Al9  1  0.63641500  0.25380800  0.88933900  1
  Al  Al10  1  0.50446800  0.49386900  0.25428100  1
  Al  Al11  1  0.49049100  0.50640300  0.74638900  1
  Al  Al12  1  0.49918100  0.00225300  0.24842800  1
  Al  Al13  1  0.10397600  0.65964300  0.88815400  1
  Al  Al14  1  0.24601100  0.10818500  0.11074200  1
  Al  Al15  1  0.00838200  0.49810700  0.75108200  1
  Al  Al16  1  0.10179300  0.23185600  0.38609900  1
  Al  Al17  1  0.10438700  0.23412000  0.61365200  1
  Si  Si18  1  0.90169200  0.75939400  0.61196100  1
  Si  Si19  1  0.75397900  0.90336500  0.10796300  1
  Si  Si20  1  0.75005400  0.89912800  0.88672800  1
  Si  Si21  1  0.90389100  0.33798300  0.88786700  1
  Si  Si22  1  0.89693300  0.34214200  0.11001600  1
  Si  Si23  1  0.75245000  0.34861400  0.61118700  1
  Si  Si24  1  0.74943100  0.35138600  0.39230700  1
  Si  Si25  1  0.35784500  0.89132800  0.39096900  1
  Si  Si26  1  0.35260900  0.89454900  0.60919600  1
  Si  Si27  1  0.63946400  0.25347700  0.11010400  1
  Si  Si28  1  0.35407000  0.74947800  0.11062400  1
  Si  Si29  1  0.35133400  0.75807100  0.89031100  1
  Si  Si30  1  0.64692800  0.10471700  0.39120200  1
  Si  Si31  1  0.64984000  0.09708900  0.60942500  1
  Si  Si32  1  0.25128900  0.64495000  0.38965500  1
  Si  Si33  1  0.24762100  0.64525400  0.60413300  1
  Si  Si34  1  0.10095000  0.66088800  0.11173400  1
  Si  Si35  1  0.25123300  0.10895700  0.89189100  1
  O  O36  1  0.92336900  0.79959000  0.85665700  1
  O  O37  1  0.93128900  0.80282000  0.13582300  1
  O  O38  1  0.79761900  0.93842600  0.64289300  1
  O  O39  1  0.79929700  0.95793000  0.35591300  1
  O  O40  1  0.88160300  0.73644300  0.50461000  1
  O  O41  1  0.86783400  0.65212700  0.68263500  1
  O  O42  1  0.86056200  0.64980700  0.31499400  1
  O  O43  1  0.72450100  0.88368500  0.99919200  1
  O  O44  1  0.86914400  0.48358300  0.82237700  1
  O  O45  1  0.86516900  0.48800900  0.17243500  1
  O  O46  1  0.89187900  0.38012700  0.99835600  1
  O  O47  1  0.64878200  0.86506300  0.17672800  1
  O  O48  1  0.64120900  0.85674100  0.82454000  1
  O  O49  1  0.92143800  0.25278000  0.35715600  1
  O  O50  1  0.92278000  0.26268800  0.64743300  1
  O  O51  1  0.79774900  0.26891100  0.86043500  1
  O  O52  1  0.76950800  0.29578200  0.13734300  1
  O  O53  1  0.49581800  0.85689100  0.67712400  1
  O  O54  1  0.49932900  0.85953700  0.32188100  1
  O  O55  1  0.73328500  0.40139900  0.50173100  1
  O  O56  1  0.64425800  0.49312400  0.67731600  1
  O  O57  1  0.64929700  0.49540400  0.32330600  1
  O  O58  1  0.39563300  0.90383300  0.49980000  1
  O  O59  1  0.69563400  0.22531900  0.62793700  1
  O  O60  1  0.66858400  0.25031700  0.37653900  1
  O  O61  1  0.49038200  0.64814900  0.82036100  1
  O  O62  1  0.49489800  0.63735500  0.17754900  1
  O  O63  1  0.39452600  0.71032500  0.99986400  1
  O  O64  1  0.71830900  0.07319900  0.13421200  1
  O  O65  1  0.70812900  0.06737000  0.85667700  1
  O  O66  1  0.30006700  0.92068300  0.13505000  1
  O  O67  1  0.31361600  0.93032900  0.87329700  1
  O  O68  1  0.58664200  0.28906600  0.00520500  1
  O  O69  1  0.49182200  0.36602300  0.81540000  1
  O  O70  1  0.50595900  0.34922800  0.18541100  1
  O  O71  1  0.31323600  0.75895400  0.61828500  1
  O  O72  1  0.32925400  0.74973500  0.37818300  1
  O  O73  1  0.61229700  0.09107500  0.50108700  1
  O  O74  1  0.34980400  0.50690000  0.67265500  1
  O  O75  1  0.35259400  0.50284300  0.32204500  1
  O  O76  1  0.26260700  0.58885700  0.49738200  1
  O  O77  1  0.50990500  0.12738500  0.67642200  1
  O  O78  1  0.50605900  0.13167600  0.32750800  1
  O  O79  1  0.20169500  0.75623200  0.85687300  1
  O  O80  1  0.20929500  0.72963500  0.14375000  1
  O  O81  1  0.07074900  0.73396400  0.63687200  1
  O  O82  1  0.07908400  0.74237500  0.35656800  1
  O  O83  1  0.35992100  0.14478000  0.18186200  1
  O  O84  1  0.35370200  0.14333200  0.81874000  1
  O  O85  1  0.12186600  0.61686100  0.00513900  1
  O  O86  1  0.14330600  0.50676100  0.81998700  1
  O  O87  1  0.13190900  0.52169700  0.18002400  1
  O  O88  1  0.26699100  0.14752200  0.99621800  1
  O  O89  1  0.13987800  0.35162900  0.68296400  1
  O  O90  1  0.13372700  0.34916400  0.31130800  1
  O  O91  1  0.12455200  0.25703800  0.49892900  1
  O  O92  1  0.20799000  0.04213300  0.64994400  1
  O  O93  1  0.20761600  0.03760300  0.35274500  1
  O  O94  1  0.07251200  0.19572400  0.86052300  1
  O  O95  1  0.05291900  0.19564100  0.14075400  1
