# generated using pymatgen
data_Yb(BiTe2)2
_symmetry_space_group_name_H-M   'P 1'
_cell_length_a   8.61326055
_cell_length_b   8.61326055
_cell_length_c   8.61326055
_cell_angle_alpha   109.36459427
_cell_angle_beta   109.36459427
_cell_angle_gamma   109.68468448
_symmetry_Int_Tables_number   1
_chemical_formula_structural   Yb(BiTe2)2
_chemical_formula_sum   'Yb2 Bi4 Te8'
_cell_volume   491.89945321
_cell_formula_units_Z   2
loop_
 _symmetry_equiv_pos_site_id
 _symmetry_equiv_pos_as_xyz
  1  'x, y, z'
loop_
 _atom_site_type_symbol
 _atom_site_label
 _atom_site_symmetry_multiplicity
 _atom_site_fract_x
 _atom_site_fract_y
 _atom_site_fract_z
 _atom_site_occupancy
  Yb  Yb0  1  0.00000000  0.00000000  0.00000000  1
  Yb  Yb1  1  0.25000000  0.75000000  0.50000000  1
  Bi  Bi2  1  0.12500000  0.39056700  0.76556700  1
  Bi  Bi3  1  0.60943300  0.37500000  0.73443300  1
  Bi  Bi4  1  0.62500000  0.35943300  0.23443300  1
  Bi  Bi5  1  0.64056700  0.87500000  0.26556700  1
  Te  Te6  1  0.91448500  0.62830900  0.66821700  1
  Te  Te7  1  0.33551500  0.50373200  0.21382300  1
  Te  Te8  1  0.96009100  0.24626800  0.33178300  1
  Te  Te9  1  0.28990900  0.12169100  0.78617700  1
  Te  Te10  1  0.37169100  0.03990900  0.28617700  1
  Te  Te11  1  0.49626800  0.71009100  0.83178300  1
  Te  Te12  1  0.87830900  0.66448500  0.16821700  1
  Te  Te13  1  0.75373200  0.08551500  0.71382300  1
