# generated using pymatgen
data_Na(CoO2)3
_symmetry_space_group_name_H-M   'P 1'
_cell_length_a   6.89936744
_cell_length_b   3.98335204
_cell_length_c   8.02422197
_cell_angle_alpha   75.62850121
_cell_angle_beta   73.34512556
_cell_angle_gamma   29.99999966
_symmetry_Int_Tables_number   1
_chemical_formula_structural   Na(CoO2)3
_chemical_formula_sum   'Na2 Co6 O12'
_cell_volume   105.63757002
_cell_formula_units_Z   2
loop_
 _symmetry_equiv_pos_site_id
 _symmetry_equiv_pos_as_xyz
  1  'x, y, z'
loop_
 _atom_site_type_symbol
 _atom_site_label
 _atom_site_symmetry_multiplicity
 _atom_site_fract_x
 _atom_site_fract_y
 _atom_site_fract_z
 _atom_site_occupancy
  Na  Na0  1  0.08502100  0.33333300  0.74493600  1
  Na  Na1  1  0.74831200  0.33333300  0.75506400  1
  Co  Co2  1  0.99038100  0.93955600  0.07026400  1
  Co  Co3  1  0.23673000  0.93955600  0.42973600  1
  Co  Co4  1  0.34275100  0.98096300  0.07026400  1
  Co  Co5  1  0.59660400  0.07948100  0.07026400  1
  Co  Co6  1  0.49058200  0.07948100  0.42973600  1
  Co  Co7  1  0.84295200  0.98096300  0.42973600  1
  O  O8  1  0.94568800  0.33333300  0.16293700  1
  O  O9  1  0.58676900  0.33333300  0.23969300  1
  O  O10  1  0.75242800  0.55785500  0.92631300  1
  O  O11  1  0.85638400  0.55785500  0.57368700  1
  O  O12  1  0.44309700  0.33333300  0.67071000  1
  O  O13  1  0.39023600  0.33333300  0.82929000  1
  O  O14  1  0.97695000  0.70069200  0.92631300  1
  O  O15  1  0.08090500  0.74145400  0.57368700  1
  O  O16  1  0.24656400  0.33333300  0.26030700  1
  O  O17  1  0.88764600  0.33333300  0.33706300  1
  O  O18  1  0.34430900  0.74145400  0.92631300  1
  O  O19  1  0.48902400  0.70069200  0.57368700  1
