# generated using pymatgen
data_AgCNO
_symmetry_space_group_name_H-M   'P 1'
_cell_length_a   6.63437000
_cell_length_b   3.63504800
_cell_length_c   5.86397429
_cell_angle_alpha   86.32681575
_cell_angle_beta   90.00000000
_cell_angle_gamma   90.00000000
_symmetry_Int_Tables_number   1
_chemical_formula_structural   AgCNO
_chemical_formula_sum   'Ag2 C2 N2 O2'
_cell_volume   141.12657853
_cell_formula_units_Z   2
loop_
 _symmetry_equiv_pos_site_id
 _symmetry_equiv_pos_as_xyz
  1  'x, y, z'
loop_
 _atom_site_type_symbol
 _atom_site_label
 _atom_site_symmetry_multiplicity
 _atom_site_fract_x
 _atom_site_fract_y
 _atom_site_fract_z
 _atom_site_occupancy
  Ag  Ag0  1  0.50000000  0.00000000  0.00000000  1
  Ag  Ag1  1  0.00000000  0.00000000  0.00000000  1
  C  C2  1  0.75000000  0.70463500  0.40071500  1
  C  C3  1  0.25000000  0.29536500  0.59928500  1
  N  N4  1  0.25000000  0.15814800  0.79362300  1
  N  N5  1  0.75000000  0.84185200  0.20637700  1
  O  O6  1  0.25000000  0.43130500  0.40817200  1
  O  O7  1  0.75000000  0.56869500  0.59182800  1
