# generated using pymatgen
data_Al12Si12Ag16S5O48
_symmetry_space_group_name_H-M   'P 1'
_cell_length_a   8.98361100
_cell_length_b   9.03001855
_cell_length_c   17.95618855
_cell_angle_alpha   90.06357742
_cell_angle_beta   90.17567337
_cell_angle_gamma   90.08758689
_symmetry_Int_Tables_number   1
_chemical_formula_structural   Al12Si12Ag16S5O48
_chemical_formula_sum   'Al12 Si12 Ag16 S5 O48'
_cell_volume   1456.63559845
_cell_formula_units_Z   1
loop_
 _symmetry_equiv_pos_site_id
 _symmetry_equiv_pos_as_xyz
  1  'x, y, z'
loop_
 _atom_site_type_symbol
 _atom_site_label
 _atom_site_symmetry_multiplicity
 _atom_site_fract_x
 _atom_site_fract_y
 _atom_site_fract_z
 _atom_site_occupancy
  Al  Al0  1  0.75001800  0.00224400  0.24693200  1
  Al  Al1  1  0.25016900  0.00336500  0.75117400  1
  Al  Al2  1  0.75009100  0.00138500  0.75083100  1
  Al  Al3  1  0.49995400  0.75315400  0.99896900  1
  Al  Al4  1  0.50179400  0.74966100  0.50037900  1
  Al  Al5  1  0.99967800  0.50122400  0.37263300  1
  Al  Al6  1  0.99804100  0.50003400  0.12329300  1
  Al  Al7  1  0.00097200  0.50093700  0.62599800  1
  Al  Al8  1  0.00280900  0.50027900  0.87453600  1
  Al  Al9  1  0.49906900  0.25428000  0.99894200  1
  Al  Al10  1  0.49862400  0.25119700  0.50047500  1
  Al  Al11  1  0.25084500  0.00181000  0.24672800  1
  Si  Si12  1  0.50049300  0.00421800  0.12306500  1
  Si  Si13  1  0.99941900  0.75138800  0.24731600  1
  Si  Si14  1  0.00097000  0.75212700  0.75027800  1
  Si  Si15  1  0.74933600  0.50186700  0.99943800  1
  Si  Si16  1  0.74911900  0.50097700  0.50023700  1
  Si  Si17  1  0.25084300  0.50078600  0.99859100  1
  Si  Si18  1  0.25132400  0.49975000  0.50021600  1
  Si  Si19  1  0.99977800  0.25120800  0.24702400  1
  Si  Si20  1  0.00080400  0.25151500  0.75068500  1
  Si  Si21  1  0.50027100  0.00053800  0.37354700  1
  Si  Si22  1  0.49956300  0.00062100  0.62597100  1
  Si  Si23  1  0.49927600  0.00463900  0.87486200  1
  Ag  Ag24  1  0.16066200  0.83368600  0.07658100  1
  Ag  Ag25  1  0.18163000  0.82113200  0.59051000  1
  Ag  Ag26  1  0.81718200  0.81926700  0.40762500  1
  Ag  Ag27  1  0.83569400  0.83422100  0.91887300  1
  Ag  Ag28  1  0.33902100  0.66083400  0.32729100  1
  Ag  Ag29  1  0.64519800  0.65012500  0.17165800  1
  Ag  Ag30  1  0.34649800  0.65465600  0.82859600  1
  Ag  Ag31  1  0.65957700  0.65643500  0.67676800  1
  Ag  Ag32  1  0.35082400  0.35705600  0.17125100  1
  Ag  Ag33  1  0.66105100  0.34102700  0.32670600  1
  Ag  Ag34  1  0.34335100  0.34268300  0.67758900  1
  Ag  Ag35  1  0.65321100  0.34754100  0.82772800  1
  Ag  Ag36  1  0.18243200  0.18242800  0.40744500  1
  Ag  Ag37  1  0.83812400  0.15370500  0.06953300  1
  Ag  Ag38  1  0.15044200  0.15324800  0.92261600  1
  Ag  Ag39  1  0.81834100  0.18087300  0.59090500  1
  S  S40  1  0.00240900  0.89294400  0.49765300  1
  S  S41  1  0.49967100  0.50273100  0.75056200  1
  S  S42  1  0.49978100  0.50244100  0.25698100  1
  S  S43  1  0.00479700  0.99471700  0.00143000  1
  S  S44  1  0.99739600  0.11108400  0.49740900  1
  O  O45  1  0.63678500  0.93757400  0.17415200  1
  O  O46  1  0.36010000  0.94166100  0.32322500  1
  O  O47  1  0.63939700  0.93982200  0.67567600  1
  O  O48  1  0.36321200  0.93859400  0.82356400  1
  O  O49  1  0.43580300  0.86743000  0.07197500  1
  O  O50  1  0.43774200  0.86328000  0.57385900  1
  O  O51  1  0.56119500  0.86322000  0.42593700  1
  O  O52  1  0.56424700  0.86798500  0.92602200  1
  O  O53  1  0.13736500  0.85345700  0.21688100  1
  O  O54  1  0.13866600  0.85521200  0.71870500  1
  O  O55  1  0.86163900  0.85390100  0.27935600  1
  O  O56  1  0.86423500  0.85537300  0.78161600  1
  O  O57  1  0.06079000  0.65042100  0.31760700  1
  O  O58  1  0.93476800  0.64818000  0.17966300  1
  O  O59  1  0.06326300  0.64974900  0.81816700  1
  O  O60  1  0.93941000  0.65146100  0.68016900  1
  O  O61  1  0.35464400  0.63667400  0.47071500  1
  O  O62  1  0.64899600  0.64137900  0.02978400  1
  O  O63  1  0.35236700  0.63954900  0.96831900  1
  O  O64  1  0.65175400  0.64194800  0.53110700  1
  O  O65  1  0.14397900  0.56272900  0.06601000  1
  O  O66  1  0.14851700  0.56090800  0.56899800  1
  O  O67  1  0.85146900  0.55867800  0.43033500  1
  O  O68  1  0.85648700  0.56265600  0.93201700  1
  O  O69  1  0.14855300  0.44308400  0.42991900  1
  O  O70  1  0.15315600  0.43584300  0.92853100  1
  O  O71  1  0.84820100  0.43585400  0.06891500  1
  O  O72  1  0.85254900  0.44068300  0.56919000  1
  O  O73  1  0.35325200  0.36629800  0.03212200  1
  O  O74  1  0.64633200  0.36349200  0.47080100  1
  O  O75  1  0.64552300  0.36691700  0.96654000  1
  O  O76  1  0.34831700  0.35884500  0.53093600  1
  O  O77  1  0.06519400  0.35473900  0.17993100  1
  O  O78  1  0.93803000  0.35208700  0.31735500  1
  O  O79  1  0.06252000  0.35144900  0.68058700  1
  O  O80  1  0.93546500  0.35438800  0.81770100  1
  O  O81  1  0.13797300  0.14905800  0.27923500  1
  O  O82  1  0.13769800  0.15008200  0.78277100  1
  O  O83  1  0.86286700  0.14907000  0.21583400  1
  O  O84  1  0.86333000  0.14785600  0.71844500  1
  O  O85  1  0.43857200  0.13712100  0.42610500  1
  O  O86  1  0.43469300  0.14283700  0.92480600  1
  O  O87  1  0.56550000  0.14148500  0.07230400  1
  O  O88  1  0.56198800  0.13696700  0.57374700  1
  O  O89  1  0.36026800  0.06281100  0.67542900  1
  O  O90  1  0.36408300  0.06863100  0.17463500  1
  O  O91  1  0.64066900  0.06004500  0.32387400  1
  O  O92  1  0.63788400  0.06648400  0.82359600  1
