# generated using pymatgen
data_RbHF2
_symmetry_space_group_name_H-M   'P 1'
_cell_length_a   5.60161772
_cell_length_b   5.60161772
_cell_length_c   5.60161772
_cell_angle_alpha   116.33680371
_cell_angle_beta   115.27242579
_cell_angle_gamma   97.43667462
_symmetry_Int_Tables_number   1
_chemical_formula_structural   RbHF2
_chemical_formula_sum   'Rb2 H2 F4'
_cell_volume   130.96010008
_cell_formula_units_Z   2
loop_
 _symmetry_equiv_pos_site_id
 _symmetry_equiv_pos_as_xyz
  1  'x, y, z'
loop_
 _atom_site_type_symbol
 _atom_site_label
 _atom_site_symmetry_multiplicity
 _atom_site_fract_x
 _atom_site_fract_y
 _atom_site_fract_z
 _atom_site_occupancy
  Rb  Rb0  1  0.11843800  0.00000000  0.11843800  1
  Rb  Rb1  1  0.61843800  0.50000000  0.11843800  1
  H  H2  1  0.35985200  0.75378500  0.61363700  1
  H  H3  1  0.85985200  0.24621500  0.60606700  1
  F  F4  1  0.72892700  0.10223000  0.33115700  1
  F  F5  1  0.22892700  0.89777000  0.62669800  1
  F  F6  1  0.48778200  0.61042400  0.59820600  1
  F  F7  1  0.98778200  0.38957600  0.87735800  1
