# generated using pymatgen
data_LiP3N2O11
_symmetry_space_group_name_H-M   'P 1'
_cell_length_a   8.46919414
_cell_length_b   16.60255200
_cell_length_c   7.61765764
_cell_angle_alpha   90.00000000
_cell_angle_beta   104.98787902
_cell_angle_gamma   90.00000000
_symmetry_Int_Tables_number   1
_chemical_formula_structural   LiP3N2O11
_chemical_formula_sum   'Li4 P12 N8 O44'
_cell_volume   1034.68171325
_cell_formula_units_Z   4
loop_
 _symmetry_equiv_pos_site_id
 _symmetry_equiv_pos_as_xyz
  1  'x, y, z'
loop_
 _atom_site_type_symbol
 _atom_site_label
 _atom_site_symmetry_multiplicity
 _atom_site_fract_x
 _atom_site_fract_y
 _atom_site_fract_z
 _atom_site_occupancy
  Li  Li0  1  0.41617600  0.22303500  0.82481700  1
  Li  Li1  1  0.58382400  0.72303500  0.67518300  1
  Li  Li2  1  0.58382400  0.77696500  0.17518300  1
  Li  Li3  1  0.41617600  0.27696500  0.32481700  1
  P  P4  1  0.49059000  0.11841300  0.14570800  1
  P  P5  1  0.50941000  0.61841300  0.35429200  1
  P  P6  1  0.50941000  0.88158700  0.85429200  1
  P  P7  1  0.49059000  0.38158700  0.64570800  1
  P  P8  1  0.16686800  0.10133900  0.88880500  1
  P  P9  1  0.83313200  0.60133900  0.61119500  1
  P  P10  1  0.83313200  0.89866100  0.11119500  1
  P  P11  1  0.16686800  0.39866100  0.38880500  1
  P  P12  1  0.75151300  0.01303400  0.36385900  1
  P  P13  1  0.24848700  0.51303400  0.13614100  1
  P  P14  1  0.24848700  0.98696600  0.63614100  1
  P  P15  1  0.75151300  0.48696600  0.86385900  1
  N  N16  1  0.02375400  0.18862500  0.11612700  1
  N  N17  1  0.97624600  0.68862500  0.38387300  1
  N  N18  1  0.97624600  0.81137500  0.88387300  1
  N  N19  1  0.02375400  0.31137500  0.61612700  1
  N  N20  1  0.72219800  0.37377100  0.13282500  1
  N  N21  1  0.27780200  0.87377100  0.36717500  1
  N  N22  1  0.27780200  0.62622900  0.86717500  1
  N  N23  1  0.72219800  0.12622900  0.63282500  1
  O  O24  1  0.55064600  0.15158900  0.99181100  1
  O  O25  1  0.44935400  0.65158900  0.50818900  1
  O  O26  1  0.44935400  0.84841100  0.00818900  1
  O  O27  1  0.55064600  0.34841100  0.49181100  1
  O  O28  1  0.48567900  0.17209900  0.30228200  1
  O  O29  1  0.51432100  0.67209900  0.19771800  1
  O  O30  1  0.51432100  0.82790100  0.69771800  1
  O  O31  1  0.48567900  0.32790100  0.80228200  1
  O  O32  1  0.30655600  0.07900200  0.06699700  1
  O  O33  1  0.69344400  0.57900200  0.43300300  1
  O  O34  1  0.69344400  0.92099800  0.93300300  1
  O  O35  1  0.30655600  0.42099800  0.56699700  1
  O  O36  1  0.14041000  0.01984000  0.77139400  1
  O  O37  1  0.85959000  0.51984000  0.72860600  1
  O  O38  1  0.85959000  0.98016000  0.22860600  1
  O  O39  1  0.14041000  0.48016000  0.27139400  1
  O  O40  1  0.20800200  0.17348900  0.79304000  1
  O  O41  1  0.79199800  0.67348900  0.70696000  1
  O  O42  1  0.79199800  0.82651100  0.20696000  1
  O  O43  1  0.20800200  0.32651100  0.29304000  1
  O  O44  1  0.00356900  0.10837300  0.94745300  1
  O  O45  1  0.99643100  0.60837300  0.55254700  1
  O  O46  1  0.99643100  0.89162700  0.05254700  1
  O  O47  1  0.00356900  0.39162700  0.44745300  1
  O  O48  1  0.27775800  0.04820100  0.50754800  1
  O  O49  1  0.72224200  0.54820100  0.99245200  1
  O  O50  1  0.72224200  0.95179900  0.49245200  1
  O  O51  1  0.27775800  0.45179900  0.00754800  1
  O  O52  1  0.83227300  0.09302400  0.44208000  1
  O  O53  1  0.16772700  0.59302400  0.05792000  1
  O  O54  1  0.16772700  0.90697600  0.55792000  1
  O  O55  1  0.83227300  0.40697600  0.94208000  1
  O  O56  1  0.58163300  0.03481900  0.21612900  1
  O  O57  1  0.41836700  0.53481900  0.28387100  1
  O  O58  1  0.41836700  0.96518100  0.78387100  1
  O  O59  1  0.58163300  0.46518100  0.71612900  1
  O  O60  1  0.65462300  0.42334400  0.18336500  1
  O  O61  1  0.34537700  0.92334400  0.31663500  1
  O  O62  1  0.34537700  0.57665600  0.81663500  1
  O  O63  1  0.65462300  0.07665600  0.68336500  1
  O  O64  1  0.89809000  0.28530600  0.60591400  1
  O  O65  1  0.10191000  0.78530600  0.89408600  1
  O  O66  1  0.10191000  0.71469400  0.39408600  1
  O  O67  1  0.89809000  0.21469400  0.10591400  1
