# generated using pymatgen
data_SrLa11Mg3Ga9O34
_symmetry_space_group_name_H-M   'P 1'
_cell_length_a   5.59928242
_cell_length_b   5.59928242
_cell_length_c   27.35344434
_cell_angle_alpha   89.94912904
_cell_angle_beta   89.94912904
_cell_angle_gamma   59.78520715
_symmetry_Int_Tables_number   1
_chemical_formula_structural   SrLa11Mg3Ga9O34
_chemical_formula_sum   'Sr1 La11 Mg3 Ga9 O34'
_cell_volume   741.07661725
_cell_formula_units_Z   1
loop_
 _symmetry_equiv_pos_site_id
 _symmetry_equiv_pos_as_xyz
  1  'x, y, z'
loop_
 _atom_site_type_symbol
 _atom_site_label
 _atom_site_symmetry_multiplicity
 _atom_site_fract_x
 _atom_site_fract_y
 _atom_site_fract_z
 _atom_site_occupancy
  Sr  Sr0  1  0.32720200  0.32720200  0.79745900  1
  La  La1  1  0.68922300  0.68922300  0.96494400  1
  La  La2  1  0.00550000  0.00550000  0.62522800  1
  La  La3  1  0.98477900  0.98477900  0.87307000  1
  La  La4  1  0.67020400  0.67020400  0.46049200  1
  La  La5  1  0.65269300  0.65269300  0.70469800  1
  La  La6  1  0.33684000  0.33684000  0.29328400  1
  La  La7  1  0.33035800  0.33035800  0.53839400  1
  La  La8  1  0.00447900  0.00447900  0.12627700  1
  La  La9  1  0.99634000  0.99634000  0.37340800  1
  La  La10  1  0.66305100  0.66305100  0.20730700  1
  La  La11  1  0.33624900  0.33624900  0.03994900  1
  Mg  Mg12  1  0.31156500  0.31156500  0.91927200  1
  Mg  Mg13  1  0.67827200  0.67827200  0.82755600  1
  Mg  Mg14  1  0.34920200  0.34920200  0.66081400  1
  Ga  Ga15  1  0.00380700  0.00380700  0.99982000  1
  Ga  Ga16  1  0.00091300  0.00091300  0.49996400  1
  Ga  Ga17  1  0.97780700  0.97780700  0.75417500  1
  Ga  Ga18  1  0.66640700  0.66640700  0.58458900  1
  Ga  Ga19  1  0.33334800  0.33334800  0.41620300  1
  Ga  Ga20  1  0.00000600  0.00000600  0.24989800  1
  Ga  Ga21  1  0.66644700  0.66644700  0.33351500  1
  Ga  Ga22  1  0.66814300  0.66814300  0.08465300  1
  Ga  Ga23  1  0.33343400  0.33343400  0.16692400  1
  O  O24  1  0.02688600  0.54391700  0.87003300  1
  O  O25  1  0.14389000  0.63799200  0.96688800  1
  O  O26  1  0.12757500  0.12757500  0.94575900  1
  O  O27  1  0.71784700  0.20017200  0.70065900  1
  O  O28  1  0.80959700  0.29204700  0.80040200  1
  O  O29  1  0.54391700  0.02688600  0.87003300  1
  O  O30  1  0.63799200  0.14389000  0.96688800  1
  O  O31  1  0.79572500  0.79572500  0.77168900  1
  O  O32  1  0.36330000  0.86921800  0.53342600  1
  O  O33  1  0.46168600  0.96606800  0.63602800  1
  O  O34  1  0.20017200  0.71784700  0.70065900  1
  O  O35  1  0.29204700  0.80959700  0.80040200  1
  O  O36  1  0.85732700  0.85732700  0.55606200  1
  O  O37  1  0.47727000  0.47727000  0.60677400  1
  O  O38  1  0.03167000  0.53193800  0.36695300  1
  O  O39  1  0.13466000  0.63757500  0.46573700  1
  O  O40  1  0.86921800  0.36330000  0.53342600  1
  O  O41  1  0.96606800  0.46168600  0.63602800  1
  O  O42  1  0.52821200  0.52821200  0.38908100  1
  O  O43  1  0.13980000  0.13980000  0.44396000  1
  O  O44  1  0.69921100  0.19807500  0.20023700  1
  O  O45  1  0.80158300  0.30254300  0.29935600  1
  O  O46  1  0.53193800  0.03167000  0.36695300  1
  O  O47  1  0.63757500  0.13466000  0.46573700  1
  O  O48  1  0.19501100  0.19501100  0.22243400  1
  O  O49  1  0.80579300  0.80579300  0.27783700  1
  O  O50  1  0.36949300  0.86925400  0.03491100  1
  O  O51  1  0.46964300  0.96856200  0.13344300  1
  O  O52  1  0.19807500  0.69921100  0.20023700  1
  O  O53  1  0.30254300  0.80158300  0.29935600  1
  O  O54  1  0.86112200  0.86112200  0.05453700  1
  O  O55  1  0.47279100  0.47279100  0.11128600  1
  O  O56  1  0.86925400  0.36949300  0.03491100  1
  O  O57  1  0.96856200  0.46964300  0.13344300  1
