# generated using pymatgen
data_BaLaZnRuO6
_symmetry_space_group_name_H-M   'P 1'
_cell_length_a   5.74025396
_cell_length_b   5.74025396
_cell_length_c   5.74025396
_cell_angle_alpha   120.94999924
_cell_angle_beta   120.94999924
_cell_angle_gamma   88.36228106
_symmetry_Int_Tables_number   1
_chemical_formula_structural   BaLaZnRuO6
_chemical_formula_sum   'Ba1 La1 Zn1 Ru1 O6'
_cell_volume   131.76633715
_cell_formula_units_Z   1
loop_
 _symmetry_equiv_pos_site_id
 _symmetry_equiv_pos_as_xyz
  1  'x, y, z'
loop_
 _atom_site_type_symbol
 _atom_site_label
 _atom_site_symmetry_multiplicity
 _atom_site_fract_x
 _atom_site_fract_y
 _atom_site_fract_z
 _atom_site_occupancy
  Ba  Ba0  1  0.50000000  0.50000000  0.00000000  1
  La  La1  1  0.00000000  0.00000000  0.00000000  1
  Zn  Zn2  1  0.75000000  0.25000000  0.50000000  1
  Ru  Ru3  1  0.25000000  0.75000000  0.50000000  1
  O  O4  1  0.00739900  0.50739900  0.50000000  1
  O  O5  1  0.97634700  0.96079500  0.39713500  1
  O  O6  1  0.03920500  0.43634000  0.01555200  1
  O  O7  1  0.49260100  0.99260100  0.50000000  1
  O  O8  1  0.42078800  0.02365300  0.98444800  1
  O  O9  1  0.56366000  0.57921200  0.60286500  1
