# generated using pymatgen
data_K3Al3Si3O16
_symmetry_space_group_name_H-M   'P 1'
_cell_length_a   9.28851300
_cell_length_b   9.30251324
_cell_length_c   9.33138133
_cell_angle_alpha   89.64970568
_cell_angle_beta   89.49729598
_cell_angle_gamma   89.15894101
_symmetry_Int_Tables_number   1
_chemical_formula_structural   K3Al3Si3O16
_chemical_formula_sum   'K6 Al6 Si6 O32'
_cell_volume   806.15980013
_cell_formula_units_Z   2
loop_
 _symmetry_equiv_pos_site_id
 _symmetry_equiv_pos_as_xyz
  1  'x, y, z'
loop_
 _atom_site_type_symbol
 _atom_site_label
 _atom_site_symmetry_multiplicity
 _atom_site_fract_x
 _atom_site_fract_y
 _atom_site_fract_z
 _atom_site_occupancy
  K  K0  1  0.69807600  0.32632800  0.30736900  1
  K  K1  1  0.35762900  0.32887800  0.65779700  1
  K  K2  1  0.70877100  0.67530700  0.67262400  1
  K  K3  1  0.20099200  0.82549600  0.80597200  1
  K  K4  1  0.21150500  0.18423800  0.16431100  1
  K  K5  1  0.85130400  0.83085600  0.16522600  1
  Al  Al6  1  0.53801200  0.25353500  0.97994100  1
  Al  Al7  1  0.52106500  0.75653900  0.99557300  1
  Al  Al8  1  0.03102600  0.50195000  0.73609300  1
  Al  Al9  1  0.02699500  0.50554300  0.23662900  1
  Al  Al10  1  0.27817000  0.99894400  0.48589800  1
  Al  Al11  1  0.77459600  0.00660200  0.49223800  1
  Si  Si12  1  0.02356100  0.25648100  0.48877000  1
  Si  Si13  1  0.03141000  0.75306600  0.48487600  1
  Si  Si14  1  0.52418700  0.00363900  0.73715100  1
  Si  Si15  1  0.53149100  0.00460400  0.23695700  1
  Si  Si16  1  0.27859200  0.50454300  0.98361100  1
  Si  Si17  1  0.78038000  0.50599300  0.99068700  1
  O  O18  1  0.55373100  0.15225700  0.82284000  1
  O  O19  1  0.56101200  0.85762300  0.14680900  1
  O  O20  1  0.99743600  0.35126800  0.34231100  1
  O  O21  1  0.99931600  0.65490100  0.62742500  1
  O  O22  1  0.06281400  0.35448000  0.62518200  1
  O  O23  1  0.05266500  0.65918800  0.33925000  1
  O  O24  1  0.68323300  0.36436900  0.01855600  1
  O  O25  1  0.36686100  0.65136200  0.01346700  1
  O  O26  1  0.50959800  0.14468700  0.13166700  1
  O  O27  1  0.49309000  0.86735200  0.84429800  1
  O  O28  1  0.38394100  0.36444500  0.95946000  1
  O  O29  1  0.67282300  0.64505500  0.96048100  1
  O  O30  1  0.37896700  0.02992200  0.64063900  1
  O  O31  1  0.67415100  0.03346200  0.33469400  1
  O  O32  1  0.66013700  0.96042400  0.63346600  1
  O  O33  1  0.38422600  0.99286600  0.33147700  1
  O  O34  1  0.88361000  0.48818000  0.85137800  1
  O  O35  1  0.16850300  0.46857900  0.11651100  1
  O  O36  1  0.87608900  0.16373700  0.51835300  1
  O  O37  1  0.17532100  0.84563100  0.51686700  1
  O  O38  1  0.89188100  0.86026600  0.45921200  1
  O  O39  1  0.15792400  0.14525100  0.45723900  1
  O  O40  1  0.86786500  0.53735100  0.13874600  1
  O  O41  1  0.18932900  0.53014200  0.83410300  1
  O  O42  1  0.89719000  0.87151500  0.86966600  1
  O  O43  1  0.41154100  0.64327500  0.48568500  1
  O  O44  1  0.90726400  0.12200700  0.00243600  1
  O  O45  1  0.41586600  0.59170900  0.35678400  1
  O  O46  1  0.66022700  0.35122800  0.59399200  1
  O  O47  1  0.96623200  0.12897200  0.87619100  1
  O  O48  1  0.37927400  0.45820500  0.34195800  1
  O  O49  1  0.10672200  0.12415500  0.87203500  1
