# generated using pymatgen
data_Os3C8(SO4)2
_symmetry_space_group_name_H-M   'P 1'
_cell_length_a   12.27606900
_cell_length_b   14.03463800
_cell_length_c   18.40163019
_cell_angle_alpha   73.58010646
_cell_angle_beta   90.00000000
_cell_angle_gamma   90.00000000
_symmetry_Int_Tables_number   1
_chemical_formula_structural   Os3C8(SO4)2
_chemical_formula_sum   'Os24 C64 S16 O64'
_cell_volume   3041.11747769
_cell_formula_units_Z   8
loop_
 _symmetry_equiv_pos_site_id
 _symmetry_equiv_pos_as_xyz
  1  'x, y, z'
loop_
 _atom_site_type_symbol
 _atom_site_label
 _atom_site_symmetry_multiplicity
 _atom_site_fract_x
 _atom_site_fract_y
 _atom_site_fract_z
 _atom_site_occupancy
  Os  Os0  1  0.29204200  0.06258600  0.19357100  1
  Os  Os1  1  0.28937300  0.04580700  0.80548000  1
  Os  Os2  1  0.71062700  0.95419300  0.19452000  1
  Os  Os3  1  0.79204200  0.43741400  0.30642900  1
  Os  Os4  1  0.20795800  0.56258600  0.69357100  1
  Os  Os5  1  0.53833800  0.08585200  0.20088200  1
  Os  Os6  1  0.80043000  0.72690600  0.96132000  1
  Os  Os7  1  0.78937300  0.45419300  0.69452000  1
  Os  Os8  1  0.03833800  0.41414800  0.29911800  1
  Os  Os9  1  0.91253300  0.25669200  0.39912700  1
  Os  Os10  1  0.21062700  0.54580700  0.30548000  1
  Os  Os11  1  0.58746700  0.75669200  0.89912700  1
  Os  Os12  1  0.87484400  0.67785800  0.54405400  1
  Os  Os13  1  0.19957000  0.27309400  0.03868000  1
  Os  Os14  1  0.69957000  0.22690600  0.46132000  1
  Os  Os15  1  0.41253300  0.24330800  0.10087300  1
  Os  Os16  1  0.12515600  0.32214200  0.45594600  1
  Os  Os17  1  0.37484400  0.82214200  0.95594600  1
  Os  Os18  1  0.30043000  0.77309400  0.53868000  1
  Os  Os19  1  0.96166200  0.58585200  0.70088200  1
  Os  Os20  1  0.70795800  0.93741400  0.80642900  1
  Os  Os21  1  0.62515600  0.17785800  0.04405400  1
  Os  Os22  1  0.46166200  0.91414800  0.79911800  1
  Os  Os23  1  0.08746700  0.74330800  0.60087300  1
  C  C24  1  0.14923700  0.40408400  0.03657300  1
  C  C25  1  0.33284400  0.68540500  0.97740000  1
  C  C26  1  0.94450700  0.77537400  0.95780300  1
  C  C27  1  0.30315400  0.56224100  0.21825600  1
  C  C28  1  0.73847900  0.14202600  0.98597900  1
  C  C29  1  0.52795800  0.20702400  0.95877800  1
  C  C30  1  0.32333500  0.57986200  0.36363000  1
  C  C31  1  0.15687100  0.43111900  0.69945400  1
  C  C32  1  0.28972200  0.80051100  0.43096200  1
  C  C33  1  0.47204200  0.79297600  0.04122200  1
  C  C34  1  0.46588000  0.02518000  0.71282600  1
  C  C35  1  0.41377700  0.35326800  0.01369300  1
  C  C36  1  0.80315400  0.93775900  0.28174400  1
  C  C37  1  0.48610600  0.83970700  0.72951200  1
  C  C38  1  0.58622300  0.64673200  0.98630700  1
  C  C39  1  0.26152100  0.85797400  0.01402100  1
  C  C40  1  0.84312900  0.56888100  0.30054600  1
  C  C41  1  0.44450700  0.72462600  0.54219700  1
  C  C42  1  0.48655400  0.32803500  0.14803300  1
  C  C43  1  0.76152100  0.64202600  0.48597900  1
  C  C44  1  0.08622300  0.85326800  0.51369300  1
  C  C45  1  0.03412000  0.52518000  0.21282600  1
  C  C46  1  0.05549300  0.22462600  0.04219700  1
  C  C47  1  0.78972200  0.69948900  0.06903800  1
  C  C48  1  0.85076300  0.59591600  0.96342700  1
  C  C49  1  0.70392400  0.95506800  0.69969900  1
  C  C50  1  0.83284400  0.81459500  0.52260000  1
  C  C51  1  0.51389400  0.16029300  0.27048800  1
  C  C52  1  0.29607600  0.04493200  0.30030100  1
  C  C53  1  0.21027800  0.30051100  0.93096200  1
  C  C54  1  0.35076300  0.90408400  0.53657300  1
  C  C55  1  0.66715600  0.31459500  0.02260000  1
  C  C56  1  0.20392400  0.54493200  0.80030100  1
  C  C57  1  0.15569700  0.68010800  0.26853500  1
  C  C58  1  0.53412000  0.97482000  0.28717400  1
  C  C59  1  0.01389400  0.33970700  0.22951200  1
  C  C60  1  0.84430300  0.31989200  0.73146500  1
  C  C61  1  0.96588000  0.47482000  0.78717400  1
  C  C62  1  0.34312900  0.93111900  0.19945400  1
  C  C63  1  0.67666500  0.42013800  0.63637000  1
  C  C64  1  0.79607600  0.45506800  0.19969900  1
  C  C65  1  0.17666500  0.07986200  0.86363000  1
  C  C66  1  0.97204200  0.70702400  0.45877800  1
  C  C67  1  0.16715600  0.18540500  0.47740000  1
  C  C68  1  0.64300600  0.47381000  0.30770300  1
  C  C69  1  0.51344600  0.67196500  0.85196700  1
  C  C70  1  0.34430300  0.18010800  0.76853500  1
  C  C71  1  0.19684600  0.06224100  0.71825600  1
  C  C72  1  0.02795800  0.29297600  0.54122200  1
  C  C73  1  0.98610600  0.66029300  0.77048800  1
  C  C74  1  0.91377700  0.14673200  0.48630700  1
  C  C75  1  0.85699400  0.97381000  0.80770300  1
  C  C76  1  0.71027800  0.19948900  0.56903800  1
  C  C77  1  0.01344600  0.82803500  0.64803300  1
  C  C78  1  0.23847900  0.35797400  0.51402100  1
  C  C79  1  0.65687100  0.06888100  0.80054600  1
  C  C80  1  0.65569700  0.81989200  0.23146500  1
  C  C81  1  0.14300600  0.02619000  0.19229700  1
  C  C82  1  0.82333500  0.92013800  0.13637000  1
  C  C83  1  0.64923700  0.09591600  0.46342700  1
  C  C84  1  0.35699400  0.52619000  0.69229700  1
  C  C85  1  0.55549300  0.27537400  0.45780300  1
  C  C86  1  0.69684600  0.43775900  0.78174400  1
  C  C87  1  0.98655400  0.17196500  0.35196700  1
  S  S88  1  0.69251600  0.87753300  0.94491400  1
  S  S89  1  0.27863600  0.86794600  0.83507400  1
  S  S90  1  0.74916900  0.26240100  0.33012900  1
  S  S91  1  0.80748400  0.37753300  0.44491400  1
  S  S92  1  0.75083100  0.76240100  0.83012900  1
  S  S93  1  0.93337500  0.50571200  0.60019300  1
  S  S94  1  0.06662500  0.49428800  0.39980700  1
  S  S95  1  0.77863600  0.63205400  0.66492600  1
  S  S96  1  0.25083100  0.73759900  0.66987100  1
  S  S97  1  0.72136400  0.13205400  0.16492600  1
  S  S98  1  0.22136400  0.36794600  0.33507400  1
  S  S99  1  0.19251600  0.62246700  0.55508600  1
  S  S100  1  0.43337500  0.99428800  0.89980700  1
  S  S101  1  0.56662500  0.00571200  0.10019300  1
  S  S102  1  0.30748400  0.12246700  0.05508600  1
  S  S103  1  0.24916900  0.23759900  0.16987100  1
  O  O104  1  0.64004000  0.42824500  0.83379200  1
  O  O105  1  0.79785200  0.46058200  0.13559300  1
  O  O106  1  0.88365200  0.51914800  0.96194700  1
  O  O107  1  0.52079200  0.91165400  0.34395300  1
  O  O108  1  0.19696800  0.87940900  0.05283100  1
  O  O109  1  0.21938600  0.31292300  0.86617100  1
  O  O110  1  0.87746200  0.23994800  0.75592800  1
  O  O111  1  0.92754700  0.07820700  0.53928400  1
  O  O112  1  0.46937000  0.61587500  0.82567600  1
  O  O113  1  0.28061400  0.81292300  0.36617100  1
  O  O114  1  0.96937000  0.88412500  0.67432400  1
  O  O115  1  0.96748800  0.19314700  0.04662800  1
  O  O116  1  0.30303200  0.37940900  0.55283100  1
  O  O117  1  0.19439300  0.10313700  0.48964400  1
  O  O118  1  0.80303200  0.12059100  0.94716900  1
  O  O119  1  0.97427600  0.27328300  0.59548000  1
  O  O120  1  0.13116500  0.35054700  0.70231800  1
  O  O121  1  0.36883500  0.85054700  0.20231800  1
  O  O122  1  0.49326300  0.19908500  0.31737400  1
  O  O123  1  0.11634800  0.48085200  0.03805300  1
  O  O124  1  0.44802300  0.50475700  0.69052600  1
  O  O125  1  0.35996000  0.57175500  0.16620800  1
  O  O126  1  0.53251200  0.69314700  0.54662800  1
  O  O127  1  0.70214800  0.96058200  0.63559300  1
  O  O128  1  0.60764300  0.40097400  0.59961200  1
  O  O129  1  0.85996000  0.92824500  0.33379200  1
  O  O130  1  0.55197700  0.49524300  0.30947400  1
  O  O131  1  0.05197700  0.00475700  0.19052600  1
  O  O132  1  0.03251200  0.80685300  0.95337200  1
  O  O133  1  0.69439300  0.39686300  0.01035600  1
  O  O134  1  0.30560700  0.60313700  0.98964400  1
  O  O135  1  0.37746200  0.26005200  0.74407200  1
  O  O136  1  0.20214800  0.53941800  0.86440700  1
  O  O137  1  0.46748800  0.30685300  0.45337200  1
  O  O138  1  0.47427600  0.22671700  0.90452000  1
  O  O139  1  0.52572400  0.77328300  0.09548000  1
  O  O140  1  0.00673700  0.69908500  0.81737400  1
  O  O141  1  0.78061400  0.68707700  0.13382900  1
  O  O142  1  0.97920800  0.41165400  0.84395300  1
  O  O143  1  0.12253800  0.76005200  0.24407200  1
  O  O144  1  0.71938600  0.18707700  0.63382900  1
  O  O145  1  0.07245300  0.92179300  0.46071600  1
  O  O146  1  0.69696800  0.62059100  0.44716900  1
  O  O147  1  0.99326300  0.30091500  0.18262600  1
  O  O148  1  0.57245300  0.57820700  0.03928400  1
  O  O149  1  0.47920800  0.08834600  0.65604700  1
  O  O150  1  0.89235700  0.90097400  0.09961200  1
  O  O151  1  0.29785200  0.03941800  0.36440700  1
  O  O152  1  0.86883500  0.64945300  0.29768200  1
  O  O153  1  0.94802300  0.99524300  0.80947400  1
  O  O154  1  0.39235700  0.59902600  0.40038800  1
  O  O155  1  0.63116500  0.14945300  0.79768200  1
  O  O156  1  0.10764300  0.09902600  0.90038800  1
  O  O157  1  0.38365200  0.98085200  0.53805300  1
  O  O158  1  0.61634800  0.01914800  0.46194700  1
  O  O159  1  0.02079200  0.58834600  0.15604700  1
  O  O160  1  0.62253800  0.73994800  0.25592800  1
  O  O161  1  0.14004000  0.07175500  0.66620800  1
  O  O162  1  0.50673700  0.80091500  0.68262600  1
  O  O163  1  0.53063000  0.38412500  0.17432400  1
  O  O164  1  0.80560700  0.89686300  0.51035600  1
  O  O165  1  0.42754700  0.42179300  0.96071600  1
  O  O166  1  0.02572400  0.72671700  0.40452000  1
  O  O167  1  0.03063000  0.11587500  0.32567600  1
