# generated using pymatgen
data_Mo2NCl8
_symmetry_space_group_name_H-M   'P 1'
_cell_length_a   6.86367500
_cell_length_b   10.35494000
_cell_length_c   18.63876895
_cell_angle_alpha   78.97649925
_cell_angle_beta   90.00000000
_cell_angle_gamma   90.00000000
_symmetry_Int_Tables_number   1
_chemical_formula_structural   Mo2NCl8
_chemical_formula_sum   'Mo8 N4 Cl32'
_cell_volume   1300.26968054
_cell_formula_units_Z   4
loop_
 _symmetry_equiv_pos_site_id
 _symmetry_equiv_pos_as_xyz
  1  'x, y, z'
loop_
 _atom_site_type_symbol
 _atom_site_label
 _atom_site_symmetry_multiplicity
 _atom_site_fract_x
 _atom_site_fract_y
 _atom_site_fract_z
 _atom_site_occupancy
  Mo  Mo0  1  0.54332600  0.43358100  0.16428200  1
  Mo  Mo1  1  0.67643700  0.88656400  0.87172900  1
  Mo  Mo2  1  0.45667400  0.56641900  0.83571800  1
  Mo  Mo3  1  0.32356300  0.11343600  0.12827100  1
  Mo  Mo4  1  0.32356300  0.88656400  0.37172900  1
  Mo  Mo5  1  0.67643700  0.11343600  0.62827100  1
  Mo  Mo6  1  0.45667400  0.43358100  0.66428200  1
  Mo  Mo7  1  0.54332600  0.56641900  0.33571800  1
  N  N8  1  0.55962900  0.29321600  0.64627900  1
  N  N9  1  0.55962900  0.70678400  0.85372100  1
  N  N10  1  0.44037100  0.70678400  0.35372100  1
  N  N11  1  0.44037100  0.29321600  0.14627900  1
  Cl  Cl12  1  0.19511100  0.78365500  0.48000900  1
  Cl  Cl13  1  0.36823900  0.91286400  0.91476400  1
  Cl  Cl14  1  0.79595300  0.08601300  0.88668100  1
  Cl  Cl15  1  0.16858300  0.44015200  0.60377500  1
  Cl  Cl16  1  0.07703300  0.16003700  0.20092200  1
  Cl  Cl17  1  0.80488900  0.21634500  0.51999100  1
  Cl  Cl18  1  0.63176100  0.08713600  0.08523600  1
  Cl  Cl19  1  0.28701100  0.50000000  0.25000000  1
  Cl  Cl20  1  0.68177000  0.33657800  0.27919900  1
  Cl  Cl21  1  0.31823000  0.33657800  0.77919900  1
  Cl  Cl22  1  0.63176100  0.91286400  0.41476400  1
  Cl  Cl23  1  0.36823900  0.08713600  0.58523600  1
  Cl  Cl24  1  0.51343100  0.00000000  0.75000000  1
  Cl  Cl25  1  0.20404700  0.91398700  0.11331900  1
  Cl  Cl26  1  0.48656900  0.00000000  0.25000000  1
  Cl  Cl27  1  0.68177000  0.66342200  0.22080100  1
  Cl  Cl28  1  0.07703300  0.83996300  0.29907800  1
  Cl  Cl29  1  0.83141700  0.44015200  0.10377500  1
  Cl  Cl30  1  0.61691800  0.41283600  0.92021700  1
  Cl  Cl31  1  0.71298900  0.50000000  0.75000000  1
  Cl  Cl32  1  0.80488900  0.78365500  0.98000900  1
  Cl  Cl33  1  0.38308200  0.41283600  0.42021700  1
  Cl  Cl34  1  0.38308200  0.58716400  0.07978300  1
  Cl  Cl35  1  0.79595300  0.91398700  0.61331900  1
  Cl  Cl36  1  0.16858300  0.55984800  0.89622500  1
  Cl  Cl37  1  0.92296700  0.83996300  0.79907800  1
  Cl  Cl38  1  0.20404700  0.08601300  0.38668100  1
  Cl  Cl39  1  0.31823000  0.66342200  0.72080100  1
  Cl  Cl40  1  0.19511100  0.21634500  0.01999100  1
  Cl  Cl41  1  0.83141700  0.55984800  0.39622500  1
  Cl  Cl42  1  0.92296700  0.16003700  0.70092200  1
  Cl  Cl43  1  0.61691800  0.58716400  0.57978300  1
