# generated using pymatgen
data_Mo8P6O49
_symmetry_space_group_name_H-M   'P 1'
_cell_length_a   8.67795600
_cell_length_b   10.74584365
_cell_length_c   13.54526821
_cell_angle_alpha   85.92203352
_cell_angle_beta   82.16731108
_cell_angle_gamma   67.04883018
_symmetry_Int_Tables_number   1
_chemical_formula_structural   Mo8P6O49
_chemical_formula_sum   'Mo8 P6 O49'
_cell_volume   1152.05550670
_cell_formula_units_Z   1
loop_
 _symmetry_equiv_pos_site_id
 _symmetry_equiv_pos_as_xyz
  1  'x, y, z'
loop_
 _atom_site_type_symbol
 _atom_site_label
 _atom_site_symmetry_multiplicity
 _atom_site_fract_x
 _atom_site_fract_y
 _atom_site_fract_z
 _atom_site_occupancy
  Mo  Mo0  1  0.69939200  0.40805000  0.82869800  1
  Mo  Mo1  1  0.30060800  0.59195000  0.17130200  1
  Mo  Mo2  1  0.37866200  0.87267100  0.74368300  1
  Mo  Mo3  1  0.62133800  0.12732900  0.25631700  1
  Mo  Mo4  1  0.72764200  0.79306000  0.47552900  1
  Mo  Mo5  1  0.27235800  0.20694000  0.52447100  1
  Mo  Mo6  1  0.84255700  0.60812800  0.04937200  1
  Mo  Mo7  1  0.15744300  0.39187200  0.95062800  1
  P  P8  1  0.79057000  0.65788900  0.69590800  1
  P  P9  1  0.20943000  0.34211100  0.30409200  1
  P  P10  1  0.46218600  0.70093600  0.95743300  1
  P  P11  1  0.53781400  0.29906400  0.04256700  1
  P  P12  1  0.10180300  0.19393000  0.76454100  1
  P  P13  1  0.89819700  0.80607000  0.23545900  1
  O  O14  1  0.57531800  0.36667200  0.76353100  1
  O  O15  1  0.42468200  0.63332800  0.23646900  1
  O  O16  1  0.77687600  0.51670700  0.73393100  1
  O  O17  1  0.22312400  0.48329300  0.26606900  1
  O  O18  1  0.53270900  0.57419300  0.88908000  1
  O  O19  1  0.46729100  0.42580700  0.11092000  1
  O  O20  1  0.90740200  0.25207500  0.79726800  1
  O  O21  1  0.09259800  0.74792500  0.20273200  1
  O  O22  1  0.90968800  0.49572500  0.93557500  1
  O  O23  1  0.09031200  0.50427500  0.06442500  1
  O  O24  1  0.62490300  0.76409400  0.74912200  1
  O  O25  1  0.37509700  0.23590600  0.25087800  1
  O  O26  1  0.31336400  0.75959600  0.69958000  1
  O  O27  1  0.68663600  0.24040400  0.30042000  1
  O  O28  1  0.41817400  0.96308300  0.63994400  1
  O  O29  1  0.58182600  0.03691700  0.36005600  1
  O  O30  1  0.36662300  0.82759200  0.89880500  1
  O  O31  1  0.63337700  0.17240800  0.10119500  1
  O  O32  1  0.58698400  0.04803200  0.81546800  1
  O  O33  1  0.41301600  0.95196800  0.18453200  1
  O  O34  1  0.72240200  0.92870800  0.53556800  1
  O  O35  1  0.27759800  0.07129200  0.46443200  1
  O  O36  1  0.53087100  0.81654900  0.45076200  1
  O  O37  1  0.46912900  0.18345100  0.54923800  1
  O  O38  1  0.76770200  0.65513500  0.58044900  1
  O  O39  1  0.23229800  0.34486500  0.41955100  1
  O  O40  1  0.87307000  0.77367400  0.02363600  1
  O  O41  1  0.12693000  0.22632600  0.97636400  1
  O  O42  1  0.60953700  0.71117100  0.00150200  1
  O  O43  1  0.39046300  0.28882900  0.99849800  1
  O  O44  1  0.75644600  0.52904600  0.14216600  1
  O  O45  1  0.24355400  0.47095400  0.85783400  1
  O  O46  1  0.18664700  0.26778800  0.81584200  1
  O  O47  1  0.81335300  0.73221200  0.18415800  1
  O  O48  1  0.16776800  0.04085200  0.78627200  1
  O  O49  1  0.83223200  0.95914800  0.21372800  1
  O  O50  1  0.12028200  0.22762700  0.64994100  1
  O  O51  1  0.87971800  0.77237300  0.35005900  1
  O  O52  1  0.94870500  0.66761200  0.71285800  1
  O  O53  1  0.05129500  0.33238800  0.28714200  1
  O  O54  1  0.33177000  0.67738500  0.04084300  1
  O  O55  1  0.66823000  0.32261500  0.95915700  1
  O  O56  1  0.22079500  0.59890300  0.54987700  1
  O  O57  1  0.77920500  0.40109700  0.45012300  1
  O  O58  1  0.74077700  0.00199500  0.79260300  1
  O  O59  1  0.25922300  0.99800500  0.20739700  1
  O  O60  1  0.16788900  0.71439700  0.51432000  1
  O  O61  1  0.83211100  0.28560300  0.48568000  1
  O  O62  1  0.00000000  0.00000000  0.00000000  1
