# generated using pymatgen
data_Mo2H9C2NO7
_symmetry_space_group_name_H-M   'P 1'
_cell_length_a   11.23978171
_cell_length_b   11.23978171
_cell_length_c   10.81687697
_cell_angle_alpha   76.13006232
_cell_angle_beta   76.13006232
_cell_angle_gamma   111.82241787
_symmetry_Int_Tables_number   1
_chemical_formula_structural   Mo2H9C2NO7
_chemical_formula_sum   'Mo8 H36 C8 N4 O28'
_cell_volume   1146.71154475
_cell_formula_units_Z   4
loop_
 _symmetry_equiv_pos_site_id
 _symmetry_equiv_pos_as_xyz
  1  'x, y, z'
loop_
 _atom_site_type_symbol
 _atom_site_label
 _atom_site_symmetry_multiplicity
 _atom_site_fract_x
 _atom_site_fract_y
 _atom_site_fract_z
 _atom_site_occupancy
  Mo  Mo0  1  0.77538000  0.52089200  0.36856200  1
  Mo  Mo1  1  0.52089200  0.77538000  0.36856200  1
  Mo  Mo2  1  0.22462000  0.47910800  0.63143800  1
  Mo  Mo3  1  0.47910800  0.22462000  0.63143800  1
  Mo  Mo4  1  0.59572600  0.59572600  0.59251100  1
  Mo  Mo5  1  0.40427400  0.40427400  0.40748900  1
  Mo  Mo6  1  0.67624200  0.67624200  0.14667400  1
  Mo  Mo7  1  0.32375800  0.32375800  0.85332600  1
  H  H8  1  0.02752200  0.06785200  0.19802300  1
  H  H9  1  0.06785200  0.02752200  0.19802300  1
  H  H10  1  0.97247800  0.93214800  0.80197700  1
  H  H11  1  0.93214800  0.97247800  0.80197700  1
  H  H12  1  0.00592000  0.52619500  0.51675400  1
  H  H13  1  0.52619500  0.00592000  0.51675400  1
  H  H14  1  0.99408000  0.47380500  0.48324600  1
  H  H15  1  0.47380500  0.99408000  0.48324600  1
  H  H16  1  0.21706100  0.21706100  0.10607000  1
  H  H17  1  0.78293900  0.78293900  0.89393000  1
  H  H18  1  0.86908100  0.86908100  0.16492400  1
  H  H19  1  0.13091900  0.13091900  0.83507600  1
  H  H20  1  0.84971100  0.33970900  0.12113000  1
  H  H21  1  0.33970900  0.84971100  0.12113000  1
  H  H22  1  0.15028900  0.66029100  0.87887000  1
  H  H23  1  0.66029100  0.15028900  0.87887000  1
  H  H24  1  0.80724500  0.16327500  0.14690200  1
  H  H25  1  0.16327500  0.80724500  0.14690200  1
  H  H26  1  0.19275500  0.83672500  0.85309800  1
  H  H27  1  0.83672500  0.19275500  0.85309800  1
  H  H28  1  0.94424800  0.29786100  0.99279600  1
  H  H29  1  0.29786100  0.94424800  0.99279600  1
  H  H30  1  0.05575200  0.70213900  0.00720400  1
  H  H31  1  0.70213900  0.05575200  0.00720400  1
  H  H32  1  0.71195300  0.38769100  0.84644400  1
  H  H33  1  0.38769100  0.71195300  0.84644400  1
  H  H34  1  0.28804700  0.61230900  0.15355600  1
  H  H35  1  0.61230900  0.28804700  0.15355600  1
  H  H36  1  0.78947100  0.46808300  0.95084500  1
  H  H37  1  0.46808300  0.78947100  0.95084500  1
  H  H38  1  0.21052900  0.53191700  0.04915500  1
  H  H39  1  0.53191700  0.21052900  0.04915500  1
  H  H40  1  0.88921200  0.43183500  0.82093300  1
  H  H41  1  0.43183500  0.88921200  0.82093300  1
  H  H42  1  0.11078800  0.56816500  0.17906700  1
  H  H43  1  0.56816500  0.11078800  0.17906700  1
  C  C44  1  0.84385800  0.26538600  0.07029400  1
  C  C45  1  0.26538600  0.84385800  0.07029400  1
  C  C46  1  0.15614200  0.73461400  0.92970600  1
  C  C47  1  0.73461400  0.15614200  0.92970600  1
  C  C48  1  0.78715400  0.39696500  0.89655000  1
  C  C49  1  0.39696500  0.78715400  0.89655000  1
  C  C50  1  0.21284600  0.60303500  0.10345000  1
  C  C51  1  0.60303500  0.21284600  0.10345000  1
  N  N52  1  0.74233500  0.25766500  0.00000000  1
  N  N53  1  0.25766500  0.74233500  0.00000000  1
  N  N54  1  0.15338200  0.84661800  0.50000000  1
  N  N55  1  0.84661800  0.15338200  0.50000000  1
  O  O56  1  0.61713500  0.61713500  0.38300700  1
  O  O57  1  0.38286500  0.38286500  0.61699300  1
  O  O58  1  0.67120700  0.46709400  0.56558200  1
  O  O59  1  0.46709400  0.67120700  0.56558200  1
  O  O60  1  0.32879300  0.53290600  0.43441800  1
  O  O61  1  0.53290600  0.32879300  0.43441800  1
  O  O62  1  0.75710200  0.55712900  0.18998000  1
  O  O63  1  0.55712900  0.75710200  0.18998000  1
  O  O64  1  0.24289800  0.44287100  0.81002000  1
  O  O65  1  0.44287100  0.24289800  0.81002000  1
  O  O66  1  0.91900500  0.67231700  0.33310900  1
  O  O67  1  0.67231700  0.91900500  0.33310900  1
  O  O68  1  0.08099500  0.32768300  0.66689100  1
  O  O69  1  0.32768300  0.08099500  0.66689100  1
  O  O70  1  0.83472800  0.40034000  0.36255100  1
  O  O71  1  0.40034000  0.83472800  0.36255100  1
  O  O72  1  0.16527200  0.59966000  0.63744900  1
  O  O73  1  0.59966000  0.16527200  0.63744900  1
  O  O74  1  0.73802400  0.73802400  0.57170200  1
  O  O75  1  0.26197600  0.26197600  0.42829800  1
  O  O76  1  0.51063200  0.51063200  0.77644100  1
  O  O77  1  0.48936800  0.48936800  0.22355900  1
  O  O78  1  0.84496800  0.84496800  0.09013800  1
  O  O79  1  0.15503200  0.15503200  0.90986200  1
  O  O80  1  0.69986900  0.69986900  0.95910900  1
  O  O81  1  0.30013100  0.30013100  0.04089100  1
  O  O82  1  0.00135700  0.00135700  0.44272800  1
  O  O83  1  0.99864300  0.99864300  0.55727200  1
