# generated using pymatgen
data_Sr10Al6O19
_symmetry_space_group_name_H-M   'P 1'
_cell_length_a   7.91840100
_cell_length_b   15.90686735
_cell_length_c   17.89542801
_cell_angle_alpha   103.27974750
_cell_angle_beta   102.73081677
_cell_angle_gamma   90.03112087
_symmetry_Int_Tables_number   1
_chemical_formula_structural   Sr10Al6O19
_chemical_formula_sum   'Sr40 Al24 O76'
_cell_volume   2136.73899971
_cell_formula_units_Z   4
loop_
 _symmetry_equiv_pos_site_id
 _symmetry_equiv_pos_as_xyz
  1  'x, y, z'
loop_
 _atom_site_type_symbol
 _atom_site_label
 _atom_site_symmetry_multiplicity
 _atom_site_fract_x
 _atom_site_fract_y
 _atom_site_fract_z
 _atom_site_occupancy
  Sr  Sr0  1  0.37524000  0.32348900  0.25058000  1
  Sr  Sr1  1  0.99978800  0.88204200  0.49820700  1
  Sr  Sr2  1  0.62460000  0.17272800  0.74895100  1
  Sr  Sr3  1  0.39157000  0.83234000  0.87113300  1
  Sr  Sr4  1  0.37456400  0.82862300  0.25175100  1
  Sr  Sr5  1  0.52200200  0.66797200  0.12829500  1
  Sr  Sr6  1  0.36672500  0.56250600  0.25925800  1
  Sr  Sr7  1  0.58120300  0.92502300  0.76089500  1
  Sr  Sr8  1  0.24467600  0.02599600  0.00002100  1
  Sr  Sr9  1  0.82058500  0.57504500  0.24017400  1
  Sr  Sr10  1  0.15716500  0.75012400  0.00014800  1
  Sr  Sr11  1  0.16394900  0.47721200  0.37332600  1
  Sr  Sr12  1  0.17724100  0.42419900  0.76001500  1
  Sr  Sr13  1  0.62960500  0.43759000  0.73930600  1
  Sr  Sr14  1  0.47780900  0.33300000  0.87194600  1
  Sr  Sr15  1  0.49757600  0.38294300  0.49913400  1
  Sr  Sr16  1  0.75589000  0.97440900  0.99935400  1
  Sr  Sr17  1  0.83693700  0.52256500  0.62610300  1
  Sr  Sr18  1  0.02354700  0.34753900  0.49950800  1
  Sr  Sr19  1  0.20762300  0.97732800  0.37352400  1
  Sr  Sr20  1  0.71617600  0.75080900  0.99821500  1
  Sr  Sr21  1  0.12366700  0.67149700  0.74846000  1
  Sr  Sr22  1  0.87266400  0.82253800  0.25058700  1
  Sr  Sr23  1  0.87460900  0.32841000  0.25269300  1
  Sr  Sr24  1  0.10682500  0.93696200  0.73818200  1
  Sr  Sr25  1  0.78868400  0.02229100  0.62690700  1
  Sr  Sr26  1  0.75847500  0.52833100  0.00232100  1
  Sr  Sr27  1  0.52290600  0.15054100  0.50046800  1
  Sr  Sr28  1  0.50154300  0.61832000  0.50157700  1
  Sr  Sr29  1  0.99633000  0.11816200  0.50245500  1
  Sr  Sr30  1  0.24306800  0.47288000  0.99824400  1
  Sr  Sr31  1  0.60606900  0.16826500  0.12922900  1
  Sr  Sr32  1  0.84089600  0.24992600  0.00014600  1
  Sr  Sr33  1  0.97506800  0.65039900  0.49960500  1
  Sr  Sr34  1  0.47368600  0.84922400  0.50063500  1
  Sr  Sr35  1  0.62451000  0.67690800  0.74888500  1
  Sr  Sr36  1  0.89126400  0.06251100  0.26031400  1
  Sr  Sr37  1  0.28249200  0.24966000  0.00050500  1
  Sr  Sr38  1  0.41701100  0.07463800  0.23952500  1
  Sr  Sr39  1  0.12531300  0.17624900  0.74917600  1
  Al  Al40  1  0.52082000  0.91106600  0.11306200  1
  Al  Al41  1  0.91461700  0.84874700  0.85263200  1
  Al  Al42  1  0.69992300  0.46216400  0.38784400  1
  Al  Al43  1  0.78577900  0.78490000  0.64273300  1
  Al  Al44  1  0.14194800  0.71501600  0.35738200  1
  Al  Al45  1  0.93548200  0.34881900  0.85201700  1
  Al  Al46  1  0.30234400  0.26238800  0.63021300  1
  Al  Al47  1  0.68563300  0.96213600  0.38792200  1
  Al  Al48  1  0.04363700  0.43362000  0.12819300  1
  Al  Al49  1  0.85540600  0.28462500  0.64223500  1
  Al  Al50  1  0.06259400  0.65178600  0.14763900  1
  Al  Al51  1  0.21208400  0.21536700  0.35736800  1
  Al  Al52  1  0.40681300  0.58970900  0.88660700  1
  Al  Al53  1  0.31228800  0.03790900  0.61167100  1
  Al  Al54  1  0.67090000  0.23762600  0.37082800  1
  Al  Al55  1  0.95394600  0.56715700  0.87113700  1
  Al  Al56  1  0.29928800  0.53830100  0.61178000  1
  Al  Al57  1  0.69603800  0.73766200  0.37041600  1
  Al  Al58  1  0.08331200  0.15150300  0.14794100  1
  Al  Al59  1  0.47835600  0.08981900  0.88670500  1
  Al  Al60  1  0.91504200  0.06630400  0.87072900  1
  Al  Al61  1  0.32662000  0.76277200  0.62961400  1
  Al  Al62  1  0.59197500  0.41099100  0.11312100  1
  Al  Al63  1  0.08391600  0.93253200  0.12881100  1
  O  O64  1  0.50466700  0.87805200  0.00996300  1
  O  O65  1  0.55263100  0.77134600  0.62698700  1
  O  O66  1  0.24370200  0.48543100  0.51060900  1
  O  O67  1  0.26966300  0.98508500  0.51071700  1
  O  O68  1  0.90724800  0.46226100  0.88819900  1
  O  O69  1  0.22479800  0.71384700  0.12912300  1
  O  O70  1  0.77503000  0.28602300  0.87154400  1
  O  O71  1  0.41205900  0.31685300  0.72593500  1
  O  O72  1  0.47313000  0.47201400  0.35529500  1
  O  O73  1  0.23874500  0.81928700  0.37100000  1
  O  O74  1  0.56679500  0.32998000  0.16400400  1
  O  O75  1  0.09404500  0.78587700  0.87114600  1
  O  O76  1  0.92075100  0.07376800  0.77413900  1
  O  O77  1  0.83968200  0.86648900  0.59944700  1
  O  O78  1  0.50883900  0.00719100  0.66416300  1
  O  O79  1  0.68665500  0.18177800  0.27528400  1
  O  O80  1  0.09154800  0.36038600  0.04701800  1
  O  O81  1  0.81827000  0.43375000  0.12335200  1
  O  O82  1  0.34504800  0.15154700  0.62146300  1
  O  O83  1  0.63100200  0.01521600  0.14667300  1
  O  O84  1  0.16135700  0.13439100  0.40227100  1
  O  O85  1  0.31309800  0.81793000  0.72567100  1
  O  O86  1  0.50182400  0.37567300  0.01064600  1
  O  O87  1  0.14401400  0.16619500  0.25334500  1
  O  O88  1  0.02053800  0.03761200  0.11275700  1
  O  O89  1  0.09059700  0.53836900  0.11043900  1
  O  O90  1  0.83758200  0.66907800  0.12478700  1
  O  O91  1  0.17902700  0.56835700  0.87447500  1
  O  O92  1  0.72095600  0.34852500  0.37760500  1
  O  O93  1  0.11523100  0.02920500  0.64293700  1
  O  O94  1  0.27603600  0.65172200  0.62127900  1
  O  O95  1  0.44404800  0.23022400  0.37198300  1
  O  O96  1  0.90710900  0.63952300  0.95290600  1
  O  O97  1  0.15576100  0.50888000  0.66530900  1
  O  O98  1  0.84683600  0.49060700  0.33535400  1
  O  O99  1  0.71182300  0.83252400  0.87581900  1
  O  O100  1  0.66313700  0.71086000  0.45525700  1
  O  O101  1  0.07774200  0.92389400  0.22500400  1
  O  O102  1  0.72943700  0.01463000  0.48917500  1
  O  O103  1  0.30647500  0.93158700  0.12614700  1
  O  O104  1  0.04303800  0.13900100  0.95239700  1
  O  O105  1  0.51544400  0.51492500  0.14679400  1
  O  O106  1  0.90398800  0.21358800  0.12907600  1
  O  O107  1  0.48737900  0.99094800  0.33502400  1
  O  O108  1  0.36573200  0.98621900  0.85413600  1
  O  O109  1  0.10712800  0.66574800  0.25315100  1
  O  O110  1  0.85392600  0.83371600  0.74722000  1
  O  O111  1  0.95601000  0.86070000  0.04612500  1
  O  O112  1  0.12864400  0.31932800  0.37075500  1
  O  O113  1  0.33649700  0.29195600  0.54661400  1
  O  O114  1  0.43411500  0.67094300  0.83644900  1
  O  O115  1  0.85227400  0.57460000  0.77452800  1
  O  O116  1  0.07374300  0.27037300  0.62763700  1
  O  O117  1  0.65388100  0.84830500  0.37750400  1
  O  O118  1  0.92461600  0.72935200  0.37298700  1
  O  O119  1  0.88829700  0.33299200  0.74636400  1
  O  O120  1  0.97919300  0.96200200  0.88921300  1
  O  O121  1  0.49741800  0.12432600  0.98985100  1
  O  O122  1  0.69218700  0.06729500  0.87293100  1
  O  O123  1  0.20840700  0.79115700  0.54589000  1
  O  O124  1  0.76314100  0.36630200  0.59766500  1
  O  O125  1  0.52698800  0.52900200  0.64331900  1
  O  O126  1  0.86743100  0.68037800  0.62968600  1
  O  O127  1  0.75623300  0.51583600  0.48871900  1
  O  O128  1  0.58767400  0.68136500  0.27466700  1
  O  O129  1  0.75930500  0.18009900  0.62848400  1
  O  O130  1  0.49549000  0.62464700  0.98924200  1
  O  O131  1  0.16110400  0.33249700  0.87437600  1
  O  O132  1  0.28640000  0.16823300  0.12449600  1
  O  O133  1  0.14466500  0.42615400  0.22476400  1
  O  O134  1  0.23473700  0.63371800  0.40231100  1
  O  O135  1  0.78757400  0.21060400  0.45524800  1
  O  O136  1  0.88226600  0.97197200  0.35663600  1
  O  O137  1  0.40174400  0.17098300  0.83645700  1
  O  O138  1  0.48086300  0.48534000  0.85220400  1
  O  O139  1  0.59736800  0.82936900  0.16275100  1
