# generated using pymatgen
data_CdI2
_symmetry_space_group_name_H-M   'P 1'
_cell_length_a   4.34311842
_cell_length_b   4.34311842
_cell_length_c   110.40329100
_cell_angle_alpha   90.00000000
_cell_angle_beta   90.00000000
_cell_angle_gamma   120.00000634
_symmetry_Int_Tables_number   1
_chemical_formula_structural   CdI2
_chemical_formula_sum   'Cd15 I30'
_cell_volume   1803.49924435
_cell_formula_units_Z   15
loop_
 _symmetry_equiv_pos_site_id
 _symmetry_equiv_pos_as_xyz
  1  'x, y, z'
loop_
 _atom_site_type_symbol
 _atom_site_label
 _atom_site_symmetry_multiplicity
 _atom_site_fract_x
 _atom_site_fract_y
 _atom_site_fract_z
 _atom_site_occupancy
  Cd  Cd0  1  0.00000000  0.00000000  0.01666900  1
  Cd  Cd1  1  0.00000000  0.00000000  0.81666300  1
  Cd  Cd2  1  0.33333300  0.66666700  0.61666200  1
  Cd  Cd3  1  0.00000000  0.00000000  0.68333400  1
  Cd  Cd4  1  0.33333300  0.66666700  0.48334100  1
  Cd  Cd5  1  0.33333300  0.66666700  0.94999400  1
  Cd  Cd6  1  0.00000000  0.00000000  0.55001100  1
  Cd  Cd7  1  0.00000000  0.00000000  0.28333600  1
  Cd  Cd8  1  0.33333300  0.66666700  0.21666100  1
  Cd  Cd9  1  0.33333300  0.66666700  0.08333100  1
  Cd  Cd10  1  0.00000000  0.00000000  0.14999500  1
  Cd  Cd11  1  0.33333300  0.66666700  0.88333300  1
  Cd  Cd12  1  0.00000000  0.00000000  0.41666400  1
  Cd  Cd13  1  0.33333300  0.66666700  0.74999700  1
  Cd  Cd14  1  0.33333300  0.66666700  0.34998700  1
  I  I15  1  0.66666700  0.33333300  0.56566400  1
  I  I16  1  0.33333300  0.66666700  0.40100600  1
  I  I17  1  0.66666700  0.33333300  0.43231700  1
  I  I18  1  0.00000000  0.00000000  0.33433100  1
  I  I19  1  0.66666700  0.33333300  0.36564600  1
  I  I20  1  0.66666700  0.33333300  0.89899500  1
  I  I21  1  0.66666700  0.33333300  0.96564900  1
  I  I22  1  0.66666700  0.33333300  0.23232400  1
  I  I23  1  0.33333300  0.66666700  0.53435800  1
  I  I24  1  0.66666700  0.33333300  0.69899100  1
  I  I25  1  0.00000000  0.00000000  0.86767900  1
  I  I26  1  0.66666700  0.33333300  0.76565400  1
  I  I27  1  0.33333300  0.66666700  0.66768200  1
  I  I28  1  0.33333300  0.66666700  0.80101700  1
  I  I29  1  0.00000000  0.00000000  0.46768400  1
  I  I30  1  0.00000000  0.00000000  0.73434100  1
  I  I31  1  0.66666700  0.33333300  0.63231700  1
  I  I32  1  0.00000000  0.00000000  0.20100900  1
  I  I33  1  0.66666700  0.33333300  0.09898800  1
  I  I34  1  0.00000000  0.00000000  0.60100100  1
  I  I35  1  0.33333300  0.66666700  0.00101700  1
  I  I36  1  0.33333300  0.66666700  0.13434800  1
  I  I37  1  0.00000000  0.00000000  0.06767300  1
  I  I38  1  0.66666700  0.33333300  0.03232700  1
  I  I39  1  0.33333300  0.66666700  0.26768200  1
  I  I40  1  0.66666700  0.33333300  0.29899800  1
  I  I41  1  0.00000000  0.00000000  0.93433700  1
  I  I42  1  0.66666700  0.33333300  0.83232300  1
  I  I43  1  0.66666700  0.33333300  0.16565500  1
  I  I44  1  0.66666700  0.33333300  0.49900500  1
