# generated using pymatgen
data_SiO2
_symmetry_space_group_name_H-M   'P 1'
_cell_length_a   22.92815328
_cell_length_b   22.92815328
_cell_length_c   9.83369500
_cell_angle_alpha   90.00000000
_cell_angle_beta   90.00000000
_cell_angle_gamma   119.99999794
_symmetry_Int_Tables_number   1
_chemical_formula_structural   SiO2
_chemical_formula_sum   'Si48 O96'
_cell_volume   4476.98385187
_cell_formula_units_Z   48
loop_
 _symmetry_equiv_pos_site_id
 _symmetry_equiv_pos_as_xyz
  1  'x, y, z'
loop_
 _atom_site_type_symbol
 _atom_site_label
 _atom_site_symmetry_multiplicity
 _atom_site_fract_x
 _atom_site_fract_y
 _atom_site_fract_z
 _atom_site_occupancy
  Si  Si0  1  0.46928400  0.66699100  0.33755100  1
  Si  Si1  1  0.19770700  0.53071600  0.66244900  1
  Si  Si2  1  0.92546900  0.39212500  0.15408900  1
  Si  Si3  1  0.53334400  0.92546900  0.84591100  1
  Si  Si4  1  0.66699100  0.19770700  0.66244900  1
  Si  Si5  1  0.46665600  0.39212500  0.84591100  1
  Si  Si6  1  0.92546900  0.39212500  0.84591100  1
  Si  Si7  1  0.80229300  0.33300900  0.33755100  1
  Si  Si8  1  0.80229300  0.46928400  0.33755100  1
  Si  Si9  1  0.53071600  0.33300900  0.33755100  1
  Si  Si10  1  0.53334400  0.92546900  0.15408900  1
  Si  Si11  1  0.46928400  0.80229300  0.33755100  1
  Si  Si12  1  0.53334400  0.60787500  0.84591100  1
  Si  Si13  1  0.33300900  0.53071600  0.66244900  1
  Si  Si14  1  0.07453100  0.46665600  0.84591100  1
  Si  Si15  1  0.19770700  0.66699100  0.33755100  1
  Si  Si16  1  0.60787500  0.07453100  0.84591100  1
  Si  Si17  1  0.07453100  0.46665600  0.15408900  1
  Si  Si18  1  0.46665600  0.07453100  0.84591100  1
  Si  Si19  1  0.53334400  0.60787500  0.15408900  1
  Si  Si20  1  0.53071600  0.19770700  0.33755100  1
  Si  Si21  1  0.39212500  0.46665600  0.84591100  1
  Si  Si22  1  0.66699100  0.19770700  0.33755100  1
  Si  Si23  1  0.66699100  0.46928400  0.33755100  1
  Si  Si24  1  0.39212500  0.46665600  0.15408900  1
  Si  Si25  1  0.07453100  0.60787500  0.15408900  1
  Si  Si26  1  0.39212500  0.92546900  0.15408900  1
  Si  Si27  1  0.46928400  0.66699100  0.66244900  1
  Si  Si28  1  0.60787500  0.53334400  0.15408900  1
  Si  Si29  1  0.33300900  0.80229300  0.33755100  1
  Si  Si30  1  0.39212500  0.92546900  0.84591100  1
  Si  Si31  1  0.19770700  0.53071600  0.33755100  1
  Si  Si32  1  0.80229300  0.46928400  0.66244900  1
  Si  Si33  1  0.60787500  0.53334400  0.84591100  1
  Si  Si34  1  0.46928400  0.80229300  0.66244900  1
  Si  Si35  1  0.80229300  0.33300900  0.66244900  1
  Si  Si36  1  0.46665600  0.39212500  0.15408900  1
  Si  Si37  1  0.19770700  0.66699100  0.66244900  1
  Si  Si38  1  0.92546900  0.53334400  0.15408900  1
  Si  Si39  1  0.07453100  0.60787500  0.84591100  1
  Si  Si40  1  0.92546900  0.53334400  0.84591100  1
  Si  Si41  1  0.33300900  0.53071600  0.33755100  1
  Si  Si42  1  0.53071600  0.33300900  0.66244900  1
  Si  Si43  1  0.66699100  0.46928400  0.66244900  1
  Si  Si44  1  0.46665600  0.07453100  0.15408900  1
  Si  Si45  1  0.60787500  0.07453100  0.15408900  1
  Si  Si46  1  0.53071600  0.19770700  0.66244900  1
  Si  Si47  1  0.33300900  0.80229300  0.66244900  1
  O  O48  1  0.39438100  0.60561900  0.29784900  1
  O  O49  1  0.39438100  0.60561900  0.70215100  1
  O  O50  1  0.59537000  0.59537000  0.80294800  1
  O  O51  1  0.60561900  0.39438100  0.70215100  1
  O  O52  1  0.47224800  0.13153500  0.74070700  1
  O  O53  1  0.86846500  0.52775200  0.25929300  1
  O  O54  1  0.46389000  0.53611000  0.84096900  1
  O  O55  1  0.33304200  0.81506100  0.50000000  1
  O  O56  1  0.90613600  0.54481600  0.00000000  1
  O  O57  1  0.59537000  0.59537000  0.19705200  1
  O  O58  1  0.53611000  0.07222000  0.84096900  1
  O  O59  1  0.21123700  0.60561900  0.29784900  1
  O  O60  1  0.65928700  0.13153500  0.25929300  1
  O  O61  1  0.09386400  0.63868000  0.00000000  1
  O  O62  1  0.65928700  0.52775200  0.25929300  1
  O  O63  1  0.73723600  0.26276400  0.70927300  1
  O  O64  1  0.39438100  0.78876300  0.70215100  1
  O  O65  1  0.18493900  0.66695800  0.50000000  1
  O  O66  1  0.78876300  0.39438100  0.29784900  1
  O  O67  1  0.00000000  0.40463000  0.19705200  1
  O  O68  1  0.59537000  0.00000000  0.19705200  1
  O  O69  1  0.07222000  0.53611000  0.15903100  1
  O  O70  1  0.52552900  0.26276400  0.29072700  1
  O  O71  1  0.21123700  0.60561900  0.70215100  1
  O  O72  1  0.45518400  0.36132000  0.00000000  1
  O  O73  1  0.07222000  0.53611000  0.84096900  1
  O  O74  1  0.63868000  0.09386400  0.00000000  1
  O  O75  1  0.13153500  0.47224800  0.74070700  1
  O  O76  1  0.73723600  0.26276400  0.29072700  1
  O  O77  1  0.78876300  0.39438100  0.70215100  1
  O  O78  1  0.34071300  0.86846500  0.74070700  1
  O  O79  1  0.92778000  0.46389000  0.84096900  1
  O  O80  1  0.47224800  0.34071300  0.25929300  1
  O  O81  1  0.66695800  0.18493900  0.50000000  1
  O  O82  1  0.26276400  0.73723600  0.70927300  1
  O  O83  1  0.13153500  0.65928700  0.25929300  1
  O  O84  1  0.36132000  0.90613600  0.00000000  1
  O  O85  1  0.18493900  0.51798100  0.50000000  1
  O  O86  1  0.66695800  0.48201900  0.50000000  1
  O  O87  1  0.48201900  0.66695800  0.50000000  1
  O  O88  1  0.39438100  0.78876300  0.29784900  1
  O  O89  1  0.52775200  0.65928700  0.74070700  1
  O  O90  1  0.00000000  0.59537000  0.80294800  1
  O  O91  1  0.09386400  0.45518400  0.00000000  1
  O  O92  1  0.51798100  0.18493900  0.50000000  1
  O  O93  1  0.52775200  0.86846500  0.74070700  1
  O  O94  1  0.53611000  0.46389000  0.84096900  1
  O  O95  1  0.73723600  0.47447100  0.70927300  1
  O  O96  1  0.00000000  0.59537000  0.19705200  1
  O  O97  1  0.65928700  0.13153500  0.74070700  1
  O  O98  1  0.52552900  0.26276400  0.70927300  1
  O  O99  1  0.53611000  0.07222000  0.15903100  1
  O  O100  1  0.40463000  0.00000000  0.19705200  1
  O  O101  1  0.40463000  0.00000000  0.80294800  1
  O  O102  1  0.90613600  0.36132000  0.00000000  1
  O  O103  1  0.40463000  0.40463000  0.19705200  1
  O  O104  1  0.86846500  0.52775200  0.74070700  1
  O  O105  1  0.65928700  0.52775200  0.74070700  1
  O  O106  1  0.63868000  0.54481600  0.00000000  1
  O  O107  1  0.81506100  0.33304200  0.50000000  1
  O  O108  1  0.46389000  0.53611000  0.15903100  1
  O  O109  1  0.26276400  0.73723600  0.29072700  1
  O  O110  1  0.40463000  0.40463000  0.80294800  1
  O  O111  1  0.00000000  0.40463000  0.80294800  1
  O  O112  1  0.47224800  0.13153500  0.25929300  1
  O  O113  1  0.59537000  0.00000000  0.80294800  1
  O  O114  1  0.54481600  0.63868000  0.00000000  1
  O  O115  1  0.60561900  0.21123700  0.70215100  1
  O  O116  1  0.26276400  0.52552900  0.29072700  1
  O  O117  1  0.34071300  0.47224800  0.74070700  1
  O  O118  1  0.46389000  0.92778000  0.84096900  1
  O  O119  1  0.52775200  0.86846500  0.25929300  1
  O  O120  1  0.33304200  0.51798100  0.50000000  1
  O  O121  1  0.60561900  0.21123700  0.29784900  1
  O  O122  1  0.47447100  0.73723600  0.29072700  1
  O  O123  1  0.13153500  0.65928700  0.74070700  1
  O  O124  1  0.51798100  0.33304200  0.50000000  1
  O  O125  1  0.47224800  0.34071300  0.74070700  1
  O  O126  1  0.81506100  0.48201900  0.50000000  1
  O  O127  1  0.45518400  0.09386400  0.00000000  1
  O  O128  1  0.47447100  0.73723600  0.70927300  1
  O  O129  1  0.34071300  0.86846500  0.25929300  1
  O  O130  1  0.86846500  0.34071300  0.74070700  1
  O  O131  1  0.92778000  0.46389000  0.15903100  1
  O  O132  1  0.52775200  0.65928700  0.25929300  1
  O  O133  1  0.36132000  0.45518400  0.00000000  1
  O  O134  1  0.53611000  0.46389000  0.15903100  1
  O  O135  1  0.86846500  0.34071300  0.25929300  1
  O  O136  1  0.48201900  0.81506100  0.50000000  1
  O  O137  1  0.13153500  0.47224800  0.25929300  1
  O  O138  1  0.54481600  0.90613600  0.00000000  1
  O  O139  1  0.34071300  0.47224800  0.25929300  1
  O  O140  1  0.26276400  0.52552900  0.70927300  1
  O  O141  1  0.60561900  0.39438100  0.29784900  1
  O  O142  1  0.46389000  0.92778000  0.15903100  1
  O  O143  1  0.73723600  0.47447100  0.29072700  1
