# generated using pymatgen
data_SiC4(SN)4
_symmetry_space_group_name_H-M   'P 1'
_cell_length_a   14.28040507
_cell_length_b   14.28040507
_cell_length_c   14.28040507
_cell_angle_alpha   115.75129492
_cell_angle_beta   115.75129492
_cell_angle_gamma   97.53135696
_symmetry_Int_Tables_number   1
_chemical_formula_structural   SiC4(SN)4
_chemical_formula_sum   'Si8 C32 S32 N32'
_cell_volume   2171.14234000
_cell_formula_units_Z   8
loop_
 _symmetry_equiv_pos_site_id
 _symmetry_equiv_pos_as_xyz
  1  'x, y, z'
loop_
 _atom_site_type_symbol
 _atom_site_label
 _atom_site_symmetry_multiplicity
 _atom_site_fract_x
 _atom_site_fract_y
 _atom_site_fract_z
 _atom_site_occupancy
  Si  Si0  1  0.97713900  0.86996600  0.21377900  1
  Si  Si1  1  0.23663900  0.02286100  0.89282700  1
  Si  Si2  1  0.65618700  0.76336100  0.78622100  1
  Si  Si3  1  0.77286100  0.38003400  0.28622100  1
  Si  Si4  1  0.51336100  0.22713900  0.60717300  1
  Si  Si5  1  0.13003400  0.34381300  0.10717300  1
  Si  Si6  1  0.61996600  0.90618700  0.39282700  1
  Si  Si7  1  0.09381300  0.48663900  0.71377900  1
  C  C8  1  0.13127200  0.09899200  0.42383900  1
  C  C9  1  0.14796200  0.28548000  0.89565900  1
  C  C10  1  0.84899200  0.92515300  0.46772100  1
  C  C11  1  0.71452000  0.61017800  0.86248200  1
  C  C12  1  0.03548000  0.63982200  0.63751800  1
  C  C13  1  0.00230400  0.39796200  0.36248200  1
  C  C14  1  0.81617400  0.98844400  0.00239000  1
  C  C15  1  0.32207400  0.50928000  0.78040100  1
  C  C16  1  0.93382600  0.26155600  0.49761000  1
  C  C17  1  0.02112100  0.70832700  0.28040100  1
  C  C18  1  0.73844400  0.23605500  0.67227000  1
  C  C19  1  0.29167300  0.57207400  0.31279400  1
  C  C20  1  0.01155600  0.01394500  0.82773000  1
  C  C21  1  0.25928000  0.97887900  0.68720600  1
  C  C22  1  0.61872800  0.15100800  0.07616100  1
  C  C23  1  0.42792600  0.74072000  0.71959900  1
  C  C24  1  0.18621500  0.18382600  0.17227000  1
  C  C25  1  0.74769600  0.85203800  0.13751800  1
  C  C26  1  0.60203800  0.96452000  0.60434100  1
  C  C27  1  0.29256800  0.86872800  0.96772100  1
  C  C28  1  0.45832700  0.67792600  0.18720600  1
  C  C29  1  0.98605500  0.81378500  0.99761000  1
  C  C30  1  0.49072000  0.27112100  0.81279400  1
  C  C31  1  0.72887900  0.54167300  0.21959900  1
  C  C32  1  0.56378500  0.06617400  0.32773000  1
  C  C33  1  0.90100800  0.32484700  0.03227900  1
  C  C34  1  0.76394500  0.43621500  0.50239000  1
  C  C35  1  0.36017800  0.99769600  0.39565900  1
  C  C36  1  0.45743200  0.38127200  0.53227900  1
  C  C37  1  0.38982200  0.25230400  0.10434100  1
  C  C38  1  0.07484700  0.54256800  0.92383900  1
  C  C39  1  0.67515300  0.70743200  0.57616100  1
  S  S40  1  0.30440400  0.72701600  0.68341200  1
  S  S41  1  0.77652000  0.31494000  0.98710400  1
  S  S42  1  0.59106500  0.00144400  0.71855600  1
  S  S43  1  0.99855600  0.71711200  0.58962100  1
  S  S44  1  0.06494000  0.57783500  0.03842000  1
  S  S45  1  0.97348000  0.93506000  0.51289600  1
  S  S46  1  0.37099200  0.55440400  0.07738800  1
  S  S47  1  0.12749100  0.40893500  0.41037900  1
  S  S48  1  0.46711200  0.37749100  0.21855600  1
  S  S49  1  0.22027300  0.09716800  0.20514100  1
  S  S50  1  0.32783500  0.78941600  0.01289600  1
  S  S51  1  0.52972700  0.15283200  0.29485900  1
  S  S52  1  0.15893500  0.24855600  0.78144400  1
  S  S53  1  0.85797300  0.23486800  0.70514100  1
  S  S54  1  0.47701600  0.29360400  0.92261200  1
  S  S55  1  0.89202700  0.01513200  0.79485900  1
  S  S56  1  0.37900800  0.69559600  0.42261200  1
  S  S57  1  0.76513200  0.47027300  0.62310500  1
  S  S58  1  0.68506000  0.67216500  0.46158000  1
  S  S59  1  0.27298400  0.95639600  0.57738800  1
  S  S60  1  0.42216500  0.46058400  0.48710400  1
  S  S61  1  0.28288800  0.87250900  0.28144400  1
  S  S62  1  0.44559600  0.52298400  0.81658800  1
  S  S63  1  0.98486800  0.77972700  0.87689500  1
  S  S64  1  0.90283200  0.10797300  0.12310500  1
  S  S65  1  0.84716800  0.14202700  0.37689500  1
  S  S66  1  0.21058400  0.22348000  0.53842000  1
  S  S67  1  0.62250900  0.84106500  0.08962100  1
  S  S68  1  0.70639600  0.62900800  0.18341200  1
  S  S69  1  0.75144400  0.53288800  0.91037900  1
  S  S70  1  0.04360400  0.62099200  0.31658800  1
  S  S71  1  0.53941600  0.02652000  0.96158000  1
  N  N72  1  0.68586000  0.66944500  0.82560100  1
  N  N73  1  0.76396500  0.40983500  0.40997600  1
  N  N74  1  0.06414000  0.58055500  0.67439900  1
  N  N75  1  0.48566500  0.32140000  0.56834700  1
  N  N76  1  0.75014100  0.89601100  0.90997600  1
  N  N77  1  0.08268200  0.51433500  0.83573600  1
  N  N78  1  0.26433500  0.92860000  0.93165300  1
  N  N79  1  0.52337500  0.75258800  0.74734300  1
  N  N80  1  0.90615600  0.38974100  0.32560100  1
  N  N81  1  0.07140000  0.00305400  0.33573600  1
  N  N82  1  0.74475400  0.47396800  0.24734300  1
  N  N83  1  0.99985900  0.35398900  0.59002400  1
  N  N84  1  0.24741200  0.99475400  0.77078700  1
  N  N85  1  0.66731800  0.73566500  0.66426400  1
  N  N86  1  0.52603200  0.77337500  0.27078700  1
  N  N87  1  0.50258800  0.25524600  0.72921300  1
  N  N88  1  0.61025900  0.93586000  0.51641500  1
  N  N89  1  0.41944500  0.09384400  0.48358500  1
  N  N90  1  0.33055500  0.15615600  0.01641500  1
  N  N91  1  0.64601100  0.23603500  0.64587000  1
  N  N92  1  0.15983500  0.24985900  0.14587000  1
  N  N93  1  0.99694600  0.33268200  0.06834700  1
  N  N94  1  0.22662500  0.49741200  0.75265700  1
  N  N95  1  0.98603500  0.84016500  0.09002400  1
  N  N96  1  0.75305400  0.91731800  0.43165300  1
  N  N97  1  0.84384400  0.86025900  0.17439900  1
  N  N98  1  0.59016500  0.00014100  0.35413000  1
  N  N99  1  0.13974100  0.31414000  0.98358500  1
  N  N100  1  0.00524600  0.77603200  0.25265700  1
  N  N101  1  0.10398900  0.01396500  0.85413000  1
  N  N102  1  0.22396800  0.47662500  0.22921300  1
  N  N103  1  0.67860000  0.24694600  0.16426400  1
