# generated using pymatgen
data_Ba17Al3O7
_symmetry_space_group_name_H-M   'P 1'
_cell_length_a   15.10908238
_cell_length_b   15.10908238
_cell_length_c   18.51051414
_cell_angle_alpha   89.98789627
_cell_angle_beta   89.98789627
_cell_angle_gamma   89.99108647
_symmetry_Int_Tables_number   1
_chemical_formula_structural   Ba17Al3O7
_chemical_formula_sum   'Ba68 Al12 O28'
_cell_volume   4225.66082510
_cell_formula_units_Z   4
loop_
 _symmetry_equiv_pos_site_id
 _symmetry_equiv_pos_as_xyz
  1  'x, y, z'
loop_
 _atom_site_type_symbol
 _atom_site_label
 _atom_site_symmetry_multiplicity
 _atom_site_fract_x
 _atom_site_fract_y
 _atom_site_fract_z
 _atom_site_occupancy
  Ba  Ba0  1  0.75010135  0.75010135  0.14921287  1
  Ba  Ba1  1  0.88475864  0.61537328  0.98504247  1
  Ba  Ba2  1  0.11504751  0.11504751  0.51496623  1
  Ba  Ba3  1  0.52859506  0.24595624  0.29251791  1
  Ba  Ba4  1  0.97125493  0.25445103  0.29202031  1
  Ba  Ba5  1  0.47138224  0.74571767  0.20803115  1
  Ba  Ba6  1  0.06912617  0.43063900  0.41043358  1
  Ba  Ba7  1  0.52861776  0.25428233  0.79196885  1
  Ba  Ba8  1  0.56936100  0.93087383  0.58956642  1
  Ba  Ba9  1  0.75404376  0.47140494  0.70748209  1
  Ba  Ba10  1  0.06901777  0.06901777  0.91042752  1
  Ba  Ba11  1  0.11524136  0.38462672  0.01495753  1
  Ba  Ba12  1  0.74554897  0.02874507  0.70797969  1
  Ba  Ba13  1  0.24595624  0.52859506  0.29251791  1
  Ba  Ba14  1  0.38462672  0.11524136  0.01495753  1
  Ba  Ba15  1  0.89723536  0.25490601  0.09009904  1
  Ba  Ba16  1  0.48697534  0.48697534  0.69140423  1
  Ba  Ba17  1  0.98704896  0.51269278  0.80853912  1
  Ba  Ba18  1  0.74571767  0.47138224  0.20803115  1
  Ba  Ba19  1  0.63173052  0.86831533  0.37208753  1
  Ba  Ba20  1  0.75432855  0.02851656  0.20753098  1
  Ba  Ba21  1  0.47140494  0.75404376  0.70748209  1
  Ba  Ba22  1  0.61550476  0.61550476  0.48505205  1
  Ba  Ba23  1  0.43063900  0.06912617  0.41043358  1
  Ba  Ba24  1  0.01295104  0.48730722  0.19146088  1
  Ba  Ba25  1  0.86836718  0.86836718  0.87190870  1
  Ba  Ba26  1  0.02874507  0.74554897  0.70797969  1
  Ba  Ba27  1  0.10276464  0.74509399  0.90990096  1
  Ba  Ba28  1  0.74998002  0.74998002  0.64925707  1
  Ba  Ba29  1  0.39725026  0.75494894  0.90974020  1
  Ba  Ba30  1  0.13163282  0.13163282  0.12809130  1
  Ba  Ba31  1  0.61537328  0.88475864  0.98504247  1
  Ba  Ba32  1  0.75528925  0.10256230  0.40973086  1
  Ba  Ba33  1  0.63176791  0.63176791  0.87221609  1
  Ba  Ba34  1  0.36823209  0.36823209  0.12778391  1
  Ba  Ba35  1  0.74509399  0.10276464  0.90990096  1
  Ba  Ba36  1  0.93098223  0.93098223  0.08957248  1
  Ba  Ba37  1  0.13168467  0.36826948  0.62791247  1
  Ba  Ba38  1  0.25445103  0.97125493  0.29202031  1
  Ba  Ba39  1  0.10256230  0.75528925  0.40973086  1
  Ba  Ba40  1  0.60286767  0.25458870  0.59008436  1
  Ba  Ba41  1  0.51269278  0.98704896  0.80853912  1
  Ba  Ba42  1  0.24505106  0.60274974  0.09025980  1
  Ba  Ba43  1  0.89743770  0.24471075  0.59026914  1
  Ba  Ba44  1  0.25428233  0.52861776  0.79196885  1
  Ba  Ba45  1  0.24471075  0.89743770  0.59026914  1
  Ba  Ba46  1  0.86831533  0.63173052  0.37208753  1
  Ba  Ba47  1  0.38449524  0.38449524  0.51494795  1
  Ba  Ba48  1  0.02851656  0.75432855  0.20753098  1
  Ba  Ba49  1  0.25001998  0.25001998  0.35074293  1
  Ba  Ba50  1  0.36826948  0.13168467  0.62791247  1
  Ba  Ba51  1  0.51302466  0.51302466  0.30859577  1
  Ba  Ba52  1  0.97148344  0.24567145  0.79246902  1
  Ba  Ba53  1  0.25458870  0.60286767  0.59008436  1
  Ba  Ba54  1  0.88495249  0.88495249  0.48503377  1
  Ba  Ba55  1  0.98736429  0.98736429  0.30851645  1
  Ba  Ba56  1  0.25490601  0.89723536  0.09009904  1
  Ba  Ba57  1  0.01263571  0.01263571  0.69148355  1
  Ba  Ba58  1  0.74541130  0.39713233  0.40991564  1
  Ba  Ba59  1  0.56949727  0.56949727  0.08936663  1
  Ba  Ba60  1  0.39713233  0.74541130  0.40991564  1
  Ba  Ba61  1  0.75494894  0.39725026  0.90974020  1
  Ba  Ba62  1  0.43050273  0.43050273  0.91063337  1
  Ba  Ba63  1  0.48730722  0.01295104  0.19146088  1
  Ba  Ba64  1  0.24989865  0.24989865  0.85078713  1
  Ba  Ba65  1  0.93087383  0.56936100  0.58956642  1
  Ba  Ba66  1  0.60274974  0.24505106  0.09025980  1
  Ba  Ba67  1  0.24567145  0.97148344  0.79246902  1
  Al  Al68  1  0.33591530  0.33591530  0.69649969  1
  Al  Al69  1  0.16397985  0.16397985  0.69655006  1
  Al  Al70  1  0.83596597  0.66402498  0.80342453  1
  Al  Al71  1  0.66402498  0.83596597  0.80342453  1
  Al  Al72  1  0.33597502  0.16403403  0.19657547  1
  Al  Al73  1  0.16403403  0.33597502  0.19657547  1
  Al  Al74  1  0.66408470  0.66408470  0.30350031  1
  Al  Al75  1  0.75003490  0.25015188  0.74999982  1
  Al  Al76  1  0.25015188  0.75003490  0.74999982  1
  Al  Al77  1  0.83602015  0.83602015  0.30344994  1
  Al  Al78  1  0.24996510  0.74984812  0.25000018  1
  Al  Al79  1  0.74984812  0.24996510  0.25000018  1
  O  O80  1  0.79708544  0.56748763  0.84997130  1
  O  O81  1  0.25007110  0.25007110  0.19814934  1
  O  O82  1  0.20300425  0.06744618  0.65009659  1
  O  O83  1  0.29703832  0.43248212  0.64996333  1
  O  O84  1  0.06744618  0.20300425  0.65009659  1
  O  O85  1  0.63408935  0.63408935  0.21300807  1
  O  O86  1  0.56748763  0.79708544  0.84997130  1
  O  O87  1  0.70301979  0.93251245  0.84985870  1
  O  O88  1  0.56751788  0.70296168  0.35003667  1
  O  O89  1  0.13403386  0.13403386  0.78709814  1
  O  O90  1  0.79699575  0.93255382  0.34990341  1
  O  O91  1  0.43251237  0.20291456  0.15002870  1
  O  O92  1  0.06748755  0.29698021  0.15014130  1
  O  O93  1  0.13403570  0.36587263  0.28712606  1
  O  O94  1  0.20291456  0.43251237  0.15002870  1
  O  O95  1  0.86596614  0.86596614  0.21290186  1
  O  O96  1  0.36591065  0.36591065  0.78699193  1
  O  O97  1  0.24996052  0.24996052  0.69812025  1
  O  O98  1  0.63412737  0.86596430  0.71287394  1
  O  O99  1  0.75003948  0.75003948  0.30187975  1
  O  O100  1  0.29698021  0.06748755  0.15014130  1
  O  O101  1  0.43248212  0.29703832  0.64996333  1
  O  O102  1  0.93251245  0.70301979  0.84985870  1
  O  O103  1  0.93255382  0.79699575  0.34990341  1
  O  O104  1  0.86596430  0.63412737  0.71287394  1
  O  O105  1  0.36587263  0.13403570  0.28712606  1
  O  O106  1  0.74992890  0.74992890  0.80185066  1
  O  O107  1  0.70296168  0.56751788  0.35003667  1
