# generated using pymatgen
data_K2Cd(SeO5)2
_symmetry_space_group_name_H-M   'P 1'
_cell_length_a   6.94316300
_cell_length_b   7.38558232
_cell_length_c   10.95896432
_cell_angle_alpha   77.64477313
_cell_angle_beta   75.07937620
_cell_angle_gamma   70.87090809
_symmetry_Int_Tables_number   1
_chemical_formula_structural   K2Cd(SeO5)2
_chemical_formula_sum   'K4 Cd2 Se4 O20'
_cell_volume   507.84068256
_cell_formula_units_Z   2
loop_
 _symmetry_equiv_pos_site_id
 _symmetry_equiv_pos_as_xyz
  1  'x, y, z'
loop_
 _atom_site_type_symbol
 _atom_site_label
 _atom_site_symmetry_multiplicity
 _atom_site_fract_x
 _atom_site_fract_y
 _atom_site_fract_z
 _atom_site_occupancy
  K  K0  1  0.20886100  0.27106300  0.08313800  1
  K  K1  1  0.79113900  0.72893700  0.91686200  1
  K  K2  1  0.73928700  0.27990200  0.57298600  1
  K  K3  1  0.26071300  0.72009800  0.42701400  1
  Cd  Cd4  1  0.25216300  0.02540600  0.75750500  1
  Cd  Cd5  1  0.74783700  0.97459400  0.24249500  1
  Se  Se6  1  0.72705200  0.77741900  0.58886300  1
  Se  Se7  1  0.27294800  0.22258100  0.41113700  1
  Se  Se8  1  0.25337500  0.77730800  0.07672400  1
  Se  Se9  1  0.74662500  0.22269200  0.92327600  1
  O  O10  1  0.12449100  0.66040300  0.02974100  1
  O  O11  1  0.87550900  0.33959700  0.97025900  1
  O  O12  1  0.54985500  0.67465700  0.57453700  1
  O  O13  1  0.45014500  0.32534300  0.42546300  1
  O  O14  1  0.32499100  0.94365800  0.95693400  1
  O  O15  1  0.67500900  0.05634200  0.04306600  1
  O  O16  1  0.81077900  0.90290500  0.44860700  1
  O  O17  1  0.18922100  0.09709500  0.55139300  1
  O  O18  1  0.09964400  0.90029000  0.19810100  1
  O  O19  1  0.90035600  0.09971000  0.80189900  1
  O  O20  1  0.60918900  0.93562700  0.69560100  1
  O  O21  1  0.39081100  0.06437300  0.30439900  1
  O  O22  1  0.46981400  0.62900300  0.12469900  1
  O  O23  1  0.53018600  0.37099700  0.87530100  1
  O  O24  1  0.92929900  0.61456600  0.63900300  1
  O  O25  1  0.07070100  0.38543400  0.36099700  1
  O  O26  1  0.28361100  0.68298000  0.74834900  1
  O  O27  1  0.71638900  0.31702000  0.25165100  1
  O  O28  1  0.65517400  0.68352100  0.26679300  1
  O  O29  1  0.34482600  0.31647900  0.73320700  1
