# generated using pymatgen
data_Os(CO)4
_symmetry_space_group_name_H-M   'P 1'
_cell_length_a   9.58199500
_cell_length_b   9.65032809
_cell_length_c   14.26531405
_cell_angle_alpha   87.46267328
_cell_angle_beta   101.31648916
_cell_angle_gamma   110.20490985
_symmetry_Int_Tables_number   1
_chemical_formula_structural   Os(CO)4
_chemical_formula_sum   'Os8 C32 O32'
_cell_volume   1213.46820549
_cell_formula_units_Z   8
loop_
 _symmetry_equiv_pos_site_id
 _symmetry_equiv_pos_as_xyz
  1  'x, y, z'
loop_
 _atom_site_type_symbol
 _atom_site_label
 _atom_site_symmetry_multiplicity
 _atom_site_fract_x
 _atom_site_fract_y
 _atom_site_fract_z
 _atom_site_occupancy
  Os  Os0  1  0.51315800  0.07831200  0.27326900  1
  Os  Os1  1  0.20301300  0.89875700  0.80743700  1
  Os  Os2  1  0.09710500  0.56161200  0.78475900  1
  Os  Os3  1  0.90289500  0.43838800  0.21524100  1
  Os  Os4  1  0.48684200  0.92168800  0.72673100  1
  Os  Os5  1  0.66927500  0.39989400  0.34474200  1
  Os  Os6  1  0.33072500  0.60010600  0.65525800  1
  Os  Os7  1  0.79698700  0.10124300  0.19256300  1
  C  C8  1  0.24353400  0.39212000  0.62784800  1
  C  C9  1  0.97631100  0.11277000  0.14921900  1
  C  C10  1  0.97424600  0.56010100  0.87536900  1
  C  C11  1  0.51027200  0.42482600  0.24284900  1
  C  C12  1  0.82535500  0.35196700  0.43586900  1
  C  C13  1  0.17464500  0.64803300  0.56413100  1
  C  C14  1  0.05709500  0.41483500  0.32019500  1
  C  C15  1  0.54607700  0.35848100  0.43939700  1
  C  C16  1  0.34162300  0.09650400  0.31369400  1
  C  C17  1  0.94290500  0.58516500  0.67980500  1
  C  C18  1  0.27049100  0.55609800  0.88263500  1
  C  C19  1  0.11238200  0.90854500  0.67237400  1
  C  C20  1  0.45392300  0.64151900  0.56060300  1
  C  C21  1  0.57661100  0.12876900  0.75553800  1
  C  C22  1  0.70671400  0.89168700  0.17597300  1
  C  C23  1  0.02368900  0.88723000  0.85078100  1
  C  C24  1  0.02575400  0.43989900  0.12463100  1
  C  C25  1  0.55347200  0.86393700  0.85639400  1
  C  C26  1  0.72950900  0.44390200  0.11736500  1
  C  C27  1  0.61252600  0.04615500  0.40105900  1
  C  C28  1  0.42338900  0.87123100  0.24446200  1
  C  C29  1  0.70638600  0.14391200  0.06516200  1
  C  C30  1  0.65837700  0.90349600  0.68630600  1
  C  C31  1  0.44652800  0.13606300  0.14360600  1
  C  C32  1  0.29361400  0.85608800  0.93483800  1
  C  C33  1  0.75646600  0.60788000  0.37215200  1
  C  C34  1  0.97112400  0.64695100  0.23551400  1
  C  C35  1  0.88761800  0.09145500  0.32762600  1
  C  C36  1  0.38747400  0.95384500  0.59894100  1
  C  C37  1  0.48972800  0.57517400  0.75715100  1
  C  C38  1  0.02887600  0.35304900  0.76448600  1
  C  C39  1  0.29328600  0.10831300  0.82402700  1
  O  O40  1  0.33808200  0.97976700  0.52180600  1
  O  O41  1  0.33993200  0.83521300  0.01380200  1
  O  O42  1  0.66006800  0.16478700  0.98619800  1
  O  O43  1  0.51860900  0.66225500  0.49766500  1
  O  O44  1  0.66191800  0.02023300  0.47819400  1
  O  O45  1  0.34171900  0.23569200  0.83711500  1
  O  O46  1  0.39417800  0.16395800  0.06775800  1
  O  O47  1  0.97889700  0.22454300  0.75698700  1
  O  O48  1  0.05312900  0.92018600  0.59499500  1
  O  O49  1  0.91992500  0.89097900  0.88013000  1
  O  O50  1  0.91049800  0.32781900  0.49861700  1
  O  O51  1  0.58776300  0.55527000  0.81141400  1
  O  O52  1  0.41223700  0.44473000  0.18858600  1
  O  O53  1  0.89677600  0.55407500  0.92981900  1
  O  O54  1  0.79950100  0.73336000  0.39084900  1
  O  O55  1  0.60582200  0.83604200  0.93224200  1
  O  O56  1  0.20049900  0.26664000  0.60915100  1
  O  O57  1  0.84130700  0.58752200  0.62060600  1
  O  O58  1  0.36109500  0.74423800  0.23356800  1
  O  O59  1  0.08950200  0.67218100  0.50138300  1
  O  O60  1  0.08007500  0.10902100  0.11987000  1
  O  O61  1  0.02110300  0.77545700  0.24301300  1
  O  O62  1  0.36263600  0.54186600  0.94468000  1
  O  O63  1  0.65828100  0.76430800  0.16288500  1
  O  O64  1  0.63890500  0.25576200  0.76643200  1
  O  O65  1  0.63736400  0.45813400  0.05532000  1
  O  O66  1  0.76630500  0.89466800  0.66573300  1
  O  O67  1  0.23369500  0.10533200  0.33426700  1
  O  O68  1  0.15869300  0.41247800  0.37939400  1
  O  O69  1  0.94687100  0.07981400  0.40500500  1
  O  O70  1  0.48139100  0.33774500  0.50233500  1
  O  O71  1  0.10322400  0.44592500  0.07018100  1
