# generated using pymatgen
data_In4Au9
_symmetry_space_group_name_H-M   'P 1'
_cell_length_a   10.07753700
_cell_length_b   10.07753700
_cell_length_c   10.07753700
_cell_angle_alpha   90.00000000
_cell_angle_beta   90.00000000
_cell_angle_gamma   90.00000000
_symmetry_Int_Tables_number   1
_chemical_formula_structural   In4Au9
_chemical_formula_sum   'In16 Au36'
_cell_volume   1023.44192574
_cell_formula_units_Z   4
loop_
 _symmetry_equiv_pos_site_id
 _symmetry_equiv_pos_as_xyz
  1  'x, y, z'
loop_
 _atom_site_type_symbol
 _atom_site_label
 _atom_site_symmetry_multiplicity
 _atom_site_fract_x
 _atom_site_fract_y
 _atom_site_fract_z
 _atom_site_occupancy
  In  In0  1  0.87656700  0.87656700  0.12343300  1
  In  In1  1  0.46201400  0.80869300  0.19130700  1
  In  In2  1  0.80869300  0.46201400  0.19130700  1
  In  In3  1  0.80869300  0.80869300  0.53798600  1
  In  In4  1  0.87656700  0.12343300  0.87656700  1
  In  In5  1  0.19130700  0.19130700  0.53798600  1
  In  In6  1  0.19130700  0.53798600  0.19130700  1
  In  In7  1  0.12343300  0.12343300  0.12343300  1
  In  In8  1  0.53798600  0.80869300  0.80869300  1
  In  In9  1  0.46201400  0.19130700  0.80869300  1
  In  In10  1  0.80869300  0.19130700  0.46201400  1
  In  In11  1  0.53798600  0.19130700  0.19130700  1
  In  In12  1  0.80869300  0.53798600  0.80869300  1
  In  In13  1  0.19130700  0.46201400  0.80869300  1
  In  In14  1  0.12343300  0.87656700  0.87656700  1
  In  In15  1  0.19130700  0.80869300  0.46201400  1
  Au  Au16  1  0.03373000  0.68532600  0.68532600  1
  Au  Au17  1  0.03373000  0.31467400  0.31467400  1
  Au  Au18  1  0.00000000  0.36107200  0.00000000  1
  Au  Au19  1  0.50000000  0.86083600  0.50000000  1
  Au  Au20  1  0.31467400  0.68532600  0.96627000  1
  Au  Au21  1  0.68532600  0.03373000  0.68532600  1
  Au  Au22  1  0.31467400  0.31467400  0.03373000  1
  Au  Au23  1  0.68532600  0.68532600  0.03373000  1
  Au  Au24  1  0.68532600  0.31467400  0.96627000  1
  Au  Au25  1  0.83288300  0.83288300  0.83288300  1
  Au  Au26  1  0.31467400  0.96627000  0.68532600  1
  Au  Au27  1  0.83288300  0.16711700  0.16711700  1
  Au  Au28  1  0.60848100  0.60848100  0.60848100  1
  Au  Au29  1  0.67549800  0.32450200  0.67549800  1
  Au  Au30  1  0.50000000  0.50000000  0.86083600  1
  Au  Au31  1  0.96627000  0.31467400  0.68532600  1
  Au  Au32  1  0.68532600  0.96627000  0.31467400  1
  Au  Au33  1  0.32450200  0.32450200  0.32450200  1
  Au  Au34  1  0.39151900  0.39151900  0.60848100  1
  Au  Au35  1  0.50000000  0.13916400  0.50000000  1
  Au  Au36  1  0.86083600  0.50000000  0.50000000  1
  Au  Au37  1  0.32450200  0.67549800  0.67549800  1
  Au  Au38  1  0.00000000  0.00000000  0.63892800  1
  Au  Au39  1  0.96627000  0.68532600  0.31467400  1
  Au  Au40  1  0.00000000  0.00000000  0.36107200  1
  Au  Au41  1  0.16711700  0.16711700  0.83288300  1
  Au  Au42  1  0.36107200  0.00000000  0.00000000  1
  Au  Au43  1  0.00000000  0.63892800  0.00000000  1
  Au  Au44  1  0.50000000  0.50000000  0.13916400  1
  Au  Au45  1  0.67549800  0.67549800  0.32450200  1
  Au  Au46  1  0.16711700  0.83288300  0.16711700  1
  Au  Au47  1  0.39151900  0.60848100  0.39151900  1
  Au  Au48  1  0.60848100  0.39151900  0.39151900  1
  Au  Au49  1  0.63892800  0.00000000  0.00000000  1
  Au  Au50  1  0.31467400  0.03373000  0.31467400  1
  Au  Au51  1  0.13916400  0.50000000  0.50000000  1
