# generated using pymatgen
data_CdI2
_symmetry_space_group_name_H-M   'P 1'
_cell_length_a   4.33655406
_cell_length_b   4.33655406
_cell_length_c   184.03396000
_cell_angle_alpha   90.00000000
_cell_angle_beta   90.00000000
_cell_angle_gamma   120.00000094
_symmetry_Int_Tables_number   1
_chemical_formula_structural   CdI2
_chemical_formula_sum   'Cd25 I50'
_cell_volume   2997.21659561
_cell_formula_units_Z   25
loop_
 _symmetry_equiv_pos_site_id
 _symmetry_equiv_pos_as_xyz
  1  'x, y, z'
loop_
 _atom_site_type_symbol
 _atom_site_label
 _atom_site_symmetry_multiplicity
 _atom_site_fract_x
 _atom_site_fract_y
 _atom_site_fract_z
 _atom_site_occupancy
  Cd  Cd0  1  0.33333300  0.66666700  0.97000000  1
  Cd  Cd1  1  0.66666700  0.33333300  0.64999200  1
  Cd  Cd2  1  0.66666700  0.33333300  0.57000400  1
  Cd  Cd3  1  0.33333300  0.66666700  0.77000400  1
  Cd  Cd4  1  0.33333300  0.66666700  0.37000100  1
  Cd  Cd5  1  0.66666700  0.33333300  0.40999900  1
  Cd  Cd6  1  0.66666700  0.33333300  0.33000700  1
  Cd  Cd7  1  0.66666700  0.33333300  0.00999900  1
  Cd  Cd8  1  0.33333300  0.66666700  0.53001000  1
  Cd  Cd9  1  0.33333300  0.66666700  0.28999500  1
  Cd  Cd10  1  0.66666700  0.33333300  0.17000300  1
  Cd  Cd11  1  0.66666700  0.33333300  0.73000800  1
  Cd  Cd12  1  0.66666700  0.33333300  0.81000200  1
  Cd  Cd13  1  0.66666700  0.33333300  0.08999800  1
  Cd  Cd14  1  0.33333300  0.66666700  0.93001000  1
  Cd  Cd15  1  0.33333300  0.66666700  0.61000100  1
  Cd  Cd16  1  0.33333300  0.66666700  0.68999600  1
  Cd  Cd17  1  0.33333300  0.66666700  0.04999300  1
  Cd  Cd18  1  0.33333300  0.66666700  0.13001000  1
  Cd  Cd19  1  0.66666700  0.33333300  0.88999600  1
  Cd  Cd20  1  0.66666700  0.33333300  0.48999900  1
  Cd  Cd21  1  0.66666700  0.33333300  0.24999300  1
  Cd  Cd22  1  0.33333300  0.66666700  0.44999300  1
  Cd  Cd23  1  0.33333300  0.66666700  0.84999500  1
  Cd  Cd24  1  0.33333300  0.66666700  0.21000000  1
  I  I25  1  0.00000000  0.00000000  0.12063100  1
  I  I26  1  0.00000000  0.00000000  0.52063100  1
  I  I27  1  0.00000000  0.00000000  0.36062400  1
  I  I28  1  0.00000000  0.00000000  0.24061100  1
  I  I29  1  0.00000000  0.00000000  0.20061300  1
  I  I30  1  0.00000000  0.00000000  0.56061800  1
  I  I31  1  0.00000000  0.00000000  0.48060900  1
  I  I32  1  0.00000000  0.00000000  0.88060600  1
  I  I33  1  0.33333300  0.66666700  0.89937900  1
  I  I34  1  0.00000000  0.00000000  0.84061000  1
  I  I35  1  0.00000000  0.00000000  0.64060900  1
  I  I36  1  0.00000000  0.00000000  0.72063400  1
  I  I37  1  0.66666700  0.33333300  0.97937400  1
  I  I38  1  0.00000000  0.00000000  0.68063100  1
  I  I39  1  0.33333300  0.66666700  0.57937900  1
  I  I40  1  0.33333300  0.66666700  0.01937900  1
  I  I41  1  0.33333300  0.66666700  0.65936600  1
  I  I42  1  0.66666700  0.33333300  0.13939100  1
  I  I43  1  0.33333300  0.66666700  0.73938800  1
  I  I44  1  0.00000000  0.00000000  0.60062600  1
  I  I45  1  0.33333300  0.66666700  0.81939000  1
  I  I46  1  0.00000000  0.00000000  0.92063300  1
  I  I47  1  0.66666700  0.33333300  0.69937600  1
  I  I48  1  0.00000000  0.00000000  0.40063100  1
  I  I49  1  0.66666700  0.33333300  0.29936800  1
  I  I50  1  0.66666700  0.33333300  0.21937900  1
  I  I51  1  0.00000000  0.00000000  0.80062400  1
  I  I52  1  0.00000000  0.00000000  0.32062800  1
  I  I53  1  0.66666700  0.33333300  0.05937000  1
  I  I54  1  0.66666700  0.33333300  0.61937800  1
  I  I55  1  0.33333300  0.66666700  0.17938600  1
  I  I56  1  0.00000000  0.00000000  0.28061600  1
  I  I57  1  0.66666700  0.33333300  0.85937600  1
  I  I58  1  0.33333300  0.66666700  0.09937600  1
  I  I59  1  0.00000000  0.00000000  0.08061700  1
  I  I60  1  0.66666700  0.33333300  0.93938400  1
  I  I61  1  0.00000000  0.00000000  0.00063300  1
  I  I62  1  0.33333300  0.66666700  0.41938300  1
  I  I63  1  0.00000000  0.00000000  0.96061900  1
  I  I64  1  0.00000000  0.00000000  0.16061900  1
  I  I65  1  0.66666700  0.33333300  0.77938200  1
  I  I66  1  0.66666700  0.33333300  0.45937200  1
  I  I67  1  0.33333300  0.66666700  0.25936200  1
  I  I68  1  0.00000000  0.00000000  0.04061300  1
  I  I69  1  0.66666700  0.33333300  0.37938000  1
  I  I70  1  0.00000000  0.00000000  0.76061900  1
  I  I71  1  0.33333300  0.66666700  0.49938300  1
  I  I72  1  0.66666700  0.33333300  0.53938800  1
  I  I73  1  0.33333300  0.66666700  0.33938600  1
  I  I74  1  0.00000000  0.00000000  0.44061100  1
