# generated using pymatgen
data_K3P6S6N7
_symmetry_space_group_name_H-M   'P 1'
_cell_length_a   21.47244513
_cell_length_b   21.47244513
_cell_length_c   21.47244514
_cell_angle_alpha   30.71906350
_cell_angle_beta   30.71906350
_cell_angle_gamma   30.71906243
_symmetry_Int_Tables_number   1
_chemical_formula_structural   K3P6S6N7
_chemical_formula_sum   'K12 P24 S24 N28'
_cell_volume   2290.81759091
_cell_formula_units_Z   4
loop_
 _symmetry_equiv_pos_site_id
 _symmetry_equiv_pos_as_xyz
  1  'x, y, z'
loop_
 _atom_site_type_symbol
 _atom_site_label
 _atom_site_symmetry_multiplicity
 _atom_site_fract_x
 _atom_site_fract_y
 _atom_site_fract_z
 _atom_site_occupancy
  K  K0  1  0.98368600  0.45992200  0.45626200  1
  K  K1  1  0.48368600  0.95626200  0.95992200  1
  K  K2  1  0.95992200  0.48368600  0.95626200  1
  K  K3  1  0.45626200  0.98368600  0.45992200  1
  K  K4  1  0.04373800  0.04007800  0.51631400  1
  K  K5  1  0.01631400  0.54007800  0.54373800  1
  K  K6  1  0.54373800  0.01631400  0.54007800  1
  K  K7  1  0.95626200  0.95992200  0.48368600  1
  K  K8  1  0.51631400  0.04373800  0.04007800  1
  K  K9  1  0.45992200  0.45626200  0.98368600  1
  K  K10  1  0.54007800  0.54373800  0.01631400  1
  K  K11  1  0.04007800  0.51631400  0.04373800  1
  P  P12  1  0.43885000  0.45933300  0.71252400  1
  P  P13  1  0.54066700  0.28747600  0.56115000  1
  P  P14  1  0.82349900  0.26171500  0.88637000  1
  P  P15  1  0.21252400  0.95933300  0.93885000  1
  P  P16  1  0.88637000  0.82349900  0.26171500  1
  P  P17  1  0.73828500  0.11363000  0.17650100  1
  P  P18  1  0.78747600  0.04066700  0.06115000  1
  P  P19  1  0.38637000  0.76171500  0.32349900  1
  P  P20  1  0.17650100  0.73828500  0.11363000  1
  P  P21  1  0.71252400  0.43885000  0.45933300  1
  P  P22  1  0.04066700  0.06115000  0.78747600  1
  P  P23  1  0.28747600  0.56115000  0.54066700  1
  P  P24  1  0.61363000  0.23828500  0.67650100  1
  P  P25  1  0.76171500  0.32349900  0.38637000  1
  P  P26  1  0.23828500  0.67650100  0.61363000  1
  P  P27  1  0.95933300  0.93885000  0.21252400  1
  P  P28  1  0.45933300  0.71252400  0.43885000  1
  P  P29  1  0.11363000  0.17650100  0.73828500  1
  P  P30  1  0.06115000  0.78747600  0.04066700  1
  P  P31  1  0.32349900  0.38637000  0.76171500  1
  P  P32  1  0.93885000  0.21252400  0.95933300  1
  P  P33  1  0.56115000  0.54066700  0.28747600  1
  P  P34  1  0.67650100  0.61363000  0.23828500  1
  P  P35  1  0.26171500  0.88637000  0.82349900  1
  S  S36  1  0.01452300  0.84475400  0.32543300  1
  S  S37  1  0.46258900  0.77594300  0.74640000  1
  S  S38  1  0.48547700  0.17456700  0.65524600  1
  S  S39  1  0.25360000  0.53741100  0.22405700  1
  S  S40  1  0.75360000  0.72405700  0.03741100  1
  S  S41  1  0.17456700  0.65524600  0.48547700  1
  S  S42  1  0.82543300  0.34475400  0.51452300  1
  S  S43  1  0.24640000  0.27594300  0.96258900  1
  S  S44  1  0.53741100  0.22405700  0.25360000  1
  S  S45  1  0.03741100  0.75360000  0.72405700  1
  S  S46  1  0.72405700  0.03741100  0.75360000  1
  S  S47  1  0.98547700  0.15524600  0.67456700  1
  S  S48  1  0.96258900  0.24640000  0.27594300  1
  S  S49  1  0.32543300  0.01452300  0.84475400  1
  S  S50  1  0.27594300  0.96258900  0.24640000  1
  S  S51  1  0.15524600  0.67456700  0.98547700  1
  S  S52  1  0.84475400  0.32543300  0.01452300  1
  S  S53  1  0.74640000  0.46258900  0.77594300  1
  S  S54  1  0.67456700  0.98547700  0.15524600  1
  S  S55  1  0.22405700  0.25360000  0.53741100  1
  S  S56  1  0.51452300  0.82543300  0.34475400  1
  S  S57  1  0.65524600  0.48547700  0.17456700  1
  S  S58  1  0.34475400  0.51452300  0.82543300  1
  S  S59  1  0.77594300  0.74640000  0.46258900  1
  N  N60  1  0.03917400  0.03917400  0.03917400  1
  N  N61  1  0.96082600  0.96082600  0.96082600  1
  N  N62  1  0.79637700  0.03339600  0.26028100  1
  N  N63  1  0.20362300  0.96660400  0.73971900  1
  N  N64  1  0.53339600  0.29637700  0.76028100  1
  N  N65  1  0.79511700  0.99176600  0.17438200  1
  N  N66  1  0.99176600  0.17438200  0.79511700  1
  N  N67  1  0.82561800  0.20488300  0.00823400  1
  N  N68  1  0.67438200  0.49176600  0.29511700  1
  N  N69  1  0.96660400  0.73971900  0.20362300  1
  N  N70  1  0.50823400  0.70488300  0.32561800  1
  N  N71  1  0.70362300  0.23971900  0.46660400  1
  N  N72  1  0.20488300  0.00823400  0.82561800  1
  N  N73  1  0.26028100  0.79637700  0.03339600  1
  N  N74  1  0.70488300  0.32561800  0.50823400  1
  N  N75  1  0.46082600  0.46082600  0.46082600  1
  N  N76  1  0.49176600  0.29511700  0.67438200  1
  N  N77  1  0.53917400  0.53917400  0.53917400  1
  N  N78  1  0.32561800  0.50823400  0.70488300  1
  N  N79  1  0.23971900  0.46660400  0.70362300  1
  N  N80  1  0.73971900  0.20362300  0.96660400  1
  N  N81  1  0.03339600  0.26028100  0.79637700  1
  N  N82  1  0.76028100  0.53339600  0.29637700  1
  N  N83  1  0.29511700  0.67438200  0.49176600  1
  N  N84  1  0.29637700  0.76028100  0.53339600  1
  N  N85  1  0.17438200  0.79511700  0.99176600  1
  N  N86  1  0.00823400  0.82561800  0.20488300  1
  N  N87  1  0.46660400  0.70362300  0.23971900  1
