# generated using pymatgen
data_Cs2Bi8Se13
_symmetry_space_group_name_H-M   'P 1'
_cell_length_a   4.22603900
_cell_length_b   14.14728200
_cell_length_c   25.38798032
_cell_angle_alpha   83.02472528
_cell_angle_beta   90.00000000
_cell_angle_gamma   90.00000000
_symmetry_Int_Tables_number   1
_chemical_formula_structural   Cs2Bi8Se13
_chemical_formula_sum   'Cs4 Bi16 Se26'
_cell_volume   1506.63601402
_cell_formula_units_Z   2
loop_
 _symmetry_equiv_pos_site_id
 _symmetry_equiv_pos_as_xyz
  1  'x, y, z'
loop_
 _atom_site_type_symbol
 _atom_site_label
 _atom_site_symmetry_multiplicity
 _atom_site_fract_x
 _atom_site_fract_y
 _atom_site_fract_z
 _atom_site_occupancy
  Cs  Cs0  1  0.25000000  0.58612900  0.87978800  1
  Cs  Cs1  1  0.75000000  0.41387100  0.12021200  1
  Cs  Cs2  1  0.25000000  0.27456300  0.36059200  1
  Cs  Cs3  1  0.75000000  0.72543700  0.63940800  1
  Bi  Bi4  1  0.25000000  0.95575800  0.93115100  1
  Bi  Bi5  1  0.25000000  0.11010000  0.21234700  1
  Bi  Bi6  1  0.75000000  0.72498900  0.03220600  1
  Bi  Bi7  1  0.25000000  0.27501100  0.96779400  1
  Bi  Bi8  1  0.25000000  0.94727100  0.44132100  1
  Bi  Bi9  1  0.25000000  0.80385700  0.16932800  1
  Bi  Bi10  1  0.25000000  0.12271500  0.69133900  1
  Bi  Bi11  1  0.25000000  0.57254200  0.43682600  1
  Bi  Bi12  1  0.25000000  0.43539300  0.73241600  1
  Bi  Bi13  1  0.75000000  0.42745800  0.56317400  1
  Bi  Bi14  1  0.75000000  0.88990000  0.78765300  1
  Bi  Bi15  1  0.75000000  0.05272900  0.55867900  1
  Bi  Bi16  1  0.75000000  0.04424200  0.06884900  1
  Bi  Bi17  1  0.75000000  0.19614300  0.83067200  1
  Bi  Bi18  1  0.75000000  0.87728500  0.30866100  1
  Bi  Bi19  1  0.75000000  0.56460700  0.26758400  1
  Se  Se20  1  0.25000000  0.32564300  0.85448200  1
  Se  Se21  1  0.25000000  0.19144400  0.58378600  1
  Se  Se22  1  0.25000000  0.90604200  0.55168500  1
  Se  Se23  1  0.25000000  0.17911200  0.08724400  1
  Se  Se24  1  0.75000000  0.80855600  0.41621400  1
  Se  Se25  1  0.25000000  0.59860700  0.02180000  1
  Se  Se26  1  0.75000000  0.40139300  0.97820000  1
  Se  Se27  1  0.75000000  0.95444500  0.18117000  1
  Se  Se28  1  0.75000000  0.22803700  0.23491600  1
  Se  Se29  1  0.75000000  0.09395800  0.44831500  1
  Se  Se30  1  0.25000000  0.51003800  0.62707500  1
  Se  Se31  1  0.75000000  0.82088800  0.91275600  1
  Se  Se32  1  0.25000000  0.77196300  0.76508400  1
  Se  Se33  1  0.75000000  0.60914800  0.51259400  1
  Se  Se34  1  0.25000000  0.89579200  0.04813300  1
  Se  Se35  1  0.75000000  0.10420800  0.95186700  1
  Se  Se36  1  0.75000000  0.26248900  0.72071500  1
  Se  Se37  1  0.25000000  0.44904500  0.24048300  1
  Se  Se38  1  0.75000000  0.55095500  0.75951700  1
  Se  Se39  1  0.25000000  0.01673300  0.31951000  1
  Se  Se40  1  0.25000000  0.73751100  0.27928500  1
  Se  Se41  1  0.75000000  0.98326700  0.68049000  1
  Se  Se42  1  0.75000000  0.67435700  0.14551800  1
  Se  Se43  1  0.25000000  0.39085200  0.48740600  1
  Se  Se44  1  0.25000000  0.04555500  0.81883000  1
  Se  Se45  1  0.75000000  0.48996200  0.37292500  1
