# generated using pymatgen
data_VCo3
_symmetry_space_group_name_H-M   'P 1'
_cell_length_a   7.94058943
_cell_length_b   7.94058943
_cell_length_c   9.48483300
_cell_angle_alpha   90.00000000
_cell_angle_beta   90.00000000
_cell_angle_gamma   119.99999523
_symmetry_Int_Tables_number   1
_chemical_formula_structural   VCo3
_chemical_formula_sum   'V6 Co18'
_cell_volume   517.92374642
_cell_formula_units_Z   6
loop_
 _symmetry_equiv_pos_site_id
 _symmetry_equiv_pos_as_xyz
  1  'x, y, z'
loop_
 _atom_site_type_symbol
 _atom_site_label
 _atom_site_symmetry_multiplicity
 _atom_site_fract_x
 _atom_site_fract_y
 _atom_site_fract_z
 _atom_site_occupancy
  V  V0  1  0.66666700  0.33333300  0.36687300  1
  V  V1  1  0.33333300  0.66666700  0.63312700  1
  V  V2  1  0.00000000  0.00000000  0.69996200  1
  V  V3  1  0.66666700  0.33333300  0.63312700  1
  V  V4  1  0.00000000  0.00000000  0.30003800  1
  V  V5  1  0.33333300  0.66666700  0.36687300  1
  Co  Co6  1  0.50000000  0.50000000  0.70979300  1
  Co  Co7  1  0.33621800  0.16810900  0.38056000  1
  Co  Co8  1  0.83189100  0.16810900  0.38056000  1
  Co  Co9  1  0.50000000  0.00000000  0.29020700  1
  Co  Co10  1  0.83189100  0.16810900  0.61944000  1
  Co  Co11  1  0.33621800  0.16810900  0.61944000  1
  Co  Co12  1  0.16810900  0.33621800  0.38056000  1
  Co  Co13  1  0.83189100  0.66378200  0.38056000  1
  Co  Co14  1  0.50000000  0.50000000  0.29020700  1
  Co  Co15  1  0.66378200  0.83189100  0.61944000  1
  Co  Co16  1  0.66378200  0.83189100  0.38056000  1
  Co  Co17  1  0.50000000  0.00000000  0.70979300  1
  Co  Co18  1  0.16810900  0.83189100  0.61944000  1
  Co  Co19  1  0.16810900  0.83189100  0.38056000  1
  Co  Co20  1  0.16810900  0.33621800  0.61944000  1
  Co  Co21  1  0.83189100  0.66378200  0.61944000  1
  Co  Co22  1  0.00000000  0.50000000  0.70979300  1
  Co  Co23  1  0.00000000  0.50000000  0.29020700  1
