# generated using pymatgen
data_ZnC2(SN)2
_symmetry_space_group_name_H-M   'P 1'
_cell_length_a   7.81311500
_cell_length_b   7.89048651
_cell_length_c   10.64569760
_cell_angle_alpha   106.04419204
_cell_angle_beta   109.20567710
_cell_angle_gamma   87.13456367
_symmetry_Int_Tables_number   1
_chemical_formula_structural   ZnC2(SN)2
_chemical_formula_sum   'Zn4 C8 S8 N8'
_cell_volume   595.02559534
_cell_formula_units_Z   4
loop_
 _symmetry_equiv_pos_site_id
 _symmetry_equiv_pos_as_xyz
  1  'x, y, z'
loop_
 _atom_site_type_symbol
 _atom_site_label
 _atom_site_symmetry_multiplicity
 _atom_site_fract_x
 _atom_site_fract_y
 _atom_site_fract_z
 _atom_site_occupancy
  Zn  Zn0  1  0.31622400  0.59809500  0.82503800  1
  Zn  Zn1  1  0.21732700  0.93490500  0.30828000  1
  Zn  Zn2  1  0.78267300  0.06509500  0.69172000  1
  Zn  Zn3  1  0.68377600  0.40190500  0.17496200  1
  C  C4  1  0.43152100  0.88761500  0.10847200  1
  C  C5  1  0.12769400  0.29327600  0.87853500  1
  C  C6  1  0.99758700  0.74359700  0.61765400  1
  C  C7  1  0.39612600  0.58033300  0.30908200  1
  C  C8  1  0.87230600  0.70672400  0.12146500  1
  C  C9  1  0.00241300  0.25640300  0.38234600  1
  C  C10  1  0.56847900  0.11238500  0.89152800  1
  C  C11  1  0.60387400  0.41966700  0.69091800  1
  S  S12  1  0.27410600  0.68719200  0.40237200  1
  S  S13  1  0.16776900  0.17293000  0.48533600  1
  S  S14  1  0.97067200  0.86775100  0.09700600  1
  S  S15  1  0.47149800  0.02837900  0.26186400  1
  S  S16  1  0.02932800  0.13224900  0.90299400  1
  S  S17  1  0.52850200  0.97162100  0.73813600  1
  S  S18  1  0.72589400  0.31280800  0.59762800  1
  S  S19  1  0.83223100  0.82707000  0.51466400  1
  N  N20  1  0.11918400  0.68183100  0.68780400  1
  N  N21  1  0.51445100  0.49758700  0.75607300  1
  N  N22  1  0.48554900  0.50241300  0.24392700  1
  N  N23  1  0.79579400  0.59108300  0.13415500  1
  N  N24  1  0.59468700  0.21034400  0.00240700  1
  N  N25  1  0.88081600  0.31816900  0.31219600  1
  N  N26  1  0.40531300  0.78965600  0.99759300  1
  N  N27  1  0.20420600  0.40891700  0.86584500  1
