# generated using pymatgen
data_K3Ta2S11
_symmetry_space_group_name_H-M   'P 1'
_cell_length_a   18.48329461
_cell_length_b   18.48329461
_cell_length_c   12.54632024
_cell_angle_alpha   79.77590725
_cell_angle_beta   79.77590725
_cell_angle_gamma   25.20679239
_symmetry_Int_Tables_number   1
_chemical_formula_structural   K3Ta2S11
_chemical_formula_sum   'K12 Ta8 S44'
_cell_volume   1794.99882224
_cell_formula_units_Z   4
loop_
 _symmetry_equiv_pos_site_id
 _symmetry_equiv_pos_as_xyz
  1  'x, y, z'
loop_
 _atom_site_type_symbol
 _atom_site_label
 _atom_site_symmetry_multiplicity
 _atom_site_fract_x
 _atom_site_fract_y
 _atom_site_fract_z
 _atom_site_occupancy
  K  K0  1  0.64385700  0.29192100  0.09456200  1
  K  K1  1  0.65387500  0.11196400  0.82906000  1
  K  K2  1  0.36066600  0.06025500  0.74330100  1
  K  K3  1  0.70807900  0.35614300  0.40543800  1
  K  K4  1  0.35614300  0.70807900  0.90543800  1
  K  K5  1  0.88803600  0.34612500  0.67094000  1
  K  K6  1  0.29192100  0.64385700  0.59456200  1
  K  K7  1  0.34612500  0.88803600  0.17094000  1
  K  K8  1  0.93974500  0.63933400  0.75669900  1
  K  K9  1  0.63933400  0.93974500  0.25669900  1
  K  K10  1  0.11196400  0.65387500  0.32906000  1
  K  K11  1  0.06025500  0.36066600  0.24330100  1
  Ta  Ta12  1  0.78284400  0.38403600  0.07193100  1
  Ta  Ta13  1  0.53814100  0.10744000  0.57929300  1
  Ta  Ta14  1  0.89256000  0.46185900  0.92070700  1
  Ta  Ta15  1  0.21715600  0.61596400  0.92806900  1
  Ta  Ta16  1  0.10744000  0.53814100  0.07929300  1
  Ta  Ta17  1  0.38403600  0.78284400  0.57193100  1
  Ta  Ta18  1  0.61596400  0.21715600  0.42806900  1
  Ta  Ta19  1  0.46185900  0.89256000  0.42070700  1
  S  S20  1  0.44490100  0.46529400  0.35445400  1
  S  S21  1  0.80239000  0.83145700  0.49704300  1
  S  S22  1  0.19761000  0.16854300  0.50295700  1
  S  S23  1  0.53925200  0.05702800  0.75569300  1
  S  S24  1  0.89579500  0.02685300  0.43067700  1
  S  S25  1  0.10420500  0.97314700  0.56932300  1
  S  S26  1  0.05702800  0.53925200  0.25569300  1
  S  S27  1  0.66610700  0.57471300  0.90726900  1
  S  S28  1  0.97314700  0.10420500  0.06932300  1
  S  S29  1  0.71756400  0.07244500  0.27398300  1
  S  S30  1  0.16854300  0.19761000  0.00295700  1
  S  S31  1  0.49910600  0.22127000  0.35753900  1
  S  S32  1  0.12714200  0.40559200  0.00365800  1
  S  S33  1  0.92054100  0.81567500  0.05143400  1
  S  S34  1  0.55509900  0.53470600  0.64554600  1
  S  S35  1  0.94297200  0.46074800  0.74430700  1
  S  S36  1  0.42151300  0.25189000  0.05231400  1
  S  S37  1  0.24760000  0.85536600  0.42497000  1
  S  S38  1  0.57471300  0.66610700  0.40726900  1
  S  S39  1  0.53470600  0.55510000  0.14554600  1
  S  S40  1  0.75240000  0.14463400  0.57503000  1
  S  S41  1  0.87285800  0.59440800  0.99634200  1
  S  S42  1  0.50089400  0.77873000  0.64246100  1
  S  S43  1  0.02685300  0.89579500  0.93067700  1
  S  S44  1  0.42528700  0.33389300  0.59273100  1
  S  S45  1  0.18432500  0.07945900  0.44856600  1
  S  S46  1  0.07945900  0.18432500  0.94856600  1
  S  S47  1  0.28243600  0.92755500  0.72601700  1
  S  S48  1  0.77873000  0.50089400  0.14246100  1
  S  S49  1  0.25189000  0.42151300  0.55231400  1
  S  S50  1  0.81567500  0.92054100  0.55143400  1
  S  S51  1  0.14463400  0.75240000  0.07503000  1
  S  S52  1  0.46529400  0.44490000  0.85445400  1
  S  S53  1  0.57848700  0.74811000  0.94768600  1
  S  S54  1  0.46074800  0.94297200  0.24430700  1
  S  S55  1  0.92755500  0.28243600  0.22601700  1
  S  S56  1  0.33389300  0.42528700  0.09273100  1
  S  S57  1  0.40559200  0.12714200  0.50365800  1
  S  S58  1  0.22127000  0.49910600  0.85753900  1
  S  S59  1  0.74811000  0.57848700  0.44768600  1
  S  S60  1  0.59440800  0.87285800  0.49634200  1
  S  S61  1  0.07244500  0.71756400  0.77398300  1
  S  S62  1  0.85536600  0.24760000  0.92497000  1
  S  S63  1  0.83145700  0.80239000  0.99704300  1
