# generated using pymatgen
data_CaSiSnO5
_symmetry_space_group_name_H-M   'P 1'
_cell_length_a   5.63706244
_cell_length_b   5.63706244
_cell_length_c   7.26657637
_cell_angle_alpha   76.02259709
_cell_angle_beta   76.02259709
_cell_angle_gamma   105.86788517
_symmetry_Int_Tables_number   1
_chemical_formula_structural   CaSiSnO5
_chemical_formula_sum   'Ca2 Si2 Sn2 O10'
_cell_volume   203.49316119
_cell_formula_units_Z   2
loop_
 _symmetry_equiv_pos_site_id
 _symmetry_equiv_pos_as_xyz
  1  'x, y, z'
loop_
 _atom_site_type_symbol
 _atom_site_label
 _atom_site_symmetry_multiplicity
 _atom_site_fract_x
 _atom_site_fract_y
 _atom_site_fract_z
 _atom_site_occupancy
  Ca  Ca0  1  0.83707600  0.16292400  0.75000000  1
  Ca  Ca1  1  0.16292400  0.83707600  0.25000000  1
  Si  Si2  1  0.81901800  0.18098200  0.25000000  1
  Si  Si3  1  0.18098200  0.81901800  0.75000000  1
  Sn  Sn4  1  0.50000000  0.50000000  0.50000000  1
  Sn  Sn5  1  0.50000000  0.50000000  0.00000000  1
  O  O6  1  0.17718200  0.60496800  0.62802600  1
  O  O7  1  0.39503200  0.82281800  0.87197400  1
  O  O8  1  0.82281800  0.39503200  0.37197400  1
  O  O9  1  0.60496800  0.17718200  0.12802600  1
  O  O10  1  0.10888600  0.24005100  0.08909800  1
  O  O11  1  0.75994900  0.89111400  0.41090200  1
  O  O12  1  0.58861300  0.41138700  0.75000000  1
  O  O13  1  0.41138700  0.58861300  0.25000000  1
  O  O14  1  0.24005100  0.10888600  0.58909800  1
  O  O15  1  0.89111400  0.75994900  0.91090200  1
