# generated using pymatgen
data_H6N4O9
_symmetry_space_group_name_H-M   'P 1'
_cell_length_a   13.86046900
_cell_length_b   5.14997200
_cell_length_c   6.79164771
_cell_angle_alpha   88.62743202
_cell_angle_beta   90.00000000
_cell_angle_gamma   90.00000000
_symmetry_Int_Tables_number   1
_chemical_formula_structural   H6N4O9
_chemical_formula_sum   'H12 N8 O18'
_cell_volume   484.65568938
_cell_formula_units_Z   2
loop_
 _symmetry_equiv_pos_site_id
 _symmetry_equiv_pos_as_xyz
  1  'x, y, z'
loop_
 _atom_site_type_symbol
 _atom_site_label
 _atom_site_symmetry_multiplicity
 _atom_site_fract_x
 _atom_site_fract_y
 _atom_site_fract_z
 _atom_site_occupancy
  H  H0  1  0.04208900  0.61782100  0.83433400  1
  H  H1  1  0.54208900  0.38217900  0.16566600  1
  H  H2  1  0.04009800  0.07752800  0.21451900  1
  H  H3  1  0.99112800  0.34729600  0.27856400  1
  H  H4  1  0.49112800  0.65270400  0.72143600  1
  H  H5  1  0.54009800  0.92247200  0.78548100  1
  H  H6  1  0.42933600  0.86485600  0.84134900  1
  H  H7  1  0.92933600  0.13514400  0.15865100  1
  H  H8  1  0.83350000  0.37057800  0.89301900  1
  H  H9  1  0.15217700  0.14203200  0.91637500  1
  H  H10  1  0.65217700  0.85796800  0.08362500  1
  H  H11  1  0.33350000  0.62942200  0.10698100  1
  N  N12  1  0.49549400  0.77741500  0.83626400  1
  N  N13  1  0.99549400  0.22258500  0.16373600  1
  N  N14  1  0.98795300  0.73341500  0.58668600  1
  N  N15  1  0.48795300  0.26658500  0.41331400  1
  N  N16  1  0.73858900  0.14643200  0.78417600  1
  N  N17  1  0.24838900  0.37040000  0.80392700  1
  N  N18  1  0.74838900  0.62960000  0.19607300  1
  N  N19  1  0.23858900  0.85356800  0.21582400  1
  O  O20  1  0.99144200  0.74468600  0.79652000  1
  O  O21  1  0.49144200  0.25531400  0.20348000  1
  O  O22  1  0.92081300  0.85071100  0.51323100  1
  O  O23  1  0.05234000  0.60954500  0.50825800  1
  O  O24  1  0.55234000  0.39045500  0.49174200  1
  O  O25  1  0.42081300  0.14928900  0.48676900  1
  O  O26  1  0.71786900  0.01141700  0.64727400  1
  O  O27  1  0.26633500  0.52107200  0.66991800  1
  O  O28  1  0.76633500  0.47892800  0.33008200  1
  O  O29  1  0.21786900  0.98858300  0.35272600  1
  O  O30  1  0.68957100  0.19303400  0.93230500  1
  O  O31  1  0.29954500  0.30517200  0.94602900  1
  O  O32  1  0.79954500  0.69482800  0.05397100  1
  O  O33  1  0.18957100  0.80696600  0.06769500  1
  O  O34  1  0.82982600  0.26125300  0.77466000  1
  O  O35  1  0.15551500  0.25906300  0.79795800  1
  O  O36  1  0.65551500  0.74093700  0.20204200  1
  O  O37  1  0.32982600  0.73874700  0.22534000  1
