# generated using pymatgen
data_Ce6Ge9(BO15)2
_symmetry_space_group_name_H-M   'P 1'
_cell_length_a   10.91746400
_cell_length_b   8.87028200
_cell_length_c   13.31068544
_cell_angle_alpha   54.35266225
_cell_angle_beta   90.00000000
_cell_angle_gamma   90.00000000
_symmetry_Int_Tables_number   1
_chemical_formula_structural   Ce6Ge9(BO15)2
_chemical_formula_sum   'Ce12 Ge18 B4 O60'
_cell_volume   1047.48273516
_cell_formula_units_Z   2
loop_
 _symmetry_equiv_pos_site_id
 _symmetry_equiv_pos_as_xyz
  1  'x, y, z'
loop_
 _atom_site_type_symbol
 _atom_site_label
 _atom_site_symmetry_multiplicity
 _atom_site_fract_x
 _atom_site_fract_y
 _atom_site_fract_z
 _atom_site_occupancy
  Ce  Ce0  1  0.67821900  0.26296400  0.23169200  1
  Ce  Ce1  1  0.66830000  0.98633500  0.05727600  1
  Ce  Ce2  1  0.17821900  0.73703600  0.26830800  1
  Ce  Ce3  1  0.66758600  0.70813000  0.44495800  1
  Ce  Ce4  1  0.82178100  0.26296400  0.73169200  1
  Ce  Ce5  1  0.33241400  0.29187000  0.55504200  1
  Ce  Ce6  1  0.33170000  0.01366500  0.94272400  1
  Ce  Ce7  1  0.16830000  0.01366500  0.44272400  1
  Ce  Ce8  1  0.16758600  0.29187000  0.05504200  1
  Ce  Ce9  1  0.83170000  0.98633500  0.55727600  1
  Ce  Ce10  1  0.83241400  0.70813000  0.94495800  1
  Ce  Ce11  1  0.32178100  0.73703600  0.76830800  1
  Ge  Ge12  1  0.53838400  0.37680800  0.96887900  1
  Ge  Ge13  1  0.32686400  0.37317500  0.26266300  1
  Ge  Ge14  1  0.08294800  0.00141800  0.74915400  1
  Ge  Ge15  1  0.51453100  0.61422100  0.26103500  1
  Ge  Ge16  1  0.46161600  0.62319200  0.03112100  1
  Ge  Ge17  1  0.98546900  0.61422100  0.76103500  1
  Ge  Ge18  1  0.03838400  0.62319200  0.53112100  1
  Ge  Ge19  1  0.67313600  0.62682500  0.73733700  1
  Ge  Ge20  1  0.91705200  0.99858200  0.25084600  1
  Ge  Ge21  1  0.50000000  0.00000000  0.50000000  1
  Ge  Ge22  1  0.58294800  0.99858200  0.75084600  1
  Ge  Ge23  1  0.01453100  0.38577900  0.23896500  1
  Ge  Ge24  1  0.82686400  0.62682500  0.23733700  1
  Ge  Ge25  1  0.48546900  0.38577900  0.73896500  1
  Ge  Ge26  1  0.41705200  0.00141800  0.24915400  1
  Ge  Ge27  1  0.96161600  0.37680800  0.46887900  1
  Ge  Ge28  1  0.00000000  0.00000000  0.00000000  1
  Ge  Ge29  1  0.17313600  0.37317500  0.76266300  1
  B  B30  1  0.33647300  0.69385400  0.52538600  1
  B  B31  1  0.66352700  0.30614600  0.47461400  1
  B  B32  1  0.83647300  0.30614600  0.97461400  1
  B  B33  1  0.16352700  0.69385400  0.02538600  1
  O  O34  1  0.51454300  0.56583000  0.79082500  1
  O  O35  1  0.42955400  0.55029300  0.56978400  1
  O  O36  1  0.18875700  0.00765500  0.63629400  1
  O  O37  1  0.61065800  0.53365800  0.01609300  1
  O  O38  1  0.13645500  0.82156000  0.06131100  1
  O  O39  1  0.32994500  0.36610400  0.80716900  1
  O  O40  1  0.04869600  0.83242900  0.37065500  1
  O  O41  1  0.68581500  0.19282300  0.61087600  1
  O  O42  1  0.01766200  0.78742000  0.58113600  1
  O  O43  1  0.81418500  0.19282300  0.11087600  1
  O  O44  1  0.30421600  0.18963500  0.23387700  1
  O  O45  1  0.14567500  0.54348900  0.81378800  1
  O  O46  1  0.02906100  0.00001600  0.13948800  1
  O  O47  1  0.51766200  0.21258000  0.91886400  1
  O  O48  1  0.64567500  0.45651100  0.68621200  1
  O  O49  1  0.57044600  0.44970700  0.43021600  1
  O  O50  1  0.68875700  0.99234500  0.86370600  1
  O  O51  1  0.47093900  0.00001600  0.63948800  1
  O  O52  1  0.46636300  0.18535300  0.73229900  1
  O  O53  1  0.36822100  0.18086200  0.42917000  1
  O  O54  1  0.95130400  0.16757100  0.62934500  1
  O  O55  1  0.88934200  0.53365800  0.51609300  1
  O  O56  1  0.13177900  0.18086200  0.92917000  1
  O  O57  1  0.48233800  0.78742000  0.08113600  1
  O  O58  1  0.19578400  0.18963500  0.73387700  1
  O  O59  1  0.97093900  0.99998400  0.86051200  1
  O  O60  1  0.81124300  0.99234500  0.36370600  1
  O  O61  1  0.85432500  0.45651100  0.18621200  1
  O  O62  1  0.71167400  0.39735900  0.91315300  1
  O  O63  1  0.45130400  0.83242900  0.87065500  1
  O  O64  1  0.17005500  0.36610400  0.30716900  1
  O  O65  1  0.92955400  0.44970700  0.93021600  1
  O  O66  1  0.31124300  0.00765500  0.13629400  1
  O  O67  1  0.86354500  0.17844000  0.93868900  1
  O  O68  1  0.38934200  0.46634200  0.98390700  1
  O  O69  1  0.78832600  0.39735900  0.41315300  1
  O  O70  1  0.67005500  0.63389600  0.19283100  1
  O  O71  1  0.18581500  0.80717700  0.88912400  1
  O  O72  1  0.82994500  0.63389600  0.69283100  1
  O  O73  1  0.86822100  0.81913800  0.07083000  1
  O  O74  1  0.98233800  0.21258000  0.41886400  1
  O  O75  1  0.07044600  0.55029300  0.06978400  1
  O  O76  1  0.54869600  0.16757100  0.12934500  1
  O  O77  1  0.11065800  0.46634200  0.48390700  1
  O  O78  1  0.80421600  0.81036500  0.26612300  1
  O  O79  1  0.96636300  0.81464700  0.76770100  1
  O  O80  1  0.21167400  0.60264100  0.58684700  1
  O  O81  1  0.98545700  0.56583000  0.29082500  1
  O  O82  1  0.01454300  0.43417000  0.70917500  1
  O  O83  1  0.28832600  0.60264100  0.08684700  1
  O  O84  1  0.63645500  0.17844000  0.43868900  1
  O  O85  1  0.53363700  0.81464700  0.26770100  1
  O  O86  1  0.36354500  0.82156000  0.56131100  1
  O  O87  1  0.48545700  0.43417000  0.20917500  1
  O  O88  1  0.63177900  0.81913800  0.57083000  1
  O  O89  1  0.69578400  0.81036500  0.76612300  1
  O  O90  1  0.35432500  0.54348900  0.31378800  1
  O  O91  1  0.03363700  0.18535300  0.23229900  1
  O  O92  1  0.31418500  0.80717700  0.38912400  1
  O  O93  1  0.52906100  0.99998400  0.36051200  1
