# generated using pymatgen
data_NaCoPO4
_symmetry_space_group_name_H-M   'P 1'
_cell_length_a   10.26329818
_cell_length_b   10.26329818
_cell_length_c   24.09426400
_cell_angle_alpha   90.00000000
_cell_angle_beta   90.00000000
_cell_angle_gamma   120.00000115
_symmetry_Int_Tables_number   1
_chemical_formula_structural   NaCoPO4
_chemical_formula_sum   'Na24 Co24 P24 O96'
_cell_volume   2197.95190160
_cell_formula_units_Z   24
loop_
 _symmetry_equiv_pos_site_id
 _symmetry_equiv_pos_as_xyz
  1  'x, y, z'
loop_
 _atom_site_type_symbol
 _atom_site_label
 _atom_site_symmetry_multiplicity
 _atom_site_fract_x
 _atom_site_fract_y
 _atom_site_fract_z
 _atom_site_occupancy
  Na  Na0  1  0.96816900  0.96208300  0.58864500  1
  Na  Na1  1  0.50516700  0.06420800  0.74795300  1
  Na  Na2  1  0.04732200  0.51422000  0.25377700  1
  Na  Na3  1  0.53310200  0.04732200  0.08711000  1
  Na  Na4  1  0.51422000  0.46689800  0.42044300  1
  Na  Na5  1  0.51043800  0.54743700  0.25409100  1
  Na  Na6  1  0.48956200  0.45256300  0.75409100  1
  Na  Na7  1  0.48578000  0.53310200  0.92044300  1
  Na  Na8  1  0.06420800  0.55904200  0.91461900  1
  Na  Na9  1  0.96208300  0.99391400  0.75531200  1
  Na  Na10  1  0.99391400  0.03183100  0.92197800  1
  Na  Na11  1  0.44095800  0.50516700  0.58128600  1
  Na  Na12  1  0.55904200  0.49483300  0.08128600  1
  Na  Na13  1  0.03183100  0.03791700  0.08864500  1
  Na  Na14  1  0.93579200  0.44095800  0.41461900  1
  Na  Na15  1  0.49483300  0.93579200  0.24795300  1
  Na  Na16  1  0.46689800  0.95267800  0.58711000  1
  Na  Na17  1  0.45256300  0.96300100  0.92075700  1
  Na  Na18  1  0.00608600  0.96816900  0.42197800  1
  Na  Na19  1  0.95267800  0.48578000  0.75377700  1
  Na  Na20  1  0.54743700  0.03699900  0.42075700  1
  Na  Na21  1  0.96300100  0.51043800  0.08742400  1
  Na  Na22  1  0.03791700  0.00608600  0.25531200  1
  Na  Na23  1  0.03699900  0.48956200  0.58742400  1
  Co  Co24  1  0.14845600  0.83391100  0.68257000  1
  Co  Co25  1  0.88282700  0.69903300  0.17916100  1
  Co  Co26  1  0.65709300  0.32864100  0.65032700  1
  Co  Co27  1  0.38088600  0.17277300  0.20876300  1
  Co  Co28  1  0.32864100  0.67154800  0.81699400  1
  Co  Co29  1  0.68545500  0.85154400  0.01590300  1
  Co  Co30  1  0.16608900  0.31454500  0.34923700  1
  Co  Co31  1  0.69903300  0.81620600  0.34582800  1
  Co  Co32  1  0.61911400  0.82722700  0.70876300  1
  Co  Co33  1  0.20811300  0.38088600  0.04209600  1
  Co  Co34  1  0.79188700  0.61911400  0.54209600  1
  Co  Co35  1  0.81620600  0.11717300  0.51249400  1
  Co  Co36  1  0.18379400  0.88282700  0.01249400  1
  Co  Co37  1  0.83391100  0.68545500  0.84923700  1
  Co  Co38  1  0.67154800  0.34290700  0.98366000  1
  Co  Co39  1  0.34290700  0.67135900  0.15032700  1
  Co  Co40  1  0.31454500  0.14845600  0.51590300  1
  Co  Co41  1  0.17277300  0.79188700  0.37542900  1
  Co  Co42  1  0.32845200  0.65709300  0.48366000  1
  Co  Co43  1  0.30096700  0.18379400  0.84582800  1
  Co  Co44  1  0.82722700  0.20811300  0.87542900  1
  Co  Co45  1  0.85154400  0.16608900  0.18257000  1
  Co  Co46  1  0.67135900  0.32845200  0.31699400  1
  Co  Co47  1  0.11717300  0.30096700  0.67916100  1
  P  P48  1  0.34853700  0.13188000  0.33978800  1
  P  P49  1  0.83668100  0.14728700  0.31276200  1
  P  P50  1  0.31060600  0.16331900  0.64609600  1
  P  P51  1  0.21159000  0.88169900  0.14401500  1
  P  P52  1  0.88169900  0.67010800  0.31068200  1
  P  P53  1  0.86812000  0.21665700  0.00645500  1
  P  P54  1  0.14728700  0.31060600  0.47942900  1
  P  P55  1  0.16331900  0.85271300  0.81276200  1
  P  P56  1  0.35993100  0.67279900  0.34782600  1
  P  P57  1  0.78334300  0.65146300  0.67312200  1
  P  P58  1  0.68939400  0.83668100  0.14609600  1
  P  P59  1  0.67279900  0.31286800  0.51449300  1
  P  P60  1  0.21665700  0.34853700  0.17312200  1
  P  P61  1  0.68713200  0.35993100  0.18116000  1
  P  P62  1  0.65146300  0.86812000  0.83978800  1
  P  P63  1  0.64006900  0.32720100  0.84782600  1
  P  P64  1  0.13188000  0.78334300  0.50645500  1
  P  P65  1  0.32720100  0.68713200  0.01449300  1
  P  P66  1  0.78841000  0.11830100  0.64401500  1
  P  P67  1  0.85271300  0.68939400  0.97942900  1
  P  P68  1  0.32989200  0.21159000  0.97734900  1
  P  P69  1  0.67010800  0.78841000  0.47734900  1
  P  P70  1  0.31286800  0.64006900  0.68116000  1
  P  P71  1  0.11830100  0.32989200  0.81068200  1
  O  O72  1  0.21628000  0.72044000  0.98196400  1
  O  O73  1  0.67766500  0.99027000  0.88353800  1
  O  O74  1  0.13890800  0.97178400  0.84390900  1
  O  O75  1  0.99027000  0.31260500  0.05020400  1
  O  O76  1  0.73305300  0.67319200  0.30283200  1
  O  O77  1  0.31614600  0.27043200  0.91948600  1
  O  O78  1  0.48335300  0.83345300  0.01305300  1
  O  O79  1  0.23903100  0.91799300  0.75577500  1
  O  O80  1  0.33119600  0.55044100  0.98841700  1
  O  O81  1  0.72956800  0.04571400  0.58615300  1
  O  O82  1  0.55044100  0.21924500  0.15508400  1
  O  O83  1  0.05791200  0.20643100  0.16830100  1
  O  O84  1  0.71068700  0.70414600  0.96931400  1
  O  O85  1  0.19458900  0.18817000  0.01337900  1
  O  O86  1  0.27956000  0.49584000  0.64863000  1
  O  O87  1  0.78372000  0.27956000  0.48196400  1
  O  O88  1  0.91571900  0.29952200  0.94943000  1
  O  O89  1  0.63517200  0.37108500  0.24085800  1
  O  O90  1  0.71676400  0.20409900  0.02520400  1
  O  O91  1  0.32103900  0.23903100  0.58910800  1
  O  O92  1  0.99345800  0.28931300  0.30264700  1
  O  O93  1  0.37108500  0.73591300  0.40752500  1
  O  O94  1  0.85148100  0.05791200  0.00163400  1
  O  O95  1  0.08428100  0.70047800  0.44943000  1
  O  O96  1  0.26694700  0.32680800  0.80283200  1
  O  O97  1  0.33195800  0.85242100  0.17173200  1
  O  O98  1  0.62891500  0.26408700  0.90752500  1
  O  O99  1  0.35010000  0.51664700  0.34638700  1
  O  O100  1  0.81183000  0.00641900  0.68004600  1
  O  O101  1  0.66804200  0.14757900  0.67173200  1
  O  O102  1  0.00641900  0.19458900  0.84671300  1
  O  O103  1  0.32233500  0.00973000  0.38353800  1
  O  O104  1  0.02821600  0.16712400  0.51057600  1
  O  O105  1  0.73591300  0.36482800  0.57419200  1
  O  O106  1  0.14757900  0.47953700  0.83839800  1
  O  O107  1  0.76096900  0.08200700  0.25577500  1
  O  O108  1  0.52046300  0.66804200  0.50506500  1
  O  O109  1  0.73213300  0.18601100  0.34732300  1
  O  O110  1  0.47953700  0.33195800  0.00506500  1
  O  O111  1  0.26408700  0.63517200  0.07419200  1
  O  O112  1  0.81398900  0.54612300  0.01399000  1
  O  O113  1  0.27043200  0.95428600  0.08615300  1
  O  O114  1  0.70414600  0.99345800  0.13598000  1
  O  O115  1  0.95428600  0.68385400  0.25281900  1
  O  O116  1  0.51664700  0.16654700  0.51305300  1
  O  O117  1  0.54612300  0.73213300  0.18065600  1
  O  O118  1  0.61619800  0.91571900  0.78276400  1
  O  O119  1  0.32680800  0.05986000  0.96949900  1
  O  O120  1  0.83287600  0.86109200  0.17724200  1
  O  O121  1  0.70047800  0.61619800  0.61609700  1
  O  O122  1  0.79356900  0.85148100  0.83496700  1
  O  O123  1  0.67896100  0.76096900  0.08910800  1
  O  O124  1  0.51266600  0.71676400  0.85853700  1
  O  O125  1  0.05986000  0.73305300  0.13616600  1
  O  O126  1  0.21924500  0.66880400  0.32175100  1
  O  O127  1  0.68385400  0.72956800  0.41948600  1
  O  O128  1  0.18817000  0.99358100  0.18004600  1
  O  O129  1  0.94014000  0.26694700  0.63616600  1
  O  O130  1  0.67319200  0.94014000  0.46949900  1
  O  O131  1  0.28323600  0.79590100  0.52520400  1
  O  O132  1  0.45387700  0.26786700  0.68065600  1
  O  O133  1  0.20643100  0.14851900  0.33496700  1
  O  O134  1  0.86109200  0.02821600  0.34390900  1
  O  O135  1  0.68739500  0.67766500  0.71687100  1
  O  O136  1  0.97178400  0.83287600  0.01057600  1
  O  O137  1  0.99358100  0.80541100  0.34671300  1
  O  O138  1  0.44955900  0.78075500  0.65508400  1
  O  O139  1  0.94208800  0.79356900  0.66830100  1
  O  O140  1  0.00654200  0.71068700  0.80264700  1
  O  O141  1  0.78075500  0.33119600  0.82175100  1
  O  O142  1  0.38380200  0.08428100  0.28276400  1
  O  O143  1  0.20409900  0.48733400  0.19187100  1
  O  O144  1  0.28931300  0.29585400  0.46931400  1
  O  O145  1  0.36482800  0.62891500  0.74085800  1
  O  O146  1  0.64990000  0.48335300  0.84638700  1
  O  O147  1  0.50416000  0.78372000  0.31529700  1
  O  O148  1  0.29585400  0.00654200  0.63598000  1
  O  O149  1  0.08200700  0.32103900  0.42244100  1
  O  O150  1  0.16712400  0.13890800  0.67724200  1
  O  O151  1  0.66880400  0.44955900  0.48841700  1
  O  O152  1  0.48733400  0.28323600  0.35853700  1
  O  O153  1  0.04571400  0.31614600  0.75281900  1
  O  O154  1  0.85242100  0.52046300  0.33839800  1
  O  O155  1  0.79590100  0.51266600  0.69187100  1
  O  O156  1  0.31260500  0.32233500  0.21687100  1
  O  O157  1  0.14851900  0.94208800  0.50163400  1
  O  O158  1  0.80541100  0.81183000  0.51337900  1
  O  O159  1  0.18601100  0.45387700  0.51399000  1
  O  O160  1  0.72044000  0.50416000  0.14863000  1
  O  O161  1  0.26786700  0.81398900  0.84732300  1
  O  O162  1  0.91799300  0.67896100  0.92244100  1
  O  O163  1  0.49584000  0.21628000  0.81529700  1
  O  O164  1  0.00973000  0.68739500  0.55020400  1
  O  O165  1  0.29952200  0.38380200  0.11609700  1
  O  O166  1  0.16654700  0.64990000  0.67972000  1
  O  O167  1  0.83345300  0.35010000  0.17972000  1
