# generated using pymatgen
data_C7SeNF5
_symmetry_space_group_name_H-M   'P 1'
_cell_length_a   5.95945400
_cell_length_b   10.07925200
_cell_length_c   29.45177207
_cell_angle_alpha   81.12598167
_cell_angle_beta   90.00000000
_cell_angle_gamma   90.00000000
_symmetry_Int_Tables_number   1
_chemical_formula_structural   C7SeNF5
_chemical_formula_sum   'C56 Se8 N8 F40'
_cell_volume   1747.89887334
_cell_formula_units_Z   8
loop_
 _symmetry_equiv_pos_site_id
 _symmetry_equiv_pos_as_xyz
  1  'x, y, z'
loop_
 _atom_site_type_symbol
 _atom_site_label
 _atom_site_symmetry_multiplicity
 _atom_site_fract_x
 _atom_site_fract_y
 _atom_site_fract_z
 _atom_site_occupancy
  C  C0  1  0.88656100  0.94032400  0.89066500  1
  C  C1  1  0.64633500  0.43699000  0.13163200  1
  C  C2  1  0.11343900  0.05967600  0.10933500  1
  C  C3  1  0.51165500  0.50331600  0.20203300  1
  C  C4  1  0.02645900  0.06922600  0.81967700  1
  C  C5  1  0.02616900  0.07495300  0.54849500  1
  C  C6  1  0.52645900  0.93077400  0.68032300  1
  C  C7  1  0.49053800  0.04063200  0.70317100  1
  C  C8  1  0.38964200  0.43433600  0.89258100  1
  C  C9  1  0.47478900  0.94104100  0.63364800  1
  C  C10  1  0.61343900  0.94032400  0.39066500  1
  C  C11  1  0.96989600  0.59741000  0.04710200  1
  C  C12  1  0.53010400  0.59741000  0.54710200  1
  C  C13  1  0.97354100  0.93077400  0.18032300  1
  C  C14  1  0.97478900  0.05895900  0.86635200  1
  C  C15  1  0.01165500  0.49668400  0.29796700  1
  C  C16  1  0.14633500  0.56301000  0.36836800  1
  C  C17  1  0.46989600  0.40259000  0.45289800  1
  C  C18  1  0.88964200  0.56566400  0.60741900  1
  C  C19  1  0.35255100  0.16839600  0.63281300  1
  C  C20  1  0.38656100  0.05967600  0.60933500  1
  C  C21  1  0.90013000  0.40520000  0.67853000  1
  C  C22  1  0.85255100  0.83160400  0.86718700  1
  C  C23  1  0.85366500  0.43699000  0.63163200  1
  C  C24  1  0.98834500  0.50331600  0.70203300  1
  C  C25  1  0.40013000  0.59480000  0.82147000  1
  C  C26  1  0.90237800  0.84006700  0.82052500  1
  C  C27  1  0.02303000  0.33732100  0.36834300  1
  C  C28  1  0.97383100  0.92504700  0.45150500  1
  C  C29  1  0.35366500  0.56301000  0.86836800  1
  C  C30  1  0.47354100  0.06922600  0.31967700  1
  C  C31  1  0.09762200  0.15993300  0.17947500  1
  C  C32  1  0.59762200  0.84006700  0.32052500  1
  C  C33  1  0.02521100  0.94104100  0.13364800  1
  C  C34  1  0.52303000  0.66267900  0.13165700  1
  C  C35  1  0.47224200  0.63219200  0.17837500  1
  C  C36  1  0.50946200  0.95936800  0.29682900  1
  C  C37  1  0.99053800  0.95936800  0.79682900  1
  C  C38  1  0.40237800  0.15993300  0.67947500  1
  C  C39  1  0.14744900  0.16839600  0.13281300  1
  C  C40  1  0.02775800  0.63219200  0.67837500  1
  C  C41  1  0.64744900  0.83160400  0.36718700  1
  C  C42  1  0.03010400  0.40259000  0.95289800  1
  C  C43  1  0.61035800  0.56566400  0.10741900  1
  C  C44  1  0.47697000  0.33732100  0.86834300  1
  C  C45  1  0.97224200  0.36780800  0.32162500  1
  C  C46  1  0.00946200  0.04063200  0.20317100  1
  C  C47  1  0.52775800  0.36780800  0.82162500  1
  C  C48  1  0.11035800  0.43433600  0.39258100  1
  C  C49  1  0.09987000  0.59480000  0.32147000  1
  C  C50  1  0.97697000  0.66267900  0.63165700  1
  C  C51  1  0.52521100  0.05895900  0.36635200  1
  C  C52  1  0.59987000  0.40520000  0.17853000  1
  C  C53  1  0.52616900  0.92504700  0.95150500  1
  C  C54  1  0.47383100  0.07495300  0.04849500  1
  C  C55  1  0.48834500  0.49668400  0.79796700  1
  Se  Se56  1  0.16245300  0.07559200  0.04391600  1
  Se  Se57  1  0.83754700  0.92440800  0.95608400  1
  Se  Se58  1  0.33754700  0.07559200  0.54391600  1
  Se  Se59  1  0.65872000  0.60552100  0.04196100  1
  Se  Se60  1  0.15872000  0.39447900  0.45803900  1
  Se  Se61  1  0.34128000  0.39447900  0.95803900  1
  Se  Se62  1  0.84128000  0.60552100  0.54196100  1
  Se  Se63  1  0.66245300  0.92440800  0.45608400  1
  N  N64  1  0.17091900  0.92644100  0.45065900  1
  N  N65  1  0.32908100  0.92644100  0.95065900  1
  N  N66  1  0.82908100  0.07355900  0.54934100  1
  N  N67  1  0.66665500  0.40644900  0.45287500  1
  N  N68  1  0.33334500  0.59355100  0.54712500  1
  N  N69  1  0.16665500  0.59355100  0.04712500  1
  N  N70  1  0.67091900  0.07355900  0.04934100  1
  N  N71  1  0.83334500  0.40644900  0.95287500  1
  F  F72  1  0.48735200  0.78968600  0.11086200  1
  F  F73  1  0.77512000  0.33795400  0.60995600  1
  F  F74  1  0.03684900  0.96876600  0.75169100  1
  F  F75  1  0.13336700  0.72052600  0.29912400  1
  F  F76  1  0.63336700  0.27947400  0.20087600  1
  F  F77  1  0.72488000  0.33795400  0.10995600  1
  F  F78  1  0.51264800  0.21031400  0.88913800  1
  F  F79  1  0.12784500  0.26663100  0.20140000  1
  F  F80  1  0.01264800  0.78968600  0.61086200  1
  F  F81  1  0.96470100  0.52547000  0.25282700  1
  F  F82  1  0.61032400  0.81593900  0.70369200  1
  F  F83  1  0.01125100  0.16741000  0.88705400  1
  F  F84  1  0.61072800  0.27277600  0.79872700  1
  F  F85  1  0.53684900  0.03123400  0.74830900  1
  F  F86  1  0.36663300  0.72052600  0.79912400  1
  F  F87  1  0.46315100  0.96876600  0.25169100  1
  F  F88  1  0.87215500  0.73336900  0.79860000  1
  F  F89  1  0.38927200  0.72722400  0.20127300  1
  F  F90  1  0.22794100  0.28575700  0.11046100  1
  F  F91  1  0.11072800  0.72722400  0.70127300  1
  F  F92  1  0.11032400  0.18406100  0.79630800  1
  F  F93  1  0.72794100  0.71424300  0.38953900  1
  F  F94  1  0.48874900  0.16741000  0.38705400  1
  F  F95  1  0.77205900  0.71424300  0.88953900  1
  F  F96  1  0.51125100  0.83259000  0.61294600  1
  F  F97  1  0.22488000  0.66204600  0.39004400  1
  F  F98  1  0.03529900  0.47453000  0.74717300  1
  F  F99  1  0.53529900  0.52547000  0.75282700  1
  F  F100  1  0.38967600  0.18406100  0.29630800  1
  F  F101  1  0.88927200  0.27277600  0.29872700  1
  F  F102  1  0.27512000  0.66204600  0.89004400  1
  F  F103  1  0.86663300  0.27947400  0.70087600  1
  F  F104  1  0.37215500  0.26663100  0.70140000  1
  F  F105  1  0.46470100  0.47453000  0.24717300  1
  F  F106  1  0.62784500  0.73336900  0.29860000  1
  F  F107  1  0.96315100  0.03123400  0.24830900  1
  F  F108  1  0.98735200  0.21031400  0.38913800  1
  F  F109  1  0.27205900  0.28575700  0.61046100  1
  F  F110  1  0.98874900  0.83259000  0.11294600  1
  F  F111  1  0.88967600  0.81593900  0.20369200  1
