# generated using pymatgen
data_Tb8Se15
_symmetry_space_group_name_H-M   'P 1'
_cell_length_a   11.65061599
_cell_length_b   11.76919510
_cell_length_c   25.10481795
_cell_angle_alpha   94.24373812
_cell_angle_beta   92.60244781
_cell_angle_gamma   89.56590909
_symmetry_Int_Tables_number   1
_chemical_formula_structural   Tb8Se15
_chemical_formula_sum   'Tb48 Se90'
_cell_volume   3429.32257455
_cell_formula_units_Z   6
loop_
 _symmetry_equiv_pos_site_id
 _symmetry_equiv_pos_as_xyz
  1  'x, y, z'
loop_
 _atom_site_type_symbol
 _atom_site_label
 _atom_site_symmetry_multiplicity
 _atom_site_fract_x
 _atom_site_fract_y
 _atom_site_fract_z
 _atom_site_occupancy
  Tb  Tb0  1  0.98563033  0.25102272  0.24786619  1
  Tb  Tb1  1  0.99994274  0.24691366  0.74979976  1
  Tb  Tb2  1  0.15297595  0.85129495  0.33281074  1
  Tb  Tb3  1  0.13965890  0.86488631  0.83977659  1
  Tb  Tb4  1  0.12311338  0.85090024  0.17013281  1
  Tb  Tb5  1  0.11355681  0.85507575  0.67379430  1
  Tb  Tb6  1  0.14824463  0.85837790  0.00213069  1
  Tb  Tb7  1  0.15665096  0.85265572  0.51153333  1
  Tb  Tb8  1  0.21781324  0.51086034  0.24568955  1
  Tb  Tb9  1  0.21768941  0.51496911  0.74669593  1
  Tb  Tb10  1  0.24790047  0.49260662  0.08109419  1
  Tb  Tb11  1  0.26266477  0.51152768  0.41880307  1
  Tb  Tb12  1  0.23459935  0.49776498  0.58424975  1
  Tb  Tb13  1  0.26494561  0.50855192  0.91591972  1
  Tb  Tb14  1  0.36801145  0.10704175  0.16085784  1
  Tb  Tb15  1  0.36779386  0.10077931  0.67386024  1
  Tb  Tb16  1  0.38460489  0.10552788  0.33016240  1
  Tb  Tb17  1  0.39249480  0.10600866  0.83332600  1
  Tb  Tb18  1  0.41477258  0.13336847  0.99232979  1
  Tb  Tb19  1  0.41482486  0.12914218  0.49065551  1
  Tb  Tb20  1  0.47864605  0.76120345  0.24835922  1
  Tb  Tb21  1  0.47993072  0.76351537  0.75296532  1
  Tb  Tb22  1  0.49084783  0.72287177  0.09523697  1
  Tb  Tb23  1  0.49123542  0.72015256  0.59673318  1
  Tb  Tb24  1  0.50272265  0.77170964  0.92356418  1
  Tb  Tb25  1  0.50660219  0.76773522  0.41488920  1
  Tb  Tb26  1  0.64918543  0.39851303  0.48392820  1
  Tb  Tb27  1  0.64524139  0.39321795  0.98863896  1
  Tb  Tb28  1  0.61746082  0.33394207  0.18068963  1
  Tb  Tb29  1  0.61758834  0.33371254  0.67846818  1
  Tb  Tb30  1  0.65845595  0.34858999  0.83763700  1
  Tb  Tb31  1  0.65835744  0.34749254  0.33612187  1
  Tb  Tb32  1  0.73747143  0.97288607  0.25734860  1
  Tb  Tb33  1  0.73375885  0.98683807  0.75312254  1
  Tb  Tb34  1  0.72058644  0.99544090  0.09859043  1
  Tb  Tb35  1  0.75446595  0.03429301  0.40841954  1
  Tb  Tb36  1  0.71495683  0.99466369  0.59413017  1
  Tb  Tb37  1  0.76966276  0.02760856  0.90778253  1
  Tb  Tb38  1  0.86742557  0.61476274  0.16484652  1
  Tb  Tb39  1  0.89666529  0.61531968  0.33146875  1
  Tb  Tb40  1  0.86893405  0.61185229  0.66421655  1
  Tb  Tb41  1  0.89836603  0.60263435  0.83130416  1
  Tb  Tb42  1  0.90416373  0.62147624  0.99087984  1
  Tb  Tb43  1  0.90545921  0.62812466  0.49160558  1
  Tb  Tb44  1  0.01081109  0.27585041  0.41276090  1
  Tb  Tb45  1  0.01382692  0.26947594  0.06716415  1
  Tb  Tb46  1  0.00878809  0.21908353  0.57932335  1
  Tb  Tb47  1  0.00358036  0.26065941  0.91154721  1
  Se  Se48  1  0.00351122  0.98892653  0.26274352  1
  Se  Se49  1  0.99312868  0.98190315  0.76145011  1
  Se  Se50  1  0.04994545  0.68740494  0.24952257  1
  Se  Se51  1  0.04806018  0.68723459  0.75040595  1
  Se  Se52  1  0.06201296  0.69380233  0.07771828  1
  Se  Se53  1  0.07998020  0.69739860  0.41718625  1
  Se  Se54  1  0.06052280  0.68653357  0.58331463  1
  Se  Se55  1  0.07664658  0.68907505  0.91600941  1
  Se  Se56  1  0.06455088  0.44079626  0.15849481  1
  Se  Se57  1  0.07867538  0.43568928  0.33054514  1
  Se  Se58  1  0.05861540  0.42883812  0.66118954  1
  Se  Se59  1  0.07975379  0.43168035  0.83200951  1
  Se  Se60  1  0.08317976  0.43557354  0.99260003  1
  Se  Se61  1  0.08281242  0.43759231  0.49480738  1
  Se  Se62  1  0.16009110  0.11005099  0.49967185  1
  Se  Se63  1  0.12572798  0.11633697  0.33255889  1
  Se  Se64  1  0.14297169  0.13129515  0.83379257  1
  Se  Se65  1  0.09652278  0.10338751  0.15597125  1
  Se  Se66  1  0.11110952  0.10448571  0.66877747  1
  Se  Se67  1  0.24961638  0.21720520  0.06645951  1
  Se  Se68  1  0.27647222  0.26341335  0.40670018  1
  Se  Se69  1  0.25372456  0.21982674  0.57681272  1
  Se  Se70  1  0.26484311  0.25156737  0.91044361  1
  Se  Se71  1  0.27315901  0.27665763  0.75747360  1
  Se  Se72  1  0.25510222  0.25448063  0.24619581  1
  Se  Se73  1  0.30187605  0.93508581  0.24912550  1
  Se  Se74  1  0.30113031  0.93396318  0.75491864  1
  Se  Se75  1  0.29401327  0.90884273  0.09543187  1
  Se  Se76  1  0.31942009  0.93833291  0.41242998  1
  Se  Se77  1  0.29357224  0.90805285  0.60412791  1
  Se  Se78  1  0.31847855  0.94444116  0.91983510  1
  Se  Se79  1  0.33274333  0.66981567  0.32773841  1
  Se  Se80  1  0.32997287  0.67432359  0.83177128  1
  Se  Se81  1  0.30874318  0.66702578  0.67319794  1
  Se  Se82  1  0.30841590  0.66677600  0.16983540  1
  Se  Se83  1  0.32310219  0.66985473  0.00335984  1
  Se  Se84  1  0.32095221  0.66305661  0.50795962  1
  Se  Se85  1  0.39493753  0.37842952  0.99528534  1
  Se  Se86  1  0.40533154  0.37840543  0.50116786  1
  Se  Se87  1  0.36746444  0.36528192  0.18262378  1
  Se  Se88  1  0.36370354  0.35736197  0.67966629  1
  Se  Se89  1  0.49494431  0.46851697  0.58909822  1
  Se  Se90  1  0.50547223  0.47422430  0.09699471  1
  Se  Se91  1  0.52304412  0.51523206  0.89788653  1
  Se  Se92  1  0.51783088  0.51037084  0.39272706  1
  Se  Se93  1  0.55592965  0.91882919  0.17441888  1
  Se  Se94  1  0.55388001  0.91618059  0.67578471  1
  Se  Se95  1  0.56658887  0.92666051  0.33415665  1
  Se  Se96  1  0.56979398  0.92682223  0.83658000  1
  Se  Se97  1  0.64473835  0.95444375  0.98801432  1
  Se  Se98  1  0.61761757  0.95747627  0.48432554  1
  Se  Se99  1  0.54848459  0.17454106  0.09340995  1
  Se  Se100  1  0.53881730  0.16728269  0.59687074  1
  Se  Se101  1  0.57315327  0.19855119  0.91153087  1
  Se  Se102  1  0.57003943  0.20032101  0.40974608  1
  Se  Se103  1  0.54783070  0.18266876  0.25816375  1
  Se  Se104  1  0.55448116  0.18183571  0.75812857  1
  Se  Se105  1  0.81306445  0.30095027  0.12173723  1
  Se  Se106  1  0.80088231  0.31395314  0.61154185  1
  Se  Se107  1  0.61270025  0.58991730  0.17916023  1
  Se  Se108  1  0.61218845  0.59326157  0.68408533  1
  Se  Se109  1  0.45239651  0.91674924  0.53855425  1
  Se  Se110  1  0.47401546  0.91704992  0.03565886  1
  Se  Se111  1  0.63935263  0.64345787  0.99955536  1
  Se  Se112  1  0.63516663  0.64602663  0.49438136  1
  Se  Se113  1  0.72120443  0.71446528  0.26174518  1
  Se  Se114  1  0.73390026  0.71935783  0.75916054  1
  Se  Se115  1  0.75151110  0.74975969  0.07712210  1
  Se  Se116  1  0.78200578  0.76805326  0.41161810  1
  Se  Se117  1  0.74453582  0.75140814  0.57682950  1
  Se  Se118  1  0.77173896  0.75254705  0.90761599  1
  Se  Se119  1  0.82170024  0.47052158  0.06734762  1
  Se  Se120  1  0.80968120  0.48440847  0.56446732  1
  Se  Se121  1  0.82807750  0.45338680  0.40967928  1
  Se  Se122  1  0.82680364  0.44641623  0.91111190  1
  Se  Se123  1  0.84681300  0.20082803  0.48369986  1
  Se  Se124  1  0.83283982  0.21051111  0.98594949  1
  Se  Se125  1  0.80387510  0.42977790  0.25653776  1
  Se  Se126  1  0.80253016  0.42528120  0.75602144  1
  Se  Se127  1  0.79355951  0.14655065  0.18777140  1
  Se  Se128  1  0.83269281  0.17676070  0.33223066  1
  Se  Se129  1  0.80352088  0.15005341  0.68061344  1
  Se  Se130  1  0.83160709  0.17588406  0.83039776  1
  Se  Se131  1  0.89528822  0.87637277  0.34639832  1
  Se  Se132  1  0.87216100  0.86179136  0.17028898  1
  Se  Se133  1  0.87303465  0.85564635  0.83332936  1
  Se  Se134  1  0.86155709  0.85917187  0.66333590  1
  Se  Se135  1  0.01431458  0.00036884  0.93248047  1
  Se  Se136  1  0.95876436  0.97114634  0.55459834  1
  Se  Se137  1  0.99247040  0.02622045  0.07227775  1
