# generated using pymatgen
data_BN
_symmetry_space_group_name_H-M   'P 1'
_cell_length_a   4.12051319
_cell_length_b   3.71713314
_cell_length_c   2.51264253
_cell_angle_alpha   80.28599965
_cell_angle_beta   62.76916965
_cell_angle_gamma   36.94483069
_symmetry_Int_Tables_number   1
_chemical_formula_structural   BN
_chemical_formula_sum   'B1 N1'
_cell_volume   19.11965805
_cell_formula_units_Z   1
loop_
 _symmetry_equiv_pos_site_id
 _symmetry_equiv_pos_as_xyz
  1  'x, y, z'
loop_
 _atom_site_type_symbol
 _atom_site_label
 _atom_site_symmetry_multiplicity
 _atom_site_fract_x
 _atom_site_fract_y
 _atom_site_fract_z
 _atom_site_occupancy
  B  B0  1  0.00017500  0.99982500  0.00017500  1
  N  N1  1  0.66652500  0.33347500  0.66652500  1
