# generated using pymatgen
data_IO3
_symmetry_space_group_name_H-M   'P 1'
_cell_length_a   4.74705600
_cell_length_b   5.21108900
_cell_length_c   8.72626500
_cell_angle_alpha   90.00000000
_cell_angle_beta   90.00000000
_cell_angle_gamma   90.00000000
_symmetry_Int_Tables_number   1
_chemical_formula_structural   IO3
_chemical_formula_sum   'I4 O12'
_cell_volume   215.86450835
_cell_formula_units_Z   4
loop_
 _symmetry_equiv_pos_site_id
 _symmetry_equiv_pos_as_xyz
  1  'x, y, z'
loop_
 _atom_site_type_symbol
 _atom_site_label
 _atom_site_symmetry_multiplicity
 _atom_site_fract_x
 _atom_site_fract_y
 _atom_site_fract_z
 _atom_site_occupancy
  I  I0  1  0.76147300  0.31621800  0.33747900  1
  I  I1  1  0.73852700  0.68378200  0.83747900  1
  I  I2  1  0.26147300  0.18378200  0.66252100  1
  I  I3  1  0.23852700  0.81621800  0.16252100  1
  O  O4  1  0.99551500  0.95383700  0.31048500  1
  O  O5  1  0.50448500  0.04616300  0.81048500  1
  O  O6  1  0.49551500  0.54616300  0.68951500  1
  O  O7  1  0.00448500  0.45383700  0.18951500  1
  O  O8  1  0.52107600  0.59440100  0.34848800  1
  O  O9  1  0.97892400  0.40559900  0.84848800  1
  O  O10  1  0.02107600  0.90559900  0.65151200  1
  O  O11  1  0.47892400  0.09440100  0.15151200  1
  O  O12  1  0.51833800  0.59777400  0.00992300  1
  O  O13  1  0.98166200  0.40222600  0.50992300  1
  O  O14  1  0.01833800  0.90222600  0.99007700  1
  O  O15  1  0.48166200  0.09777400  0.49007700  1
