# generated using pymatgen
data_BeF2
_symmetry_space_group_name_H-M   'P 1'
_cell_length_a   6.93018400
_cell_length_b   7.16657758
_cell_length_c   12.62160496
_cell_angle_alpha   89.99273850
_cell_angle_beta   90.08853845
_cell_angle_gamma   117.96241694
_symmetry_Int_Tables_number   1
_chemical_formula_structural   BeF2
_chemical_formula_sum   'Be16 F32'
_cell_volume   553.67742285
_cell_formula_units_Z   16
loop_
 _symmetry_equiv_pos_site_id
 _symmetry_equiv_pos_as_xyz
  1  'x, y, z'
loop_
 _atom_site_type_symbol
 _atom_site_label
 _atom_site_symmetry_multiplicity
 _atom_site_fract_x
 _atom_site_fract_y
 _atom_site_fract_z
 _atom_site_occupancy
  Be  Be0  1  0.04931100  0.89117100  0.89261900  1
  Be  Be1  1  0.49207600  0.15292700  0.83461000  1
  Be  Be2  1  0.94365300  0.43348300  0.89298400  1
  Be  Be3  1  0.41263300  0.51439200  0.89780300  1
  Be  Be4  1  0.08628700  0.48273800  0.60250800  1
  Be  Be5  1  0.55489000  0.56717100  0.60631400  1
  Be  Be6  1  0.00733700  0.84356700  0.66650200  1
  Be  Be7  1  0.45151600  0.10788000  0.60791100  1
  Be  Be8  1  0.58429900  0.98485300  0.39849100  1
  Be  Be9  1  0.05496900  0.06454100  0.39251500  1
  Be  Be10  1  0.50645800  0.34617700  0.33319100  1
  Be  Be11  1  0.95042100  0.60558400  0.39317000  1
  Be  Be12  1  0.55062000  0.39604100  0.10728200  1
  Be  Be13  1  0.99599700  0.66087500  0.16771800  1
  Be  Be14  1  0.44678000  0.93523800  0.10715900  1
  Be  Be15  1  0.91495900  0.01655500  0.10085400  1
  F  F16  1  0.30631100  0.98367400  0.90452000  1
  F  F17  1  0.94430100  0.64062700  0.90058300  1
  F  F18  1  0.72652800  0.23735400  0.88919200  1
  F  F19  1  0.14839300  0.42093600  0.89056100  1
  F  F20  1  0.49548300  0.06302200  0.72325900  1
  F  F21  1  0.53406300  0.73177500  0.86058700  1
  F  F22  1  0.54260100  0.02711300  0.51877800  1
  F  F23  1  0.45532500  0.35128600  0.82531800  1
  F  F24  1  0.03979400  0.64247000  0.67581400  1
  F  F25  1  0.95998200  0.97301200  0.98178400  1
  F  F26  1  0.97235800  0.26514400  0.64003300  1
  F  F27  1  0.00753600  0.93671900  0.77708600  1
  F  F28  1  0.35198600  0.58216300  0.60688700  1
  F  F29  1  0.77336600  0.76162200  0.61166600  1
  F  F30  1  0.55139600  0.35762900  0.59917700  1
  F  F31  1  0.84987300  0.07613100  0.39078900  1
  F  F32  1  0.19416800  0.01105100  0.59611200  1
  F  F33  1  0.46181400  0.76644400  0.36247800  1
  F  F34  1  0.27209200  0.26167000  0.38844400  1
  F  F35  1  0.69328500  0.51342400  0.40350300  1
  F  F36  1  0.54083400  0.14585500  0.32406200  1
  F  F37  1  0.05369800  0.85641700  0.40141000  1
  F  F38  1  0.50743800  0.44037300  0.22283000  1
  F  F39  1  0.45942800  0.47517700  0.01750300  1
  F  F40  1  0.99141500  0.56150100  0.27734500  1
  F  F41  1  0.45249000  0.14474800  0.09775200  1
  F  F42  1  0.96156900  0.86093700  0.17676900  1
  F  F43  1  0.80736400  0.49635900  0.09761300  1
  F  F44  1  0.03542200  0.52033000  0.48295800  1
  F  F45  1  0.22843300  0.74122400  0.11157500  1
  F  F46  1  0.02994000  0.23514800  0.13542400  1
  F  F47  1  0.64910500  0.91547000  0.10655500  1
