# generated using pymatgen
data_HfNF4
_symmetry_space_group_name_H-M   'P 1'
_cell_length_a   6.32600200
_cell_length_b   7.85526635
_cell_length_c   8.42990800
_cell_angle_alpha   105.25741907
_cell_angle_beta   98.15046647
_cell_angle_gamma   108.42632004
_symmetry_Int_Tables_number   1
_chemical_formula_structural   HfNF4
_chemical_formula_sum   'Hf4 N4 F16'
_cell_volume   371.65758251
_cell_formula_units_Z   4
loop_
 _symmetry_equiv_pos_site_id
 _symmetry_equiv_pos_as_xyz
  1  'x, y, z'
loop_
 _atom_site_type_symbol
 _atom_site_label
 _atom_site_symmetry_multiplicity
 _atom_site_fract_x
 _atom_site_fract_y
 _atom_site_fract_z
 _atom_site_occupancy
  Hf  Hf0  1  0.74594900  0.20501700  0.11546500  1
  Hf  Hf1  1  0.25405100  0.79498300  0.88453500  1
  Hf  Hf2  1  0.72765100  0.70548100  0.14194100  1
  Hf  Hf3  1  0.27234900  0.29451900  0.85805900  1
  N  N4  1  0.21746000  0.37042900  0.35432100  1
  N  N5  1  0.78254000  0.62957100  0.64567900  1
  N  N6  1  0.21062000  0.87632200  0.38540300  1
  N  N7  1  0.78938000  0.12367800  0.61459700  1
  F  F8  1  0.84626000  0.00528600  0.19526700  1
  F  F9  1  0.15374000  0.99471400  0.80473300  1
  F  F10  1  0.01025100  0.22717500  0.98917100  1
  F  F11  1  0.98974900  0.77282500  0.01082900  1
  F  F12  1  0.87536000  0.50297300  0.15049400  1
  F  F13  1  0.12464000  0.49702700  0.84950600  1
  F  F14  1  0.42802400  0.76204000  0.10330700  1
  F  F15  1  0.57197600  0.23796000  0.89669300  1
  F  F16  1  0.40293700  0.07230300  0.09618200  1
  F  F17  1  0.59706300  0.92769700  0.90381800  1
  F  F18  1  0.44921800  0.45157800  0.11729400  1
  F  F19  1  0.55078200  0.54842200  0.88270600  1
  F  F20  1  0.75406400  0.30715500  0.34853000  1
  F  F21  1  0.24593600  0.69284500  0.65147000  1
  F  F22  1  0.74342500  0.76154500  0.37654700  1
  F  F23  1  0.25657500  0.23845500  0.62345300  1
