# generated using pymatgen
data_Ti8Fe35O64
_symmetry_space_group_name_H-M   'P 1'
_cell_length_a   8.53056700
_cell_length_b   8.56171197
_cell_length_c   17.11535381
_cell_angle_alpha   90.22791169
_cell_angle_beta   90.20367326
_cell_angle_gamma   90.06170781
_symmetry_Int_Tables_number   1
_chemical_formula_structural   Ti8Fe35O64
_chemical_formula_sum   'Ti8 Fe35 O64'
_cell_volume   1250.02285710
_cell_formula_units_Z   1
loop_
 _symmetry_equiv_pos_site_id
 _symmetry_equiv_pos_as_xyz
  1  'x, y, z'
loop_
 _atom_site_type_symbol
 _atom_site_label
 _atom_site_symmetry_multiplicity
 _atom_site_fract_x
 _atom_site_fract_y
 _atom_site_fract_z
 _atom_site_occupancy
  Ti  Ti0  1  0.37511500  0.11419800  0.57214100  1
  Ti  Ti1  1  0.63139900  0.12145900  0.44555800  1
  Ti  Ti2  1  0.62759500  0.13598000  0.94565300  1
  Ti  Ti3  1  0.88289600  0.13963400  0.31558500  1
  Ti  Ti4  1  0.88435100  0.14502200  0.80910100  1
  Ti  Ti5  1  0.12268400  0.35737900  0.05694900  1
  Ti  Ti6  1  0.10688400  0.36381200  0.56094900  1
  Ti  Ti7  1  0.37820300  0.61615100  0.81233700  1
  Fe  Fe8  1  0.50104700  0.00384300  0.25372100  1
  Fe  Fe9  1  0.51099000  0.99512000  0.75340900  1
  Fe  Fe10  1  0.13682100  0.11707600  0.18202500  1
  Fe  Fe11  1  0.25691100  0.25315200  0.37821400  1
  Fe  Fe12  1  0.25314200  0.24477800  0.87815400  1
  Fe  Fe13  1  0.75892900  0.25648700  0.12888300  1
  Fe  Fe14  1  0.74697800  0.25603400  0.63063000  1
  Fe  Fe15  1  0.37829500  0.36700400  0.18622500  1
  Fe  Fe16  1  0.37158100  0.36882700  0.68887300  1
  Fe  Fe17  1  0.62606100  0.38088700  0.31723000  1
  Fe  Fe18  1  0.63494600  0.38221400  0.81658200  1
  Fe  Fe19  1  0.49284900  0.50105900  0.00133000  1
  Fe  Fe20  1  0.49396500  0.48716800  0.49968600  1
  Fe  Fe21  1  0.99972100  0.49802600  0.24581900  1
  Fe  Fe22  1  0.00325400  0.50757000  0.74260000  1
  Fe  Fe23  1  0.11985700  0.61788600  0.43542600  1
  Fe  Fe24  1  0.11246000  0.61730800  0.93443600  1
  Fe  Fe25  1  0.87100800  0.62086300  0.05568800  1
  Fe  Fe26  1  0.37566100  0.62688100  0.31442600  1
  Fe  Fe27  1  0.86247300  0.62766000  0.55584200  1
  Fe  Fe28  1  0.62622000  0.63024200  0.18703900  1
  Fe  Fe29  1  0.62074300  0.62970800  0.68113000  1
  Fe  Fe30  1  0.24840200  0.73822400  0.12440800  1
  Fe  Fe31  1  0.23871200  0.74865900  0.62511000  1
  Fe  Fe32  1  0.75571000  0.75939700  0.37375400  1
  Fe  Fe33  1  0.74888300  0.76379500  0.87432100  1
  Fe  Fe34  1  0.37024800  0.87966100  0.94227500  1
  Fe  Fe35  1  0.38326900  0.86994500  0.44223600  1
  Fe  Fe36  1  0.61535000  0.88387400  0.06533700  1
  Fe  Fe37  1  0.13069800  0.87310200  0.31126000  1
  Fe  Fe38  1  0.12702400  0.88152600  0.80805900  1
  Fe  Fe39  1  0.87505300  0.87483300  0.18515800  1
  Fe  Fe40  1  0.87402000  0.88393000  0.68330700  1
  Fe  Fe41  1  0.00371600  0.99309700  0.49772900  1
  Fe  Fe42  1  0.99106200  0.99148100  0.99515000  1
  O  O43  1  0.39069500  0.12047500  0.44206300  1
  O  O44  1  0.39774700  0.11043200  0.92877000  1
  O  O45  1  0.10973900  0.12154300  0.31831400  1
  O  O46  1  0.11027400  0.11623600  0.82117400  1
  O  O47  1  0.88031000  0.12560800  0.19837200  1
  O  O48  1  0.86338300  0.10994400  0.70163900  1
  O  O49  1  0.85977000  0.11322900  0.43159100  1
  O  O50  1  0.85445700  0.10583300  0.92662900  1
  O  O51  1  0.65196600  0.12924900  0.05403300  1
  O  O52  1  0.60395800  0.13859800  0.55302100  1
  O  O53  1  0.10008900  0.13962000  0.05949000  1
  O  O54  1  0.13780500  0.14169400  0.55248700  1
  O  O55  1  0.37464600  0.13827100  0.19422800  1
  O  O56  1  0.39810800  0.12103900  0.67979200  1
  O  O57  1  0.64368700  0.13787300  0.31802900  1
  O  O58  1  0.64282400  0.12712100  0.81947900  1
  O  O59  1  0.35399200  0.39109900  0.06905900  1
  O  O60  1  0.36034300  0.35568600  0.56322100  1
  O  O61  1  0.61203600  0.35279700  0.43101800  1
  O  O62  1  0.60525700  0.35624000  0.93647800  1
  O  O63  1  0.86911700  0.35861200  0.30672600  1
  O  O64  1  0.88656200  0.36188100  0.80351700  1
  O  O65  1  0.38535500  0.37517100  0.30863000  1
  O  O66  1  0.36561800  0.39306500  0.81393100  1
  O  O67  1  0.13772300  0.37254100  0.18161100  1
  O  O68  1  0.13394400  0.39574200  0.67413300  1
  O  O69  1  0.13748900  0.38598000  0.44487200  1
  O  O70  1  0.14299600  0.37715300  0.94768300  1
  O  O71  1  0.89518900  0.38674300  0.07073400  1
  O  O72  1  0.89493900  0.38746500  0.56475200  1
  O  O73  1  0.61712700  0.38363300  0.19329700  1
  O  O74  1  0.60985000  0.39743900  0.69730100  1
  O  O75  1  0.10914600  0.60917900  0.06136400  1
  O  O76  1  0.11792400  0.61132400  0.55500200  1
  O  O77  1  0.38668700  0.61260600  0.19190100  1
  O  O78  1  0.38176400  0.63436400  0.69494400  1
  O  O79  1  0.63210400  0.61515200  0.30936800  1
  O  O80  1  0.60745800  0.63139000  0.81081700  1
  O  O81  1  0.63301300  0.61952500  0.06753600  1
  O  O82  1  0.63099900  0.60682300  0.56509700  1
  O  O83  1  0.86924900  0.63935300  0.94059000  1
  O  O84  1  0.88397500  0.64061800  0.44200400  1
  O  O85  1  0.37883600  0.63446300  0.92715600  1
  O  O86  1  0.36610700  0.62350400  0.43669200  1
  O  O87  1  0.11797600  0.63199700  0.31633800  1
  O  O88  1  0.14158900  0.63208400  0.81053500  1
  O  O89  1  0.86363600  0.62497800  0.18313900  1
  O  O90  1  0.86132200  0.63587100  0.68050600  1
  O  O91  1  0.13115000  0.86252100  0.43080700  1
  O  O92  1  0.13510300  0.86895800  0.93082400  1
  O  O93  1  0.87028500  0.86247300  0.06408800  1
  O  O94  1  0.89246100  0.86552200  0.56801000  1
  O  O95  1  0.62314000  0.86521300  0.18982300  1
  O  O96  1  0.63881900  0.86102700  0.69456800  1
  O  O97  1  0.12741600  0.87190000  0.19281000  1
  O  O98  1  0.11129700  0.86086300  0.69398100  1
  O  O99  1  0.36280800  0.87735900  0.31495600  1
  O  O100  1  0.36572300  0.86288400  0.81583700  1
  O  O101  1  0.37561800  0.85185600  0.05524700  1
  O  O102  1  0.34805700  0.89645000  0.56303600  1
  O  O103  1  0.61072700  0.89229500  0.93762500  1
  O  O104  1  0.62160000  0.89943500  0.42650600  1
  O  O105  1  0.88683100  0.89556700  0.30939100  1
  O  O106  1  0.88999800  0.88325000  0.80780000  1
