# generated using pymatgen
data_Ti9Fe11O30
_symmetry_space_group_name_H-M   'P 1'
_cell_length_a   5.15913200
_cell_length_b   5.55996933
_cell_length_c   21.31198987
_cell_angle_alpha   94.80731121
_cell_angle_beta   89.68555435
_cell_angle_gamma   117.37538745
_symmetry_Int_Tables_number   1
_chemical_formula_structural   Ti9Fe11O30
_chemical_formula_sum   'Ti9 Fe11 O30'
_cell_volume   540.57856345
_cell_formula_units_Z   1
loop_
 _symmetry_equiv_pos_site_id
 _symmetry_equiv_pos_as_xyz
  1  'x, y, z'
loop_
 _atom_site_type_symbol
 _atom_site_label
 _atom_site_symmetry_multiplicity
 _atom_site_fract_x
 _atom_site_fract_y
 _atom_site_fract_z
 _atom_site_occupancy
  Ti  Ti0  1  0.18904700  0.41598600  0.02659100  1
  Ti  Ti1  1  0.60222600  0.20100900  0.22852200  1
  Ti  Ti2  1  0.90742900  0.80606200  0.12413300  1
  Ti  Ti3  1  0.29929400  0.59212200  0.47288300  1
  Ti  Ti4  1  0.29251400  0.60688200  0.33174200  1
  Ti  Ti5  1  0.68922200  0.38643400  0.67124300  1
  Ti  Ti6  1  0.70439400  0.40750400  0.52859700  1
  Ti  Ti7  1  0.80980100  0.61504900  0.83161900  1
  Ti  Ti8  1  0.09618300  0.17975200  0.87081200  1
  Fe  Fe9  1  0.48738100  0.99695200  0.07112200  1
  Fe  Fe10  1  0.89593000  0.78986700  0.26946000  1
  Fe  Fe11  1  0.99838400  0.00125800  0.42819400  1
  Fe  Fe12  1  0.20564100  0.39738700  0.17269800  1
  Fe  Fe13  1  0.39616400  0.80510800  0.62985300  1
  Fe  Fe14  1  0.59476700  0.19533800  0.36997000  1
  Fe  Fe15  1  0.99973700  0.99592000  0.57294200  1
  Fe  Fe16  1  0.10588100  0.20821800  0.72812800  1
  Fe  Fe17  1  0.40397500  0.79749800  0.76997200  1
  Fe  Fe18  1  0.50251400  0.00090500  0.92967000  1
  Fe  Fe19  1  0.79287400  0.57480200  0.96890800  1
  O  O20  1  0.19877500  0.16926900  0.08791900  1
  O  O21  1  0.72441900  0.08969200  0.15635700  1
  O  O22  1  0.79479000  0.24650200  0.00930600  1
  O  O23  1  0.66930000  0.57687700  0.18673000  1
  O  O24  1  0.65915700  0.68636700  0.05494000  1
  O  O25  1  0.63551300  0.96690700  0.28364200  1
  O  O26  1  0.14010700  0.63854100  0.10980000  1
  O  O27  1  0.15013200  0.89402800  0.34697200  1
  O  O28  1  0.19682000  0.03672000  0.21253400  1
  O  O29  1  0.04094700  0.36924700  0.38477700  1
  O  O30  1  0.04811500  0.49389300  0.25608100  1
  O  O31  1  0.04708400  0.74710000  0.49208400  1
  O  O32  1  0.55249500  0.46042600  0.30648000  1
  O  O33  1  0.54307100  0.69448300  0.54385000  1
  O  O34  1  0.53933400  0.81284200  0.41111400  1
  O  O35  1  0.45766900  0.18494200  0.58694500  1
  O  O36  1  0.45975800  0.31027800  0.45597200  1
  O  O37  1  0.43957300  0.54503900  0.69252100  1
  O  O38  1  0.95597300  0.25288200  0.50671700  1
  O  O39  1  0.92063700  0.49822600  0.75127900  1
  O  O40  1  0.94746700  0.62111200  0.61406800  1
  O  O41  1  0.85295700  0.97107700  0.79158400  1
  O  O42  1  0.85119100  0.11235600  0.65314800  1
  O  O43  1  0.85523700  0.36938700  0.88251600  1
  O  O44  1  0.36910900  0.05553700  0.70877400  1
  O  O45  1  0.32573800  0.30408600  0.94953000  1
  O  O46  1  0.38789200  0.43251300  0.81845000  1
  O  O47  1  0.23472600  0.74419700  0.99205800  1
  O  O48  1  0.24133400  0.89860100  0.84976400  1
  O  O49  1  0.78732200  0.84281700  0.90703000  1
