# generated using pymatgen
data_Sr7Al12O25
_symmetry_space_group_name_H-M   'P 1'
_cell_length_a   10.82731972
_cell_length_b   10.82731972
_cell_length_c   10.82731971
_cell_angle_alpha   115.57511477
_cell_angle_beta   115.57511477
_cell_angle_gamma   115.57511904
_symmetry_Int_Tables_number   1
_chemical_formula_structural   Sr7Al12O25
_chemical_formula_sum   'Sr7 Al12 O25'
_cell_volume   671.67224580
_cell_formula_units_Z   1
loop_
 _symmetry_equiv_pos_site_id
 _symmetry_equiv_pos_as_xyz
  1  'x, y, z'
loop_
 _atom_site_type_symbol
 _atom_site_label
 _atom_site_symmetry_multiplicity
 _atom_site_fract_x
 _atom_site_fract_y
 _atom_site_fract_z
 _atom_site_occupancy
  Sr  Sr0  1  0.01936500  0.97104900  0.59330600  1
  Sr  Sr1  1  0.97104900  0.59330600  0.01936500  1
  Sr  Sr2  1  0.50314800  0.55054800  0.91332400  1
  Sr  Sr3  1  0.91332400  0.50314800  0.55054800  1
  Sr  Sr4  1  0.46676600  0.46676600  0.46676600  1
  Sr  Sr5  1  0.59330600  0.01936500  0.97104900  1
  Sr  Sr6  1  0.55054800  0.91332400  0.50314800  1
  Al  Al7  1  0.72477200  0.48164400  0.19767600  1
  Al  Al8  1  0.37927600  0.41722800  0.10656100  1
  Al  Al9  1  0.48164400  0.19767600  0.72477200  1
  Al  Al10  1  0.13255100  0.09446900  0.38415700  1
  Al  Al11  1  0.78669000  0.02903300  0.32025200  1
  Al  Al12  1  0.41722800  0.10656100  0.37927600  1
  Al  Al13  1  0.32025200  0.78669000  0.02903300  1
  Al  Al14  1  0.10656100  0.37927600  0.41722800  1
  Al  Al15  1  0.38415700  0.13255100  0.09446900  1
  Al  Al16  1  0.19767600  0.72477200  0.48164400  1
  Al  Al17  1  0.09446900  0.38415700  0.13255100  1
  Al  Al18  1  0.02903300  0.32025200  0.78669000  1
  O  O19  1  0.26666700  0.16577600  0.95914500  1
  O  O20  1  0.65124100  0.59284500  0.26830700  1
  O  O21  1  0.68159400  0.43791400  0.99874900  1
  O  O22  1  0.25560100  0.38900300  0.90614600  1
  O  O23  1  0.27373400  0.16022000  0.61756200  1
  O  O24  1  0.82946100  0.07092800  0.51815800  1
  O  O25  1  0.59284500  0.26830700  0.65124100  1
  O  O26  1  0.87368100  0.93390900  0.25873100  1
  O  O27  1  0.38900300  0.90614600  0.25560100  1
  O  O28  1  0.07092800  0.51815800  0.82946100  1
  O  O29  1  0.16577600  0.95914500  0.26666700  1
  O  O30  1  0.51815800  0.82946100  0.07092800  1
  O  O31  1  0.26738900  0.36237100  0.53412400  1
  O  O32  1  0.90614600  0.25560100  0.38900300  1
  O  O33  1  0.53412400  0.26738900  0.36237100  1
  O  O34  1  0.25873100  0.87368100  0.93390900  1
  O  O35  1  0.16101800  0.16101800  0.16101800  1
  O  O36  1  0.26830700  0.65124100  0.59284500  1
  O  O37  1  0.95914500  0.26666700  0.16577600  1
  O  O38  1  0.61756200  0.27373400  0.16022000  1
  O  O39  1  0.36237100  0.53412400  0.26738900  1
  O  O40  1  0.99874900  0.68159400  0.43791400  1
  O  O41  1  0.43791400  0.99874900  0.68159400  1
  O  O42  1  0.16022000  0.61756200  0.27373400  1
  O  O43  1  0.93390900  0.25873100  0.87368100  1
