# generated using pymatgen
data_H2
_symmetry_space_group_name_H-M   'P 1'
_cell_length_a   4.37263900
_cell_length_b   6.03940400
_cell_length_c   9.85426600
_cell_angle_alpha   90.00000000
_cell_angle_beta   90.00000000
_cell_angle_gamma   90.00000000
_symmetry_Int_Tables_number   1
_chemical_formula_structural   H2
_chemical_formula_sum   H16
_cell_volume   260.23277175
_cell_formula_units_Z   8
loop_
 _symmetry_equiv_pos_site_id
 _symmetry_equiv_pos_as_xyz
  1  'x, y, z'
loop_
 _atom_site_type_symbol
 _atom_site_label
 _atom_site_symmetry_multiplicity
 _atom_site_fract_x
 _atom_site_fract_y
 _atom_site_fract_z
 _atom_site_occupancy
  H  H0  1  0.25670900  0.53531100  0.75000000  1
  H  H1  1  0.24329100  0.03531100  0.75000000  1
  H  H2  1  0.74329100  0.46468900  0.25000000  1
  H  H3  1  0.75670900  0.96468900  0.25000000  1
  H  H4  1  0.40090200  0.60267500  0.75000000  1
  H  H5  1  0.09909800  0.10267500  0.75000000  1
  H  H6  1  0.59909800  0.39732500  0.25000000  1
  H  H7  1  0.90090200  0.89732500  0.25000000  1
  H  H8  1  0.03843000  0.44492100  0.99528200  1
  H  H9  1  0.46157000  0.94492100  0.50471800  1
  H  H10  1  0.96157000  0.55507900  0.49528200  1
  H  H11  1  0.53843000  0.05507900  0.00471800  1
  H  H12  1  0.96157000  0.55507900  0.00471800  1
  H  H13  1  0.53843000  0.05507900  0.49528200  1
  H  H14  1  0.03843000  0.44492100  0.50471800  1
  H  H15  1  0.46157000  0.94492100  0.99528200  1
