# generated using pymatgen
data_NaCa2SiO4F
_symmetry_space_group_name_H-M   'P 1'
_cell_length_a   7.64172200
_cell_length_b   7.84188534
_cell_length_c   8.09777665
_cell_angle_alpha   87.87382145
_cell_angle_beta   87.30332575
_cell_angle_gamma   86.81574660
_symmetry_Int_Tables_number   1
_chemical_formula_structural   NaCa2SiO4F
_chemical_formula_sum   'Na4 Ca8 Si4 O16 F4'
_cell_volume   483.68818995
_cell_formula_units_Z   4
loop_
 _symmetry_equiv_pos_site_id
 _symmetry_equiv_pos_as_xyz
  1  'x, y, z'
loop_
 _atom_site_type_symbol
 _atom_site_label
 _atom_site_symmetry_multiplicity
 _atom_site_fract_x
 _atom_site_fract_y
 _atom_site_fract_z
 _atom_site_occupancy
  Na  Na0  1  0.56378800  0.47953400  0.21587300  1
  Na  Na1  1  0.46333100  0.00591500  0.99604000  1
  Na  Na2  1  0.92482700  0.51860200  0.48543100  1
  Na  Na3  1  0.99141600  0.98807900  0.94265800  1
  Ca  Ca4  1  0.89601600  0.59263600  0.94193300  1
  Ca  Ca5  1  0.27841100  0.46619500  0.52284700  1
  Ca  Ca6  1  0.03169500  0.98290200  0.51289300  1
  Ca  Ca7  1  0.69442300  0.26622900  0.70404300  1
  Ca  Ca8  1  0.21816600  0.76754700  0.22812700  1
  Ca  Ca9  1  0.50340700  0.04125200  0.40021700  1
  Ca  Ca10  1  0.37218600  0.57050600  0.87951600  1
  Ca  Ca11  1  0.87744200  0.22054500  0.23073000  1
  Si  Si12  1  0.68391600  0.77264500  0.67660800  1
  Si  Si13  1  0.17725900  0.27164700  0.82550100  1
  Si  Si14  1  0.75641000  0.76896400  0.27017200  1
  Si  Si15  1  0.26160500  0.26631700  0.19770900  1
  O  O16  1  0.38942900  0.26999600  0.77390000  1
  O  O17  1  0.14831400  0.21779100  0.02548100  1
  O  O18  1  0.05943600  0.15433600  0.72262500  1
  O  O19  1  0.11421000  0.47508300  0.78539600  1
  O  O20  1  0.76767900  0.13700400  0.47498600  1
  O  O21  1  0.66017400  0.58270900  0.75738200  1
  O  O22  1  0.74989900  0.77246100  0.48273500  1
  O  O23  1  0.79359200  0.87517800  0.79996600  1
  O  O24  1  0.11838300  0.33410200  0.35066800  1
  O  O25  1  0.23258600  0.04881300  0.28584900  1
  O  O26  1  0.29217900  0.48793700  0.12827200  1
  O  O27  1  0.15835900  0.71656500  0.48873200  1
  O  O28  1  0.48174800  0.21970600  0.18415500  1
  O  O29  1  0.89341500  0.90869000  0.19983400  1
  O  O30  1  0.83116900  0.57795700  0.21836000  1
  O  O31  1  0.55272400  0.80601100  0.21998500  1
  F  F32  1  0.23153600  0.81509400  0.94472700  1
  F  F33  1  0.55990500  0.42499600  0.48371100  1
  F  F34  1  0.48399700  0.87220900  0.67273300  1
  F  F35  1  0.78696800  0.32384800  0.97020400  1
