# generated using pymatgen
data_Tb2Se3
_symmetry_space_group_name_H-M   'P 1'
_cell_length_a   14.46351694
_cell_length_b   14.46351694
_cell_length_c   14.46351694
_cell_angle_alpha   144.87681878
_cell_angle_beta   144.87681878
_cell_angle_gamma   50.51813036
_symmetry_Int_Tables_number   1
_chemical_formula_structural   Tb2Se3
_chemical_formula_sum   'Tb16 Se24'
_cell_volume   996.49636225
_cell_formula_units_Z   8
loop_
 _symmetry_equiv_pos_site_id
 _symmetry_equiv_pos_as_xyz
  1  'x, y, z'
loop_
 _atom_site_type_symbol
 _atom_site_label
 _atom_site_symmetry_multiplicity
 _atom_site_fract_x
 _atom_site_fract_y
 _atom_site_fract_z
 _atom_site_occupancy
  Tb  Tb0  1  0.20215200  0.32669500  0.60843400  1
  Tb  Tb1  1  0.41738100  0.91738100  0.50000000  1
  Tb  Tb2  1  0.99363500  0.62500000  0.86863500  1
  Tb  Tb3  1  0.33261900  0.33261900  0.00000000  1
  Tb  Tb4  1  0.03173900  0.92330500  0.37545700  1
  Tb  Tb5  1  0.75636500  0.12500000  0.13136500  1
  Tb  Tb6  1  0.54784800  0.65628200  0.62454300  1
  Tb  Tb7  1  0.34371800  0.96826100  0.89156600  1
  Tb  Tb8  1  0.66738100  0.66738100  0.00000000  1
  Tb  Tb9  1  0.37500000  0.24363500  0.36863500  1
  Tb  Tb10  1  0.07669500  0.45215200  0.10843400  1
  Tb  Tb11  1  0.87500000  0.00636500  0.63136500  1
  Tb  Tb12  1  0.08261900  0.58261900  0.50000000  1
  Tb  Tb13  1  0.67330500  0.28173900  0.87545700  1
  Tb  Tb14  1  0.71826100  0.59371800  0.39156600  1
  Tb  Tb15  1  0.40628200  0.79784800  0.12454300  1
  Se  Se16  1  0.71363500  0.82456300  0.74673000  1
  Se  Se17  1  0.36574400  0.61173500  0.10946200  1
  Se  Se18  1  0.50227300  0.25628200  0.89053800  1
  Se  Se19  1  0.24772700  0.63826500  0.25400900  1
  Se  Se20  1  0.38425600  0.99371800  0.74599100  1
  Se  Se21  1  0.07783300  0.96690500  0.25327000  1
  Se  Se22  1  0.03636500  0.28309500  0.61092800  1
  Se  Se23  1  0.05784900  0.15340400  0.74552300  1
  Se  Se24  1  0.68767400  0.94215100  0.09555500  1
  Se  Se25  1  0.67216700  0.42543700  0.38907200  1
  Se  Se26  1  0.57456300  0.96363500  0.24673000  1
  Se  Se27  1  0.84659600  0.59211900  0.90444500  1
  Se  Se28  1  0.71690500  0.32783300  0.75327000  1
  Se  Se29  1  0.40788100  0.31232600  0.25447700  1
  Se  Se30  1  0.36173500  0.61574400  0.60946200  1
  Se  Se31  1  0.38826500  0.49772700  0.75400900  1
  Se  Se32  1  0.03309500  0.28636500  0.11092800  1
  Se  Se33  1  0.00628200  0.75227300  0.39053800  1
  Se  Se34  1  0.17543700  0.92216700  0.88907200  1
  Se  Se35  1  0.90340400  0.30784900  0.24552300  1
  Se  Se36  1  0.06232600  0.65788100  0.75447700  1
  Se  Se37  1  0.74371800  0.63425600  0.24599100  1
  Se  Se38  1  0.69215100  0.93767400  0.59555500  1
  Se  Se39  1  0.34211900  0.09659600  0.40444500  1
