# generated using pymatgen
data_Al2O3
_symmetry_space_group_name_H-M   'P 1'
_cell_length_a   5.59359691
_cell_length_b   6.13436451
_cell_length_c   18.73166163
_cell_angle_alpha   95.70593728
_cell_angle_beta   121.69885761
_cell_angle_gamma   120.02207045
_symmetry_Int_Tables_number   1
_chemical_formula_structural   Al2O3
_chemical_formula_sum   'Al16 O24'
_cell_volume   412.25896570
_cell_formula_units_Z   8
loop_
 _symmetry_equiv_pos_site_id
 _symmetry_equiv_pos_as_xyz
  1  'x, y, z'
loop_
 _atom_site_type_symbol
 _atom_site_label
 _atom_site_symmetry_multiplicity
 _atom_site_fract_x
 _atom_site_fract_y
 _atom_site_fract_z
 _atom_site_occupancy
  Al  Al0  1  0.01674000  0.02882400  0.90699800  1
  Al  Al1  1  0.25226200  0.48778700  0.73299100  1
  Al  Al2  1  0.99414000  0.05349400  0.57290600  1
  Al  Al3  1  0.48929400  0.01898700  0.87903700  1
  Al  Al4  1  0.91096000  0.94578900  0.71563700  1
  Al  Al5  1  0.52724800  0.05829800  0.73790800  1
  Al  Al6  1  0.65947100  0.48421700  0.55763000  1
  Al  Al7  1  0.00567300  0.95251200  0.18211700  1
  Al  Al8  1  0.61607000  0.53214800  0.38006500  1
  Al  Al9  1  0.39977200  0.95767300  0.55126800  1
  Al  Al10  1  0.11404300  0.98880400  0.34499600  1
  Al  Al11  1  0.79433700  0.08379600  0.39242000  1
  Al  Al12  1  0.46357200  0.36269300  0.15065300  1
  Al  Al13  1  0.34085500  0.79777600  0.15798100  1
  Al  Al14  1  0.54454000  0.59701300  0.94817700  1
  Al  Al15  1  0.64120600  0.10046600  0.06091000  1
  O  O16  1  0.15605700  0.79647900  0.74962000  1
  O  O17  1  0.89847100  0.24041600  0.73690700  1
  O  O18  1  0.44221600  0.84787700  0.94754100  1
  O  O19  1  0.62371400  0.79520300  0.74647100  1
  O  O20  1  0.07680600  0.78169800  0.41868600  1
  O  O21  1  0.35626000  0.21564100  0.89591600  1
  O  O22  1  0.25692200  0.29852300  0.43425600  1
  O  O23  1  0.62223300  0.78466100  0.58538000  1
  O  O24  1  0.31744700  0.22382700  0.72019600  1
  O  O25  1  0.63715500  0.69318900  0.87339300  1
  O  O26  1  0.68044200  0.84081300  0.43979400  1
  O  O27  1  0.86753200  0.70082300  0.06945400  1
  O  O28  1  0.86888700  0.23287400  0.88595200  1
  O  O29  1  0.40459500  0.26085200  0.58748800  1
  O  O30  1  0.09961200  0.38174200  0.10897600  1
  O  O31  1  0.62016900  0.85093200  0.28038300  1
  O  O32  1  0.62914500  0.24708600  0.40667700  1
  O  O33  1  0.10832300  0.79777900  0.59136000  1
  O  O34  1  0.54886800  0.85868300  0.10510400  1
  O  O35  1  0.86881500  0.28088200  0.59228900  1
  O  O36  1  0.44598200  0.15051500  0.20726200  1
  O  O37  1  0.34720000  0.17443800  0.03967200  1
  O  O38  1  0.91625900  0.70813600  0.23001200  1
  O  O39  1  0.16204800  0.24438300  0.27399100  1
