# generated using pymatgen
data_U5O11
_symmetry_space_group_name_H-M   'P 1'
_cell_length_a   3.83358264
_cell_length_b   3.83358264
_cell_length_c   15.72824411
_cell_angle_alpha   82.98695633
_cell_angle_beta   82.98695633
_cell_angle_gamma   60.37407860
_symmetry_Int_Tables_number   1
_chemical_formula_structural   U5O11
_chemical_formula_sum   'U5 O11'
_cell_volume   198.91567986
_cell_formula_units_Z   1
loop_
 _symmetry_equiv_pos_site_id
 _symmetry_equiv_pos_as_xyz
  1  'x, y, z'
loop_
 _atom_site_type_symbol
 _atom_site_label
 _atom_site_symmetry_multiplicity
 _atom_site_fract_x
 _atom_site_fract_y
 _atom_site_fract_z
 _atom_site_occupancy
  U  U0  1  0.29740300  0.29740300  0.58968900  1
  U  U1  1  0.89558300  0.89558300  0.79874900  1
  U  U2  1  0.50000000  0.50000000  0.00000000  1
  U  U3  1  0.10441700  0.10441700  0.20125100  1
  U  U4  1  0.70259700  0.70259700  0.41031100  1
  O  O5  1  0.93803100  0.93803100  0.66357700  1
  O  O6  1  0.24237800  0.24237800  0.75568400  1
  O  O7  1  0.54518300  0.54518300  0.85173500  1
  O  O8  1  0.84883900  0.84883900  0.95093000  1
  O  O9  1  0.75762200  0.75762200  0.24431600  1
  O  O10  1  0.15116100  0.15116100  0.04907000  1
  O  O11  1  0.45481700  0.45481700  0.14826500  1
  O  O12  1  0.35728200  0.35728200  0.43286800  1
  O  O13  1  0.06196900  0.06196900  0.33642300  1
  O  O14  1  0.00000000  0.00000000  0.50000000  1
  O  O15  1  0.64271800  0.64271800  0.56713200  1
