# generated using pymatgen
data_Ce8Fe8As8O7F
_symmetry_space_group_name_H-M   'P 1'
_cell_length_a   10.56178482
_cell_length_b   10.56178482
_cell_length_c   10.56178482
_cell_angle_alpha   135.77060303
_cell_angle_beta   135.77060303
_cell_angle_gamma   64.33518656
_symmetry_Int_Tables_number   1
_chemical_formula_structural   Ce8Fe8As8O7F
_chemical_formula_sum   'Ce8 Fe8 As8 O7 F1'
_cell_volume   565.37707118
_cell_formula_units_Z   1
loop_
 _symmetry_equiv_pos_site_id
 _symmetry_equiv_pos_as_xyz
  1  'x, y, z'
loop_
 _atom_site_type_symbol
 _atom_site_label
 _atom_site_symmetry_multiplicity
 _atom_site_fract_x
 _atom_site_fract_y
 _atom_site_fract_z
 _atom_site_occupancy
  Ce  Ce0  1  0.33465600  0.07407300  0.26058300  1
  Ce  Ce1  1  0.31951800  0.56948200  0.75003700  1
  Ce  Ce2  1  0.81349000  0.07407300  0.73941700  1
  Ce  Ce3  1  0.81944500  0.56948200  0.24996300  1
  Ce  Ce4  1  0.43051800  0.68048200  0.24996300  1
  Ce  Ce5  1  0.43051800  0.18055500  0.75003700  1
  Ce  Ce6  1  0.92592700  0.66534400  0.73941700  1
  Ce  Ce7  1  0.92592700  0.18651000  0.26058300  1
  Fe  Fe8  1  0.75046600  0.75046600  0.00000000  1
  Fe  Fe9  1  0.75000000  0.25000000  0.50000000  1
  Fe  Fe10  1  0.00348600  0.99651400  0.50000000  1
  Fe  Fe11  1  0.00348600  0.50348600  0.00697200  1
  Fe  Fe12  1  0.25000000  0.75000000  0.50000000  1
  Fe  Fe13  1  0.24953400  0.24953400  0.00000000  1
  Fe  Fe14  1  0.49651400  0.99651400  0.99302800  1
  Fe  Fe15  1  0.49651400  0.50348600  0.50000000  1
  As  As16  1  0.65708000  0.90672200  0.24964200  1
  As  As17  1  0.65708000  0.40743800  0.75035800  1
  As  As18  1  0.09392700  0.84485600  0.24907100  1
  As  As19  1  0.09327800  0.34292000  0.75035800  1
  As  As20  1  0.15514400  0.90607300  0.75092900  1
  As  As21  1  0.15514400  0.40421500  0.24907100  1
  As  As22  1  0.59578500  0.84485600  0.75092900  1
  As  As23  1  0.59256200  0.34292000  0.24964200  1
  O  O24  1  0.24702600  0.75297400  0.00000000  1
  O  O25  1  0.24702600  0.24702600  0.49405100  1
  O  O26  1  0.50142800  0.00142800  0.50000000  1
  O  O27  1  0.50000000  0.50000000  0.00000000  1
  O  O28  1  0.75297400  0.75297400  0.50594900  1
  O  O29  1  0.75297400  0.24702600  0.00000000  1
  O  O30  1  0.99857200  0.49857200  0.50000000  1
  F  F31  1  0.00000000  0.00000000  0.00000000  1
