# generated using pymatgen
data_FePH5NO4F
_symmetry_space_group_name_H-M   'P 1'
_cell_length_a   6.32693600
_cell_length_b   6.53459079
_cell_length_c   7.11086519
_cell_angle_alpha   89.86684350
_cell_angle_beta   89.83080842
_cell_angle_gamma   84.84049698
_symmetry_Int_Tables_number   1
_chemical_formula_structural   FePH5NO4F
_chemical_formula_sum   'Fe2 P2 H10 N2 O8 F2'
_cell_volume   292.79807508
_cell_formula_units_Z   2
loop_
 _symmetry_equiv_pos_site_id
 _symmetry_equiv_pos_as_xyz
  1  'x, y, z'
loop_
 _atom_site_type_symbol
 _atom_site_label
 _atom_site_symmetry_multiplicity
 _atom_site_fract_x
 _atom_site_fract_y
 _atom_site_fract_z
 _atom_site_occupancy
  Fe  Fe0  1  0.52376400  0.49256200  0.52972200  1
  Fe  Fe1  1  0.02350900  0.98932700  0.47331300  1
  P  P2  1  0.30015100  0.93303000  0.88600600  1
  P  P3  1  0.79829200  0.43560300  0.11515600  1
  H  H4  1  0.65684400  0.49478600  0.96720000  1
  H  H5  1  0.17106700  0.49511100  0.35881300  1
  H  H6  1  0.28748800  0.61263300  0.20800300  1
  H  H7  1  0.43126800  0.76446600  0.95229500  1
  H  H8  1  0.43219400  0.09529300  0.88140500  1
  H  H9  1  0.15620200  0.98976400  0.03325500  1
  H  H10  1  0.78136700  0.10334700  0.79409600  1
  H  H11  1  0.66519200  0.00262400  0.63319800  1
  H  H12  1  0.93178800  0.59662400  0.12137500  1
  H  H13  1  0.92845200  0.26653100  0.04887800  1
  N  N14  1  0.16002600  0.41850100  0.81259100  1
  N  N15  1  0.65888200  0.92419600  0.18627600  1
  O  O16  1  0.25265500  0.61607600  0.34239400  1
  O  O17  1  0.19469500  0.89016600  0.69951400  1
  O  O18  1  0.23816100  0.38489600  0.64713200  1
  O  O19  1  0.79102700  0.96650300  0.06266200  1
  O  O20  1  0.75316100  0.11671600  0.65864900  1
  O  O21  1  0.73558700  0.88896300  0.35173600  1
  O  O22  1  0.68922500  0.39270000  0.30066400  1
  O  O23  1  0.29015900  0.46546000  0.93532700  1
  F  F24  1  0.15117500  0.17210700  0.30626300  1
  F  F25  1  0.65786800  0.67201400  0.69407600  1
