# generated using pymatgen
data_K3B3O10
_symmetry_space_group_name_H-M   'P 1'
_cell_length_a   8.17280696
_cell_length_b   8.17280696
_cell_length_c   9.27073500
_cell_angle_alpha   90.00000000
_cell_angle_beta   90.00000000
_cell_angle_gamma   127.18914377
_symmetry_Int_Tables_number   1
_chemical_formula_structural   K3B3O10
_chemical_formula_sum   'K6 B6 O20'
_cell_volume   493.31144338
_cell_formula_units_Z   2
loop_
 _symmetry_equiv_pos_site_id
 _symmetry_equiv_pos_as_xyz
  1  'x, y, z'
loop_
 _atom_site_type_symbol
 _atom_site_label
 _atom_site_symmetry_multiplicity
 _atom_site_fract_x
 _atom_site_fract_y
 _atom_site_fract_z
 _atom_site_occupancy
  K  K0  1  0.00950700  0.00950700  0.71323800  1
  K  K1  1  0.99049300  0.99049300  0.21323800  1
  K  K2  1  0.27954700  0.70319400  0.70827900  1
  K  K3  1  0.72045300  0.29680600  0.20827900  1
  K  K4  1  0.29680600  0.72045300  0.20827900  1
  K  K5  1  0.70319400  0.27954700  0.70827900  1
  B  B6  1  0.64928800  0.82581100  0.95564100  1
  B  B7  1  0.35071200  0.17418900  0.45564100  1
  B  B8  1  0.17418900  0.35071200  0.45564100  1
  B  B9  1  0.82581100  0.64928800  0.95564100  1
  B  B10  1  0.43991800  0.43991800  0.96876900  1
  B  B11  1  0.56008200  0.56008200  0.46876900  1
  O  O12  1  0.45077500  0.61733700  0.96168500  1
  O  O13  1  0.54922500  0.38266300  0.46168500  1
  O  O14  1  0.38266300  0.54922500  0.46168500  1
  O  O15  1  0.61733700  0.45077500  0.96168500  1
  O  O16  1  0.65487500  0.94618200  0.83481000  1
  O  O17  1  0.34512500  0.05381800  0.33481000  1
  O  O18  1  0.05381800  0.34512500  0.33481000  1
  O  O19  1  0.94618200  0.65487500  0.83481000  1
  O  O20  1  0.65768300  0.96215200  0.06499500  1
  O  O21  1  0.34231700  0.03784800  0.56499500  1
  O  O22  1  0.03784800  0.34231700  0.56499500  1
  O  O23  1  0.96215200  0.65768300  0.06499500  1
  O  O24  1  0.82282800  0.82282800  0.96056900  1
  O  O25  1  0.17717200  0.17717200  0.46056900  1
  O  O26  1  0.25226600  0.25226600  0.98442700  1
  O  O27  1  0.74773400  0.74773400  0.48442700  1
  O  O28  1  0.77863000  0.07156900  0.44558800  1
  O  O29  1  0.22137000  0.92843100  0.94558800  1
  O  O30  1  0.92843100  0.22137000  0.94558800  1
  O  O31  1  0.07156900  0.77863000  0.44558800  1
