# generated using pymatgen
data_Na8Al6Si6O25
_symmetry_space_group_name_H-M   'P 1'
_cell_length_a   9.01552216
_cell_length_b   9.01552216
_cell_length_c   9.01552178
_cell_angle_alpha   90.14857095
_cell_angle_beta   90.14857095
_cell_angle_gamma   90.14857509
_symmetry_Int_Tables_number   1
_chemical_formula_structural   Na8Al6Si6O25
_chemical_formula_sum   'Na8 Al6 Si6 O25'
_cell_volume   732.77095989
_cell_formula_units_Z   1
loop_
 _symmetry_equiv_pos_site_id
 _symmetry_equiv_pos_as_xyz
  1  'x, y, z'
loop_
 _atom_site_type_symbol
 _atom_site_label
 _atom_site_symmetry_multiplicity
 _atom_site_fract_x
 _atom_site_fract_y
 _atom_site_fract_z
 _atom_site_occupancy
  Na  Na0  1  0.84532500  0.84450700  0.14120800  1
  Na  Na1  1  0.14504900  0.14504900  0.14504900  1
  Na  Na2  1  0.29590900  0.70731400  0.29516100  1
  Na  Na3  1  0.70731400  0.29516100  0.29590900  1
  Na  Na4  1  0.29516100  0.29590900  0.70731400  1
  Na  Na5  1  0.74375600  0.74375600  0.74375600  1
  Na  Na6  1  0.14120800  0.84532500  0.84450700  1
  Na  Na7  1  0.84450700  0.14120800  0.84532500  1
  Al  Al8  1  0.49625800  0.74857100  0.99911200  1
  Al  Al9  1  0.00042100  0.49966000  0.24784900  1
  Al  Al10  1  0.24784900  0.00042100  0.49966000  1
  Al  Al11  1  0.74857100  0.99911200  0.49625800  1
  Al  Al12  1  0.99911200  0.49625800  0.74857100  1
  Al  Al13  1  0.49966000  0.24784900  0.00042100  1
  Si  Si14  1  0.74899100  0.49740000  0.00046900  1
  Si  Si15  1  0.49782700  0.99859500  0.24800300  1
  Si  Si16  1  0.99859500  0.24800300  0.49782700  1
  Si  Si17  1  0.00046900  0.74899100  0.49740000  1
  Si  Si18  1  0.49740000  0.00046900  0.74899100  1
  Si  Si19  1  0.24800300  0.49782700  0.99859500  1
  O  O20  1  0.64932400  0.35739100  0.06089700  1
  O  O21  1  0.34681500  0.63845100  0.05999300  1
  O  O22  1  0.84878700  0.55729800  0.14028200  1
  O  O23  1  0.14814500  0.43668500  0.13810300  1
  O  O24  1  0.55512700  0.85715800  0.15056100  1
  O  O25  1  0.43668500  0.13810300  0.14814500  1
  O  O26  1  0.36071800  0.94081500  0.35258500  1
  O  O27  1  0.63845100  0.05999300  0.34681500  1
  O  O28  1  0.06089700  0.64932400  0.35739100  1
  O  O29  1  0.94081500  0.35258500  0.36071800  1
  O  O30  1  0.85932800  0.84878600  0.44171100  1
  O  O31  1  0.13810300  0.14814500  0.43668500  1
  O  O32  1  0.14028200  0.84878700  0.55729800  1
  O  O33  1  0.85715800  0.15056100  0.55512700  1
  O  O34  1  0.94377600  0.64546900  0.63666400  1
  O  O35  1  0.05999300  0.34681500  0.63845100  1
  O  O36  1  0.63666400  0.94377600  0.64546900  1
  O  O37  1  0.35739100  0.06089700  0.64932400  1
  O  O38  1  0.44171100  0.85932800  0.84878600  1
  O  O39  1  0.55729800  0.14028300  0.84878700  1
  O  O40  1  0.84878600  0.44171100  0.85932800  1
  O  O41  1  0.15056100  0.55512700  0.85715800  1
  O  O42  1  0.64546900  0.63666400  0.94377600  1
  O  O43  1  0.35258500  0.36071800  0.94081500  1
  O  O44  1  0.98508600  0.98508600  0.98508600  1
