# generated using pymatgen
data_U12O19
_symmetry_space_group_name_H-M   'P 1'
_cell_length_a   3.85008576
_cell_length_b   3.85008576
_cell_length_c   37.02800700
_cell_angle_alpha   90.00000000
_cell_angle_beta   90.00000000
_cell_angle_gamma   119.99999579
_symmetry_Int_Tables_number   1
_chemical_formula_structural   U12O19
_chemical_formula_sum   'U12 O19'
_cell_volume   475.33718846
_cell_formula_units_Z   1
loop_
 _symmetry_equiv_pos_site_id
 _symmetry_equiv_pos_as_xyz
  1  'x, y, z'
loop_
 _atom_site_type_symbol
 _atom_site_label
 _atom_site_symmetry_multiplicity
 _atom_site_fract_x
 _atom_site_fract_y
 _atom_site_fract_z
 _atom_site_occupancy
  U  U0  1  0.66666700  0.33333300  0.00042600  1
  U  U1  1  0.33333300  0.66666700  0.91563500  1
  U  U2  1  0.00000000  0.00000000  0.83351500  1
  U  U3  1  0.66666700  0.33333300  0.75145100  1
  U  U4  1  0.33333300  0.66666700  0.66592500  1
  U  U5  1  0.66666700  0.33333300  0.49896900  1
  U  U6  1  0.00000000  0.00000000  0.58407400  1
  U  U7  1  0.33333300  0.66666700  0.41658400  1
  U  U8  1  0.00000000  0.00000000  0.33442100  1
  U  U9  1  0.66666700  0.33333300  0.24950200  1
  U  U10  1  0.00000000  0.00000000  0.08214800  1
  U  U11  1  0.33333300  0.66666700  0.16759300  1
  O  O12  1  0.33333300  0.66666700  0.97520700  1
  O  O13  1  0.00000000  0.00000000  0.90079900  1
  O  O14  1  0.66666700  0.33333300  0.81247700  1
  O  O15  1  0.33333300  0.66666700  0.85434600  1
  O  O16  1  0.00000000  0.00000000  0.64558400  1
  O  O17  1  0.00000000  0.00000000  0.76596200  1
  O  O18  1  0.66666700  0.33333300  0.55849000  1
  O  O19  1  0.66666700  0.33333300  0.69113900  1
  O  O20  1  0.33333300  0.66666700  0.48425800  1
  O  O21  1  0.33333300  0.66666700  0.60442800  1
  O  O22  1  0.00000000  0.00000000  0.39577700  1
  O  O23  1  0.66666700  0.33333300  0.43772200  1
  O  O24  1  0.33333300  0.66666700  0.34917000  1
  O  O25  1  0.33333300  0.66666700  0.22931500  1
  O  O26  1  0.00000000  0.00000000  0.27497700  1
  O  O27  1  0.66666700  0.33333300  0.18347800  1
  O  O28  1  0.66666700  0.33333300  0.06206500  1
  O  O29  1  0.33333300  0.66666700  0.10789400  1
  O  O30  1  0.00000000  0.00000000  0.02083500  1
