# generated using pymatgen
data_SrLaMnFeO6
_symmetry_space_group_name_H-M   'P 1'
_cell_length_a   11.06962900
_cell_length_b   5.53450400
_cell_length_c   7.84325335
_cell_angle_alpha   89.55425999
_cell_angle_beta   90.00000000
_cell_angle_gamma   90.00000000
_symmetry_Int_Tables_number   1
_chemical_formula_structural   SrLaMnFeO6
_chemical_formula_sum   'Sr4 La4 Mn4 Fe4 O24'
_cell_volume   480.50163783
_cell_formula_units_Z   4
loop_
 _symmetry_equiv_pos_site_id
 _symmetry_equiv_pos_as_xyz
  1  'x, y, z'
loop_
 _atom_site_type_symbol
 _atom_site_label
 _atom_site_symmetry_multiplicity
 _atom_site_fract_x
 _atom_site_fract_y
 _atom_site_fract_z
 _atom_site_occupancy
  Sr  Sr0  1  0.37901200  0.75000000  0.50000000  1
  Sr  Sr1  1  0.61877900  0.25000000  0.00000000  1
  Sr  Sr2  1  0.38122100  0.75000000  0.00000000  1
  Sr  Sr3  1  0.62098800  0.25000000  0.50000000  1
  La  La4  1  0.87348300  0.75000000  0.50000000  1
  La  La5  1  0.13128500  0.25000000  0.00000000  1
  La  La6  1  0.86871500  0.75000000  0.00000000  1
  La  La7  1  0.12651700  0.25000000  0.50000000  1
  Mn  Mn8  1  0.37663400  0.25233700  0.75088000  1
  Mn  Mn9  1  0.62336600  0.74766300  0.24912000  1
  Mn  Mn10  1  0.37663400  0.24766300  0.24912000  1
  Mn  Mn11  1  0.62336600  0.75233700  0.75088000  1
  Fe  Fe12  1  0.87255800  0.24799200  0.74918300  1
  Fe  Fe13  1  0.12744200  0.75200800  0.25081700  1
  Fe  Fe14  1  0.87255800  0.25200800  0.25081700  1
  Fe  Fe15  1  0.12744200  0.74799200  0.74918300  1
  O  O16  1  0.50886100  0.01710900  0.26693400  1
  O  O17  1  0.38561300  0.25000000  0.00000000  1
  O  O18  1  0.50886100  0.48289100  0.73306600  1
  O  O19  1  0.76208600  0.53053900  0.76807400  1
  O  O20  1  0.49113900  0.51710900  0.26693400  1
  O  O21  1  0.64950600  0.75000000  0.50000000  1
  O  O22  1  0.61438700  0.75000000  0.00000000  1
  O  O23  1  0.76208600  0.96946100  0.23192600  1
  O  O24  1  0.49113900  0.98289100  0.73306600  1
  O  O25  1  0.01186600  0.02770700  0.27414000  1
  O  O26  1  0.74325200  0.00588300  0.77101000  1
  O  O27  1  0.89972200  0.25000000  0.00000000  1
  O  O28  1  0.85663700  0.25000000  0.50000000  1
  O  O29  1  0.01186600  0.47229300  0.72586000  1
  O  O30  1  0.74325200  0.49411700  0.22899000  1
  O  O31  1  0.25674800  0.50588300  0.77101000  1
  O  O32  1  0.98813400  0.52770700  0.27414000  1
  O  O33  1  0.14336300  0.75000000  0.50000000  1
  O  O34  1  0.10027800  0.75000000  0.00000000  1
  O  O35  1  0.25674800  0.99411700  0.22899000  1
  O  O36  1  0.98813400  0.97229300  0.72586000  1
  O  O37  1  0.23791400  0.03053900  0.76807400  1
  O  O38  1  0.35049400  0.25000000  0.50000000  1
  O  O39  1  0.23791400  0.46946100  0.23192600  1
