# generated using pymatgen
data_Mo3S4
_symmetry_space_group_name_H-M   'P 1'
_cell_length_a   3.85441067
_cell_length_b   14.48699190
_cell_length_c   12.22470342
_cell_angle_alpha   138.23643974
_cell_angle_beta   102.56991712
_cell_angle_gamma   94.56256127
_symmetry_Int_Tables_number   1
_chemical_formula_structural   Mo3S4
_chemical_formula_sum   'Mo6 S8'
_cell_volume   411.90278311
_cell_formula_units_Z   2
loop_
 _symmetry_equiv_pos_site_id
 _symmetry_equiv_pos_as_xyz
  1  'x, y, z'
loop_
 _atom_site_type_symbol
 _atom_site_label
 _atom_site_symmetry_multiplicity
 _atom_site_fract_x
 _atom_site_fract_y
 _atom_site_fract_z
 _atom_site_occupancy
  Mo  Mo0  1  0.94015900  0.80282600  0.11752200  1
  Mo  Mo1  1  0.39442800  0.37582100  0.40755100  1
  Mo  Mo2  1  0.56214500  0.88118000  0.30994100  1
  Mo  Mo3  1  0.05984100  0.19717400  0.88247800  1
  Mo  Mo4  1  0.60557200  0.62417900  0.59244900  1
  Mo  Mo5  1  0.43785500  0.11882000  0.69005900  1
  S  S6  1  0.20056500  0.26546800  0.13193700  1
  S  S7  1  0.90722800  0.32091000  0.45211100  1
  S  S8  1  0.19684000  0.32046100  0.84008200  1
  S  S9  1  0.79943500  0.73453200  0.86806300  1
  S  S10  1  0.09277200  0.67909000  0.54788900  1
  S  S11  1  0.80316000  0.67953900  0.15991800  1
  S  S12  1  0.79314500  0.94236500  0.57455900  1
  S  S13  1  0.20685500  0.05763500  0.42544100  1
