# generated using pymatgen
data_Ba4La2Ti3Nb2O18
_symmetry_space_group_name_H-M   'P 1'
_cell_length_a   14.45039127
_cell_length_b   14.45039127
_cell_length_c   14.45039157
_cell_angle_alpha   22.85870551
_cell_angle_beta   22.85870551
_cell_angle_gamma   22.85870191
_symmetry_Int_Tables_number   1
_chemical_formula_structural   Ba4La2Ti3Nb2O18
_chemical_formula_sum   'Ba4 La2 Ti3 Nb2 O18'
_cell_volume   399.55980732
_cell_formula_units_Z   1
loop_
 _symmetry_equiv_pos_site_id
 _symmetry_equiv_pos_as_xyz
  1  'x, y, z'
loop_
 _atom_site_type_symbol
 _atom_site_label
 _atom_site_symmetry_multiplicity
 _atom_site_fract_x
 _atom_site_fract_y
 _atom_site_fract_z
 _atom_site_occupancy
  Ba  Ba0  1  0.13974200  0.13974200  0.13974200  1
  Ba  Ba1  1  0.31186800  0.31186800  0.31186800  1
  Ba  Ba2  1  0.68813200  0.68813200  0.68813200  1
  Ba  Ba3  1  0.86025800  0.86025800  0.86025800  1
  La  La4  1  0.41466900  0.41466900  0.41466900  1
  La  La5  1  0.58533100  0.58533100  0.58533100  1
  Ti  Ti6  1  0.22161200  0.22161200  0.22161200  1
  Ti  Ti7  1  0.50000000  0.50000000  0.50000000  1
  Ti  Ti8  1  0.77838800  0.77838800  0.77838800  1
  Nb  Nb9  1  0.05393600  0.05393600  0.05393600  1
  Nb  Nb10  1  0.94606400  0.94606400  0.94606400  1
  O  O11  1  0.08259900  0.08259900  0.57613200  1
  O  O12  1  0.57613200  0.08259900  0.08259900  1
  O  O13  1  0.08259900  0.57613200  0.08259900  1
  O  O14  1  0.69003700  0.20581000  0.20581000  1
  O  O15  1  0.20581000  0.20581000  0.69003700  1
  O  O16  1  0.20581000  0.69003700  0.20581000  1
  O  O17  1  0.63523900  0.14540400  0.63523900  1
  O  O18  1  0.14540400  0.63523900  0.63523900  1
  O  O19  1  0.63523900  0.63523900  0.14540400  1
  O  O20  1  0.85459600  0.36476100  0.36476100  1
  O  O21  1  0.36476100  0.36476100  0.85459600  1
  O  O22  1  0.36476100  0.85459600  0.36476100  1
  O  O23  1  0.79419000  0.30996300  0.79419000  1
  O  O24  1  0.30996300  0.79419000  0.79419000  1
  O  O25  1  0.79419000  0.79419000  0.30996300  1
  O  O26  1  0.91740100  0.42386800  0.91740100  1
  O  O27  1  0.91740100  0.91740100  0.42386800  1
  O  O28  1  0.42386800  0.91740100  0.91740100  1
