# generated using pymatgen
data_K5As4
_symmetry_space_group_name_H-M   'P 1'
_cell_length_a   6.47490000
_cell_length_b   6.54553084
_cell_length_c   8.38680187
_cell_angle_alpha   68.19460314
_cell_angle_beta   86.77037162
_cell_angle_gamma   85.06254716
_symmetry_Int_Tables_number   1
_chemical_formula_structural   K5As4
_chemical_formula_sum   'K5 As4'
_cell_volume   328.67595936
_cell_formula_units_Z   1
loop_
 _symmetry_equiv_pos_site_id
 _symmetry_equiv_pos_as_xyz
  1  'x, y, z'
loop_
 _atom_site_type_symbol
 _atom_site_label
 _atom_site_symmetry_multiplicity
 _atom_site_fract_x
 _atom_site_fract_y
 _atom_site_fract_z
 _atom_site_occupancy
  K  K0  1  0.72279700  0.20467300  0.98804000  1
  K  K1  1  0.85470000  0.51201700  0.27936800  1
  K  K2  1  0.50000000  0.00000000  0.50000000  1
  K  K3  1  0.14530000  0.48798300  0.72063200  1
  K  K4  1  0.27720300  0.79532700  0.01196000  1
  As  As5  1  0.97999600  0.04774500  0.62948500  1
  As  As6  1  0.22589200  0.22408400  0.14617300  1
  As  As7  1  0.77410800  0.77591600  0.85382700  1
  As  As8  1  0.02000400  0.95225500  0.37051500  1
