# generated using pymatgen
data_SrLa9Mg2Ga6(FeO14)2
_symmetry_space_group_name_H-M   'P 1'
_cell_length_a   5.58444200
_cell_length_b   5.60322123
_cell_length_c   23.05999916
_cell_angle_alpha   90.75668986
_cell_angle_beta   96.23311107
_cell_angle_gamma   119.57619348
_symmetry_Int_Tables_number   1
_chemical_formula_structural   SrLa9Mg2Ga6(FeO14)2
_chemical_formula_sum   'Sr1 La9 Mg2 Ga6 Fe2 O28'
_cell_volume   621.97263567
_cell_formula_units_Z   1
loop_
 _symmetry_equiv_pos_site_id
 _symmetry_equiv_pos_as_xyz
  1  'x, y, z'
loop_
 _atom_site_type_symbol
 _atom_site_label
 _atom_site_symmetry_multiplicity
 _atom_site_fract_x
 _atom_site_fract_y
 _atom_site_fract_z
 _atom_site_occupancy
  Sr  Sr0  1  0.09194500  0.54559500  0.15774200  1
  La  La1  1  0.65963600  0.83812200  0.04499100  1
  La  La2  1  0.92299200  0.95336100  0.35561300  1
  La  La3  1  0.51326900  0.24027100  0.25431400  1
  La  La4  1  0.70135100  0.34931600  0.54876600  1
  La  La5  1  0.32161000  0.66336000  0.44891900  1
  La  La6  1  0.50599800  0.75414900  0.74948800  1
  La  La7  1  0.10609600  0.05218200  0.64993600  1
  La  La8  1  0.30455200  0.15108900  0.94804200  1
  La  La9  1  0.89617300  0.44825500  0.84421700  1
  Mg  Mg10  1  0.18466500  0.58564300  0.30459600  1
  Mg  Mg11  1  0.01889800  0.51522100  0.99167700  1
  Ga  Ga12  1  0.00496000  0.00066900  0.50216100  1
  Ga  Ga13  1  0.61523800  0.30451600  0.40044500  1
  Ga  Ga14  1  0.80247000  0.40487200  0.69795000  1
  Ga  Ga15  1  0.40486800  0.70302900  0.60005300  1
  Ga  Ga16  1  0.59661900  0.80387600  0.89955800  1
  Ga  Ga17  1  0.20515300  0.10456300  0.79887800  1
  Fe  Fe18  1  0.34484400  0.16656300  0.10463800  1
  Fe  Fe19  1  0.79740400  0.89494100  0.20157300  1
  O  O20  1  0.53304400  0.48404500  0.17093600  1
  O  O21  1  0.26649900  0.39415200  0.04627300  1
  O  O22  1  0.47462600  0.93101100  0.35700600  1
  O  O23  1  0.53440100  0.00103500  0.15125600  1
  O  O24  1  0.08599600  0.82269200  0.25070900  1
  O  O25  1  0.26303600  0.90329000  0.03528500  1
  O  O26  1  0.34573300  0.13325200  0.45924700  1
  O  O27  1  0.99327200  0.96069000  0.12757700  1
  O  O28  1  0.21298800  0.30896300  0.56345000  1
  O  O29  1  0.33800100  0.37048700  0.35117000  1
  O  O30  1  0.89235200  0.24075400  0.45416800  1
  O  O31  1  0.96500800  0.25790200  0.24525400  1
  O  O32  1  0.15972200  0.57593200  0.66291100  1
  O  O33  1  0.86790400  0.48871700  0.34578600  1
  O  O34  1  0.98823200  0.71733200  0.76075300  1
  O  O35  1  0.12845000  0.77443400  0.55104300  1
  O  O36  1  0.67610700  0.62998200  0.64996400  1
  O  O37  1  0.78594600  0.69063000  0.44181600  1
  O  O38  1  0.95354400  0.98070500  0.86404900  1
  O  O39  1  0.64895200  0.83644000  0.53772500  1
  O  O40  1  0.74112300  0.12009800  0.96430400  1
  O  O41  1  0.93619600  0.19040600  0.75052600  1
  O  O42  1  0.47077700  0.01638200  0.84465300  1
  O  O43  1  0.61697600  0.09879800  0.63536300  1
  O  O44  1  0.44898500  0.22693300  0.73426200  1
  O  O45  1  0.72197900  0.60735000  0.95892300  1
  O  O46  1  0.43436900  0.49199500  0.83477100  1
  O  O47  1  0.23464100  0.62479700  0.92666000  1
