# generated using pymatgen
data_Sr2Er2Al3Si5N11O3
_symmetry_space_group_name_H-M   'P 1'
_cell_length_a   6.19641269
_cell_length_b   6.19641269
_cell_length_c   10.42460900
_cell_angle_alpha   90.00000000
_cell_angle_beta   90.00000000
_cell_angle_gamma   120.00000736
_symmetry_Int_Tables_number   1
_chemical_formula_structural   Sr2Er2Al3Si5N11O3
_chemical_formula_sum   'Sr2 Er2 Al3 Si5 N11 O3'
_cell_volume   346.63390797
_cell_formula_units_Z   1
loop_
 _symmetry_equiv_pos_site_id
 _symmetry_equiv_pos_as_xyz
  1  'x, y, z'
loop_
 _atom_site_type_symbol
 _atom_site_label
 _atom_site_symmetry_multiplicity
 _atom_site_fract_x
 _atom_site_fract_y
 _atom_site_fract_z
 _atom_site_occupancy
  Sr  Sr0  1  0.33333300  0.66666700  0.13277700  1
  Sr  Sr1  1  0.66666700  0.33333300  0.64893800  1
  Er  Er2  1  0.33333300  0.66666700  0.63992200  1
  Er  Er3  1  0.66666700  0.33333300  0.34801800  1
  Al  Al4  1  0.16130100  0.83869900  0.43527300  1
  Al  Al5  1  0.16130100  0.32260200  0.43527300  1
  Al  Al6  1  0.67739800  0.83869900  0.43527300  1
  Si  Si7  1  0.00000000  0.00000000  0.70810800  1
  Si  Si8  1  0.00000000  0.00000000  0.21299800  1
  Si  Si9  1  0.34014100  0.17007000  0.93289900  1
  Si  Si10  1  0.82993000  0.65985900  0.93289900  1
  Si  Si11  1  0.82993000  0.17007000  0.93289900  1
  N  N12  1  0.14993600  0.85006400  0.26113100  1
  N  N13  1  0.00000000  0.00000000  0.53336700  1
  N  N14  1  0.00000000  0.00000000  0.01581800  1
  N  N15  1  0.14993600  0.29987100  0.26113100  1
  N  N16  1  0.29353600  0.14676800  0.77623400  1
  N  N17  1  0.49140300  0.50859700  0.49433200  1
  N  N18  1  0.70012900  0.85006400  0.26113100  1
  N  N19  1  0.49140300  0.98280700  0.49433200  1
  N  N20  1  0.85323200  0.70646400  0.77623400  1
  N  N21  1  0.01719300  0.50859700  0.49433200  1
  N  N22  1  0.85323200  0.14676800  0.77623400  1
  O  O23  1  0.94825500  0.47412800  0.98214100  1
  O  O24  1  0.52587200  0.05174500  0.98214100  1
  O  O25  1  0.52587200  0.47412800  0.98214100  1
