# generated using pymatgen
data_K2P4PtClO11
_symmetry_space_group_name_H-M   'P 1'
_cell_length_a   8.84035400
_cell_length_b   9.79428751
_cell_length_c   9.87714334
_cell_angle_alpha   65.88671214
_cell_angle_beta   79.90580544
_cell_angle_gamma   67.59214647
_symmetry_Int_Tables_number   1
_chemical_formula_structural   K2P4PtClO11
_chemical_formula_sum   'K4 P8 Pt2 Cl2 O22'
_cell_volume   721.45344198
_cell_formula_units_Z   2
loop_
 _symmetry_equiv_pos_site_id
 _symmetry_equiv_pos_as_xyz
  1  'x, y, z'
loop_
 _atom_site_type_symbol
 _atom_site_label
 _atom_site_symmetry_multiplicity
 _atom_site_fract_x
 _atom_site_fract_y
 _atom_site_fract_z
 _atom_site_occupancy
  K  K0  1  0.67389400  0.24782000  0.21386300  1
  K  K1  1  0.32610600  0.75218000  0.78613700  1
  K  K2  1  0.21975100  0.96483600  0.12145300  1
  K  K3  1  0.78024900  0.03516400  0.87854700  1
  P  P4  1  0.23886400  0.53100500  0.25251900  1
  P  P5  1  0.76113600  0.46899500  0.74748100  1
  P  P6  1  0.38144800  0.29741300  0.82217700  1
  P  P7  1  0.61855200  0.70258700  0.17782300  1
  P  P8  1  0.83732800  0.72039700  0.79050800  1
  P  P9  1  0.16267200  0.27960300  0.20949200  1
  P  P10  1  0.82249700  0.83566700  0.27636100  1
  P  P11  1  0.17750300  0.16433300  0.72363900  1
  Pt  Pt12  1  0.04643000  0.61691200  0.42433000  1
  Pt  Pt13  1  0.95357000  0.38308800  0.57567000  1
  Cl  Cl14  1  0.13609400  0.76797900  0.48644000  1
  Cl  Cl15  1  0.86390600  0.23202100  0.51356000  1
  O  O16  1  0.23463500  0.68000500  0.12308400  1
  O  O17  1  0.76536500  0.31999500  0.87691600  1
  O  O18  1  0.38425100  0.40376500  0.33504200  1
  O  O19  1  0.61574900  0.59623500  0.66495800  1
  O  O20  1  0.12670800  0.45423300  0.19949400  1
  O  O21  1  0.87329200  0.54576700  0.80050600  1
  O  O22  1  0.21857500  0.25480100  0.80652800  1
  O  O23  1  0.78142500  0.74519900  0.19347200  1
  O  O24  1  0.50619700  0.26485800  0.70341000  1
  O  O25  1  0.49380300  0.73514200  0.29659000  1
  O  O26  1  0.30810800  0.46777400  0.81388400  1
  O  O27  1  0.69189200  0.53222600  0.18611600  1
  O  O28  1  0.68689200  0.84611500  0.71945000  1
  O  O29  1  0.31310800  0.15388500  0.28055000  1
  O  O30  1  0.96682300  0.73052600  0.85761800  1
  O  O31  1  0.03317700  0.26947400  0.14238200  1
  O  O32  1  0.70960600  0.87419300  0.39595800  1
  O  O33  1  0.29039400  0.12580700  0.60404200  1
  O  O34  1  0.90542200  0.94664400  0.16740500  1
  O  O35  1  0.09457800  0.05335600  0.83259500  1
  O  O36  1  0.43871500  0.18183100  0.97927600  1
  O  O37  1  0.56128500  0.81816900  0.02072400  1
