# generated using pymatgen
data_Yb2S3
_symmetry_space_group_name_H-M   'P 1'
_cell_length_a   14.36893066
_cell_length_b   14.36893066
_cell_length_c   14.36893066
_cell_angle_alpha   146.02621591
_cell_angle_beta   146.02621591
_cell_angle_gamma   48.80782514
_symmetry_Int_Tables_number   1
_chemical_formula_structural   Yb2S3
_chemical_formula_sum   'Yb16 S24'
_cell_volume   922.37576025
_cell_formula_units_Z   8
loop_
 _symmetry_equiv_pos_site_id
 _symmetry_equiv_pos_as_xyz
  1  'x, y, z'
loop_
 _atom_site_type_symbol
 _atom_site_label
 _atom_site_symmetry_multiplicity
 _atom_site_fract_x
 _atom_site_fract_y
 _atom_site_fract_z
 _atom_site_occupancy
  Yb  Yb0  1  0.15862200  0.25788900  0.34000300  1
  Yb  Yb1  1  0.91788600  0.81861900  0.65999700  1
  Yb  Yb2  1  0.59038400  0.09038400  0.50000000  1
  Yb  Yb3  1  0.37500000  0.76060500  0.88560500  1
  Yb  Yb4  1  0.83211400  0.99211100  0.40073400  1
  Yb  Yb5  1  0.15961600  0.15961600  0.00000000  1
  Yb  Yb6  1  0.59137800  0.43138100  0.59926600  1
  Yb  Yb7  1  0.87500000  0.48939500  0.11439500  1
  Yb  Yb8  1  0.00788900  0.40862200  0.84000300  1
  Yb  Yb9  1  0.51060500  0.62500000  0.38560500  1
  Yb  Yb10  1  0.84038400  0.84038400  0.00000000  1
  Yb  Yb11  1  0.23939500  0.12500000  0.61439500  1
  Yb  Yb12  1  0.56861900  0.16788600  0.15999700  1
  Yb  Yb13  1  0.90961600  0.40961600  0.50000000  1
  Yb  Yb14  1  0.74211100  0.08211400  0.90073400  1
  Yb  Yb15  1  0.18138100  0.84137800  0.09926600  1
  S  S16  1  0.46694300  0.42725700  0.68298200  1
  S  S17  1  0.24724800  0.97281500  0.08629700  1
  S  S18  1  0.88651800  0.16095000  0.91370300  1
  S  S19  1  0.50275200  0.08905000  0.22556800  1
  S  S20  1  0.86348200  0.27718500  0.77443200  1
  S  S21  1  0.28305700  0.46603900  0.46031400  1
  S  S22  1  0.74427500  0.78396100  0.31701800  1
  S  S23  1  0.00572500  0.82274300  0.53968600  1
  S  S24  1  0.21930000  0.14856900  0.83706100  1
  S  S25  1  0.85143100  0.68849100  0.07073100  1
  S  S26  1  0.61776000  0.78070000  0.92926900  1
  S  S27  1  0.17725700  0.71694300  0.18298200  1
  S  S28  1  0.53396100  0.99427500  0.81701800  1
  S  S29  1  0.91095000  0.13651800  0.41370300  1
  S  S30  1  0.31150900  0.38224000  0.16293900  1
  S  S31  1  0.72281500  0.49724800  0.58629700  1
  S  S32  1  0.83905000  0.75275200  0.72556800  1
  S  S33  1  0.57274300  0.25572500  0.03968600  1
  S  S34  1  0.89856900  0.46930000  0.33706100  1
  S  S35  1  0.21603900  0.53305700  0.96031400  1
  S  S36  1  0.13224000  0.56150900  0.66293900  1
  S  S37  1  0.02718500  0.11348200  0.27443200  1
  S  S38  1  0.53070000  0.86776000  0.42926900  1
  S  S39  1  0.43849100  0.10143100  0.57073100  1
