# generated using pymatgen
data_GdO2
_symmetry_space_group_name_H-M   'P 1'
_cell_length_a   4.18441800
_cell_length_b   3.72870900
_cell_length_c   6.08306047
_cell_angle_alpha   90.00000000
_cell_angle_beta   104.47781260
_cell_angle_gamma   90.00000000
_symmetry_Int_Tables_number   1
_chemical_formula_structural   GdO2
_chemical_formula_sum   'Gd2 O4'
_cell_volume   91.89687359
_cell_formula_units_Z   2
loop_
 _symmetry_equiv_pos_site_id
 _symmetry_equiv_pos_as_xyz
  1  'x, y, z'
loop_
 _atom_site_type_symbol
 _atom_site_label
 _atom_site_symmetry_multiplicity
 _atom_site_fract_x
 _atom_site_fract_y
 _atom_site_fract_z
 _atom_site_occupancy
  Gd  Gd0  1  0.31905700  0.75000000  0.20212100  1
  Gd  Gd1  1  0.68094300  0.25000000  0.79787900  1
  O  O2  1  0.76055200  0.75000000  0.04321200  1
  O  O3  1  0.23944800  0.25000000  0.95678800  1
  O  O4  1  0.69947600  0.75000000  0.55901500  1
  O  O5  1  0.30052400  0.25000000  0.44098500  1
