# generated using pymatgen
data_Er7(CuTe4)3
_symmetry_space_group_name_H-M   'P 1'
_cell_length_a   7.44890602
_cell_length_b   7.44890602
_cell_length_c   14.21739770
_cell_angle_alpha   85.01470505
_cell_angle_beta   85.01470505
_cell_angle_gamma   119.32648584
_symmetry_Int_Tables_number   1
_chemical_formula_structural   Er7(CuTe4)3
_chemical_formula_sum   'Er7 Cu3 Te12'
_cell_volume   677.51414447
_cell_formula_units_Z   1
loop_
 _symmetry_equiv_pos_site_id
 _symmetry_equiv_pos_as_xyz
  1  'x, y, z'
loop_
 _atom_site_type_symbol
 _atom_site_label
 _atom_site_symmetry_multiplicity
 _atom_site_fract_x
 _atom_site_fract_y
 _atom_site_fract_z
 _atom_site_occupancy
  Er  Er0  1  0.58179900  0.24961000  0.25321200  1
  Er  Er1  1  0.08429200  0.41651100  0.74950800  1
  Er  Er2  1  0.24961000  0.58179900  0.25321200  1
  Er  Er3  1  0.33194300  0.33194300  0.00500200  1
  Er  Er4  1  0.74904200  0.74904200  0.74953700  1
  Er  Er5  1  0.91701500  0.91701500  0.25313200  1
  Er  Er6  1  0.41651100  0.08429200  0.74950800  1
  Cu  Cu7  1  0.81320600  0.47949600  0.56043500  1
  Cu  Cu8  1  0.47949600  0.81320600  0.56043500  1
  Cu  Cu9  1  0.14624000  0.14624000  0.56038400  1
  Te  Te10  1  0.12779400  0.79449400  0.61641600  1
  Te  Te11  1  0.29276500  0.95831200  0.12294800  1
  Te  Te12  1  0.79449400  0.12779400  0.61641600  1
  Te  Te13  1  0.95831200  0.29276500  0.12294800  1
  Te  Te14  1  0.71015900  0.37477600  0.87481300  1
  Te  Te15  1  0.46164000  0.46164000  0.61581000  1
  Te  Te16  1  0.87472200  0.54142700  0.37532600  1
  Te  Te17  1  0.62652600  0.62652600  0.12265900  1
  Te  Te18  1  0.37477600  0.71015900  0.87481300  1
  Te  Te19  1  0.54142700  0.87472200  0.37532600  1
  Te  Te20  1  0.04013700  0.04013700  0.87499700  1
  Te  Te21  1  0.20734000  0.20734000  0.37624400  1
