# generated using pymatgen
data_PuSi6H54(C6N)3
_symmetry_space_group_name_H-M   'P 1'
_cell_length_a   16.39255743
_cell_length_b   16.39255743
_cell_length_c   9.47204400
_cell_angle_alpha   90.00000000
_cell_angle_beta   90.00000000
_cell_angle_gamma   119.99999769
_symmetry_Int_Tables_number   1
_chemical_formula_structural   PuSi6H54(C6N)3
_chemical_formula_sum   'Pu2 Si12 H108 C36 N6'
_cell_volume   2204.28515664
_cell_formula_units_Z   2
loop_
 _symmetry_equiv_pos_site_id
 _symmetry_equiv_pos_as_xyz
  1  'x, y, z'
loop_
 _atom_site_type_symbol
 _atom_site_label
 _atom_site_symmetry_multiplicity
 _atom_site_fract_x
 _atom_site_fract_y
 _atom_site_fract_z
 _atom_site_occupancy
  Pu  Pu0  1  0.33333300  0.66666700  0.30338300  1
  Pu  Pu1  1  0.66666700  0.33333300  0.80338300  1
  Si  Si2  1  0.17018500  0.71390400  0.11984300  1
  Si  Si3  1  0.28443000  0.83075300  0.37819600  1
  Si  Si4  1  0.16924700  0.45367700  0.37819600  1
  Si  Si5  1  0.28609600  0.45628100  0.11984300  1
  Si  Si6  1  0.54371900  0.82981500  0.11984300  1
  Si  Si7  1  0.54632300  0.71557000  0.37819600  1
  Si  Si8  1  0.45628100  0.28609600  0.61984300  1
  Si  Si9  1  0.45367700  0.16924700  0.87819600  1
  Si  Si10  1  0.71557000  0.54632300  0.87819600  1
  Si  Si11  1  0.82981500  0.54371900  0.61984300  1
  Si  Si12  1  0.71390400  0.17018500  0.61984300  1
  Si  Si13  1  0.83075300  0.28443000  0.87819600  1
  H  H14  1  0.00754400  0.62787400  0.61970500  1
  H  H15  1  0.03565900  0.69163700  0.27248000  1
  H  H16  1  0.13643500  0.83859200  0.42867800  1
  H  H17  1  0.12045000  0.78229900  0.93122700  1
  H  H18  1  0.16210500  0.86297700  0.07367400  1
  H  H19  1  0.03847500  0.58496700  0.26127400  1
  H  H20  1  0.14402700  0.75715200  0.54390200  1
  H  H21  1  0.21720400  0.88029800  0.57094400  1
  H  H22  1  0.24348300  0.85608800  0.95694300  1
  H  H23  1  0.00889000  0.38029500  0.87988100  1
  H  H24  1  0.03864100  0.45361100  0.23900800  1
  H  H25  1  0.12426200  0.62045100  0.90556100  1
  H  H26  1  0.30899000  0.96558200  0.22701700  1
  H  H27  1  0.03441800  0.34340800  0.22701700  1
  H  H28  1  0.12573400  0.50284100  0.59125200  1
  H  H29  1  0.17167900  0.60265100  0.48199400  1
  H  H30  1  0.37140600  0.99111000  0.87988100  1
  H  H31  1  0.17287500  0.57029400  0.02051900  1
  H  H32  1  0.24830300  0.67444200  0.92339500  1
  H  H33  1  0.41496900  0.96135900  0.23900800  1
  H  H34  1  0.37710700  0.87426600  0.59125200  1
  H  H35  1  0.32593400  0.75165900  0.57940400  1
  H  H36  1  0.24834100  0.57427400  0.57940400  1
  H  H37  1  0.11970200  0.33690600  0.57094400  1
  H  H38  1  0.14391200  0.38739500  0.95694300  1
  H  H39  1  0.39742000  0.82712500  0.02051900  1
  H  H40  1  0.13702300  0.29912800  0.07367400  1
  H  H41  1  0.16140800  0.29784200  0.42867800  1
  H  H42  1  0.43097200  0.82832100  0.48199400  1
  H  H43  1  0.24284800  0.38687500  0.54390200  1
  H  H44  1  0.21770100  0.33815100  0.93122700  1
  H  H45  1  0.32555800  0.57386100  0.92339500  1
  H  H46  1  0.42613900  0.75169700  0.92339500  1
  H  H47  1  0.49619000  0.87573800  0.90556100  1
  H  H48  1  0.54649200  0.96152500  0.26127400  1
  H  H49  1  0.42572600  0.67406600  0.57940400  1
  H  H50  1  0.39734900  0.56902800  0.48199400  1
  H  H51  1  0.62033000  0.99245600  0.61970500  1
  H  H52  1  0.42970600  0.60258000  0.02051900  1
  H  H53  1  0.37954900  0.50381000  0.90556100  1
  H  H54  1  0.30836300  0.34402200  0.27248000  1
  H  H55  1  0.65597800  0.96434100  0.27248000  1
  H  H56  1  0.49715900  0.62289300  0.59125200  1
  H  H57  1  0.41503300  0.45350800  0.26127400  1
  H  H58  1  0.37212600  0.37967000  0.61970500  1
  H  H59  1  0.37967000  0.37212600  0.11970500  1
  H  H60  1  0.61312500  0.85597300  0.54390200  1
  H  H61  1  0.34402200  0.30836300  0.77248000  1
  H  H62  1  0.66184900  0.87955000  0.93122700  1
  H  H63  1  0.29784200  0.16140800  0.92867800  1
  H  H64  1  0.33815100  0.21770100  0.43122700  1
  H  H65  1  0.61260500  0.75651700  0.95694300  1
  H  H66  1  0.29912800  0.13702300  0.57367400  1
  H  H67  1  0.45350800  0.41503300  0.76127400  1
  H  H68  1  0.54638900  0.58503100  0.23900800  1
  H  H69  1  0.70215800  0.86356500  0.42867800  1
  H  H70  1  0.38687500  0.24284800  0.04390200  1
  H  H71  1  0.66309400  0.78279600  0.57094400  1
  H  H72  1  0.70087200  0.83789500  0.07367400  1
  H  H73  1  0.33690600  0.11970200  0.07094400  1
  H  H74  1  0.65659200  0.69101000  0.22701700  1
  H  H75  1  0.38739500  0.14391200  0.45694300  1
  H  H76  1  0.61970500  0.62859400  0.87988100  1
  H  H77  1  0.62859400  0.61970500  0.37988100  1
  H  H78  1  0.58503100  0.54638900  0.73900800  1
  H  H79  1  0.50381000  0.37954900  0.40556100  1
  H  H80  1  0.34340800  0.03441800  0.72701700  1
  H  H81  1  0.69101000  0.65659200  0.72701700  1
  H  H82  1  0.62289300  0.49715900  0.09125200  1
  H  H83  1  0.56902800  0.39734900  0.98199400  1
  H  H84  1  0.38029500  0.00889000  0.37988100  1
  H  H85  1  0.60258000  0.42970600  0.52051900  1
  H  H86  1  0.57386100  0.32555800  0.42339500  1
  H  H87  1  0.45361100  0.03864100  0.73900800  1
  H  H88  1  0.50284100  0.12573400  0.09125200  1
  H  H89  1  0.57427400  0.24834100  0.07940400  1
  H  H90  1  0.67406600  0.42572600  0.07940400  1
  H  H91  1  0.78279600  0.66309400  0.07094400  1
  H  H92  1  0.75651700  0.61260500  0.45694300  1
  H  H93  1  0.57029400  0.17287500  0.52051900  1
  H  H94  1  0.83789500  0.70087200  0.57367400  1
  H  H95  1  0.86356500  0.70215800  0.92867800  1
  H  H96  1  0.60265100  0.17167900  0.98199400  1
  H  H97  1  0.85597300  0.61312500  0.04390200  1
  H  H98  1  0.87955000  0.66184900  0.43122700  1
  H  H99  1  0.75169700  0.42613900  0.42339500  1
  H  H100  1  0.67444200  0.24830300  0.42339500  1
  H  H101  1  0.62045100  0.12426200  0.40556100  1
  H  H102  1  0.58496700  0.03847500  0.76127400  1
  H  H103  1  0.75165900  0.32593400  0.07940400  1
  H  H104  1  0.82832100  0.43097200  0.98199400  1
  H  H105  1  0.62787400  0.00754400  0.11970500  1
  H  H106  1  0.82712500  0.39742000  0.52051900  1
  H  H107  1  0.87573800  0.49619000  0.40556100  1
  H  H108  1  0.96434100  0.65597800  0.77248000  1
  H  H109  1  0.69163700  0.03565900  0.77248000  1
  H  H110  1  0.87426600  0.37710700  0.09125200  1
  H  H111  1  0.96152500  0.54649200  0.76127400  1
  H  H112  1  0.99245600  0.62033000  0.11970500  1
  H  H113  1  0.75715200  0.14402700  0.04390200  1
  H  H114  1  0.78229900  0.12045000  0.43122700  1
  H  H115  1  0.85608800  0.24348300  0.45694300  1
  H  H116  1  0.96135900  0.41496900  0.73900800  1
  H  H117  1  0.83859200  0.13643500  0.92867800  1
  H  H118  1  0.88029800  0.21720400  0.07094400  1
  H  H119  1  0.86297700  0.16210500  0.57367400  1
  H  H120  1  0.96558200  0.30899000  0.72701700  1
  H  H121  1  0.99111000  0.37140600  0.37988100  1
  C  C122  1  0.04825100  0.64641400  0.20056800  1
  C  C123  1  0.17594200  0.81443200  0.01252200  1
  C  C124  1  0.18543700  0.82506600  0.48908000  1
  C  C125  1  0.04722700  0.40108500  0.29953500  1
  C  C126  1  0.18143700  0.63704500  0.98134300  1
  C  C127  1  0.35385800  0.95277300  0.29953500  1
  C  C128  1  0.18314900  0.54503400  0.51647400  1
  C  C129  1  0.36188600  0.81685100  0.51647400  1
  C  C130  1  0.17493400  0.36037100  0.48908000  1
  C  C131  1  0.18556800  0.36151000  0.01252200  1
  C  C132  1  0.45560800  0.81856300  0.98134300  1
  C  C133  1  0.36295500  0.54439200  0.98134300  1
  C  C134  1  0.59816200  0.95174900  0.20056800  1
  C  C135  1  0.45496600  0.63811400  0.51647400  1
  C  C136  1  0.35358600  0.40183800  0.20056800  1
  C  C137  1  0.40183800  0.35358600  0.70056800  1
  C  C138  1  0.63849000  0.82405800  0.01252200  1
  C  C139  1  0.63962900  0.81456300  0.48908000  1
  C  C140  1  0.36151000  0.18556800  0.51252200  1
  C  C141  1  0.36037100  0.17493400  0.98908000  1
  C  C142  1  0.59891500  0.64614200  0.29953500  1
  C  C143  1  0.64614200  0.59891500  0.79953500  1
  C  C144  1  0.54439200  0.36295500  0.48134300  1
  C  C145  1  0.40108500  0.04722700  0.79953500  1
  C  C146  1  0.63811400  0.45496600  0.01647400  1
  C  C147  1  0.54503400  0.18314900  0.01647400  1
  C  C148  1  0.81456300  0.63962900  0.98908000  1
  C  C149  1  0.82405800  0.63849000  0.51252200  1
  C  C150  1  0.63704500  0.18143700  0.48134300  1
  C  C151  1  0.81856300  0.45560800  0.48134300  1
  C  C152  1  0.64641400  0.04825100  0.70056800  1
  C  C153  1  0.81685100  0.36188600  0.01647400  1
  C  C154  1  0.95174900  0.59816200  0.70056800  1
  C  C155  1  0.81443200  0.17594200  0.51252200  1
  C  C156  1  0.82506600  0.18543700  0.98908000  1
  C  C157  1  0.95277300  0.35385800  0.79953500  1
  N  N158  1  0.25429300  0.74453400  0.25098700  1
  N  N159  1  0.25546600  0.50975900  0.25098700  1
  N  N160  1  0.49024100  0.74570700  0.25098700  1
  N  N161  1  0.50975900  0.25546600  0.75098700  1
  N  N162  1  0.74570700  0.49024100  0.75098700  1
  N  N163  1  0.74453400  0.25429300  0.75098700  1
