# generated using pymatgen
data_Na11Ti20O40
_symmetry_space_group_name_H-M   'P 1'
_cell_length_a   5.87768727
_cell_length_b   5.87768727
_cell_length_c   51.12260144
_cell_angle_alpha   86.42930682
_cell_angle_beta   86.42930682
_cell_angle_gamma   29.70738650
_symmetry_Int_Tables_number   1
_chemical_formula_structural   Na11Ti20O40
_chemical_formula_sum   'Na11 Ti20 O40'
_cell_volume   873.42994790
_cell_formula_units_Z   1
loop_
 _symmetry_equiv_pos_site_id
 _symmetry_equiv_pos_as_xyz
  1  'x, y, z'
loop_
 _atom_site_type_symbol
 _atom_site_label
 _atom_site_symmetry_multiplicity
 _atom_site_fract_x
 _atom_site_fract_y
 _atom_site_fract_z
 _atom_site_occupancy
  Na  Na0  1  0.69999700  0.69999700  0.80029100  1
  Na  Na1  1  0.30000300  0.30000300  0.19970900  1
  Na  Na2  1  0.20296700  0.20296700  0.29627400  1
  Na  Na3  1  0.54983400  0.54983400  0.45001200  1
  Na  Na4  1  0.65075200  0.65075200  0.34951800  1
  Na  Na5  1  0.09997100  0.09997100  0.39999100  1
  Na  Na6  1  0.90002900  0.90002900  0.60000900  1
  Na  Na7  1  0.00000000  0.00000000  0.50000000  1
  Na  Na8  1  0.45016600  0.45016600  0.54998800  1
  Na  Na9  1  0.34924800  0.34924800  0.65048200  1
  Na  Na10  1  0.79703300  0.79703300  0.70372600  1
  Ti  Ti11  1  0.96925400  0.96925400  0.77403000  1
  Ti  Ti12  1  0.43051900  0.43051900  0.82566700  1
  Ti  Ti13  1  0.87325600  0.87325600  0.87594900  1
  Ti  Ti14  1  0.32373800  0.32373800  0.92576500  1
  Ti  Ti15  1  0.77484500  0.77484500  0.97526100  1
  Ti  Ti16  1  0.22515500  0.22515500  0.02473900  1
  Ti  Ti17  1  0.67626200  0.67626200  0.07423500  1
  Ti  Ti18  1  0.12674400  0.12674400  0.12405100  1
  Ti  Ti19  1  0.56948100  0.56948100  0.17433300  1
  Ti  Ti20  1  0.03074600  0.03074600  0.22597000  1
  Ti  Ti21  1  0.47055200  0.47055200  0.27483100  1
  Ti  Ti22  1  0.92598300  0.92598300  0.32539900  1
  Ti  Ti23  1  0.37425300  0.37425300  0.37563100  1
  Ti  Ti24  1  0.82522400  0.82522400  0.42492800  1
  Ti  Ti25  1  0.27518800  0.27518800  0.47480400  1
  Ti  Ti26  1  0.72481200  0.72481200  0.52519600  1
  Ti  Ti27  1  0.17477600  0.17477600  0.57507200  1
  Ti  Ti28  1  0.62574700  0.62574700  0.62436900  1
  Ti  Ti29  1  0.07401700  0.07401700  0.67460100  1
  Ti  Ti30  1  0.52944800  0.52944800  0.72516900  1
  O  O31  1  0.57808800  0.57808800  0.76257100  1
  O  O32  1  0.03465500  0.03465500  0.81070300  1
  O  O33  1  0.36484500  0.36484500  0.78919900  1
  O  O34  1  0.47582900  0.47582900  0.86082200  1
  O  O35  1  0.82544300  0.82544300  0.83713300  1
  O  O36  1  0.92501400  0.92501400  0.91073700  1
  O  O37  1  0.27505600  0.27505600  0.88799600  1
  O  O38  1  0.37506700  0.37506700  0.96108500  1
  O  O39  1  0.72530000  0.72530000  0.93840300  1
  O  O40  1  0.82480600  0.82480600  0.01136400  1
  O  O41  1  0.17519400  0.17519400  0.98863600  1
  O  O42  1  0.27470000  0.27470000  0.06159700  1
  O  O43  1  0.62493300  0.62493300  0.03891500  1
  O  O44  1  0.72494400  0.72494400  0.11200400  1
  O  O45  1  0.07498600  0.07498600  0.08926300  1
  O  O46  1  0.17455700  0.17455700  0.16286700  1
  O  O47  1  0.52417100  0.52417100  0.13917800  1
  O  O48  1  0.63515500  0.63515500  0.21080100  1
  O  O49  1  0.96534500  0.96534500  0.18929700  1
  O  O50  1  0.07989100  0.07989100  0.26237400  1
  O  O51  1  0.42191200  0.42191200  0.23742900  1
  O  O52  1  0.53976500  0.53976500  0.31178300  1
  O  O53  1  0.86277800  0.86277800  0.28902800  1
  O  O54  1  0.99103000  0.99103000  0.36204500  1
  O  O55  1  0.31006900  0.31006900  0.33821700  1
  O  O56  1  0.44196000  0.44196000  0.41208700  1
  O  O57  1  0.75792500  0.75792500  0.38799800  1
  O  O58  1  0.89164500  0.89164500  0.46206300  1
  O  O59  1  0.20809100  0.20809100  0.43818600  1
  O  O60  1  0.34106400  0.34106400  0.51186100  1
  O  O61  1  0.65893600  0.65893600  0.48813900  1
  O  O62  1  0.79190900  0.79190900  0.56181400  1
  O  O63  1  0.10835500  0.10835500  0.53793700  1
  O  O64  1  0.24207500  0.24207500  0.61200200  1
  O  O65  1  0.55804000  0.55804000  0.58791300  1
  O  O66  1  0.68993100  0.68993100  0.66178300  1
  O  O67  1  0.00897000  0.00897000  0.63795500  1
  O  O68  1  0.13722200  0.13722200  0.71097200  1
  O  O69  1  0.46023500  0.46023500  0.68821700  1
  O  O70  1  0.92010900  0.92010900  0.73762600  1
