# generated using pymatgen
data_Sr5Fe3F19
_symmetry_space_group_name_H-M   'P 1'
_cell_length_a   8.85572300
_cell_length_b   9.81258350
_cell_length_c   10.72573518
_cell_angle_alpha   83.79976390
_cell_angle_beta   112.80442398
_cell_angle_gamma   106.33104360
_symmetry_Int_Tables_number   1
_chemical_formula_structural   Sr5Fe3F19
_chemical_formula_sum   'Sr10 Fe6 F38'
_cell_volume   824.51927514
_cell_formula_units_Z   2
loop_
 _symmetry_equiv_pos_site_id
 _symmetry_equiv_pos_as_xyz
  1  'x, y, z'
loop_
 _atom_site_type_symbol
 _atom_site_label
 _atom_site_symmetry_multiplicity
 _atom_site_fract_x
 _atom_site_fract_y
 _atom_site_fract_z
 _atom_site_occupancy
  Sr  Sr0  1  0.94995300  0.30070300  0.87027500  1
  Sr  Sr1  1  0.39124600  0.72974300  0.92792800  1
  Sr  Sr2  1  0.33049700  0.53660600  0.53029300  1
  Sr  Sr3  1  0.18985200  0.14499100  0.33078700  1
  Sr  Sr4  1  0.36062600  0.13964800  0.72411600  1
  Sr  Sr5  1  0.48017300  0.83165800  0.30538400  1
  Sr  Sr6  1  0.84574800  0.82618500  0.67966800  1
  Sr  Sr7  1  0.68156800  0.43159100  0.46057600  1
  Sr  Sr8  1  0.64022700  0.23473600  0.13491600  1
  Sr  Sr9  1  0.92188100  0.64145300  0.16213200  1
  Fe  Fe10  1  0.22885400  0.97842800  0.01395400  1
  Fe  Fe11  1  0.13477600  0.78288900  0.49671400  1
  Fe  Fe12  1  0.78291900  0.95880000  0.94224100  1
  Fe  Fe13  1  0.29987600  0.46788200  0.16723400  1
  Fe  Fe14  1  0.65903100  0.48830500  0.83997700  1
  Fe  Fe15  1  0.90137800  0.16468700  0.49552100  1
  F  F16  1  0.93199400  0.72072800  0.53655500  1
  F  F17  1  0.18646000  0.90117500  0.83515800  1
  F  F18  1  0.06707100  0.59534700  0.41905800  1
  F  F19  1  0.25616700  0.69965400  0.67373100  1
  F  F20  1  0.21988300  0.49198700  0.96723800  1
  F  F21  1  0.03328200  0.08672300  0.66322800  1
  F  F22  1  0.29399800  0.00938300  0.21108200  1
  F  F23  1  0.21680100  0.78113900  0.06359500  1
  F  F24  1  0.08955000  0.32442900  0.13553500  1
  F  F25  1  0.34912200  0.80874200  0.46974300  1
  F  F26  1  0.34597200  0.15591100  0.94972400  1
  F  F27  1  0.21807400  0.59508500  0.24407300  1
  F  F28  1  0.41539200  0.40784500  0.74025100  1
  F  F29  1  0.53936300  0.94397100  0.84407200  1
  F  F30  1  0.61926300  0.67162600  0.77052300  1
  F  F31  1  0.18984400  0.98093200  0.53672700  1
  F  F32  1  0.75324300  0.48664200  0.70176200  1
  F  F33  1  0.45972200  0.22877700  0.54193900  1
  F  F34  1  0.58933800  0.65980100  0.48740700  1
  F  F35  1  0.36756100  0.40927700  0.36116100  1
  F  F36  1  0.75315400  0.96429400  0.47651000  1
  F  F37  1  0.41965700  0.33046800  0.17186400  1
  F  F38  1  0.48842200  0.63457900  0.17900200  1
  F  F39  1  0.65711900  0.28428700  0.87110600  1
  F  F40  1  0.48573300  0.96886800  0.09466200  1
  F  F41  1  0.71542200  0.80505800  0.05407900  1
  F  F42  1  0.67682900  0.19882900  0.38585600  1
  F  F43  1  0.92184200  0.83777400  0.93211100  1
  F  F44  1  0.89856900  0.52285300  0.95991200  1
  F  F45  1  0.79309600  0.04674700  0.77502300  1
  F  F46  1  0.03151800  0.84965400  0.30920900  1
  F  F47  1  0.61977800  0.49911400  0.00120900  1
  F  F48  1  0.77671100  0.44853700  0.26807900  1
  F  F49  1  0.90677900  0.31136600  0.61406100  1
  F  F50  1  0.06361300  0.08610700  0.99844300  1
  F  F51  1  0.80695300  0.11263600  0.04407500  1
  F  F52  1  0.89417600  0.13294800  0.31513300  1
  F  F53  1  0.13242600  0.28030200  0.50368800  1
