# generated using pymatgen
data_La2(WO3)19
_symmetry_space_group_name_H-M   'P 1'
_cell_length_a   8.69061000
_cell_length_b   8.69151921
_cell_length_c   16.48599510
_cell_angle_alpha   83.94559958
_cell_angle_beta   77.82253366
_cell_angle_gamma   66.42253130
_symmetry_Int_Tables_number   1
_chemical_formula_structural   La2(WO3)19
_chemical_formula_sum   'La2 W19 O57'
_cell_volume   1115.31857001
_cell_formula_units_Z   1
loop_
 _symmetry_equiv_pos_site_id
 _symmetry_equiv_pos_as_xyz
  1  'x, y, z'
loop_
 _atom_site_type_symbol
 _atom_site_label
 _atom_site_symmetry_multiplicity
 _atom_site_fract_x
 _atom_site_fract_y
 _atom_site_fract_z
 _atom_site_occupancy
  La  La0  1  0.55215000  0.63243000  0.23747000  1
  La  La1  1  0.44785000  0.36757000  0.76253000  1
  W  W2  1  0.26070800  0.15454000  0.68186700  1
  W  W3  1  0.47722100  0.68692300  0.62872800  1
  W  W4  1  0.69175600  0.20423600  0.57595300  1
  W  W5  1  0.89624800  0.73402300  0.52600100  1
  W  W6  1  0.10375200  0.26597700  0.47399900  1
  W  W7  1  0.30824400  0.79576400  0.42404700  1
  W  W8  1  0.52277900  0.31307700  0.37127200  1
  W  W9  1  0.73929200  0.84546000  0.31813300  1
  W  W10  1  0.95251600  0.36428900  0.26492100  1
  W  W11  1  0.15237800  0.89860400  0.20877200  1
  W  W12  1  0.36573800  0.41729100  0.15667000  1
  W  W13  1  0.58228000  0.95040100  0.10298200  1
  W  W14  1  0.79412800  0.46861800  0.05040600  1
  W  W15  1  0.00000000  0.00000000  0.00000000  1
  W  W16  1  0.20587200  0.53138200  0.94959400  1
  W  W17  1  0.41772000  0.04959900  0.89701800  1
  W  W18  1  0.63426200  0.58270900  0.84333000  1
  W  W19  1  0.84762200  0.10139600  0.79122800  1
  W  W20  1  0.04748400  0.63571100  0.73507900  1
  O  O21  1  0.26838700  0.65006500  0.68629000  1
  O  O22  1  0.16547900  0.39401200  0.71175200  1
  O  O23  1  0.47295500  0.18921800  0.63522900  1
  O  O24  1  0.36866900  0.92056300  0.65762400  1
  O  O25  1  0.68379000  0.71102400  0.57880400  1
  O  O26  1  0.57568300  0.44471700  0.60956400  1
  O  O27  1  0.89467900  0.23648800  0.52611000  1
  O  O28  1  0.75475900  0.16375900  0.68657500  1
  O  O29  1  0.79006700  0.97328900  0.55238000  1
  O  O30  1  0.97320600  0.68443600  0.63186000  1
  O  O31  1  0.10532100  0.76351200  0.47389000  1
  O  O32  1  0.00000000  0.50000000  0.50000000  1
  O  O33  1  0.31621000  0.28897600  0.42119600  1
  O  O34  1  0.18403500  0.21019800  0.57920500  1
  O  O35  1  0.20993300  0.02671100  0.44762000  1
  O  O36  1  0.52704500  0.81078200  0.36477100  1
  O  O37  1  0.39470600  0.73726500  0.52617100  1
  O  O38  1  0.42431700  0.55528300  0.39043600  1
  O  O39  1  0.73161300  0.34993500  0.31371000  1
  O  O40  1  0.60529400  0.26273500  0.47382900  1
  O  O41  1  0.63133100  0.07943700  0.34237600  1
  O  O42  1  0.81596500  0.78980200  0.42079500  1
  O  O43  1  0.94706700  0.86909400  0.26315300  1
  O  O44  1  0.83452100  0.60598800  0.28824800  1
  O  O45  1  0.15805200  0.39392900  0.21057000  1
  O  O46  1  0.02679400  0.31556400  0.36814000  1
  O  O47  1  0.05253600  0.13157600  0.23684900  1
  O  O48  1  0.37332800  0.91332900  0.15998500  1
  O  O49  1  0.24524100  0.83624100  0.31342500  1
  O  O50  1  0.27091300  0.65698700  0.18543700  1
  O  O51  1  0.44972500  0.37559100  0.26244600  1
  O  O52  1  0.57807500  0.45195600  0.10872800  1
  O  O53  1  0.47378200  0.18413200  0.13129200  1
  O  O54  1  0.65547700  0.88721400  0.21132000  1
  O  O55  1  0.78917500  0.97417900  0.05247600  1
  O  O56  1  0.68071200  0.70797400  0.08304800  1
  O  O57  1  0.00000000  0.50000000  0.00000000  1
  O  O58  1  0.86021300  0.42684300  0.16014900  1
  O  O59  1  0.89490500  0.23709200  0.02615700  1
  O  O60  1  0.21082500  0.02582100  0.94752400  1
  O  O61  1  0.07855700  0.94758000  0.10546100  1
  O  O62  1  0.10509500  0.76290800  0.97384300  1
  O  O63  1  0.42192500  0.54804400  0.89127200  1
  O  O64  1  0.28854800  0.47383900  0.05276000  1
  O  O65  1  0.31928800  0.29202600  0.91695200  1
  O  O66  1  0.62667200  0.08667100  0.84001500  1
  O  O67  1  0.50000000  0.00000000  0.00000000  1
  O  O68  1  0.52621800  0.81586800  0.86870800  1
  O  O69  1  0.84194800  0.60607100  0.78943000  1
  O  O70  1  0.71145200  0.52616100  0.94724000  1
  O  O71  1  0.72908700  0.34301300  0.81456300  1
  O  O72  1  0.05293300  0.13090600  0.73684700  1
  O  O73  1  0.92144300  0.05242000  0.89453900  1
  O  O74  1  0.94746400  0.86842400  0.76315100  1
  O  O75  1  0.13978700  0.57315700  0.83985100  1
  O  O76  1  0.34452300  0.11278600  0.78868000  1
  O  O77  1  0.55027500  0.62440900  0.73755400  1
