# generated using pymatgen
data_Li10Fe21O32
_symmetry_space_group_name_H-M   'P 1'
_cell_length_a   5.92321536
_cell_length_b   5.92027925
_cell_length_c   23.94944741
_cell_angle_alpha   59.91314573
_cell_angle_beta   59.82572976
_cell_angle_gamma   61.44986789
_symmetry_Int_Tables_number   1
_chemical_formula_structural   Li10Fe21O32
_chemical_formula_sum   'Li10 Fe21 O32'
_cell_volume   598.87217316
_cell_formula_units_Z   1
loop_
 _symmetry_equiv_pos_site_id
 _symmetry_equiv_pos_as_xyz
  1  'x, y, z'
loop_
 _atom_site_type_symbol
 _atom_site_label
 _atom_site_symmetry_multiplicity
 _atom_site_fract_x
 _atom_site_fract_y
 _atom_site_fract_z
 _atom_site_occupancy
  Li  Li0  1  0.99820200  0.42004600  0.00412400  1
  Li  Li1  1  0.99722800  0.49907200  0.25108300  1
  Li  Li2  1  0.49959500  0.49740900  0.50037100  1
  Li  Li3  1  0.99590400  0.99062500  0.12904100  1
  Li  Li4  1  0.99536700  0.99686400  0.25216300  1
  Li  Li5  1  0.99546000  0.00421700  0.37414600  1
  Li  Li6  1  0.00196000  0.00160600  0.62498300  1
  Li  Li7  1  0.99731000  0.99920500  0.50112400  1
  Li  Li8  1  0.49728100  0.50442200  0.87478100  1
  Li  Li9  1  0.01154300  0.01515800  0.84863900  1
  Fe  Fe10  1  0.43158900  0.01379600  0.99752500  1
  Fe  Fe11  1  0.50092300  0.51007500  0.99917300  1
  Fe  Fe12  1  0.49510500  0.49448800  0.12786800  1
  Fe  Fe13  1  0.49907500  0.49506800  0.25235800  1
  Fe  Fe14  1  0.49533300  0.99841200  0.12661100  1
  Fe  Fe15  1  0.50050500  0.49252600  0.37772600  1
  Fe  Fe16  1  0.01011100  0.48415600  0.12772400  1
  Fe  Fe17  1  0.49545200  0.99802800  0.25057100  1
  Fe  Fe18  1  0.49490100  0.98505500  0.37856700  1
  Fe  Fe19  1  0.48702200  0.01323400  0.62537100  1
  Fe  Fe20  1  0.98758600  0.49896200  0.37551300  1
  Fe  Fe21  1  0.50147800  0.99856000  0.49933900  1
  Fe  Fe22  1  0.50458600  0.50528400  0.62018900  1
  Fe  Fe23  1  0.52000600  0.01378800  0.86860900  1
  Fe  Fe24  1  0.99617800  0.50170200  0.50039900  1
  Fe  Fe25  1  0.50054400  0.49953100  0.75097000  1
  Fe  Fe26  1  0.51569700  0.98893000  0.74994900  1
  Fe  Fe27  1  0.01310400  0.48718200  0.62566800  1
  Fe  Fe28  1  0.99087700  0.51469400  0.74935700  1
  Fe  Fe29  1  0.01298500  0.51576200  0.86872300  1
  Fe  Fe30  1  0.92827000  0.92448100  0.97549900  1
  O  O31  1  0.25206400  0.23835100  0.06022200  1
  O  O32  1  0.24157500  0.73353900  0.06754500  1
  O  O33  1  0.24459800  0.24223000  0.19036700  1
  O  O34  1  0.70861200  0.26797400  0.06638200  1
  O  O35  1  0.24933900  0.24212100  0.31493000  1
  O  O36  1  0.27260200  0.73431400  0.18707000  1
  O  O37  1  0.76142000  0.73388500  0.06785300  1
  O  O38  1  0.24772600  0.74174100  0.31433400  1
  O  O39  1  0.74993400  0.24599700  0.18867100  1
  O  O40  1  0.23822700  0.24668300  0.43915900  1
  O  O41  1  0.72078900  0.25143100  0.31643000  1
  O  O42  1  0.74757900  0.74806000  0.18858400  1
  O  O43  1  0.24850500  0.24842200  0.56238700  1
  O  O44  1  0.25239800  0.73984000  0.43752400  1
  O  O45  1  0.74531300  0.75209200  0.31295500  1
  O  O46  1  0.25826200  0.74320400  0.56326500  1
  O  O47  1  0.74295400  0.25138900  0.43707800  1
  O  O48  1  0.25119100  0.25138000  0.68876100  1
  O  O49  1  0.74421800  0.25741300  0.56316300  1
  O  O50  1  0.75086200  0.74687900  0.43830400  1
  O  O51  1  0.24501900  0.24483900  0.81111200  1
  O  O52  1  0.26821600  0.73557500  0.68447500  1
  O  O53  1  0.75674900  0.75733600  0.56178300  1
  O  O54  1  0.73600000  0.26800700  0.68415900  1
  O  O55  1  0.24424900  0.25631100  0.93168200  1
  O  O56  1  0.27245700  0.73804800  0.81118600  1
  O  O57  1  0.73857800  0.27369200  0.81058100  1
  O  O58  1  0.75662100  0.75685500  0.68374600  1
  O  O59  1  0.28804500  0.74790000  0.93662800  1
  O  O60  1  0.75476100  0.74890400  0.81344000  1
  O  O61  1  0.74543000  0.28667000  0.93593200  1
  O  O62  1  0.76952700  0.78157800  0.94087700  1
