# generated using pymatgen
data_HgI3NO
_symmetry_space_group_name_H-M   'P 1'
_cell_length_a   7.60560595
_cell_length_b   7.60560595
_cell_length_c   8.41043632
_cell_angle_alpha   90.45892165
_cell_angle_beta   89.54107835
_cell_angle_gamma   101.21310528
_symmetry_Int_Tables_number   1
_chemical_formula_structural   HgI3NO
_chemical_formula_sum   'Hg2 I6 N2 O2'
_cell_volume   477.19107714
_cell_formula_units_Z   2
loop_
 _symmetry_equiv_pos_site_id
 _symmetry_equiv_pos_as_xyz
  1  'x, y, z'
loop_
 _atom_site_type_symbol
 _atom_site_label
 _atom_site_symmetry_multiplicity
 _atom_site_fract_x
 _atom_site_fract_y
 _atom_site_fract_z
 _atom_site_occupancy
  Hg  Hg0  1  0.34673500  0.51780700  0.62435000  1
  Hg  Hg1  1  0.48219300  0.65326500  0.12435000  1
  I  I2  1  0.57148800  0.42487200  0.87623500  1
  I  I3  1  0.57512800  0.42851200  0.37623500  1
  I  I4  1  0.02257400  0.26472100  0.62806500  1
  I  I5  1  0.73527900  0.97742600  0.12806500  1
  I  I6  1  0.35436600  0.89254200  0.64402300  1
  I  I7  1  0.10745800  0.64563400  0.14402300  1
  N  N8  1  0.00540000  0.89807000  0.65744400  1
  N  N9  1  0.10193000  0.99460000  0.15744400  1
  O  O10  1  0.18420900  0.07929800  0.05946400  1
  O  O11  1  0.92070200  0.81579100  0.55946400  1
