# generated using pymatgen
data_Y2Ti2O7
_symmetry_space_group_name_H-M   'P 1'
_cell_length_a   7.25654149
_cell_length_b   7.25654149
_cell_length_c   24.10128384
_cell_angle_alpha   80.86051483
_cell_angle_beta   80.86051483
_cell_angle_gamma   59.13532486
_symmetry_Int_Tables_number   1
_chemical_formula_structural   Y2Ti2O7
_chemical_formula_sum   'Y16 Ti16 O56'
_cell_volume   1071.06145671
_cell_formula_units_Z   8
loop_
 _symmetry_equiv_pos_site_id
 _symmetry_equiv_pos_as_xyz
  1  'x, y, z'
loop_
 _atom_site_type_symbol
 _atom_site_label
 _atom_site_symmetry_multiplicity
 _atom_site_fract_x
 _atom_site_fract_y
 _atom_site_fract_z
 _atom_site_occupancy
  Y  Y0  1  0.73564600  0.24031400  0.24574900  1
  Y  Y1  1  0.24031400  0.73564600  0.24574900  1
  Y  Y2  1  0.23678000  0.23678000  0.25602600  1
  Y  Y3  1  0.85258900  0.85258900  0.37505100  1
  Y  Y4  1  0.50000000  0.00000000  0.50000000  1
  Y  Y5  1  0.14741100  0.14741100  0.62494900  1
  Y  Y6  1  0.00000000  0.50000000  0.50000000  1
  Y  Y7  1  0.75968600  0.26435400  0.75425100  1
  Y  Y8  1  0.50000000  0.50000000  0.50000000  1
  Y  Y9  1  0.26435400  0.75968600  0.75425100  1
  Y  Y10  1  0.00000000  0.50000000  0.00000000  1
  Y  Y11  1  0.76322000  0.76322000  0.74397400  1
  Y  Y12  1  0.50000000  0.00000000  0.00000000  1
  Y  Y13  1  0.12650800  0.12650800  0.12480800  1
  Y  Y14  1  0.00000000  0.00000000  0.00000000  1
  Y  Y15  1  0.87349200  0.87349200  0.87519200  1
  Ti  Ti16  1  0.36676200  0.36676200  0.37688700  1
  Ti  Ti17  1  0.36984200  0.86524000  0.37401100  1
  Ti  Ti18  1  0.00000000  0.00000000  0.50000000  1
  Ti  Ti19  1  0.86524000  0.36984200  0.37401100  1
  Ti  Ti20  1  0.63323800  0.63323800  0.62311300  1
  Ti  Ti21  1  0.63015800  0.13476000  0.62598900  1
  Ti  Ti22  1  0.37719400  0.37719400  0.87617600  1
  Ti  Ti23  1  0.25403200  0.25403200  0.75293200  1
  Ti  Ti24  1  0.13476000  0.63015800  0.62598900  1
  Ti  Ti25  1  0.87743700  0.37679300  0.87596100  1
  Ti  Ti26  1  0.62280600  0.62280600  0.12382400  1
  Ti  Ti27  1  0.50000000  0.50000000  0.00000000  1
  Ti  Ti28  1  0.37679300  0.87743700  0.87596100  1
  Ti  Ti29  1  0.12256300  0.62320700  0.12403900  1
  Ti  Ti30  1  0.62320700  0.12256300  0.12403900  1
  Ti  Ti31  1  0.74596800  0.74596800  0.24706800  1
  O  O32  1  0.38971800  0.38971800  0.28786000  1
  O  O33  1  0.06781200  0.48140700  0.39238800  1
  O  O34  1  0.88987200  0.88987200  0.28440900  1
  O  O35  1  0.88296000  0.47699700  0.29300300  1
  O  O36  1  0.64394100  0.64394100  0.53702500  1
  O  O37  1  0.48140700  0.06781200  0.39238800  1
  O  O38  1  0.47699700  0.88296000  0.29300300  1
  O  O39  1  0.65927100  0.65927100  0.39511800  1
  O  O40  1  0.12539600  0.12539600  0.34957000  1
  O  O41  1  0.30992300  0.73189200  0.63987000  1
  O  O42  1  0.28442200  0.86312100  0.45590600  1
  O  O43  1  0.13776300  0.13776300  0.53423800  1
  O  O44  1  0.26810800  0.69007700  0.36013000  1
  O  O45  1  0.13687900  0.71557800  0.54409400  1
  O  O46  1  0.90867800  0.90867800  0.78252200  1
  O  O47  1  0.86312100  0.28442200  0.45590600  1
  O  O48  1  0.73189200  0.30992300  0.63987000  1
  O  O49  1  0.71557800  0.13687900  0.54409400  1
  O  O50  1  0.69007700  0.26810800  0.36013000  1
  O  O51  1  0.87460400  0.87460400  0.65043000  1
  O  O52  1  0.86223700  0.86223700  0.46576200  1
  O  O53  1  0.47313500  0.06621200  0.89505100  1
  O  O54  1  0.34072900  0.34072900  0.60488200  1
  O  O55  1  0.52300300  0.11704000  0.70699700  1
  O  O56  1  0.37444800  0.37444800  0.79148000  1
  O  O57  1  0.51859300  0.93218800  0.60761200  1
  O  O58  1  0.37294300  0.96210100  0.79505100  1
  O  O59  1  0.35605900  0.35605900  0.46297500  1
  O  O60  1  0.15569800  0.15569800  0.03112900  1
  O  O61  1  0.11704000  0.52300300  0.70699700  1
  O  O62  1  0.06621200  0.47313500  0.89505100  1
  O  O63  1  0.06405500  0.06405500  0.89599100  1
  O  O64  1  0.96210100  0.37294300  0.79505100  1
  O  O65  1  0.93218800  0.51859300  0.60761200  1
  O  O66  1  0.11012800  0.11012800  0.71559100  1
  O  O67  1  0.72251400  0.31663500  0.14469600  1
  O  O68  1  0.68297600  0.68297600  0.85787500  1
  O  O69  1  0.78680100  0.37904600  0.95811900  1
  O  O70  1  0.62113600  0.62113600  0.04320000  1
  O  O71  1  0.68336500  0.27748600  0.85530400  1
  O  O72  1  0.62095400  0.21319900  0.04188100  1
  O  O73  1  0.61028200  0.61028200  0.71214000  1
  O  O74  1  0.37904600  0.78680100  0.95811900  1
  O  O75  1  0.31663500  0.72251400  0.14469600  1
  O  O76  1  0.21319900  0.62095400  0.04188100  1
  O  O77  1  0.31702400  0.31702400  0.14212500  1
  O  O78  1  0.37886400  0.37886400  0.95680000  1
  O  O79  1  0.27748600  0.68336500  0.85530400  1
  O  O80  1  0.03789900  0.62705700  0.20494900  1
  O  O81  1  0.93594500  0.93594500  0.10400900  1
  O  O82  1  0.84430200  0.84430200  0.96887100  1
  O  O83  1  0.93378800  0.52686500  0.10494900  1
  O  O84  1  0.62705700  0.03789900  0.20494900  1
  O  O85  1  0.52686500  0.93378800  0.10494900  1
  O  O86  1  0.62555200  0.62555200  0.20852000  1
  O  O87  1  0.09132200  0.09132200  0.21747800  1
