# generated using pymatgen
data_Cd4Bi2O7
_symmetry_space_group_name_H-M   'P 1'
_cell_length_a   9.26682400
_cell_length_b   10.42377354
_cell_length_c   10.60707258
_cell_angle_alpha   79.85635230
_cell_angle_beta   65.80277372
_cell_angle_gamma   67.85058843
_symmetry_Int_Tables_number   1
_chemical_formula_structural   Cd4Bi2O7
_chemical_formula_sum   'Cd16 Bi8 O28'
_cell_volume   865.32193170
_cell_formula_units_Z   4
loop_
 _symmetry_equiv_pos_site_id
 _symmetry_equiv_pos_as_xyz
  1  'x, y, z'
loop_
 _atom_site_type_symbol
 _atom_site_label
 _atom_site_symmetry_multiplicity
 _atom_site_fract_x
 _atom_site_fract_y
 _atom_site_fract_z
 _atom_site_occupancy
  Cd  Cd0  1  0.00867500  0.10318800  0.40668400  1
  Cd  Cd1  1  0.04690600  0.46792400  0.21294800  1
  Cd  Cd2  1  0.36414600  0.10164500  0.12879200  1
  Cd  Cd3  1  0.18428500  0.85681200  0.14280200  1
  Cd  Cd4  1  0.21761400  0.63012500  0.34444000  1
  Cd  Cd5  1  0.50542100  0.38048600  0.11055500  1
  Cd  Cd6  1  0.37694000  0.32420900  0.85200600  1
  Cd  Cd7  1  0.32226100  0.60866200  0.63293500  1
  Cd  Cd8  1  0.57748700  0.13458500  0.58900000  1
  Cd  Cd9  1  0.38684300  0.86980100  0.44518400  1
  Cd  Cd10  1  0.59119000  0.41022300  0.37876300  1
  Cd  Cd11  1  0.27692800  0.95056900  0.74554100  1
  Cd  Cd12  1  0.95563700  0.26544500  0.09036200  1
  Cd  Cd13  1  0.48309000  0.61416900  0.88215800  1
  Cd  Cd14  1  0.63341300  0.87760600  0.86412200  1
  Cd  Cd15  1  0.01307400  0.83574600  0.56598400  1
  Bi  Bi16  1  0.22791300  0.26891100  0.47913400  1
  Bi  Bi17  1  0.04620400  0.75317400  0.94354900  1
  Bi  Bi18  1  0.73210700  0.04198700  0.22715500  1
  Bi  Bi19  1  0.62078800  0.68631400  0.16353600  1
  Bi  Bi20  1  0.76123000  0.38806700  0.60866500  1
  Bi  Bi21  1  0.80261400  0.14693100  0.85609400  1
  Bi  Bi22  1  0.73318500  0.73658200  0.52976000  1
  Bi  Bi23  1  0.95190900  0.51303600  0.79047000  1
  O  O24  1  0.96214700  0.05677600  0.23096200  1
  O  O25  1  0.99072800  0.32843700  0.41127500  1
  O  O26  1  0.19143000  0.28471700  0.05827800  1
  O  O27  1  0.26831900  0.42089200  0.28396400  1
  O  O28  1  0.28231800  0.08175200  0.36611800  1
  O  O29  1  0.31476100  0.13905700  0.66786500  1
  O  O30  1  0.48531700  0.60012800  0.10188500  1
  O  O31  1  0.19697700  0.55277000  0.85746000  1
  O  O32  1  0.55480200  0.21466800  0.37636100  1
  O  O33  1  0.75620900  0.22975000  0.05843500  1
  O  O34  1  0.43412400  0.88298900  0.08765100  1
  O  O35  1  0.42966200  0.64844500  0.38950000  1
  O  O36  1  0.49791500  0.38354500  0.61363500  1
  O  O37  1  0.57122500  0.10189500  0.91603800  1
  O  O38  1  0.26409800  0.80632900  0.92446100  1
  O  O39  1  0.47567200  0.75007600  0.62668500  1
  O  O40  1  0.79514900  0.46719200  0.20561600  1
  O  O41  1  0.58725300  0.37677400  0.86710200  1
  O  O42  1  0.65188400  0.86934700  0.37134600  1
  O  O43  1  0.79863300  0.16889500  0.61297900  1
  O  O44  1  0.04030000  0.69028700  0.14982700  1
  O  O45  1  0.72118300  0.90755700  0.62847100  1
  O  O46  1  0.72591200  0.64745000  0.75760900  1
  O  O47  1  0.95853400  0.32880800  0.69629300  1
  O  O48  1  0.90006000  0.96093900  0.99914500  1
  O  O49  1  0.83050700  0.71389500  0.94319100  1
  O  O50  1  0.09464700  0.58993200  0.59649300  1
  O  O51  1  0.10637300  0.84149700  0.72771800  1
