# generated using pymatgen
data_Yb2TiO5
_symmetry_space_group_name_H-M   'P 1'
_cell_length_a   7.37866494
_cell_length_b   7.37866494
_cell_length_c   18.06191939
_cell_angle_alpha   87.15881427
_cell_angle_beta   87.15881427
_cell_angle_gamma   59.34788089
_symmetry_Int_Tables_number   1
_chemical_formula_structural   Yb2TiO5
_chemical_formula_sum   'Yb16 Ti8 O40'
_cell_volume   844.59931206
_cell_formula_units_Z   8
loop_
 _symmetry_equiv_pos_site_id
 _symmetry_equiv_pos_as_xyz
  1  'x, y, z'
loop_
 _atom_site_type_symbol
 _atom_site_label
 _atom_site_symmetry_multiplicity
 _atom_site_fract_x
 _atom_site_fract_y
 _atom_site_fract_z
 _atom_site_occupancy
  Yb  Yb0  1  0.98329600  0.98329600  0.99849400  1
  Yb  Yb1  1  0.16237600  0.16237600  0.16616300  1
  Yb  Yb2  1  0.98572700  0.48584800  0.99567800  1
  Yb  Yb3  1  0.35457200  0.35457200  0.34046500  1
  Yb  Yb4  1  0.67546400  0.15214700  0.16800700  1
  Yb  Yb5  1  0.15214700  0.67546400  0.16800700  1
  Yb  Yb6  1  0.50930700  0.50930700  0.51115400  1
  Yb  Yb7  1  0.32639600  0.86885500  0.33833300  1
  Yb  Yb8  1  0.02234900  0.50165100  0.50585200  1
  Yb  Yb9  1  0.48584800  0.98572700  0.99567800  1
  Yb  Yb10  1  0.50165100  0.02234900  0.50585200  1
  Yb  Yb11  1  0.13934700  0.67680400  0.67253000  1
  Yb  Yb12  1  0.67680300  0.13934700  0.67253000  1
  Yb  Yb13  1  0.31202600  0.83336300  0.83122400  1
  Yb  Yb14  1  0.86885500  0.32639600  0.33833300  1
  Yb  Yb15  1  0.83336300  0.31202600  0.83122400  1
  Ti  Ti16  1  0.46284100  0.46284100  0.96485700  1
  Ti  Ti17  1  0.68956100  0.68956100  0.65431100  1
  Ti  Ti18  1  0.67426000  0.67426000  0.18341500  1
  Ti  Ti19  1  0.85395200  0.85395200  0.82210600  1
  Ti  Ti20  1  0.78891400  0.78891400  0.32860000  1
  Ti  Ti21  1  0.03634200  0.03634200  0.53437600  1
  Ti  Ti22  1  0.18871600  0.18871600  0.67056200  1
  Ti  Ti23  1  0.35399700  0.35399700  0.81343900  1
  O  O24  1  0.31912600  0.31912600  0.22117400  1
  O  O25  1  0.61209700  0.20569300  0.02673800  1
  O  O26  1  0.80275200  0.38043700  0.20232900  1
  O  O27  1  0.20569300  0.61209700  0.02673800  1
  O  O28  1  0.99575500  0.50030800  0.11990900  1
  O  O29  1  0.64240000  0.64240000  0.30657600  1
  O  O30  1  0.97499100  0.54453700  0.37912100  1
  O  O31  1  0.67513500  0.67513500  0.55417600  1
  O  O32  1  0.38043700  0.80275200  0.20232900  1
  O  O33  1  0.67938900  0.67938900  0.07179900  1
  O  O34  1  0.50030800  0.99575500  0.11990900  1
  O  O35  1  0.16339000  0.71069800  0.29859600  1
  O  O36  1  0.13250300  0.73204000  0.54696300  1
  O  O37  1  0.80865400  0.80865400  0.22145300  1
  O  O38  1  0.54453700  0.97499100  0.37912100  1
  O  O39  1  0.97427600  0.97427600  0.87423200  1
  O  O40  1  0.03732900  0.03732900  0.65362500  1
  O  O41  1  0.27250100  0.85836900  0.46284100  1
  O  O42  1  0.46172900  0.66693500  0.70665200  1
  O  O43  1  0.71069800  0.16339000  0.29859600  1
  O  O44  1  0.00888700  0.00888700  0.11682700  1
  O  O45  1  0.73204000  0.13250300  0.54696300  1
  O  O46  1  0.95585900  0.95585900  0.32913300  1
  O  O47  1  0.63290800  0.83711800  0.88321400  1
  O  O48  1  0.47542900  0.99518800  0.64124900  1
  O  O49  1  0.85836900  0.27250100  0.46284100  1
  O  O50  1  0.16891700  0.16891700  0.77574000  1
  O  O51  1  0.17594700  0.17594700  0.55017700  1
  O  O52  1  0.66693500  0.46172900  0.70665200  1
  O  O53  1  0.30228500  0.30228500  0.92142100  1
  O  O54  1  0.64666200  0.14554000  0.79819000  1
  O  O55  1  0.99518800  0.47542900  0.64124900  1
  O  O56  1  0.83711800  0.63290800  0.88321400  1
  O  O57  1  0.36086100  0.36086100  0.45876300  1
  O  O58  1  0.34671600  0.34671600  0.70749800  1
  O  O59  1  0.77897700  0.35135800  0.96414900  1
  O  O60  1  0.14554000  0.64666200  0.79819000  1
  O  O61  1  0.48946600  0.48946600  0.86142300  1
  O  O62  1  0.35135800  0.77897700  0.96414900  1
  O  O63  1  0.80539600  0.80539600  0.72155600  1
