# generated using pymatgen
data_GaO3
_symmetry_space_group_name_H-M   'P 1'
_cell_length_a   6.09224276
_cell_length_b   6.09224276
_cell_length_c   6.09224276
_cell_angle_alpha   109.47122063
_cell_angle_beta   109.47122063
_cell_angle_gamma   109.47122063
_symmetry_Int_Tables_number   1
_chemical_formula_structural   GaO3
_chemical_formula_sum   'Ga4 O12'
_cell_volume   174.06430153
_cell_formula_units_Z   4
loop_
 _symmetry_equiv_pos_site_id
 _symmetry_equiv_pos_as_xyz
  1  'x, y, z'
loop_
 _atom_site_type_symbol
 _atom_site_label
 _atom_site_symmetry_multiplicity
 _atom_site_fract_x
 _atom_site_fract_y
 _atom_site_fract_z
 _atom_site_occupancy
  Ga  Ga0  1  0.50000000  0.00000000  0.00000000  1
  Ga  Ga1  1  0.00000000  0.00000000  0.50000000  1
  Ga  Ga2  1  0.00000000  0.50000000  0.00000000  1
  Ga  Ga3  1  0.50000000  0.50000000  0.50000000  1
  O  O4  1  0.47993500  0.14648000  0.33345500  1
  O  O5  1  0.18697400  0.85352000  0.33345500  1
  O  O6  1  0.81302600  0.14648000  0.66654500  1
  O  O7  1  0.52006500  0.85352000  0.66654500  1
  O  O8  1  0.33345500  0.47993500  0.14648000  1
  O  O9  1  0.33345500  0.18697400  0.85352000  1
  O  O10  1  0.66654500  0.81302600  0.14648000  1
  O  O11  1  0.66654500  0.52006500  0.85352000  1
  O  O12  1  0.14648000  0.33345500  0.47993500  1
  O  O13  1  0.85352000  0.33345500  0.18697400  1
  O  O14  1  0.14648000  0.66654500  0.81302600  1
  O  O15  1  0.85352000  0.66654500  0.52006500  1
