# generated using pymatgen
data_K15Nd7Zr9(PO4)24
_symmetry_space_group_name_H-M   'P 1'
_cell_length_a   10.63052117
_cell_length_b   10.59529626
_cell_length_c   21.19340676
_cell_angle_alpha   89.96372966
_cell_angle_beta   90.07018700
_cell_angle_gamma   89.40242559
_symmetry_Int_Tables_number   1
_chemical_formula_structural   K15Nd7Zr9(PO4)24
_chemical_formula_sum   'K15 Nd7 Zr9 P24 O96'
_cell_volume   2386.95591171
_cell_formula_units_Z   1
loop_
 _symmetry_equiv_pos_site_id
 _symmetry_equiv_pos_as_xyz
  1  'x, y, z'
loop_
 _atom_site_type_symbol
 _atom_site_label
 _atom_site_symmetry_multiplicity
 _atom_site_fract_x
 _atom_site_fract_y
 _atom_site_fract_z
 _atom_site_occupancy
  K  K0  1  0.06919876  0.42777526  0.28560384  1
  K  K1  1  0.06280808  0.43339356  0.78351767  1
  K  K2  1  0.20243075  0.79878902  0.14982889  1
  K  K3  1  0.20148466  0.79895741  0.64886105  1
  K  K4  1  0.29786799  0.20216491  0.89949608  1
  K  K5  1  0.43734386  0.56648230  0.03366795  1
  K  K6  1  0.43334735  0.56821311  0.53410339  1
  K  K7  1  0.57310513  0.06826789  0.21681626  1
  K  K8  1  0.57478523  0.06915710  0.71668154  1
  K  K9  1  0.70184551  0.69998239  0.85174194  1
  K  K10  1  0.70136009  0.70307986  0.35056042  1
  K  K11  1  0.79958064  0.29826718  0.60188130  1
  K  K12  1  0.79810707  0.29792931  0.10097095  1
  K  K13  1  0.92891486  0.93181352  0.46603325  1
  K  K14  1  0.92545680  0.93097861  0.96692207  1
  Nd  Nd15  1  0.58112239  0.91509170  0.54163640  1
  Nd  Nd16  1  0.58003980  0.91724147  0.04268615  1
  Nd  Nd17  1  0.64843556  0.34247445  0.92359217  1
  Nd  Nd18  1  0.85108478  0.65640286  0.67242752  1
  Nd  Nd19  1  0.85103100  0.65520797  0.17513458  1
  Nd  Nd20  1  0.92287127  0.08159070  0.29243018  1
  Nd  Nd21  1  0.92036097  0.08255317  0.79217361  1
  Zr  Zr22  1  0.08788298  0.58007150  0.45888716  1
  Zr  Zr23  1  0.08485091  0.58262339  0.95961198  1
  Zr  Zr24  1  0.15142840  0.14489068  0.07383020  1
  Zr  Zr25  1  0.15045160  0.14783410  0.57003518  1
  Zr  Zr26  1  0.35038029  0.86066581  0.32480758  1
  Zr  Zr27  1  0.34838511  0.85480088  0.82336245  1
  Zr  Zr28  1  0.41440469  0.41606430  0.21021625  1
  Zr  Zr29  1  0.41621889  0.41646548  0.70838167  1
  Zr  Zr30  1  0.63897585  0.35028827  0.42587335  1
  P  P31  1  0.04350591  0.75999359  0.31847974  1
  P  P32  1  0.04032556  0.75990638  0.81793034  1
  P  P33  1  0.13240137  0.46032492  0.11566436  1
  P  P34  1  0.13329355  0.46029695  0.61535532  1
  P  P35  1  0.24231151  0.12876501  0.23020937  1
  P  P36  1  0.24227731  0.12922369  0.72911028  1
  P  P37  1  0.25656652  0.86924028  0.48088125  1
  P  P38  1  0.25759126  0.87066863  0.98061280  1
  P  P39  1  0.36715746  0.53908629  0.86490572  1
  P  P40  1  0.37458248  0.53934468  0.36677112  1
  P  P41  1  0.45927757  0.24004152  0.06846348  1
  P  P42  1  0.46228824  0.24262437  0.56495866  1
  P  P43  1  0.52584442  0.73173141  0.69305186  1
  P  P44  1  0.52524575  0.73185208  0.19380629  1
  P  P45  1  0.62276842  0.03615222  0.38058200  1
  P  P46  1  0.61642512  0.02753935  0.87846875  1
  P  P47  1  0.72543878  0.37466280  0.26922858  1
  P  P48  1  0.72925105  0.37915585  0.76392831  1
  P  P49  1  0.77085666  0.62048289  0.01448577  1
  P  P50  1  0.76873616  0.61300848  0.51207239  1
  P  P51  1  0.88503819  0.97231292  0.62818596  1
  P  P52  1  0.88307172  0.97181703  0.12879433  1
  P  P53  1  0.96157138  0.27209379  0.44111309  1
  P  P54  1  0.97447597  0.26814028  0.94313628  1
  O  O55  1  0.01204885  0.40811613  0.43143571  1
  O  O56  1  0.01523340  0.40738115  0.93249091  1
  O  O57  1  0.03121939  0.53886671  0.14871322  1
  O  O58  1  0.03289936  0.53968757  0.64855225  1
  O  O59  1  0.03615597  0.66952333  0.37633881  1
  O  O60  1  0.03128896  0.67139733  0.87620604  1
  O  O61  1  0.03776074  0.20934781  0.49581416  1
  O  O62  1  0.06752141  0.20754252  0.99151504  1
  O  O63  1  0.09111830  0.31965299  0.11280094  1
  O  O64  1  0.09232262  0.31984460  0.61263236  1
  O  O65  1  0.11198801  0.16607014  0.25402712  1
  O  O66  1  0.11311883  0.16702926  0.75503287  1
  O  O67  1  0.15718488  0.51118118  0.04752760  1
  O  O68  1  0.15724591  0.51108073  0.54728899  1
  O  O69  1  0.18277745  0.77069157  0.29587046  1
  O  O70  1  0.17984606  0.76901949  0.79502649  1
  O  O71  1  0.16656681  0.75507634  0.48795900  1
  O  O72  1  0.16766276  0.75651899  0.98606457  1
  O  O73  1  0.19924516  0.97897274  0.02151366  1
  O  O74  1  0.19771920  0.97994063  0.52038716  1
  O  O75  1  0.23483602  0.08342739  0.15988775  1
  O  O76  1  0.23406384  0.08464152  0.65902162  1
  O  O77  1  0.25516977  0.47159791  0.15525711  1
  O  O78  1  0.25665773  0.47066215  0.65436047  1
  O  O79  1  0.25478455  0.52824725  0.40814055  1
  O  O80  1  0.24404887  0.52857766  0.90409060  1
  O  O81  1  0.26349444  0.90847610  0.41045819  1
  O  O82  1  0.26461528  0.91650846  0.91051637  1
  O  O83  1  0.30090061  0.02112614  0.77056836  1
  O  O84  1  0.30008447  0.01789685  0.26920733  1
  O  O85  1  0.33350842  0.24304129  0.73413211  1
  O  O86  1  0.33247272  0.24264237  0.23457169  1
  O  O87  1  0.31985639  0.23137215  0.04531720  1
  O  O88  1  0.32152035  0.23404080  0.54502355  1
  O  O89  1  0.34966510  0.48707580  0.29936254  1
  O  O90  1  0.34372386  0.48879674  0.79645712  1
  O  O91  1  0.38774831  0.83333497  0.00525931  1
  O  O92  1  0.38671746  0.83322590  0.50641712  1
  O  O93  1  0.40845642  0.68006095  0.86250467  1
  O  O94  1  0.41578698  0.67991103  0.36331131  1
  O  O95  1  0.43504562  0.79292295  0.24333008  1
  O  O96  1  0.43299263  0.79255047  0.74138888  1
  O  O97  1  0.46918290  0.32894771  0.12657130  1
  O  O98  1  0.47568724  0.33404211  0.62201847  1
  O  O99  1  0.46724469  0.45960990  0.89836238  1
  O  O100  1  0.48058409  0.46079495  0.39929187  1
  O  O101  1  0.48399978  0.59263152  0.18314538  1
  O  O102  1  0.48473130  0.59277706  0.68224553  1
  O  O103  1  0.50744129  0.10802410  0.08694430  1
  O  O104  1  0.51318974  0.11172351  0.58293987  1
  O  O105  1  0.50905024  0.95974600  0.35355806  1
  O  O106  1  0.51430650  0.93415375  0.85260086  1
  O  O107  1  0.50829500  0.80576114  0.13186471  1
  O  O108  1  0.51021025  0.80567695  0.63103926  1
  O  O109  1  0.53732497  0.30109928  0.01598246  1
  O  O110  1  0.54114971  0.30231543  0.51049393  1
  O  O111  1  0.58788081  0.17983647  0.38397699  1
  O  O112  1  0.55952975  0.16219975  0.87621848  1
  O  O113  1  0.58745376  0.35641408  0.24542861  1
  O  O114  1  0.58786590  0.35879190  0.74426118  1
  O  O115  1  0.65596004  0.98882154  0.44686103  1
  O  O116  1  0.65216993  0.99097240  0.94633960  1
  O  O117  1  0.66132770  0.73699852  0.71807548  1
  O  O118  1  0.66105430  0.73759430  0.21846836  1
  O  O119  1  0.70170325  0.74829548  0.00928985  1
  O  O120  1  0.69339891  0.73684339  0.50448731  1
  O  O121  1  0.70683987  0.51521750  0.46703230  1
  O  O122  1  0.70840225  0.52903818  0.96831546  1
  O  O123  1  0.71982645  0.41091589  0.34080863  1
  O  O124  1  0.73329628  0.43122859  0.83177531  1
  O  O125  1  0.73269369  0.01376337  0.33525565  1
  O  O126  1  0.73137408  0.01344313  0.83506716  1
  O  O127  1  0.76845985  0.98653969  0.08509991  1
  O  O128  1  0.77001274  0.98496694  0.58434026  1
  O  O129  1  0.76656182  0.56815727  0.08255060  1
  O  O130  1  0.76455158  0.56343857  0.58032279  1
  O  O131  1  0.78935941  0.48053251  0.23258009  1
  O  O132  1  0.79128927  0.47084994  0.71775142  1
  O  O133  1  0.79923534  0.25162824  0.25929502  1
  O  O134  1  0.79824109  0.25131723  0.75869907  1
  O  O135  1  0.81916275  0.27696018  0.45939675  1
  O  O136  1  0.83933133  0.26236335  0.96847200  1
  O  O137  1  0.84722993  0.00993636  0.19635927  1
  O  O138  1  0.84808487  0.00960064  0.69579467  1
  O  O139  1  0.90844271  0.63458766  0.49205454  1
  O  O140  1  0.91223265  0.64053000  0.99497884  1
  O  O141  1  0.94054753  0.83692871  0.62628507  1
  O  O142  1  0.93843953  0.83640530  0.12746619  1
  O  O143  1  0.96517535  0.69913143  0.26617802  1
  O  O144  1  0.96227596  0.69903374  0.76531251  1
  O  O145  1  0.98091808  0.19465391  0.38144961  1
  O  O146  1  0.99035184  0.19445651  0.88114469  1
  O  O147  1  0.98549290  0.06441488  0.10263008  1
  O  O148  1  0.98763784  0.06489555  0.60297966  1
  O  O149  1  0.99212476  0.89031699  0.33767735  1
  O  O150  1  0.99245877  0.89188488  0.83657642  1
