# generated using pymatgen
data_Mg8SiW9O49
_symmetry_space_group_name_H-M   'P 1'
_cell_length_a   13.59929534
_cell_length_b   13.59929467
_cell_length_c   14.38266417
_cell_angle_alpha   90.08513033
_cell_angle_beta   90.08513021
_cell_angle_gamma   119.41234079
_symmetry_Int_Tables_number   1
_chemical_formula_structural   Mg8SiW9O49
_chemical_formula_sum   'Mg16 Si2 W18 O98'
_cell_volume   2317.08665552
_cell_formula_units_Z   2
loop_
 _symmetry_equiv_pos_site_id
 _symmetry_equiv_pos_as_xyz
  1  'x, y, z'
loop_
 _atom_site_type_symbol
 _atom_site_label
 _atom_site_symmetry_multiplicity
 _atom_site_fract_x
 _atom_site_fract_y
 _atom_site_fract_z
 _atom_site_occupancy
  Mg  Mg0  1  0.40770409  0.81515546  0.70374358  1
  Mg  Mg1  1  0.18472337  0.59313144  0.70322673  1
  Mg  Mg2  1  0.40834709  0.58939983  0.70517079  1
  Mg  Mg3  1  0.81515546  0.40770409  0.20374358  1
  Mg  Mg4  1  0.59313144  0.18472337  0.20322673  1
  Mg  Mg5  1  0.58939983  0.40834709  0.20517079  1
  Mg  Mg6  1  0.46416992  0.23099087  0.56027761  1
  Mg  Mg7  1  0.76805456  0.23065377  0.55956356  1
  Mg  Mg8  1  0.76930562  0.53663422  0.56018644  1
  Mg  Mg9  1  0.23099087  0.46416992  0.06027761  1
  Mg  Mg10  1  0.23065377  0.76805456  0.05956356  1
  Mg  Mg11  1  0.53663422  0.76930562  0.06018644  1
  Mg  Mg12  1  0.99610493  0.99809089  0.92958791  1
  Mg  Mg13  1  0.99809089  0.99610493  0.42958791  1
  Mg  Mg14  1  0.66635329  0.33350842  0.41072501  1
  Mg  Mg15  1  0.33350842  0.66635329  0.91072501  1
  Si  Si16  1  0.66586153  0.33302439  0.01127964  1
  Si  Si17  1  0.33302439  0.66586153  0.51127964  1
  W  W18  1  0.32983687  0.92845251  0.50523502  1
  W  W19  1  0.07159356  0.39974274  0.50632842  1
  W  W20  1  0.59867335  0.67110390  0.50741645  1
  W  W21  1  0.92845251  0.32983687  0.00523502  1
  W  W22  1  0.39974274  0.07159356  0.00632842  1
  W  W23  1  0.67110390  0.59867335  0.00741645  1
  W  W24  1  0.07182265  0.67165211  0.50472493  1
  W  W25  1  0.32907215  0.40060970  0.50582268  1
  W  W26  1  0.60105143  0.92631319  0.50790694  1
  W  W27  1  0.67165211  0.07182265  0.00472493  1
  W  W28  1  0.40060970  0.32907215  0.00582268  1
  W  W29  1  0.92631319  0.60105143  0.00790694  1
  W  W30  1  0.76052161  0.24134933  0.81198863  1
  W  W31  1  0.76241194  0.52041996  0.81229159  1
  W  W32  1  0.47788535  0.23604129  0.81210301  1
  W  W33  1  0.24134933  0.76052161  0.31198863  1
  W  W34  1  0.52041996  0.76241194  0.31229159  1
  W  W35  1  0.23604129  0.47788535  0.31210301  1
  O  O36  1  0.29097666  0.92786193  0.01534362  1
  O  O37  1  0.07268771  0.36375463  0.01402228  1
  O  O38  1  0.63562968  0.70875499  0.01438302  1
  O  O39  1  0.92786193  0.29097666  0.51534362  1
  O  O40  1  0.36375463  0.07268771  0.51402228  1
  O  O41  1  0.70875499  0.63562968  0.51438302  1
  O  O42  1  0.92740683  0.63709174  0.51330270  1
  O  O43  1  0.36512411  0.29117628  0.51374175  1
  O  O44  1  0.70898920  0.07048504  0.51671656  1
  O  O45  1  0.63709174  0.92740683  0.01330270  1
  O  O46  1  0.29117628  0.36512411  0.01374175  1
  O  O47  1  0.07048504  0.70898920  0.01671656  1
  O  O48  1  0.15928574  0.84135611  0.51937278  1
  O  O49  1  0.15994626  0.31774961  0.51898757  1
  O  O50  1  0.67893923  0.83620547  0.51911181  1
  O  O51  1  0.84135611  0.15928574  0.01937278  1
  O  O52  1  0.31774961  0.15994626  0.01898757  1
  O  O53  1  0.83620547  0.67893923  0.01911181  1
  O  O54  1  0.04908874  0.52434944  0.47126128  1
  O  O55  1  0.47457759  0.52356074  0.47229544  1
  O  O56  1  0.47570159  0.94966702  0.47244308  1
  O  O57  1  0.52434944  0.04908874  0.97126128  1
  O  O58  1  0.52356074  0.47457759  0.97229544  1
  O  O59  1  0.94966702  0.47570159  0.97244308  1
  O  O60  1  0.90462279  0.29447951  0.86735474  1
  O  O61  1  0.70006589  0.60569957  0.86711911  1
  O  O62  1  0.38759791  0.09382785  0.86774684  1
  O  O63  1  0.29447951  0.90462279  0.36735474  1
  O  O64  1  0.60569957  0.70006589  0.36711911  1
  O  O65  1  0.09382785  0.38759791  0.36774684  1
  O  O66  1  0.10947308  0.65833985  0.62321175  1
  O  O67  1  0.34223036  0.45041486  0.62494925  1
  O  O68  1  0.54848022  0.89150215  0.62607124  1
  O  O69  1  0.65833985  0.10947308  0.12321175  1
  O  O70  1  0.45041486  0.34223036  0.12494925  1
  O  O71  1  0.89150215  0.54848022  0.12607124  1
  O  O72  1  0.94731341  0.83692603  0.91121301  1
  O  O73  1  0.16493722  0.09866903  0.92648188  1
  O  O74  1  0.90872038  0.07857908  0.93495660  1
  O  O75  1  0.83692603  0.94731341  0.41121301  1
  O  O76  1  0.09866903  0.16493722  0.42648188  1
  O  O77  1  0.07857908  0.90872038  0.43495660  1
  O  O78  1  0.34184210  0.89071643  0.62416288  1
  O  O79  1  0.10879045  0.45166486  0.62459462  1
  O  O80  1  0.54694469  0.65284477  0.62619666  1
  O  O81  1  0.89071643  0.34184210  0.12416288  1
  O  O82  1  0.45166486  0.10879045  0.12459462  1
  O  O83  1  0.65284477  0.54694469  0.12619666  1
  O  O84  1  0.71980863  0.44312645  0.30146911  1
  O  O85  1  0.55675177  0.27896831  0.30108533  1
  O  O86  1  0.72204479  0.27901654  0.30126294  1
  O  O87  1  0.44312645  0.71980863  0.80146911  1
  O  O88  1  0.27896831  0.55675177  0.80108533  1
  O  O89  1  0.27901654  0.72204479  0.80126294  1
  O  O90  1  0.60318690  0.20860626  0.80067841  1
  O  O91  1  0.79237184  0.39682365  0.80019551  1
  O  O92  1  0.60313731  0.39458700  0.79874549  1
  O  O93  1  0.20860626  0.60318690  0.30067841  1
  O  O94  1  0.39682365  0.79237184  0.30019551  1
  O  O95  1  0.39458700  0.60313731  0.29874549  1
  O  O96  1  0.78404146  0.21679785  0.69435714  1
  O  O97  1  0.78523346  0.56891287  0.69488901  1
  O  O98  1  0.42950389  0.21269056  0.69452194  1
  O  O99  1  0.21679785  0.78404146  0.19435714  1
  O  O100  1  0.56891287  0.78523346  0.19488901  1
  O  O101  1  0.21269056  0.42950389  0.19452194  1
  O  O102  1  0.70459702  0.09594821  0.86673533  1
  O  O103  1  0.90411888  0.61036924  0.86838054  1
  O  O104  1  0.39129875  0.29680963  0.86666196  1
  O  O105  1  0.09594821  0.70459702  0.36673533  1
  O  O106  1  0.61036924  0.90411888  0.36838054  1
  O  O107  1  0.29680963  0.39129875  0.36666196  1
  O  O108  1  0.61175151  0.38817886  0.52317736  1
  O  O109  1  0.61244895  0.22454520  0.52257053  1
  O  O110  1  0.77549756  0.38775469  0.52294545  1
  O  O111  1  0.38817886  0.61175151  0.02317736  1
  O  O112  1  0.22454520  0.61244895  0.02257053  1
  O  O113  1  0.38775469  0.77549756  0.02294545  1
  O  O114  1  0.48462176  0.97243055  0.77528636  1
  O  O115  1  0.02986640  0.51839684  0.77794686  1
  O  O116  1  0.49314337  0.50332009  0.77647019  1
  O  O117  1  0.97243055  0.48462176  0.27528636  1
  O  O118  1  0.51839684  0.02986640  0.27794686  1
  O  O119  1  0.50332009  0.49314337  0.27647019  1
  O  O120  1  0.04087881  0.93016519  0.03939259  1
  O  O121  1  0.07068896  0.12265707  0.03410610  1
  O  O122  1  0.88706517  0.95736818  0.04482138  1
  O  O123  1  0.93016519  0.04087881  0.53939259  1
  O  O124  1  0.12265707  0.07068896  0.53410610  1
  O  O125  1  0.95736818  0.88706517  0.54482138  1
  O  O126  1  0.73285546  0.26726419  0.97009027  1
  O  O127  1  0.73140267  0.46471078  0.97083832  1
  O  O128  1  0.53361549  0.26658111  0.97065176  1
  O  O129  1  0.26726419  0.73285546  0.47009027  1
  O  O130  1  0.46471078  0.73140267  0.47083832  1
  O  O131  1  0.26658111  0.53361549  0.47065076  1
  O  O132  1  0.66613279  0.33338994  0.12430669  1
  O  O133  1  0.33338994  0.66613279  0.62430669  1
