# generated using pymatgen
data_Rb16Er7Ti9(PO4)24
_symmetry_space_group_name_H-M   'P 1'
_cell_length_a   10.33276084
_cell_length_b   10.32404790
_cell_length_c   20.63945056
_cell_angle_alpha   89.94470155
_cell_angle_beta   90.04218992
_cell_angle_gamma   90.07870054
_symmetry_Int_Tables_number   1
_chemical_formula_structural   Rb16Er7Ti9(PO4)24
_chemical_formula_sum   'Rb16 Er7 Ti9 P24 O96'
_cell_volume   2201.72863443
_cell_formula_units_Z   1
loop_
 _symmetry_equiv_pos_site_id
 _symmetry_equiv_pos_as_xyz
  1  'x, y, z'
loop_
 _atom_site_type_symbol
 _atom_site_label
 _atom_site_symmetry_multiplicity
 _atom_site_fract_x
 _atom_site_fract_y
 _atom_site_fract_z
 _atom_site_occupancy
  Rb  Rb0  1  0.04367914  0.45808364  0.26986682  1
  Rb  Rb1  1  0.04173283  0.45650886  0.77181287  1
  Rb  Rb2  1  0.17932984  0.17981507  0.09035627  1
  Rb  Rb3  1  0.18210172  0.18161039  0.58835175  1
  Rb  Rb4  1  0.32040185  0.82066693  0.34204724  1
  Rb  Rb5  1  0.32147906  0.81900481  0.83974740  1
  Rb  Rb6  1  0.45836394  0.54186337  0.02130489  1
  Rb  Rb7  1  0.46072637  0.54590520  0.52174110  1
  Rb  Rb8  1  0.54236494  0.04326045  0.22815111  1
  Rb  Rb9  1  0.54359703  0.04207886  0.72964489  1
  Rb  Rb10  1  0.67923803  0.32072151  0.91048157  1
  Rb  Rb11  1  0.68093728  0.31916851  0.41035823  1
  Rb  Rb12  1  0.82135940  0.68083898  0.16058507  1
  Rb  Rb13  1  0.81998859  0.67901037  0.65772234  1
  Rb  Rb14  1  0.95778205  0.95425661  0.47806960  1
  Rb  Rb15  1  0.95805868  0.95786103  0.97902236  1
  Er  Er16  1  0.10551353  0.59996972  0.44794893  1
  Er  Er17  1  0.16780535  0.83501883  0.16880751  1
  Er  Er18  1  0.33319949  0.16411926  0.91585283  1
  Er  Er19  1  0.60389429  0.90342128  0.55262307  1
  Er  Er20  1  0.66721577  0.66638765  0.83218852  1
  Er  Er21  1  0.83685363  0.33159969  0.58129636  1
  Er  Er22  1  0.83345533  0.33622691  0.08414987  1
  Ti  Ti23  1  0.10707310  0.60574889  0.94650278  1
  Ti  Ti24  1  0.16808701  0.83603067  0.66674165  1
  Ti  Ti25  1  0.33455065  0.16531958  0.41848219  1
  Ti  Ti26  1  0.39615677  0.39364363  0.19606146  1
  Ti  Ti27  1  0.39172908  0.39381742  0.69847856  1
  Ti  Ti28  1  0.60701310  0.89421302  0.05318796  1
  Ti  Ti29  1  0.66744516  0.66376934  0.33294040  1
  Ti  Ti30  1  0.88924566  0.10505722  0.30132263  1
  Ti  Ti31  1  0.89549081  0.10608696  0.80442014  1
  P  P32  1  0.02048482  0.27948682  0.43123231  1
  P  P33  1  0.01365804  0.29582978  0.93467660  1
  P  P34  1  0.13320066  0.51420510  0.10237922  1
  P  P35  1  0.13462442  0.52195893  0.60971854  1
  P  P36  1  0.20889111  0.13472006  0.26236950  1
  P  P37  1  0.20469384  0.12286244  0.75465894  1
  P  P38  1  0.29517440  0.86760046  0.00758392  1
  P  P39  1  0.28788578  0.87944707  0.50928405  1
  P  P40  1  0.38265109  0.47690078  0.35122109  1
  P  P41  1  0.36891923  0.48564903  0.85370652  1
  P  P42  1  0.49056604  0.70300462  0.18838428  1
  P  P43  1  0.47239349  0.70559558  0.68685278  1
  P  P44  1  0.51358247  0.20413467  0.06563740  1
  P  P45  1  0.50520596  0.21549224  0.56374674  1
  P  P46  1  0.62736030  0.98322772  0.39151004  1
  P  P47  1  0.63293603  0.98653929  0.89798084  1
  P  P48  1  0.70535634  0.37745650  0.24518243  1
  P  P49  1  0.70516852  0.36627113  0.74196952  1
  P  P50  1  0.78566241  0.62790127  0.48801312  1
  P  P51  1  0.79554456  0.63265984  0.99283780  1
  P  P52  1  0.86926135  0.01461028  0.14606682  1
  P  P53  1  0.88497054  0.01369883  0.65117354  1
  P  P54  1  0.97098670  0.79405976  0.31291754  1
  P  P55  1  0.99106228  0.79686199  0.81171613  1
  O  O56  1  0.01758476  0.42510337  0.11625734  1
  O  O57  1  0.00705189  0.44671836  0.61985431  1
  O  O58  1  0.01044950  0.42079464  0.40877774  1
  O  O59  1  0.01534143  0.44397560  0.91747024  1
  O  O60  1  0.03695832  0.72278683  0.36846228  1
  O  O61  1  0.05140182  0.71727780  0.86886835  1
  O  O62  1  0.06142775  0.16682078  0.26106405  1
  O  O63  1  0.05927236  0.16358830  0.75707706  1
  O  O64  1  0.04651518  0.76749778  0.25047139  1
  O  O65  1  0.08110201  0.78008833  0.75151527  1
  O  O66  1  0.10528705  0.65062826  0.12700991  1
  O  O67  1  0.11492019  0.66637247  0.63031139  1
  O  O68  1  0.16554163  0.24063563  0.44089770  1
  O  O69  1  0.14959174  0.24576175  0.94938648  1
  O  O70  1  0.16561004  0.51513078  0.02814921  1
  O  O71  1  0.18171433  0.51203129  0.53914250  1
  O  O72  1  0.19766480  0.78219051  0.47612193  1
  O  O73  1  0.21873557  0.74964910  0.97777607  1
  O  O74  1  0.23650457  0.01096947  0.22368251  1
  O  O75  1  0.22340469  0.00184968  0.71026474  1
  O  O76  1  0.25172386  0.45482055  0.14054904  1
  O  O77  1  0.23760309  0.45716800  0.65487800  1
  O  O78  1  0.24615307  0.89860803  0.07577003  1
  O  O79  1  0.24248111  0.89881108  0.58131104  1
  O  O80  1  0.25951868  0.11500357  0.33301875  1
  O  O81  1  0.25610724  0.09185557  0.82211382  1
  O  O82  1  0.27447965  0.54553032  0.38809529  1
  O  O83  1  0.25062612  0.54430460  0.89180980  1
  O  O84  1  0.27500517  0.01122811  0.47050719  1
  O  O85  1  0.26929842  0.98283086  0.96246966  1
  O  O86  1  0.28427343  0.24737439  0.22907667  1
  O  O87  1  0.28587424  0.23492942  0.72371862  1
  O  O88  1  0.34457529  0.47732118  0.27759748  1
  O  O89  1  0.33261059  0.48151185  0.78000951  1
  O  O90  1  0.35567184  0.75429216  0.20408186  1
  O  O91  1  0.33026967  0.75644321  0.69548670  1
  O  O92  1  0.40232634  0.33691130  0.37768744  1
  O  O93  1  0.39882653  0.34914379  0.87770374  1
  O  O94  1  0.42362758  0.23100738  0.00802495  1
  O  O95  1  0.42243705  0.22992674  0.50000420  1
  O  O96  1  0.44351311  0.83323028  0.00964789  1
  O  O97  1  0.42736282  0.83179250  0.50453722  1
  O  O98  1  0.45580146  0.27990537  0.12545819  1
  O  O99  1  0.44477044  0.30804510  0.61603618  1
  O  O100  1  0.48645678  0.55663144  0.16822805  1
  O  O101  1  0.47389044  0.55634329  0.67176434  1
  O  O102  1  0.48483858  0.57471318  0.86697409  1
  O  O103  1  0.50846871  0.55935595  0.36057649  1
  O  O104  1  0.49893962  0.06189996  0.38485709  1
  O  O105  1  0.51775179  0.07601113  0.88398904  1
  O  O106  1  0.51511230  0.05606874  0.08278831  1
  O  O107  1  0.49698988  0.07611616  0.58966251  1
  O  O108  1  0.55165374  0.78203079  0.13149799  1
  O  O109  1  0.53758041  0.77540924  0.63070868  1
  O  O110  1  0.55999850  0.33610195  0.24348189  1
  O  O111  1  0.55679692  0.33191789  0.74061115  1
  O  O112  1  0.57896672  0.71889997  0.24923348  1
  O  O113  1  0.54775494  0.73337985  0.74937765  1
  O  O114  1  0.60377403  0.85033348  0.87362532  1
  O  O115  1  0.60611070  0.84049170  0.36862552  1
  O  O116  1  0.64922474  0.25440861  0.05107648  1
  O  O117  1  0.64534534  0.25556655  0.54899720  1
  O  O118  1  0.67860435  0.99223846  0.46086397  1
  O  O119  1  0.66546333  0.98551630  0.97227200  1
  O  O120  1  0.71890339  0.75058937  0.02260409  1
  O  O121  1  0.69950292  0.72996829  0.51955298  1
  O  O122  1  0.72497993  0.49888342  0.28937077  1
  O  O123  1  0.73095203  0.48359856  0.78605968  1
  O  O124  1  0.72930192  0.04895292  0.34549964  1
  O  O125  1  0.75216898  0.04484701  0.86019623  1
  O  O126  1  0.74579758  0.60183677  0.92485943  1
  O  O127  1  0.74319776  0.61266069  0.41450042  1
  O  O128  1  0.75599027  0.40837502  0.17766924  1
  O  O129  1  0.75346363  0.39538755  0.67343421  1
  O  O130  1  0.75116926  0.95547858  0.10824242  1
  O  O131  1  0.77336860  0.95025403  0.61343443  1
  O  O132  1  0.76934994  0.51757275  0.03800849  1
  O  O133  1  0.76402881  0.49676005  0.52237487  1
  O  O134  1  0.78714790  0.26574220  0.27576327  1
  O  O135  1  0.78123130  0.24910226  0.77217152  1
  O  O136  1  0.83301141  0.01824365  0.21983265  1
  O  O137  1  0.84519148  0.01621218  0.72455322  1
  O  O138  1  0.82817580  0.74431259  0.30368429  1
  O  O139  1  0.85623492  0.74506954  0.79575413  1
  O  O140  1  0.91430666  0.14938829  0.62509536  1
  O  O141  1  0.89932060  0.15109012  0.12244204  1
  O  O142  1  0.94730302  0.25604986  0.49527165  1
  O  O143  1  0.92374469  0.26908847  0.99228643  1
  O  O144  1  0.92770714  0.67004478  0.49359989  1
  O  O145  1  0.94373227  0.66706840  0.99064631  1
  O  O146  1  0.95411153  0.19069291  0.37917617  1
  O  O147  1  0.95606182  0.21993404  0.87484273  1
  O  O148  1  0.97018589  0.94277579  0.32893476  1
  O  O149  1  0.98704810  0.94283740  0.83244435  1
  O  O150  1  0.98596146  0.92651116  0.13324200  1
  O  O151  1  0.00650084  0.92411173  0.64199933  1
