# generated using pymatgen
data_Sr7LaCu4(BiO3)8
_symmetry_space_group_name_H-M   'P 1'
_cell_length_a   9.45474700
_cell_length_b   10.07027857
_cell_length_c   10.11443307
_cell_angle_alpha   63.11645610
_cell_angle_beta   64.92698729
_cell_angle_gamma   64.39186662
_symmetry_Int_Tables_number   1
_chemical_formula_structural   Sr7LaCu4(BiO3)8
_chemical_formula_sum   'Sr7 La1 Cu4 Bi8 O24'
_cell_volume   742.69909229
_cell_formula_units_Z   1
loop_
 _symmetry_equiv_pos_site_id
 _symmetry_equiv_pos_as_xyz
  1  'x, y, z'
loop_
 _atom_site_type_symbol
 _atom_site_label
 _atom_site_symmetry_multiplicity
 _atom_site_fract_x
 _atom_site_fract_y
 _atom_site_fract_z
 _atom_site_occupancy
  Sr  Sr0  1  0.59586800  0.43526800  0.61312400  1
  Sr  Sr1  1  0.54433600  0.27927300  0.10197200  1
  Sr  Sr2  1  0.12873100  0.94941300  0.11799600  1
  Sr  Sr3  1  0.88117600  0.06412800  0.86268600  1
  Sr  Sr4  1  0.03567200  0.78836000  0.63426400  1
  Sr  Sr5  1  0.36564200  0.77491500  0.75232700  1
  Sr  Sr6  1  0.30957900  0.55334700  0.40121000  1
  La  La7  1  0.00526500  0.22993600  0.39268100  1
  Cu  Cu8  1  0.52956100  0.97559700  0.05677000  1
  Cu  Cu9  1  0.90185400  0.31430200  0.08528900  1
  Cu  Cu10  1  0.96201800  0.51333300  0.46027100  1
  Cu  Cu11  1  0.64134600  0.16375800  0.40341500  1
  Bi  Bi12  1  0.71523900  0.65535500  0.14593600  1
  Bi  Bi13  1  0.56998400  0.05264200  0.72338600  1
  Bi  Bi14  1  0.80102300  0.55527500  0.80110500  1
  Bi  Bi15  1  0.18709800  0.23182900  0.66017700  1
  Bi  Bi16  1  0.77062400  0.85437900  0.36347100  1
  Bi  Bi17  1  0.15625700  0.59085900  0.11098600  1
  Bi  Bi18  1  0.34049900  0.94155400  0.38393000  1
  Bi  Bi19  1  0.28946100  0.30184200  0.93419300  1
  O  O20  1  0.27685200  0.21441200  0.17898000  1
  O  O21  1  0.34774500  0.69396500  0.54315400  1
  O  O22  1  0.14246500  0.00958900  0.59471800  1
  O  O23  1  0.55277500  0.07363300  0.34459300  1
  O  O24  1  0.39412100  0.30474300  0.64091500  1
  O  O25  1  0.71535900  0.77711800  0.62772300  1
  O  O26  1  0.05456200  0.69110400  0.31511400  1
  O  O27  1  0.37560900  0.65015300  0.09858100  1
  O  O28  1  0.36971700  0.03236100  0.96127100  1
  O  O29  1  0.93021600  0.44040500  0.15709000  1
  O  O30  1  0.36245400  0.50167800  0.91071600  1
  O  O31  1  0.88479000  0.18036900  0.02409500  1
  O  O32  1  0.11027200  0.82589700  0.95564500  1
  O  O33  1  0.52153400  0.51877100  0.14654500  1
  O  O34  1  0.72710900  0.88969500  0.10908800  1
  O  O35  1  0.04907800  0.52335600  0.66844100  1
  O  O36  1  0.56929900  0.21107600  0.87144500  1
  O  O37  1  0.88570000  0.33412000  0.61372300  1
  O  O38  1  0.19450500  0.36155800  0.42007400  1
  O  O39  1  0.39534800  0.02007100  0.66888100  1
  O  O40  1  0.74688000  0.63139700  0.40248900  1
  O  O41  1  0.10937700  0.96252800  0.36127200  1
  O  O42  1  0.73863800  0.21556400  0.48951000  1
  O  O43  1  0.81436200  0.71107300  0.89074900  1
