# generated using pymatgen
data_Ca8MgSi4(ClO8)2
_symmetry_space_group_name_H-M   'P 1'
_cell_length_a   10.81299158
_cell_length_b   11.28351578
_cell_length_c   11.20609968
_cell_angle_alpha   58.98237064
_cell_angle_beta   60.22805409
_cell_angle_gamma   61.14419590
_symmetry_Int_Tables_number   1
_chemical_formula_structural   Ca8MgSi4(ClO8)2
_chemical_formula_sum   'Ca16 Mg2 Si8 Cl4 O32'
_cell_volume   968.68306278
_cell_formula_units_Z   2
loop_
 _symmetry_equiv_pos_site_id
 _symmetry_equiv_pos_as_xyz
  1  'x, y, z'
loop_
 _atom_site_type_symbol
 _atom_site_label
 _atom_site_symmetry_multiplicity
 _atom_site_fract_x
 _atom_site_fract_y
 _atom_site_fract_z
 _atom_site_occupancy
  Ca  Ca0  1  0.10977000  0.68413900  0.07358400  1
  Ca  Ca1  1  0.12001800  0.17279000  0.63837100  1
  Ca  Ca2  1  0.89615100  0.52815000  0.52503500  1
  Ca  Ca3  1  0.08670700  0.64998200  0.68789800  1
  Ca  Ca4  1  0.74478900  0.13378800  0.99733100  1
  Ca  Ca5  1  0.50540000  0.50970800  0.96743800  1
  Ca  Ca6  1  0.52398800  0.00861300  0.41296700  1
  Ca  Ca7  1  0.30367600  0.36580200  0.95336100  1
  Ca  Ca8  1  0.32222900  0.90316200  0.35882300  1
  Ca  Ca9  1  0.51296200  0.56982400  0.47470800  1
  Ca  Ca10  1  0.71319000  0.63712600  0.10215200  1
  Ca  Ca11  1  0.69813500  0.06230800  0.62027700  1
  Ca  Ca12  1  0.39601000  0.87740200  0.80759500  1
  Ca  Ca13  1  0.86746900  0.36195700  0.36310800  1
  Ca  Ca14  1  0.95550300  0.32952800  0.90300600  1
  Ca  Ca15  1  0.90439700  0.90381700  0.32780200  1
  Mg  Mg16  1  0.12453500  0.12071700  0.15222700  1
  Mg  Mg17  1  0.85887400  0.89210800  0.85885700  1
  Si  Si18  1  0.23892400  0.28263400  0.27470900  1
  Si  Si19  1  0.30940600  0.26532300  0.76591400  1
  Si  Si20  1  0.31976800  0.77928900  0.17714300  1
  Si  Si21  1  0.73058000  0.27255200  0.21791000  1
  Si  Si22  1  0.24919900  0.78622700  0.71185400  1
  Si  Si23  1  0.62135700  0.25424900  0.75582600  1
  Si  Si24  1  0.74593400  0.78577600  0.25172400  1
  Si  Si25  1  0.78390600  0.69810600  0.75446900  1
  Cl  Cl26  1  0.01749200  0.49317100  0.07027800  1
  Cl  Cl27  1  0.99550700  0.04116400  0.48340500  1
  Cl  Cl28  1  0.05389400  0.99674000  0.95100400  1
  Cl  Cl29  1  0.46662100  0.91410900  0.00454700  1
  O  O30  1  0.24169300  0.17531300  0.21061800  1
  O  O31  1  0.29759700  0.41794900  0.13446600  1
  O  O32  1  0.19900900  0.23016200  0.94183100  1
  O  O33  1  0.17159800  0.90308100  0.23654400  1
  O  O34  1  0.27685800  0.44130200  0.70234600  1
  O  O35  1  0.07148700  0.79595000  0.80200500  1
  O  O36  1  0.69627700  0.40447900  0.26254800  1
  O  O37  1  0.29642200  0.72449500  0.58499600  1
  O  O38  1  0.48654900  0.20296800  0.77203800  1
  O  O39  1  0.41255500  0.68627800  0.29028500  1
  O  O40  1  0.90972400  0.17440500  0.18854600  1
  O  O41  1  0.29074900  0.94005600  0.62595900  1
  O  O42  1  0.32904900  0.67716300  0.84071500  1
  O  O43  1  0.67779100  0.34980800  0.58186700  1
  O  O44  1  0.74738300  0.59938700  0.32039900  1
  O  O45  1  0.55347700  0.32964100  0.87569300  1
  O  O46  1  0.55636000  0.82451200  0.35463900  1
  O  O47  1  0.75007200  0.10026900  0.80127400  1
  O  O48  1  0.78750900  0.81767200  0.07299500  1
  O  O49  1  0.69585700  0.32074700  0.06832300  1
  O  O50  1  0.73206900  0.96792400  0.22180200  1
  O  O51  1  0.08318400  0.33139000  0.40213300  1
  O  O52  1  0.92195400  0.33261600  0.72531200  1
  O  O53  1  0.53667400  0.01859900  0.59936500  1
  O  O54  1  0.30960400  0.70895300  0.09009300  1
  O  O55  1  0.28304100  0.19358300  0.69248200  1
  O  O56  1  0.91212700  0.71864800  0.29000400  1
  O  O57  1  0.68919400  0.92947200  0.52896500  1
  O  O58  1  0.61809900  0.68858400  0.80541500  1
  O  O59  1  0.86769800  0.56189400  0.87658500  1
  O  O60  1  0.91126900  0.68352400  0.59240400  1
  O  O61  1  0.78368300  0.83632100  0.77243000  1
