# generated using pymatgen
data_KUVO6
_symmetry_space_group_name_H-M   'P 1'
_cell_length_a   8.24549600
_cell_length_b   7.15717500
_cell_length_c   10.83928201
_cell_angle_alpha   76.79679924
_cell_angle_beta   90.00000000
_cell_angle_gamma   90.00000000
_symmetry_Int_Tables_number   1
_chemical_formula_structural   KUVO6
_chemical_formula_sum   'K4 U4 V4 O24'
_cell_volume   622.76529202
_cell_formula_units_Z   4
loop_
 _symmetry_equiv_pos_site_id
 _symmetry_equiv_pos_as_xyz
  1  'x, y, z'
loop_
 _atom_site_type_symbol
 _atom_site_label
 _atom_site_symmetry_multiplicity
 _atom_site_fract_x
 _atom_site_fract_y
 _atom_site_fract_z
 _atom_site_occupancy
  K  K0  1  0.68066300  0.46989400  0.82622700  1
  K  K1  1  0.18066300  0.53010600  0.67377300  1
  K  K2  1  0.31933700  0.53010600  0.17377300  1
  K  K3  1  0.81933700  0.46989400  0.32622700  1
  U  U4  1  0.49543300  0.00946100  0.67848700  1
  U  U5  1  0.99543300  0.99053900  0.82151300  1
  U  U6  1  0.50456700  0.99053900  0.32151300  1
  U  U7  1  0.00456700  0.00946100  0.17848700  1
  V  V8  1  0.64249700  0.88105900  0.97437900  1
  V  V9  1  0.14249700  0.11894100  0.52562100  1
  V  V10  1  0.35750300  0.11894100  0.02562100  1
  V  V11  1  0.85750300  0.88105900  0.47437900  1
  O  O12  1  0.56236000  0.26037200  0.64302100  1
  O  O13  1  0.06236000  0.73962800  0.85697900  1
  O  O14  1  0.43764000  0.73962800  0.35697900  1
  O  O15  1  0.93764000  0.26037200  0.14302100  1
  O  O16  1  0.43532300  0.75462800  0.71367100  1
  O  O17  1  0.93532300  0.24537200  0.78632900  1
  O  O18  1  0.56467700  0.24537200  0.28632900  1
  O  O19  1  0.06467700  0.75462800  0.21367100  1
  O  O20  1  0.60881000  0.64890600  0.02398900  1
  O  O21  1  0.10881000  0.35109400  0.47601100  1
  O  O22  1  0.39119000  0.35109400  0.97601100  1
  O  O23  1  0.89119000  0.64890600  0.52398900  1
  O  O24  1  0.71969500  0.90383100  0.80875000  1
  O  O25  1  0.21969500  0.09616900  0.69125000  1
  O  O26  1  0.28030500  0.09616900  0.19125000  1
  O  O27  1  0.78030500  0.90383100  0.30875000  1
  O  O28  1  0.84392200  0.94282900  0.01715100  1
  O  O29  1  0.34392200  0.05717100  0.48284900  1
  O  O30  1  0.15607800  0.05717100  0.98284900  1
  O  O31  1  0.65607800  0.94282900  0.51715100  1
  O  O32  1  0.45908800  0.02106300  0.89078400  1
  O  O33  1  0.95908800  0.97893700  0.60921600  1
  O  O34  1  0.54091200  0.97893700  0.10921600  1
  O  O35  1  0.04091200  0.02106300  0.39078400  1
