# generated using pymatgen
data_K2Al2(SiO4)3
_symmetry_space_group_name_H-M   'P 1'
_cell_length_a   6.75739200
_cell_length_b   10.05939761
_cell_length_c   10.17876549
_cell_angle_alpha   83.57187291
_cell_angle_beta   70.66325381
_cell_angle_gamma   70.46102183
_symmetry_Int_Tables_number   1
_chemical_formula_structural   K2Al2(SiO4)3
_chemical_formula_sum   'K4 Al4 Si6 O24'
_cell_volume   615.27656839
_cell_formula_units_Z   2
loop_
 _symmetry_equiv_pos_site_id
 _symmetry_equiv_pos_as_xyz
  1  'x, y, z'
loop_
 _atom_site_type_symbol
 _atom_site_label
 _atom_site_symmetry_multiplicity
 _atom_site_fract_x
 _atom_site_fract_y
 _atom_site_fract_z
 _atom_site_occupancy
  K  K0  1  0.88809100  0.96832900  0.53604200  1
  K  K1  1  0.39629500  0.03190300  0.46311500  1
  K  K2  1  0.60300900  0.53402300  0.03417000  1
  K  K3  1  0.17173800  0.46776800  0.96572200  1
  Al  Al4  1  0.33526700  0.91519100  0.17848800  1
  Al  Al5  1  0.42770400  0.08624400  0.82313800  1
  Al  Al6  1  0.99986400  0.58650500  0.67902700  1
  Al  Al7  1  0.26186700  0.41555500  0.32330300  1
  Si  Si8  1  0.74108200  0.50052100  0.50110200  1
  Si  Si9  1  0.98983200  0.00207300  0.00166700  1
  Si  Si10  1  0.75698000  0.82119100  0.91062000  1
  Si  Si11  1  0.48760100  0.18136200  0.09094300  1
  Si  Si12  1  0.32721200  0.68073200  0.41072400  1
  Si  Si13  1  0.41737100  0.32054900  0.59104900  1
  O  O14  1  0.79183100  0.55898400  0.62630600  1
  O  O15  1  0.97473200  0.44219900  0.37610700  1
  O  O16  1  0.09970100  0.94253600  0.12661500  1
  O  O17  1  0.16569200  0.06052800  0.87699700  1
  O  O18  1  0.29317500  0.84081900  0.34674800  1
  O  O19  1  0.47749700  0.16053500  0.65478700  1
  O  O20  1  0.88351600  0.66113200  0.84711300  1
  O  O21  1  0.38630700  0.34146600  0.15496300  1
  O  O22  1  0.56800300  0.80759300  0.05617000  1
  O  O23  1  0.43418100  0.19412800  0.94454800  1
  O  O24  1  0.12416600  0.69433300  0.55536400  1
  O  O25  1  0.37590800  0.30732800  0.44452100  1
  O  O26  1  0.37674500  0.07456500  0.20000500  1
  O  O27  1  0.64909700  0.92649900  0.80073200  1
  O  O28  1  0.20002900  0.42674300  0.70003300  1
  O  O29  1  0.32638200  0.57462100  0.30070600  1
  O  O30  1  0.63474500  0.37320100  0.56258700  1
  O  O31  1  0.56720300  0.62777000  0.44072700  1
  O  O32  1  0.75656400  0.12950300  0.06369000  1
  O  O33  1  0.94229200  0.87586900  0.94044100  1
  O  O34  1  0.85478200  0.83957400  0.28891500  1
  O  O35  1  0.98049900  0.16647700  0.71146200  1
  O  O36  1  0.44663200  0.65342800  0.78709500  1
  O  O37  1  0.88908500  0.33274100  0.20786200  1
