# generated using pymatgen
data_Yb9(Fe3S10)2
_symmetry_space_group_name_H-M   'P 1'
_cell_length_a   7.88643600
_cell_length_b   7.89533928
_cell_length_c   32.23226601
_cell_angle_alpha   90.60071144
_cell_angle_beta   95.20465793
_cell_angle_gamma   119.54042108
_symmetry_Int_Tables_number   1
_chemical_formula_structural   Yb9(Fe3S10)2
_chemical_formula_sum   'Yb18 Fe12 S40'
_cell_volume   1735.35337348
_cell_formula_units_Z   2
loop_
 _symmetry_equiv_pos_site_id
 _symmetry_equiv_pos_as_xyz
  1  'x, y, z'
loop_
 _atom_site_type_symbol
 _atom_site_label
 _atom_site_symmetry_multiplicity
 _atom_site_fract_x
 _atom_site_fract_y
 _atom_site_fract_z
 _atom_site_occupancy
  Yb  Yb0  1  0.49478400  0.49729100  0.99770000  1
  Yb  Yb1  1  0.27074600  0.85013500  0.20400800  1
  Yb  Yb2  1  0.41062000  0.69746400  0.09926600  1
  Yb  Yb3  1  0.07400000  0.25616000  0.40479000  1
  Yb  Yb4  1  0.80463800  0.91421400  0.19897100  1
  Yb  Yb5  1  0.19219900  0.09876400  0.29870900  1
  Yb  Yb6  1  0.70144500  0.59579700  0.29909400  1
  Yb  Yb7  1  0.87330800  0.65580700  0.60534700  1
  Yb  Yb8  1  0.60212200  0.30340300  0.40119900  1
  Yb  Yb9  1  0.99246800  0.49836400  0.49930400  1
  Yb  Yb10  1  0.50143700  0.99381000  0.49974600  1
  Yb  Yb11  1  0.67743600  0.05504200  0.80648000  1
  Yb  Yb12  1  0.40255700  0.70288400  0.60180800  1
  Yb  Yb13  1  0.79115000  0.89723300  0.70120100  1
  Yb  Yb14  1  0.29946600  0.39458800  0.70056300  1
  Yb  Yb15  1  0.20506900  0.11519100  0.80469300  1
  Yb  Yb16  1  0.09950200  0.79598100  0.90043800  1
  Yb  Yb17  1  0.98335700  0.47661400  0.00042100  1
  Fe  Fe18  1  0.29941000  0.13783000  0.03345700  1
  Fe  Fe19  1  0.49183900  0.99586000  0.99715300  1
  Fe  Fe20  1  0.27969800  0.41380900  0.20184900  1
  Fe  Fe21  1  0.48366400  0.24740900  0.17017800  1
  Fe  Fe22  1  0.87822700  0.20764300  0.60390800  1
  Fe  Fe23  1  0.07815100  0.80822600  0.40353000  1
  Fe  Fe24  1  0.28426700  0.65155500  0.36834300  1
  Fe  Fe25  1  0.08458700  0.05125500  0.56889500  1
  Fe  Fe26  1  0.61191400  0.32340600  0.89180500  1
  Fe  Fe27  1  0.69201000  0.60001500  0.80559200  1
  Fe  Fe28  1  0.88220300  0.45500400  0.77105600  1
  Fe  Fe29  1  0.69427600  0.86540000  0.96079000  1
  S  S30  1  0.63631500  0.27694900  0.04354000  1
  S  S31  1  0.22837900  0.83615400  0.04288000  1
  S  S32  1  0.12949700  0.50935600  0.15538000  1
  S  S33  1  0.19935000  0.34645400  0.04916400  1
  S  S34  1  0.47517200  0.69470500  0.24323500  1
  S  S35  1  0.57800000  0.04340800  0.15066100  1
  S  S36  1  0.69387600  0.88750800  0.03168600  1
  S  S37  1  0.04878000  0.28256600  0.24175100  1
  S  S38  1  0.92322800  0.91667900  0.35716200  1
  S  S39  1  0.58697500  0.54694700  0.15379500  1
  S  S40  1  0.98353900  0.76906000  0.24982800  1
  S  S41  1  0.16263900  0.11782300  0.15660100  1
  S  S42  1  0.26981600  0.08965100  0.44411000  1
  S  S43  1  0.38961600  0.44405200  0.35138900  1
  S  S44  1  0.47867600  0.26436100  0.24033800  1
  S  S45  1  0.84513000  0.67939500  0.44261700  1
  S  S46  1  0.72313700  0.31616100  0.55763500  1
  S  S47  1  0.37999600  0.94949300  0.35248300  1
  S  S48  1  0.78752700  0.16478500  0.45147800  1
  S  S49  1  0.94691900  0.50466600  0.35673000  1
  S  S50  1  0.18991200  0.84353400  0.55202700  1
  S  S51  1  0.07009500  0.49001100  0.64461200  1
  S  S52  1  0.27362500  0.66707600  0.43949200  1
  S  S53  1  0.64596600  0.07794900  0.64341900  1
  S  S54  1  0.51961500  0.70662400  0.76244000  1
  S  S55  1  0.18070500  0.34961900  0.55293600  1
  S  S56  1  0.58863800  0.56610100  0.65298100  1
  S  S57  1  0.74689200  0.90385300  0.55725900  1
  S  S58  1  0.87221100  0.89135600  0.84617800  1
  S  S59  1  0.98868500  0.24445400  0.75455300  1
  S  S60  1  0.07259500  0.06652600  0.64043600  1
  S  S61  1  0.47132600  0.46508900  0.85301800  1
  S  S62  1  0.98984600  0.75679800  0.75607000  1
  S  S63  1  0.30247900  0.11636100  0.96109900  1
  S  S64  1  0.54541300  0.30308700  0.75984800  1
  S  S65  1  0.42351700  0.02156200  0.86133000  1
  S  S66  1  0.77465700  0.61612600  0.94409900  1
  S  S67  1  0.87231800  0.45767600  0.84533300  1
  S  S68  1  0.72814800  0.15950800  0.94640400  1
  S  S69  1  0.34024000  0.70036600  0.95371100  1
