# generated using pymatgen
data_Al3H36C12N3F4
_symmetry_space_group_name_H-M   'P 1'
_cell_length_a   13.63404745
_cell_length_b   13.63404745
_cell_length_c   6.10159000
_cell_angle_alpha   90.00000000
_cell_angle_beta   90.00000000
_cell_angle_gamma   143.11006494
_symmetry_Int_Tables_number   1
_chemical_formula_structural   Al3H36C12N3F4
_chemical_formula_sum   'Al3 H36 C12 N3 F4'
_cell_volume   680.84195203
_cell_formula_units_Z   1
loop_
 _symmetry_equiv_pos_site_id
 _symmetry_equiv_pos_as_xyz
  1  'x, y, z'
loop_
 _atom_site_type_symbol
 _atom_site_label
 _atom_site_symmetry_multiplicity
 _atom_site_fract_x
 _atom_site_fract_y
 _atom_site_fract_z
 _atom_site_occupancy
  Al  Al0  1  0.33480200  0.66519800  0.00439400  1
  Al  Al1  1  0.66519800  0.33480200  0.00439400  1
  Al  Al2  1  0.00000000  0.00000000  0.98808400  1
  H  H3  1  0.65767400  0.06058000  0.74515500  1
  H  H4  1  0.99055800  0.72681700  0.74522100  1
  H  H5  1  0.06058000  0.65767400  0.74515500  1
  H  H6  1  0.39361700  0.32418900  0.74565800  1
  H  H7  1  0.93942000  0.34232600  0.74515500  1
  H  H8  1  0.32418900  0.39361700  0.74565800  1
  H  H9  1  0.34232600  0.93942000  0.74515500  1
  H  H10  1  0.72681700  0.99055800  0.74522100  1
  H  H11  1  0.27318300  0.00944200  0.74522100  1
  H  H12  1  0.67581100  0.60638300  0.74565800  1
  H  H13  1  0.60638300  0.67581100  0.74565800  1
  H  H14  1  0.00944200  0.27318300  0.74522100  1
  H  H15  1  0.58782500  0.92105000  0.53673600  1
  H  H16  1  0.07895000  0.41217500  0.53673600  1
  H  H17  1  0.92105000  0.58782500  0.53673600  1
  H  H18  1  0.41217500  0.07895000  0.53673600  1
  H  H19  1  0.25468900  0.25468900  0.53665000  1
  H  H20  1  0.74531100  0.74531100  0.53665000  1
  H  H21  1  0.75155500  0.24844500  0.46348100  1
  H  H22  1  0.24844500  0.75155500  0.46348100  1
  H  H23  1  0.08480700  0.91519300  0.46301300  1
  H  H24  1  0.58180000  0.41820000  0.46311100  1
  H  H25  1  0.41820000  0.58180000  0.46311100  1
  H  H26  1  0.91519300  0.08480700  0.46301300  1
  H  H27  1  0.89065600  0.31797800  0.25425900  1
  H  H28  1  0.68202200  0.10934400  0.25425900  1
  H  H29  1  0.10934400  0.68202200  0.25425900  1
  H  H30  1  0.31797800  0.89065600  0.25425900  1
  H  H31  1  0.01515400  0.77590000  0.25458400  1
  H  H32  1  0.22410000  0.98484600  0.25458400  1
  H  H33  1  0.65144800  0.55751100  0.25493100  1
  H  H34  1  0.34855200  0.44248900  0.25493100  1
  H  H35  1  0.55751100  0.65144800  0.25493100  1
  H  H36  1  0.44248900  0.34855200  0.25493100  1
  H  H37  1  0.77590000  0.01515400  0.25458400  1
  H  H38  1  0.98484600  0.22410000  0.25458400  1
  C  C39  1  0.69109200  0.02448700  0.64254200  1
  C  C40  1  0.97551300  0.30890800  0.64254200  1
  C  C41  1  0.02448700  0.69109200  0.64254200  1
  C  C42  1  0.30890800  0.97551300  0.64254200  1
  C  C43  1  0.64243900  0.64243900  0.64182900  1
  C  C44  1  0.35756100  0.35756100  0.64182900  1
  C  C45  1  0.78581000  0.21419000  0.35790100  1
  C  C46  1  0.21419000  0.78581000  0.35790100  1
  C  C47  1  0.11920200  0.88079800  0.35798100  1
  C  C48  1  0.54740200  0.45259800  0.35727800  1
  C  C49  1  0.45259800  0.54740200  0.35727800  1
  C  C50  1  0.88079800  0.11920200  0.35798100  1
  N  N51  1  0.16665700  0.83334300  0.49952100  1
  N  N52  1  0.83334300  0.16665700  0.49952100  1
  N  N53  1  0.50000000  0.50000000  0.49994000  1
  F  F54  1  0.72070000  0.27930000  0.83846300  1
  F  F55  1  0.27930000  0.72070000  0.83846300  1
  F  F56  1  0.83878100  0.83878100  0.16418900  1
  F  F57  1  0.16121900  0.16121900  0.16418900  1
