# generated using pymatgen
data_Li9Nd6Sb3TeO24
_symmetry_space_group_name_H-M   'P 1'
_cell_length_a   11.17254182
_cell_length_b   11.10301110
_cell_length_c   11.10179769
_cell_angle_alpha   109.52975602
_cell_angle_beta   110.04289448
_cell_angle_gamma   108.78263128
_symmetry_Int_Tables_number   1
_chemical_formula_structural   Li9Nd6Sb3TeO24
_chemical_formula_sum   'Li18 Nd12 Sb6 Te2 O48'
_cell_volume   1060.80819954
_cell_formula_units_Z   2
loop_
 _symmetry_equiv_pos_site_id
 _symmetry_equiv_pos_as_xyz
  1  'x, y, z'
loop_
 _atom_site_type_symbol
 _atom_site_label
 _atom_site_symmetry_multiplicity
 _atom_site_fract_x
 _atom_site_fract_y
 _atom_site_fract_z
 _atom_site_occupancy
  Li  Li0  1  0.16032200  0.87111900  0.88197400  1
  Li  Li1  1  0.12925600  0.87083400  0.24832300  1
  Li  Li2  1  0.29312500  0.64332900  0.39308900  1
  Li  Li3  1  0.27480200  0.13627000  0.88030100  1
  Li  Li4  1  0.38077700  0.63220600  0.75781400  1
  Li  Li5  1  0.37438000  0.24957400  0.62603800  1
  Li  Li6  1  0.62204300  0.74912700  0.37198400  1
  Li  Li7  1  0.60505300  0.38821600  0.25568900  1
  Li  Li8  1  0.74639000  0.85163200  0.14727400  1
  Li  Li9  1  0.73619800  0.36886800  0.61132500  1
  Li  Li10  1  0.99043400  0.60567900  0.78733400  1
  Li  Li11  1  0.83596500  0.12939500  0.70264800  1
  Li  Li12  1  0.74190000  0.30912900  0.20856900  1
  Li  Li13  1  0.04137300  0.09287800  0.79729700  1
  Li  Li14  1  0.78860600  0.02965800  0.10520500  1
  Li  Li15  1  0.87896000  0.25149400  0.12766600  1
  Li  Li16  1  0.07558400  0.46094100  0.26110800  1
  Li  Li17  1  0.89204800  0.18259300  0.92947600  1
  Nd  Nd18  1  0.25506000  0.88158600  0.62200500  1
  Nd  Nd19  1  0.13906000  0.37551300  0.75157500  1
  Nd  Nd20  1  0.13337200  0.24253200  0.37711300  1
  Nd  Nd21  1  0.38382700  0.75602300  0.12431800  1
  Nd  Nd22  1  0.26601100  0.37620800  0.12931400  1
  Nd  Nd23  1  0.61431800  0.86277300  0.73549800  1
  Nd  Nd24  1  0.38214200  0.12465900  0.26118700  1
  Nd  Nd25  1  0.60903300  0.24198000  0.86757000  1
  Nd  Nd26  1  0.73528200  0.61888600  0.86767500  1
  Nd  Nd27  1  0.85276500  0.73675300  0.60700300  1
  Nd  Nd28  1  0.87133600  0.63419200  0.24987100  1
  Nd  Nd29  1  0.74600900  0.11676500  0.38456900  1
  Sb  Sb30  1  0.00392600  0.99904800  0.49797100  1
  Sb  Sb31  1  0.99526400  0.99117500  0.99722400  1
  Sb  Sb32  1  0.49231100  0.49462400  0.49961600  1
  Sb  Sb33  1  0.49653100  0.99980300  0.50049800  1
  Sb  Sb34  1  0.50034900  0.49599100  0.00024600  1
  Sb  Sb35  1  0.50209200  0.00225600  0.00417700  1
  Te  Te36  1  0.00629600  0.50381700  0.50543300  1
  Te  Te37  1  0.00182200  0.49711300  0.99772100  1
  O  O38  1  0.09281100  0.97465000  0.67785000  1
  O  O39  1  0.01284300  0.31765700  0.89492300  1
  O  O40  1  0.12621300  0.58868100  0.93239700  1
  O  O41  1  0.06546800  0.68722500  0.67267700  1
  O  O42  1  0.07932600  0.87787600  0.40569000  1
  O  O43  1  0.09901600  0.61602700  0.42723500  1
  O  O44  1  0.17108400  0.47878500  0.59681800  1
  O  O45  1  0.43213900  0.83595600  0.80751100  1
  O  O46  1  0.38515800  0.57972300  0.90859400  1
  O  O47  1  0.29995100  0.32422700  0.91739700  1
  O  O48  1  0.32867300  0.91325600  0.29815600  1
  O  O49  1  0.00774900  0.18722200  0.11305200  1
  O  O50  1  0.17332100  0.19779900  0.57876600  1
  O  O51  1  0.17848900  0.55362300  0.17371000  1
  O  O52  1  0.41271800  0.83269000  0.53309700  1
  O  O53  1  0.33568100  0.91494500  0.03224800  1
  O  O54  1  0.28917900  0.46593600  0.37659300  1
  O  O55  1  0.12495300  0.02514900  0.19410500  1
  O  O56  1  0.52416200  0.61688400  0.69878900  1
  O  O57  1  0.41155800  0.07869800  0.87916500  1
  O  O58  1  0.52889600  0.40437500  0.82838000  1
  O  O59  1  0.37984700  0.29787900  0.47540800  1
  O  O60  1  0.58567200  0.91199100  0.38783100  1
  O  O61  1  0.17629300  0.10909900  0.99647300  1
  O  O62  1  0.80107600  0.87766400  0.97833100  1
  O  O63  1  0.41258900  0.08871400  0.61632500  1
  O  O64  1  0.60748600  0.69158700  0.51900700  1
  O  O65  1  0.47148000  0.58954400  0.17150500  1
  O  O66  1  0.60824500  0.92952900  0.12700500  1
  O  O67  1  0.46002100  0.37288900  0.29830400  1
  O  O68  1  0.87365800  0.98636900  0.80556900  1
  O  O69  1  0.69536200  0.52383500  0.61266000  1
  O  O70  1  0.68796500  0.11250200  0.00473100  1
  O  O71  1  0.59172200  0.17108300  0.47672800  1
  O  O72  1  0.82501500  0.43969300  0.82469500  1
  O  O73  1  0.82803700  0.80144400  0.41762700  1
  O  O74  1  0.96793900  0.79535600  0.86589100  1
  O  O75  1  0.66822000  0.08664500  0.70989200  1
  O  O76  1  0.62116200  0.41470400  0.09807100  1
  O  O77  1  0.70025300  0.66148800  0.07895200  1
  O  O78  1  0.58507100  0.17938500  0.20671000  1
  O  O79  1  0.82958300  0.51277600  0.39403400  1
  O  O80  1  0.90901200  0.38763600  0.57725100  1
  O  O81  1  0.93268000  0.12067300  0.60241500  1
  O  O82  1  0.93148100  0.31955800  0.32399700  1
  O  O83  1  0.88434500  0.38796700  0.06407800  1
  O  O84  1  0.97889200  0.66194200  0.09756200  1
  O  O85  1  0.90637800  0.03042000  0.32580100  1
