# generated using pymatgen
data_Ca5Ho3Ti5Mn3O24
_symmetry_space_group_name_H-M   'P 1'
_cell_length_a   5.37524900
_cell_length_b   5.61694959
_cell_length_c   15.28231429
_cell_angle_alpha   90.12174599
_cell_angle_beta   90.16575791
_cell_angle_gamma   90.50778829
_symmetry_Int_Tables_number   1
_chemical_formula_structural   Ca5Ho3Ti5Mn3O24
_chemical_formula_sum   'Ca5 Ho3 Ti5 Mn3 O24'
_cell_volume   461.39019662
_cell_formula_units_Z   1
loop_
 _symmetry_equiv_pos_site_id
 _symmetry_equiv_pos_as_xyz
  1  'x, y, z'
loop_
 _atom_site_type_symbol
 _atom_site_label
 _atom_site_symmetry_multiplicity
 _atom_site_fract_x
 _atom_site_fract_y
 _atom_site_fract_z
 _atom_site_occupancy
  Ca  Ca0  1  0.01158200  0.05061300  0.62372000  1
  Ca  Ca1  1  0.01301800  0.05806800  0.12806900  1
  Ca  Ca2  1  0.49051400  0.55247700  0.62371300  1
  Ca  Ca3  1  0.50981300  0.45375000  0.87285800  1
  Ca  Ca4  1  0.99176000  0.95412800  0.87217400  1
  Ho  Ho5  1  0.48512700  0.57034800  0.12896500  1
  Ho  Ho6  1  0.51691100  0.42760400  0.37364900  1
  Ho  Ho7  1  0.97848100  0.92694700  0.37469200  1
  Ti  Ti8  1  0.99149800  0.51725300  0.00125300  1
  Ti  Ti9  1  0.00976100  0.50204700  0.74854600  1
  Ti  Ti10  1  0.00739200  0.49548100  0.50001000  1
  Ti  Ti11  1  0.51100700  0.99685600  0.74911100  1
  Ti  Ti12  1  0.50628100  0.02336200  0.00162500  1
  Mn  Mn13  1  0.00263200  0.49565300  0.25005800  1
  Mn  Mn14  1  0.49630500  0.00050400  0.25059800  1
  Mn  Mn15  1  0.49189200  0.99429300  0.49937500  1
  O  O16  1  0.07744300  0.52181600  0.87631300  1
  O  O17  1  0.11215700  0.53381000  0.37436700  1
  O  O18  1  0.18403800  0.80210100  0.51995700  1
  O  O19  1  0.20234300  0.79055700  0.72949200  1
  O  O20  1  0.21268900  0.80671200  0.22443400  1
  O  O21  1  0.21002000  0.78199000  0.02679700  1
  O  O22  1  0.30416700  0.31979600  0.22615600  1
  O  O23  1  0.28673500  0.29409400  0.72965400  1
  O  O24  1  0.29677600  0.31920600  0.51943200  1
  O  O25  1  0.30842000  0.29733000  0.02803600  1
  O  O26  1  0.41836600  0.02261800  0.87688400  1
  O  O27  1  0.38651800  0.03214200  0.37769400  1
  O  O28  1  0.59300000  0.96369300  0.12270300  1
  O  O29  1  0.57886400  0.97385800  0.62444900  1
  O  O30  1  0.70583100  0.69877600  0.98093900  1
  O  O31  1  0.70450400  0.71404000  0.77155300  1
  O  O32  1  0.70816400  0.68307700  0.27647400  1
  O  O33  1  0.71106800  0.68575700  0.46595500  1
  O  O34  1  0.80004500  0.20006200  0.97870700  1
  O  O35  1  0.78562200  0.21047600  0.77137200  1
  O  O36  1  0.80108200  0.19973300  0.46984900  1
  O  O37  1  0.79002700  0.18452100  0.28140500  1
  O  O38  1  0.91435400  0.47424100  0.62472300  1
  O  O39  1  0.89379500  0.47021000  0.12423600  1
