# generated using pymatgen
data_SrLaTiMnO6
_symmetry_space_group_name_H-M   'P 1'
_cell_length_a   11.17962500
_cell_length_b   5.59358100
_cell_length_c   7.89121291
_cell_angle_alpha   89.49220859
_cell_angle_beta   90.00000000
_cell_angle_gamma   90.00000000
_symmetry_Int_Tables_number   1
_chemical_formula_structural   SrLaTiMnO6
_chemical_formula_sum   'Sr4 La4 Ti4 Mn4 O24'
_cell_volume   493.45081705
_cell_formula_units_Z   4
loop_
 _symmetry_equiv_pos_site_id
 _symmetry_equiv_pos_as_xyz
  1  'x, y, z'
loop_
 _atom_site_type_symbol
 _atom_site_label
 _atom_site_symmetry_multiplicity
 _atom_site_fract_x
 _atom_site_fract_y
 _atom_site_fract_z
 _atom_site_occupancy
  Sr  Sr0  1  0.37460200  0.75000000  0.50000000  1
  Sr  Sr1  1  0.62694100  0.25000000  0.00000000  1
  Sr  Sr2  1  0.37305900  0.75000000  0.00000000  1
  Sr  Sr3  1  0.62539800  0.25000000  0.50000000  1
  La  La4  1  0.87444600  0.75000000  0.50000000  1
  La  La5  1  0.12275500  0.25000000  0.00000000  1
  La  La6  1  0.87724500  0.75000000  0.00000000  1
  La  La7  1  0.12555400  0.25000000  0.50000000  1
  Ti  Ti8  1  0.37522800  0.24567500  0.74868200  1
  Ti  Ti9  1  0.62477200  0.75432500  0.25131800  1
  Ti  Ti10  1  0.37522800  0.25432500  0.25131800  1
  Ti  Ti11  1  0.62477200  0.74567500  0.74868200  1
  Mn  Mn12  1  0.87414500  0.25209900  0.75070500  1
  Mn  Mn13  1  0.12585500  0.74790100  0.24929500  1
  Mn  Mn14  1  0.87414500  0.24790100  0.24929500  1
  Mn  Mn15  1  0.12585500  0.75209900  0.75070500  1
  O  O16  1  0.48992500  0.98312800  0.22885200  1
  O  O17  1  0.39464800  0.25000000  0.50000000  1
  O  O18  1  0.73800400  0.48677500  0.72517500  1
  O  O19  1  0.51007500  0.48312800  0.22885200  1
  O  O20  1  0.48992500  0.51687200  0.77114800  1
  O  O21  1  0.60535200  0.75000000  0.50000000  1
  O  O22  1  0.65172200  0.75000000  0.00000000  1
  O  O23  1  0.98646800  0.96938000  0.22367900  1
  O  O24  1  0.76356900  0.96116700  0.72566200  1
  O  O25  1  0.73800400  0.01322500  0.27482500  1
  O  O26  1  0.51007500  0.01687200  0.77114800  1
  O  O27  1  0.85681100  0.25000000  0.00000000  1
  O  O28  1  0.90525000  0.25000000  0.50000000  1
  O  O29  1  0.23643100  0.46116700  0.72566200  1
  O  O30  1  0.01353200  0.46938000  0.22367900  1
  O  O31  1  0.98646800  0.53062000  0.77632100  1
  O  O32  1  0.76356900  0.53883300  0.27433800  1
  O  O33  1  0.09475000  0.75000000  0.50000000  1
  O  O34  1  0.14318900  0.75000000  0.00000000  1
  O  O35  1  0.26199600  0.98677500  0.72517500  1
  O  O36  1  0.23643100  0.03883300  0.27433800  1
  O  O37  1  0.01353200  0.03062000  0.77632100  1
  O  O38  1  0.34827800  0.25000000  0.00000000  1
  O  O39  1  0.26199600  0.51322500  0.27482500  1
