# generated using pymatgen
data_NaLa2Ti2MnO9
_symmetry_space_group_name_H-M   'P 1'
_cell_length_a   5.53945000
_cell_length_b   5.54346873
_cell_length_c   13.57307655
_cell_angle_alpha   89.55801201
_cell_angle_beta   89.58295901
_cell_angle_gamma   60.14824177
_symmetry_Int_Tables_number   1
_chemical_formula_structural   NaLa2Ti2MnO9
_chemical_formula_sum   'Na2 La4 Ti4 Mn2 O18'
_cell_volume   361.48280883
_cell_formula_units_Z   2
loop_
 _symmetry_equiv_pos_site_id
 _symmetry_equiv_pos_as_xyz
  1  'x, y, z'
loop_
 _atom_site_type_symbol
 _atom_site_label
 _atom_site_symmetry_multiplicity
 _atom_site_fract_x
 _atom_site_fract_y
 _atom_site_fract_z
 _atom_site_occupancy
  Na  Na0  1  0.17240700  0.16548700  0.91932800  1
  Na  Na1  1  0.83638600  0.83280200  0.58383000  1
  La  La2  1  0.49852100  0.49449500  0.74729300  1
  La  La3  1  0.16600100  0.16283900  0.41718100  1
  La  La4  1  0.82916800  0.83340600  0.07774700  1
  La  La5  1  0.50233800  0.50497300  0.25068500  1
  Ti  Ti6  1  0.50082400  0.50402600  0.99762400  1
  Ti  Ti7  1  0.50287800  0.50489900  0.50259300  1
  Ti  Ti8  1  0.16857000  0.16587500  0.66794800  1
  Ti  Ti9  1  0.83710500  0.83360200  0.83221700  1
  Mn  Mn10  1  0.83044000  0.83330600  0.33619300  1
  Mn  Mn11  1  0.16294100  0.16682000  0.16479800  1
  O  O12  1  0.63798000  0.64724100  0.89115200  1
  O  O13  1  0.52165500  0.02884900  0.73834800  1
  O  O14  1  0.64900600  0.14062300  0.92873300  1
  O  O15  1  0.30890000  0.31019200  0.56002400  1
  O  O16  1  0.20304100  0.69597600  0.40299000  1
  O  O17  1  0.30546700  0.81232100  0.59677100  1
  O  O18  1  0.02848300  0.52251400  0.73940000  1
  O  O19  1  0.13751300  0.64410500  0.92875200  1
  O  O20  1  0.97188600  0.97636300  0.22603800  1
  O  O21  1  0.02024800  0.02248200  0.77156600  1
  O  O22  1  0.83907100  0.37679300  0.07357300  1
  O  O23  1  0.97708700  0.47310000  0.26485800  1
  O  O24  1  0.68531000  0.20904700  0.40245200  1
  O  O25  1  0.80572200  0.31748100  0.59747100  1
  O  O26  1  0.68278800  0.68952300  0.44142500  1
  O  O27  1  0.36097900  0.84676400  0.07132900  1
  O  O28  1  0.47220500  0.97540900  0.26318300  1
  O  O29  1  0.36258400  0.35964200  0.10635400  1
