# generated using pymatgen
data_Fe3O4
_symmetry_space_group_name_H-M   'P 1'
_cell_length_a   3.05881300
_cell_length_b   5.14269200
_cell_length_c   5.22557297
_cell_angle_alpha   74.87633512
_cell_angle_beta   90.00000000
_cell_angle_gamma   90.00000000
_symmetry_Int_Tables_number   1
_chemical_formula_structural   Fe3O4
_chemical_formula_sum   'Fe3 O4'
_cell_volume   79.35401154
_cell_formula_units_Z   1
loop_
 _symmetry_equiv_pos_site_id
 _symmetry_equiv_pos_as_xyz
  1  'x, y, z'
loop_
 _atom_site_type_symbol
 _atom_site_label
 _atom_site_symmetry_multiplicity
 _atom_site_fract_x
 _atom_site_fract_y
 _atom_site_fract_z
 _atom_site_occupancy
  Fe  Fe0  1  0.00000000  0.00000000  0.00000000  1
  Fe  Fe1  1  0.00000000  0.50000000  0.50000000  1
  Fe  Fe2  1  0.50000000  0.00000000  0.50000000  1
  O  O3  1  0.00000000  0.21254800  0.28152300  1
  O  O4  1  0.50000000  0.73690100  0.27611400  1
  O  O5  1  0.00000000  0.78745200  0.71847700  1
  O  O6  1  0.50000000  0.26309900  0.72388600  1
