# generated using pymatgen
data_NaCa3SmP3O12F
_symmetry_space_group_name_H-M   'P 1'
_cell_length_a   9.46802400
_cell_length_b   9.48285363
_cell_length_c   13.94623741
_cell_angle_alpha   90.01605222
_cell_angle_beta   90.01765761
_cell_angle_gamma   119.93025135
_symmetry_Int_Tables_number   1
_chemical_formula_structural   NaCa3SmP3O12F
_chemical_formula_sum   'Na4 Ca12 Sm4 P12 O48 F4'
_cell_volume   1085.15260107
_cell_formula_units_Z   4
loop_
 _symmetry_equiv_pos_site_id
 _symmetry_equiv_pos_as_xyz
  1  'x, y, z'
loop_
 _atom_site_type_symbol
 _atom_site_label
 _atom_site_symmetry_multiplicity
 _atom_site_fract_x
 _atom_site_fract_y
 _atom_site_fract_z
 _atom_site_occupancy
  Na  Na0  1  0.66451200  0.32705100  0.00080400  1
  Na  Na1  1  0.66557600  0.32902400  0.49505500  1
  Na  Na2  1  0.33264700  0.66362800  0.24879100  1
  Na  Na3  1  0.33033700  0.66485300  0.74668500  1
  Ca  Ca4  1  0.66374400  0.32424000  0.25015800  1
  Ca  Ca5  1  0.25898800  0.01262400  0.37693500  1
  Ca  Ca6  1  0.25660700  0.01092900  0.87507500  1
  Ca  Ca7  1  0.01422000  0.75864700  0.62382000  1
  Ca  Ca8  1  0.99395100  0.24881600  0.37537700  1
  Ca  Ca9  1  0.99581400  0.24867700  0.87643000  1
  Ca  Ca10  1  0.74665000  0.99657900  0.12621200  1
  Ca  Ca11  1  0.75007800  0.99367500  0.62345000  1
  Ca  Ca12  1  0.32943600  0.66374900  0.50052000  1
  Ca  Ca13  1  0.33235300  0.66230100  0.00060300  1
  Ca  Ca14  1  0.24653500  0.25613900  0.12639500  1
  Ca  Ca15  1  0.24160800  0.25183100  0.62350700  1
  Sm  Sm16  1  0.75676800  0.74707000  0.37713600  1
  Sm  Sm17  1  0.75823800  0.74917300  0.87446100  1
  Sm  Sm18  1  0.66521800  0.32666800  0.74598000  1
  Sm  Sm19  1  0.01503900  0.75870900  0.12618400  1
  P  P20  1  0.63376200  0.60816500  0.12422800  1
  P  P21  1  0.63133500  0.60550100  0.62491800  1
  P  P22  1  0.97327200  0.36619400  0.12399800  1
  P  P23  1  0.97083800  0.36677400  0.62495200  1
  P  P24  1  0.39049400  0.02681000  0.12397500  1
  P  P25  1  0.39411300  0.02788000  0.62469600  1
  P  P26  1  0.60737500  0.97125400  0.37452700  1
  P  P27  1  0.60595700  0.97016800  0.87388100  1
  P  P28  1  0.02595300  0.63468200  0.37443500  1
  P  P29  1  0.02676100  0.63434400  0.87373300  1
  P  P30  1  0.36585600  0.39174600  0.37420200  1
  P  P31  1  0.36661900  0.39310300  0.87348600  1
  O  O32  1  0.75565400  0.66925900  0.03699200  1
  O  O33  1  0.75080600  0.66745500  0.53828800  1
  O  O34  1  0.75260400  0.66824800  0.21303600  1
  O  O35  1  0.74271200  0.65362000  0.71676300  1
  O  O36  1  0.53563100  0.42118400  0.12735600  1
  O  O37  1  0.53295300  0.41632200  0.62731900  1
  O  O38  1  0.83695800  0.52800500  0.37126600  1
  O  O39  1  0.83697800  0.52318900  0.87027900  1
  O  O40  1  0.47740500  0.31588000  0.37177200  1
  O  O41  1  0.48217200  0.32041900  0.86957800  1
  O  O42  1  0.88782000  0.47185200  0.12668100  1
  O  O43  1  0.88247000  0.46947100  0.62712800  1
  O  O44  1  0.32864000  0.08171600  0.03645200  1
  O  O45  1  0.33369900  0.08191500  0.21409600  1
  O  O46  1  0.35321900  0.09468900  0.71724300  1
  O  O47  1  0.33314600  0.08537400  0.53868800  1
  O  O48  1  0.57868300  0.11107000  0.12639900  1
  O  O49  1  0.58482800  0.11451700  0.62620700  1
  O  O50  1  0.68640300  0.15772600  0.37180300  1
  O  O51  1  0.68183300  0.15756800  0.86951100  1
  O  O52  1  0.91403800  0.25017800  0.03628300  1
  O  O53  1  0.91338600  0.25478100  0.21414600  1
  O  O54  1  0.91447300  0.24877900  0.53854400  1
  O  O55  1  0.90478100  0.25795600  0.71731000  1
  O  O56  1  0.08047000  0.75062000  0.28552200  1
  O  O57  1  0.08181800  0.75020600  0.46256700  1
  O  O58  1  0.08050300  0.75492600  0.78880100  1
  O  O59  1  0.07609700  0.74391600  0.96550400  1
  O  O60  1  0.30973700  0.83760800  0.12148800  1
  O  O61  1  0.31538800  0.84131900  0.62384100  1
  O  O62  1  0.41932400  0.88532600  0.37744200  1
  O  O63  1  0.41841000  0.88433200  0.87790400  1
  O  O64  1  0.66855700  0.91056500  0.28812400  1
  O  O65  1  0.66442900  0.91102200  0.46370200  1
  O  O66  1  0.66694600  0.91462300  0.96283400  1
  O  O67  1  0.66839600  0.91140500  0.78737200  1
  O  O68  1  0.11185300  0.53335400  0.37655900  1
  O  O69  1  0.11333000  0.53397100  0.87740000  1
  O  O70  1  0.52727300  0.68773600  0.12096600  1
  O  O71  1  0.52370200  0.68356200  0.62331300  1
  O  O72  1  0.16024100  0.47744900  0.12149300  1
  O  O73  1  0.15721200  0.47586600  0.62406300  1
  O  O74  1  0.47180900  0.58238500  0.37661000  1
  O  O75  1  0.47225700  0.58332100  0.87701500  1
  O  O76  1  0.24960900  0.33492200  0.28687800  1
  O  O77  1  0.25005200  0.33441000  0.78659500  1
  O  O78  1  0.25522200  0.34142300  0.46466300  1
  O  O79  1  0.25775100  0.33967600  0.96432100  1
  F  F80  1  0.99875900  0.99753600  0.62824300  1
  F  F81  1  0.99701000  0.99315400  0.12602100  1
  F  F82  1  0.99564400  0.99608400  0.37579300  1
  F  F83  1  0.99625300  0.99710700  0.87721500  1
