# generated using pymatgen
data_Ca6Ti5AlSi6O29F
_symmetry_space_group_name_H-M   'P 1'
_cell_length_a   5.47736600
_cell_length_b   5.47784291
_cell_length_c   39.16856648
_cell_angle_alpha   92.04592349
_cell_angle_beta   92.02653511
_cell_angle_gamma   105.92578166
_symmetry_Int_Tables_number   1
_chemical_formula_structural   Ca6Ti5AlSi6O29F
_chemical_formula_sum   'Ca12 Ti10 Al2 Si12 O58 F2'
_cell_volume   1128.14419687
_cell_formula_units_Z   2
loop_
 _symmetry_equiv_pos_site_id
 _symmetry_equiv_pos_as_xyz
  1  'x, y, z'
loop_
 _atom_site_type_symbol
 _atom_site_label
 _atom_site_symmetry_multiplicity
 _atom_site_fract_x
 _atom_site_fract_y
 _atom_site_fract_z
 _atom_site_occupancy
  Ca  Ca0  1  0.96029400  0.29077600  0.04576100  1
  Ca  Ca1  1  0.46408000  0.79896200  0.20755500  1
  Ca  Ca2  1  0.95426800  0.29172300  0.37410100  1
  Ca  Ca3  1  0.45509400  0.79189900  0.54088000  1
  Ca  Ca4  1  0.54534300  0.21924300  0.12785800  1
  Ca  Ca5  1  0.95534300  0.29184000  0.70758100  1
  Ca  Ca6  1  0.04104200  0.70422800  0.29017600  1
  Ca  Ca7  1  0.45638000  0.79117800  0.87474400  1
  Ca  Ca8  1  0.54182100  0.20491900  0.45751800  1
  Ca  Ca9  1  0.04191700  0.70528800  0.62422900  1
  Ca  Ca10  1  0.54168500  0.20553900  0.79100000  1
  Ca  Ca11  1  0.03766700  0.70630700  0.95894500  1
  Ti  Ti12  1  0.47914300  0.49369700  0.99798300  1
  Ti  Ti13  1  0.25085700  0.24420900  0.24665700  1
  Ti  Ti14  1  0.49035300  0.49857900  0.33095900  1
  Ti  Ti15  1  0.74848700  0.74081800  0.41461500  1
  Ti  Ti16  1  0.99122500  0.99885500  0.49811000  1
  Ti  Ti17  1  0.24903800  0.24156000  0.58150700  1
  Ti  Ti18  1  0.49166100  0.49906200  0.66484900  1
  Ti  Ti19  1  0.74879700  0.74131500  0.74813300  1
  Ti  Ti20  1  0.99045100  0.99806100  0.83139400  1
  Ti  Ti21  1  0.24658800  0.23811100  0.91480000  1
  Al  Al22  1  0.74941500  0.74804700  0.08448200  1
  Al  Al23  1  0.00919500  0.00171900  0.16700200  1
  Si  Si24  1  0.19135800  0.56223600  0.12475000  1
  Si  Si25  1  0.69217500  0.05852600  0.29112500  1
  Si  Si26  1  0.19186400  0.55871400  0.45845900  1
  Si  Si27  1  0.31019400  0.93896100  0.04464600  1
  Si  Si28  1  0.69194700  0.05884800  0.62520300  1
  Si  Si29  1  0.81330000  0.44427900  0.20579600  1
  Si  Si30  1  0.19180100  0.55870600  0.79187100  1
  Si  Si31  1  0.30823700  0.94170700  0.37490500  1
  Si  Si32  1  0.69151800  0.05992200  0.95979400  1
  Si  Si33  1  0.80871600  0.44185800  0.54182600  1
  Si  Si34  1  0.30878000  0.94184100  0.70851900  1
  Si  Si35  1  0.80881400  0.44165800  0.87532100  1
  O  O36  1  0.30842800  0.16943000  0.01788400  1
  O  O37  1  0.91490900  0.50442500  0.10192900  1
  O  O38  1  0.79892300  0.67275700  0.18015100  1
  O  O39  1  0.42598000  0.55539900  0.09898300  1
  O  O40  1  0.24592000  0.83709000  0.14654900  1
  O  O41  1  0.41674400  0.99477600  0.26943200  1
  O  O42  1  0.29555000  0.16376700  0.34825000  1
  O  O43  1  0.19484600  0.05658700  0.20749300  1
  O  O44  1  0.24814200  0.66692200  0.02108800  1
  O  O45  1  0.07368900  0.94570000  0.06885500  1
  O  O46  1  0.91423200  0.04543300  0.26458000  1
  O  O47  1  0.75408400  0.33434100  0.31316600  1
  O  O48  1  0.91618300  0.49472300  0.43691500  1
  O  O49  1  0.58760700  0.99335000  0.06555900  1
  O  O50  1  0.79611800  0.66355900  0.51516600  1
  O  O51  1  0.69738300  0.55597600  0.37529200  1
  O  O52  1  0.75390100  0.16633500  0.18425100  1
  O  O53  1  0.59085600  0.45073100  0.23351500  1
  O  O54  1  0.41362600  0.54595400  0.43177400  1
  O  O55  1  0.25489000  0.83468700  0.48027800  1
  O  O56  1  0.30735000  0.44830400  0.29133100  1
  O  O57  1  0.18980000  0.32507000  0.14962100  1
  O  O58  1  0.41614500  0.99481600  0.60370500  1
  O  O59  1  0.08622300  0.50408400  0.22880000  1
  O  O60  1  0.29615600  0.16359100  0.68183900  1
  O  O61  1  0.19797600  0.05549700  0.54225000  1
  O  O62  1  0.24426900  0.66602300  0.35336800  1
  O  O63  1  0.08881100  0.95664200  0.40223300  1
  O  O64  1  0.91363800  0.04610800  0.59849600  1
  O  O65  1  0.75499900  0.33482300  0.64697300  1
  O  O66  1  0.80559500  0.94787100  0.45885400  1
  O  O67  1  0.70556500  0.83888700  0.31860300  1
  O  O68  1  0.91610400  0.49481200  0.77038600  1
  O  O69  1  0.58427100  0.00465500  0.39680400  1
  O  O70  1  0.79612300  0.66318600  0.84860600  1
  O  O71  1  0.69797300  0.55515800  0.70891100  1
  O  O72  1  0.74478800  0.16627100  0.52036700  1
  O  O73  1  0.58908400  0.45696900  0.56907600  1
  O  O74  1  0.41348200  0.54609000  0.76518800  1
  O  O75  1  0.25460900  0.83478500  0.81363700  1
  O  O76  1  0.30532400  0.44800400  0.62559800  1
  O  O77  1  0.20677600  0.33909300  0.48569500  1
  O  O78  1  0.41600500  0.99725300  0.93779400  1
  O  O79  1  0.08486500  0.50500800  0.56364700  1
  O  O80  1  0.19687300  0.05241300  0.87568500  1
  O  O81  1  0.24483500  0.66622600  0.68705200  1
  O  O82  1  0.08895500  0.95682900  0.73573300  1
  O  O83  1  0.91381300  0.04975400  0.93274100  1
  O  O84  1  0.75257000  0.33551000  0.98159200  1
  O  O85  1  0.80456100  0.94772600  0.79222500  1
  O  O86  1  0.70687800  0.83916600  0.65240400  1
  O  O87  1  0.58490400  0.00489000  0.73031000  1
  O  O88  1  0.74493500  0.16605900  0.85380700  1
  O  O89  1  0.58755800  0.45588000  0.90243500  1
  O  O90  1  0.30072800  0.44734700  0.95921900  1
  O  O91  1  0.20642900  0.33833900  0.81904200  1
  O  O92  1  0.08518100  0.50410800  0.89702300  1
  O  O93  1  0.70436300  0.83387000  0.98600900  1
  F  F94  1  0.70371700  0.56019900  0.04365800  1
  F  F95  1  0.80691000  0.94355200  0.12511900  1
