# generated using pymatgen
data_AsS2N2OF9
_symmetry_space_group_name_H-M   'P 1'
_cell_length_a   7.53973000
_cell_length_b   7.55785557
_cell_length_c   7.79512345
_cell_angle_alpha   91.25103111
_cell_angle_beta   109.63726497
_cell_angle_gamma   89.72575783
_symmetry_Int_Tables_number   1
_chemical_formula_structural   AsS2N2OF9
_chemical_formula_sum   'As2 S4 N4 O2 F18'
_cell_volume   418.26252847
_cell_formula_units_Z   2
loop_
 _symmetry_equiv_pos_site_id
 _symmetry_equiv_pos_as_xyz
  1  'x, y, z'
loop_
 _atom_site_type_symbol
 _atom_site_label
 _atom_site_symmetry_multiplicity
 _atom_site_fract_x
 _atom_site_fract_y
 _atom_site_fract_z
 _atom_site_occupancy
  As  As0  1  0.28501300  0.33362800  0.50412400  1
  As  As1  1  0.62114400  0.73077500  0.51401200  1
  S  S2  1  0.64006900  0.71497600  0.96299900  1
  S  S3  1  0.17627400  0.70912000  0.08587100  1
  S  S4  1  0.74776500  0.26969700  0.82083000  1
  S  S5  1  0.33300400  0.11665700  0.98665100  1
  N  N6  1  0.15523200  0.82673500  0.39017600  1
  N  N7  1  0.84090300  0.71593400  0.05576600  1
  N  N8  1  0.28984200  0.21691100  0.12519800  1
  N  N9  1  0.70107300  0.20919800  0.38986200  1
  O  O10  1  0.67994000  0.33298500  0.30169500  1
  O  O11  1  0.50163200  0.78092100  0.80094600  1
  F  F12  1  0.24628300  0.50994400  0.63695000  1
  F  F13  1  0.24346200  0.16758000  0.64307100  1
  F  F14  1  0.05221400  0.33798200  0.35725000  1
  F  F15  1  0.12141000  0.99086400  0.31109400  1
  F  F16  1  0.74187400  0.47594600  0.69068300  1
  F  F17  1  0.79058000  0.85440700  0.68536900  1
  F  F18  1  0.89472100  0.37528700  0.98465300  1
  F  F19  1  0.76528200  0.10274400  0.96226200  1
  F  F20  1  0.92083700  0.19650800  0.75698200  1
  F  F21  1  0.11526800  0.84445600  0.54402900  1
  F  F22  1  0.50500300  0.92088600  0.38503500  1
  F  F23  1  0.26097500  0.54708900  0.21749700  1
  F  F24  1  0.16644900  0.92789900  0.90632600  1
  F  F25  1  0.14728500  0.59891800  0.90819200  1
  F  F26  1  0.56462000  0.39346800  0.91554300  1
  F  F27  1  0.51278800  0.69877700  0.09439300  1
  F  F28  1  0.78541200  0.05562500  0.30333400  1
  F  F29  1  0.78054800  0.68918200  0.39720600  1
