# generated using pymatgen
data_Na2FeSn(PO4)3
_symmetry_space_group_name_H-M   'P 1'
_cell_length_a   8.98070478
_cell_length_b   8.98644679
_cell_length_c   17.97638901
_cell_angle_alpha   58.92042550
_cell_angle_beta   58.97427786
_cell_angle_gamma   58.98582463
_symmetry_Int_Tables_number   1
_chemical_formula_structural   Na2FeSn(PO4)3
_chemical_formula_sum   'Na8 Fe4 Sn4 P12 O48'
_cell_volume   1001.51624617
_cell_formula_units_Z   4
loop_
 _symmetry_equiv_pos_site_id
 _symmetry_equiv_pos_as_xyz
  1  'x, y, z'
loop_
 _atom_site_type_symbol
 _atom_site_label
 _atom_site_symmetry_multiplicity
 _atom_site_fract_x
 _atom_site_fract_y
 _atom_site_fract_z
 _atom_site_occupancy
  Na  Na0  1  0.49240300  0.51070000  0.25030700  1
  Na  Na1  1  0.62282800  0.25033100  0.43826200  1
  Na  Na2  1  0.88335400  0.62990700  0.12449000  1
  Na  Na3  1  0.00962300  0.99837300  0.49372300  1
  Na  Na4  1  0.49937600  0.49899700  0.75085400  1
  Na  Na5  1  0.24570000  0.88243400  0.81660100  1
  Na  Na6  1  0.62924600  0.24511100  0.94343100  1
  Na  Na7  1  0.87900600  0.62081600  0.62457700  1
  Fe  Fe8  1  0.64380400  0.65708800  0.32376600  1
  Fe  Fe9  1  0.86012500  0.84993700  0.41989600  1
  Fe  Fe10  1  0.65082600  0.65139300  0.82749200  1
  Fe  Fe11  1  0.84783700  0.85099600  0.92789600  1
  Sn  Sn12  1  0.14082700  0.13769400  0.07186700  1
  Sn  Sn13  1  0.35591200  0.35294800  0.17888300  1
  Sn  Sn14  1  0.14306100  0.14509400  0.57076500  1
  Sn  Sn15  1  0.35609600  0.35748900  0.67792400  1
  P  P16  1  0.03924200  0.74713800  0.22968400  1
  P  P17  1  0.46290200  0.04051300  0.37536100  1
  P  P18  1  0.74997600  0.45976100  0.02114300  1
  P  P19  1  0.25034200  0.54519000  0.47730900  1
  P  P20  1  0.53819900  0.95555400  0.12627100  1
  P  P21  1  0.03971900  0.75105000  0.73043700  1
  P  P22  1  0.95855800  0.24758200  0.27116000  1
  P  P23  1  0.46038200  0.04109900  0.87523100  1
  P  P24  1  0.74978200  0.46216500  0.51898400  1
  P  P25  1  0.24975600  0.53898400  0.97886500  1
  P  P26  1  0.54275800  0.95688200  0.62512100  1
  P  P27  1  0.95635400  0.24982100  0.77090900  1
  O  O28  1  0.12342900  0.28300000  0.25758300  1
  O  O29  1  0.27852400  0.51249800  0.06324900  1
  O  O30  1  0.05932200  0.91502500  0.14086400  1
  O  O31  1  0.51412000  0.12690700  0.13803100  1
  O  O32  1  0.00658800  0.78365900  0.31268200  1
  O  O33  1  0.22341700  0.57962300  0.22030100  1
  O  O34  1  0.27716800  0.06002900  0.45883900  1
  O  O35  1  0.44077200  0.22328200  0.29162000  1
  O  O36  1  0.58049900  0.44039800  0.11195700  1
  O  O37  1  0.22291200  0.37298300  0.49248400  1
  O  O38  1  0.07712000  0.71947800  0.47048800  1
  O  O39  1  0.37075300  0.98615400  0.11018700  1
  O  O40  1  0.62061200  0.01496000  0.39725000  1
  O  O41  1  0.12731800  0.27799700  0.75606700  1
  O  O42  1  0.91698700  0.28141800  0.03040800  1
  O  O43  1  0.78714900  0.62436900  0.00589300  1
  O  O44  1  0.42288800  0.55996600  0.39023800  1
  O  O45  1  0.27728400  0.51484700  0.56369900  1
  O  O46  1  0.56856300  0.77540600  0.20907100  1
  O  O47  1  0.06016200  0.91775400  0.63799500  1
  O  O48  1  0.51241600  0.12747300  0.63971100  1
  O  O49  1  0.71521500  0.93348400  0.04026600  1
  O  O50  1  0.01127700  0.79184700  0.81056000  1
  O  O51  1  0.77829300  0.41787700  0.28171600  1
  O  O52  1  0.22369400  0.58319900  0.71982100  1
  O  O53  1  0.98793600  0.22152400  0.18552800  1
  O  O54  1  0.28126600  0.06062000  0.95795900  1
  O  O55  1  0.49491800  0.87723300  0.35584300  1
  O  O56  1  0.93074500  0.08196100  0.36204200  1
  O  O57  1  0.44079200  0.22435800  0.79020500  1
  O  O58  1  0.70727200  0.48892300  0.43953200  1
  O  O59  1  0.58271900  0.44022100  0.61183900  1
  O  O60  1  0.22599800  0.36652600  0.99347200  1
  O  O61  1  0.08052200  0.71517500  0.96652100  1
  O  O62  1  0.87902800  0.70448600  0.24398000  1
  O  O63  1  0.37150900  0.98666100  0.61121100  1
  O  O64  1  0.62498600  0.01273200  0.89293400  1
  O  O65  1  0.91655500  0.27669000  0.52975000  1
  O  O66  1  0.79124200  0.62147200  0.50625500  1
  O  O67  1  0.42083800  0.56269700  0.88904700  1
  O  O68  1  0.56270300  0.77792800  0.71037800  1
  O  O69  1  0.72155600  0.93575500  0.54126900  1
  O  O70  1  0.77798600  0.42060200  0.78168800  1
  O  O71  1  0.98526900  0.22715800  0.68394100  1
  O  O72  1  0.49006800  0.88063800  0.85294800  1
  O  O73  1  0.93376900  0.08019500  0.85808800  1
  O  O74  1  0.70776800  0.48914700  0.94003700  1
  O  O75  1  0.88007900  0.70821600  0.74354600  1
