# generated using pymatgen
data_Na3Ca7Ta3Ti7O30
_symmetry_space_group_name_H-M   'P 1'
_cell_length_a   5.45653800
_cell_length_b   5.54607348
_cell_length_c   38.66733393
_cell_angle_alpha   90.05648916
_cell_angle_beta   90.01897396
_cell_angle_gamma   90.08054984
_symmetry_Int_Tables_number   1
_chemical_formula_structural   Na3Ca7Ta3Ti7O30
_chemical_formula_sum   'Na6 Ca14 Ta6 Ti14 O60'
_cell_volume   1170.16301687
_cell_formula_units_Z   2
loop_
 _symmetry_equiv_pos_site_id
 _symmetry_equiv_pos_as_xyz
  1  'x, y, z'
loop_
 _atom_site_type_symbol
 _atom_site_label
 _atom_site_symmetry_multiplicity
 _atom_site_fract_x
 _atom_site_fract_y
 _atom_site_fract_z
 _atom_site_occupancy
  Na  Na0  1  0.00888700  0.96286300  0.34861100  1
  Na  Na1  1  0.01722400  0.96629500  0.74757000  1
  Na  Na2  1  0.00760000  0.97964100  0.95070200  1
  Na  Na3  1  0.48428800  0.46505500  0.14822000  1
  Na  Na4  1  0.49054500  0.47087100  0.54717500  1
  Na  Na5  1  0.49046200  0.48609100  0.95133100  1
  Ca  Ca6  1  0.00616700  0.95114600  0.14832300  1
  Ca  Ca7  1  0.00799200  0.95415500  0.54749400  1
  Ca  Ca8  1  0.48498200  0.45930100  0.34766600  1
  Ca  Ca9  1  0.50188900  0.46421400  0.74675900  1
  Ca  Ca10  1  0.50443000  0.54135700  0.05223200  1
  Ca  Ca11  1  0.50375300  0.53789000  0.25228000  1
  Ca  Ca12  1  0.51691000  0.54206300  0.65139400  1
  Ca  Ca13  1  0.50516700  0.53143400  0.45186600  1
  Ca  Ca14  1  0.51209400  0.53741500  0.85030100  1
  Ca  Ca15  1  0.98359400  0.04705200  0.05161300  1
  Ca  Ca16  1  0.98602800  0.04929700  0.25214600  1
  Ca  Ca17  1  0.98746400  0.03835200  0.45198200  1
  Ca  Ca18  1  0.99565300  0.04754300  0.65150300  1
  Ca  Ca19  1  0.99172300  0.05203900  0.85042900  1
  Ta  Ta20  1  0.49245300  0.01039200  0.00073700  1
  Ta  Ta21  1  0.49754700  0.00034300  0.19975900  1
  Ta  Ta22  1  0.49917700  0.99494900  0.39925100  1
  Ta  Ta23  1  0.50278400  0.00710500  0.59918700  1
  Ta  Ta24  1  0.49608000  0.00633100  0.90107100  1
  Ta  Ta25  1  0.50151800  0.00146300  0.79811400  1
  Ti  Ti26  1  0.00283000  0.51316800  0.00012500  1
  Ti  Ti27  1  0.98351200  0.49988000  0.09991200  1
  Ti  Ti28  1  0.99748700  0.49783700  0.19905800  1
  Ti  Ti29  1  0.98709300  0.51134800  0.29947200  1
  Ti  Ti30  1  0.99685300  0.49914100  0.39906600  1
  Ti  Ti31  1  0.98736900  0.49703800  0.49958000  1
  Ti  Ti32  1  0.00944900  0.50312100  0.59891300  1
  Ti  Ti33  1  0.01887000  0.50108900  0.70094500  1
  Ti  Ti34  1  0.00671900  0.50816700  0.80010800  1
  Ti  Ti35  1  0.99996300  0.51082000  0.90293100  1
  Ti  Ti36  1  0.48050100  0.99832600  0.10159000  1
  Ti  Ti37  1  0.48306600  0.00103400  0.30096900  1
  Ti  Ti38  1  0.48423700  0.99655300  0.50047100  1
  Ti  Ti39  1  0.51435500  0.00233600  0.69888800  1
  O  O40  1  0.07861000  0.48259300  0.05035500  1
  O  O41  1  0.08012900  0.48160900  0.24989800  1
  O  O42  1  0.08146500  0.48108800  0.44980400  1
  O  O43  1  0.08161300  0.48136600  0.64920800  1
  O  O44  1  0.08255600  0.48180900  0.84866900  1
  O  O45  1  0.20289300  0.20474600  0.19264000  1
  O  O46  1  0.20980800  0.20692500  0.10738800  1
  O  O47  1  0.22602600  0.21865200  0.30702100  1
  O  O48  1  0.22268200  0.21728500  0.39237900  1
  O  O49  1  0.21411700  0.20970900  0.50673000  1
  O  O50  1  0.19929000  0.20033600  0.59232500  1
  O  O51  1  0.21971500  0.21951800  0.70667700  1
  O  O52  1  0.21537200  0.20832800  0.79260300  1
  O  O53  1  0.20961500  0.21213300  0.90575800  1
  O  O54  1  0.20829200  0.21424000  0.99398600  1
  O  O55  1  0.28664100  0.71207200  0.19242400  1
  O  O56  1  0.29463500  0.71209300  0.30714600  1
  O  O57  1  0.28741300  0.71914900  0.10774400  1
  O  O58  1  0.29644700  0.70404800  0.39180300  1
  O  O59  1  0.28479300  0.71272000  0.59182900  1
  O  O60  1  0.28151000  0.72294900  0.50702800  1
  O  O61  1  0.29020200  0.71184600  0.70706100  1
  O  O62  1  0.28497100  0.71163800  0.90656500  1
  O  O63  1  0.30270000  0.69969500  0.79177900  1
  O  O64  1  0.28140000  0.71374200  0.99390200  1
  O  O65  1  0.41662600  0.98050200  0.05084700  1
  O  O66  1  0.41956100  0.98050000  0.25024500  1
  O  O67  1  0.41798300  0.97858500  0.64987300  1
  O  O68  1  0.41932700  0.97806300  0.44976900  1
  O  O69  1  0.41716800  0.97679000  0.84954000  1
  O  O70  1  0.58089700  0.01976000  0.34972900  1
  O  O71  1  0.58260400  0.02129100  0.15014600  1
  O  O72  1  0.58164200  0.01958400  0.54963500  1
  O  O73  1  0.58014400  0.01821800  0.74921200  1
  O  O74  1  0.57529200  0.01321900  0.95047300  1
  O  O75  1  0.71437000  0.28048000  0.01008800  1
  O  O76  1  0.71813600  0.28455600  0.09103300  1
  O  O77  1  0.71894500  0.28628600  0.29212200  1
  O  O78  1  0.71180300  0.28677300  0.21036800  1
  O  O79  1  0.71095100  0.28521600  0.60997300  1
  O  O80  1  0.71991000  0.28169600  0.40922600  1
  O  O81  1  0.72178100  0.27707900  0.49058300  1
  O  O82  1  0.71819100  0.27708600  0.89024800  1
  O  O83  1  0.71242400  0.28299800  0.69175900  1
  O  O84  1  0.71531900  0.28468800  0.80871300  1
  O  O85  1  0.77686100  0.77766100  0.00996200  1
  O  O86  1  0.78984200  0.78573500  0.09249300  1
  O  O87  1  0.79257900  0.79067600  0.20837900  1
  O  O88  1  0.79038700  0.78120200  0.40961900  1
  O  O89  1  0.78820900  0.78721100  0.60808100  1
  O  O90  1  0.78721400  0.78121500  0.29088600  1
  O  O91  1  0.78338000  0.77943100  0.49208300  1
  O  O92  1  0.77967100  0.78239200  0.69059700  1
  O  O93  1  0.79117900  0.78376100  0.80944800  1
  O  O94  1  0.77933800  0.77744300  0.89046200  1
  O  O95  1  0.92866600  0.51613800  0.15084100  1
  O  O96  1  0.92332700  0.51398800  0.35067700  1
  O  O97  1  0.93068600  0.51483300  0.55022100  1
  O  O98  1  0.92701500  0.51454800  0.75014400  1
  O  O99  1  0.92696500  0.51559500  0.95005300  1
