# generated using pymatgen
data_La5Ti6S3(ClO5)3
_symmetry_space_group_name_H-M   'P 1'
_cell_length_a   10.83126750
_cell_length_b   10.83126750
_cell_length_c   12.47372522
_cell_angle_alpha   54.91839360
_cell_angle_beta   54.91839360
_cell_angle_gamma   70.42618625
_symmetry_Int_Tables_number   1
_chemical_formula_structural   La5Ti6S3(ClO5)3
_chemical_formula_sum   'La10 Ti12 S6 Cl6 O30'
_cell_volume   979.95369119
_cell_formula_units_Z   2
loop_
 _symmetry_equiv_pos_site_id
 _symmetry_equiv_pos_as_xyz
  1  'x, y, z'
loop_
 _atom_site_type_symbol
 _atom_site_label
 _atom_site_symmetry_multiplicity
 _atom_site_fract_x
 _atom_site_fract_y
 _atom_site_fract_z
 _atom_site_occupancy
  La  La0  1  0.65890300  0.34109700  0.00000000  1
  La  La1  1  0.50000000  0.00000000  0.50000000  1
  La  La2  1  0.00000000  0.50000000  0.50000000  1
  La  La3  1  0.50000000  0.00000000  0.00000000  1
  La  La4  1  0.00591200  0.00591200  0.32550500  1
  La  La5  1  0.34821500  0.34821500  0.65679500  1
  La  La6  1  0.65178500  0.65178500  0.34320500  1
  La  La7  1  0.99408800  0.99408800  0.67449500  1
  La  La8  1  0.00000000  0.50000000  0.00000000  1
  La  La9  1  0.34109700  0.65890300  0.00000000  1
  Ti  Ti10  1  0.69554900  0.69554900  0.67292500  1
  Ti  Ti11  1  0.64526700  0.35394400  0.30019500  1
  Ti  Ti12  1  0.70085700  0.70085700  0.95109200  1
  Ti  Ti13  1  0.35394400  0.64526700  0.30019500  1
  Ti  Ti14  1  0.66793500  0.06155200  0.63363100  1
  Ti  Ti15  1  0.06155200  0.66793500  0.63363100  1
  Ti  Ti16  1  0.93844800  0.33206500  0.36636900  1
  Ti  Ti17  1  0.33206500  0.93844800  0.36636900  1
  Ti  Ti18  1  0.64605600  0.35473300  0.69980500  1
  Ti  Ti19  1  0.29914300  0.29914300  0.04890800  1
  Ti  Ti20  1  0.35473300  0.64605600  0.69980500  1
  Ti  Ti21  1  0.30445100  0.30445100  0.32707500  1
  S  S22  1  0.81372100  0.18384200  0.20600800  1
  S  S23  1  0.18384200  0.81372100  0.20600800  1
  S  S24  1  0.79390900  0.79390900  0.02187400  1
  S  S25  1  0.20609100  0.20609100  0.97812600  1
  S  S26  1  0.81615800  0.18627900  0.79399200  1
  S  S27  1  0.18627900  0.81615800  0.79399200  1
  Cl  Cl28  1  0.97634800  0.38503800  0.81843700  1
  Cl  Cl29  1  0.20457100  0.20457100  0.61748500  1
  Cl  Cl30  1  0.38503800  0.97634800  0.81843700  1
  Cl  Cl31  1  0.61496200  0.02365200  0.18156300  1
  Cl  Cl32  1  0.79542900  0.79542900  0.38251500  1
  Cl  Cl33  1  0.02365200  0.61496200  0.18156300  1
  O  O34  1  0.49821400  0.27625100  0.29868400  1
  O  O35  1  0.92494700  0.70326700  0.57248300  1
  O  O36  1  0.62728100  0.62728100  0.87336400  1
  O  O37  1  0.72125000  0.49582400  0.07483200  1
  O  O38  1  0.27625100  0.49821400  0.29868400  1
  O  O39  1  0.70326700  0.92494700  0.57248300  1
  O  O40  1  0.92576500  0.70083100  0.79553300  1
  O  O41  1  0.50029600  0.50029600  0.36938900  1
  O  O42  1  0.49582400  0.72125000  0.07483200  1
  O  O43  1  0.20104400  0.56710000  0.50726100  1
  O  O44  1  0.70083100  0.92576500  0.79553300  1
  O  O45  1  0.56710000  0.20104400  0.50726100  1
  O  O46  1  0.87110600  0.12889400  0.50000000  1
  O  O47  1  0.20293500  0.56956600  0.72144700  1
  O  O48  1  0.43043400  0.79706500  0.27855300  1
  O  O49  1  0.56956600  0.20293500  0.72144700  1
  O  O50  1  0.79706500  0.43043400  0.27855300  1
  O  O51  1  0.12889400  0.87110600  0.50000000  1
  O  O52  1  0.43290000  0.79895600  0.49273900  1
  O  O53  1  0.29916900  0.07423500  0.20446700  1
  O  O54  1  0.79895600  0.43290000  0.49273900  1
  O  O55  1  0.50417600  0.27875000  0.92516800  1
  O  O56  1  0.49970400  0.49970400  0.63061100  1
  O  O57  1  0.07423500  0.29916900  0.20446700  1
  O  O58  1  0.29673300  0.07505300  0.42751700  1
  O  O59  1  0.72374900  0.50178600  0.70131600  1
  O  O60  1  0.27875000  0.50417600  0.92516800  1
  O  O61  1  0.37271900  0.37271900  0.12663600  1
  O  O62  1  0.07505300  0.29673300  0.42751700  1
  O  O63  1  0.50178600  0.72374900  0.70131600  1
