# generated using pymatgen
data_Sr2CoWO6
_symmetry_space_group_name_H-M   'P 1'
_cell_length_a   5.67886800
_cell_length_b   5.72288500
_cell_length_c   9.82342574
_cell_angle_alpha   54.27482776
_cell_angle_beta   90.00000000
_cell_angle_gamma   90.00000000
_symmetry_Int_Tables_number   1
_chemical_formula_structural   Sr2CoWO6
_chemical_formula_sum   'Sr4 Co2 W2 O12'
_cell_volume   259.18107778
_cell_formula_units_Z   2
loop_
 _symmetry_equiv_pos_site_id
 _symmetry_equiv_pos_as_xyz
  1  'x, y, z'
loop_
 _atom_site_type_symbol
 _atom_site_label
 _atom_site_symmetry_multiplicity
 _atom_site_fract_x
 _atom_site_fract_y
 _atom_site_fract_z
 _atom_site_occupancy
  Sr  Sr0  1  0.00875400  0.24475700  0.75138200  1
  Sr  Sr1  1  0.49124600  0.24475700  0.25138200  1
  Sr  Sr2  1  0.50875400  0.75524300  0.74861800  1
  Sr  Sr3  1  0.99124600  0.75524300  0.24861800  1
  Co  Co4  1  0.00000000  0.00000000  0.50000000  1
  Co  Co5  1  0.50000000  0.00000000  0.00000000  1
  W  W6  1  0.00000000  0.50000000  0.00000000  1
  W  W7  1  0.50000000  0.50000000  0.50000000  1
  O  O8  1  0.49612100  0.31772600  0.74218900  1
  O  O9  1  0.26850500  0.22094700  0.53128900  1
  O  O10  1  0.25093600  0.76154000  0.96796800  1
  O  O11  1  0.24906400  0.76154000  0.46796800  1
  O  O12  1  0.23149500  0.22094700  0.03128900  1
  O  O13  1  0.00387900  0.31772600  0.24218900  1
  O  O14  1  0.99612100  0.68227400  0.75781100  1
  O  O15  1  0.76850500  0.77905300  0.96871100  1
  O  O16  1  0.75093600  0.23846000  0.53203200  1
  O  O17  1  0.74906400  0.23846000  0.03203200  1
  O  O18  1  0.73149500  0.77905300  0.46871100  1
  O  O19  1  0.50387900  0.68227400  0.25781100  1
