# generated using pymatgen
data_NaYb3Ti2(SbO7)2
_symmetry_space_group_name_H-M   'P 1'
_cell_length_a   7.27301500
_cell_length_b   7.34188800
_cell_length_c   12.64255393
_cell_angle_alpha   54.88513067
_cell_angle_beta   90.00000000
_cell_angle_gamma   90.00000000
_symmetry_Int_Tables_number   1
_chemical_formula_structural   NaYb3Ti2(SbO7)2
_chemical_formula_sum   'Na2 Yb6 Ti4 Sb4 O28'
_cell_volume   552.21805767
_cell_formula_units_Z   2
loop_
 _symmetry_equiv_pos_site_id
 _symmetry_equiv_pos_as_xyz
  1  'x, y, z'
loop_
 _atom_site_type_symbol
 _atom_site_label
 _atom_site_symmetry_multiplicity
 _atom_site_fract_x
 _atom_site_fract_y
 _atom_site_fract_z
 _atom_site_occupancy
  Na  Na0  1  0.00000000  0.50000000  0.00000000  1
  Na  Na1  1  0.00000000  0.50000000  0.50000000  1
  Yb  Yb2  1  0.24832300  0.00000000  0.75000000  1
  Yb  Yb3  1  0.24999200  0.50000000  0.75000000  1
  Yb  Yb4  1  0.75167700  0.00000000  0.25000000  1
  Yb  Yb5  1  0.75000800  0.50000000  0.25000000  1
  Yb  Yb6  1  0.50000000  0.50000000  0.00000000  1
  Yb  Yb7  1  0.50000000  0.50000000  0.50000000  1
  Ti  Ti8  1  0.25973100  0.00000000  0.25000000  1
  Ti  Ti9  1  0.74026900  0.00000000  0.75000000  1
  Ti  Ti10  1  0.50000000  0.00000000  0.50000000  1
  Ti  Ti11  1  0.50000000  0.00000000  0.00000000  1
  Sb  Sb12  1  0.00000000  0.00000000  0.00000000  1
  Sb  Sb13  1  0.25328900  0.50000000  0.25000000  1
  Sb  Sb14  1  0.00000000  0.00000000  0.50000000  1
  Sb  Sb15  1  0.74671100  0.50000000  0.75000000  1
  O  O16  1  0.26345000  0.62937000  0.86981100  1
  O  O17  1  0.04918100  0.06055600  0.13059500  1
  O  O18  1  0.25122600  0.07279200  0.92357600  1
  O  O19  1  0.73655000  0.62937000  0.36981100  1
  O  O20  1  0.04368800  0.66772100  0.12883800  1
  O  O21  1  0.55427100  0.06849000  0.62328000  1
  O  O22  1  0.04368800  0.33227900  0.37116200  1
  O  O23  1  0.95081900  0.06055600  0.63059500  1
  O  O24  1  0.26075100  0.31928800  0.17621600  1
  O  O25  1  0.74877400  0.07279200  0.42357600  1
  O  O26  1  0.73924900  0.68071200  0.82378400  1
  O  O27  1  0.54586400  0.67285400  0.62364200  1
  O  O28  1  0.04918100  0.93944400  0.36940500  1
  O  O29  1  0.95631200  0.66772100  0.62883800  1
  O  O30  1  0.54586400  0.32714600  0.87635800  1
  O  O31  1  0.95631200  0.33227900  0.87116200  1
  O  O32  1  0.44572900  0.06849000  0.12328000  1
  O  O33  1  0.26345000  0.37063000  0.63018900  1
  O  O34  1  0.73924900  0.31928800  0.67621600  1
  O  O35  1  0.74877400  0.92720800  0.07642400  1
  O  O36  1  0.26075100  0.68071200  0.32378400  1
  O  O37  1  0.95081900  0.93944400  0.86940500  1
  O  O38  1  0.55427100  0.93151000  0.87672000  1
  O  O39  1  0.45413600  0.67285400  0.12364200  1
  O  O40  1  0.45413600  0.32714600  0.37635800  1
  O  O41  1  0.73655000  0.37063000  0.13018900  1
  O  O42  1  0.25122600  0.92720800  0.57642400  1
  O  O43  1  0.44572900  0.93151000  0.37672000  1
