# generated using pymatgen
data_CaLaMnSnO6
_symmetry_space_group_name_H-M   'P 1'
_cell_length_a   5.61565972
_cell_length_b   5.85248000
_cell_length_c   7.84465048
_cell_angle_alpha   89.99974084
_cell_angle_beta   89.43934868
_cell_angle_gamma   89.99979938
_symmetry_Int_Tables_number   1
_chemical_formula_structural   CaLaMnSnO6
_chemical_formula_sum   'Ca2 La2 Mn2 Sn2 O12'
_cell_volume   257.80630110
_cell_formula_units_Z   2
loop_
 _symmetry_equiv_pos_site_id
 _symmetry_equiv_pos_as_xyz
  1  'x, y, z'
loop_
 _atom_site_type_symbol
 _atom_site_label
 _atom_site_symmetry_multiplicity
 _atom_site_fract_x
 _atom_site_fract_y
 _atom_site_fract_z
 _atom_site_occupancy
  Ca  Ca0  1  0.48620700  0.44291300  0.74783600  1
  Ca  Ca1  1  0.98623500  0.05710700  0.24787000  1
  La  La2  1  0.01322000  0.94749700  0.75128500  1
  La  La3  1  0.51319900  0.55251000  0.25126200  1
  Mn  Mn4  1  0.50046600  0.00179900  0.00104700  1
  Mn  Mn5  1  0.00043200  0.49819400  0.50118200  1
  Sn  Sn6  1  0.00148200  0.49697900  0.99865800  1
  Sn  Sn7  1  0.50146500  0.00302100  0.49860900  1
  O  O8  1  0.09351000  0.46846700  0.25951900  1
  O  O9  1  0.20992400  0.19785200  0.95421100  1
  O  O10  1  0.21181300  0.19745700  0.55326300  1
  O  O11  1  0.29199800  0.69782500  0.54771900  1
  O  O12  1  0.29198500  0.69228600  0.94574200  1
  O  O13  1  0.39942200  0.97158700  0.24067700  1
  O  O14  1  0.59353100  0.03154600  0.75942500  1
  O  O15  1  0.71182800  0.30252200  0.05325900  1
  O  O16  1  0.70990900  0.30214700  0.45422500  1
  O  O17  1  0.79201100  0.80216400  0.04769700  1
  O  O18  1  0.79198200  0.80771100  0.44574200  1
  O  O19  1  0.89938000  0.52841600  0.74077500  1
