# generated using pymatgen
data_Sr7SmFe4(MoO6)4
_symmetry_space_group_name_H-M   'P 1'
_cell_length_a   5.63251574
_cell_length_b   22.51364333
_cell_length_c   5.67798968
_cell_angle_alpha   119.39302727
_cell_angle_beta   119.53526730
_cell_angle_gamma   90.45155408
_symmetry_Int_Tables_number   1
_chemical_formula_structural   Sr7SmFe4(MoO6)4
_chemical_formula_sum   'Sr7 Sm1 Fe4 Mo4 O24'
_cell_volume   515.31958890
_cell_formula_units_Z   1
loop_
 _symmetry_equiv_pos_site_id
 _symmetry_equiv_pos_as_xyz
  1  'x, y, z'
loop_
 _atom_site_type_symbol
 _atom_site_label
 _atom_site_symmetry_multiplicity
 _atom_site_fract_x
 _atom_site_fract_y
 _atom_site_fract_z
 _atom_site_occupancy
  Sr  Sr0  1  0.25651800  0.19125800  0.50982100  1
  Sr  Sr1  1  0.24937400  0.43644600  0.49559300  1
  Sr  Sr2  1  0.25693200  0.69616900  0.52306900  1
  Sr  Sr3  1  0.23043600  0.92500900  0.46627700  1
  Sr  Sr4  1  0.75783800  0.31334600  0.50148000  1
  Sr  Sr5  1  0.75497200  0.06370300  0.50973800  1
  Sr  Sr6  1  0.74236400  0.56128000  0.49439800  1
  Sm  Sm7  1  0.76877600  0.81326500  0.50109000  1
  Fe  Fe8  1  0.99589100  0.24919700  0.99871000  1
  Fe  Fe9  1  0.00066800  0.49980700  0.99542100  1
  Fe  Fe10  1  0.99892700  0.75075700  0.00316200  1
  Fe  Fe11  1  0.49276800  0.87064000  0.99438100  1
  Mo  Mo12  1  0.99659500  0.99734100  0.99723200  1
  Mo  Mo13  1  0.50499000  0.12661900  0.00615200  1
  Mo  Mo14  1  0.50455200  0.37581900  0.99993000  1
  Mo  Mo15  1  0.49768500  0.62519500  0.99857900  1
  O  O16  1  0.25442200  0.05972800  0.50073800  1
  O  O17  1  0.26167800  0.31537900  0.50328900  1
  O  O18  1  0.25896100  0.56486400  0.51182200  1
  O  O19  1  0.18164300  0.81158200  0.50678000  1
  O  O20  1  0.20849100  0.17649100  0.99670900  1
  O  O21  1  0.21493800  0.43034200  0.00851300  1
  O  O22  1  0.21079200  0.67031600  0.99848400  1
  O  O23  1  0.18425300  0.92224300  0.99362200  1
  O  O24  1  0.28319500  0.04762400  0.00150300  1
  O  O25  1  0.30275200  0.30791100  0.00588400  1
  O  O26  1  0.30246500  0.55250600  0.99981700  1
  O  O27  1  0.34325300  0.80463500  0.06809100  1
  O  O28  1  0.76029800  0.18798400  0.50043800  1
  O  O29  1  0.75694500  0.44023500  0.50703400  1
  O  O30  1  0.74876700  0.68493900  0.47339600  1
  O  O31  1  0.76415500  0.93423200  0.50167100  1
  O  O32  1  0.70685800  0.20178500  0.00093500  1
  O  O33  1  0.71212900  0.44950700  0.01249400  1
  O  O34  1  0.68805700  0.69636100  0.99521400  1
  O  O35  1  0.70316400  0.95195600  0.99713500  1
  O  O36  1  0.80345500  0.07504100  0.00697600  1
  O  O37  1  0.79672700  0.32486100  0.99725200  1
  O  O38  1  0.78447900  0.57392400  0.99772600  1
  O  O39  1  0.75883800  0.81970200  0.91944400  1
