# generated using pymatgen
data_Ca10Ti8NbAl(SiO5)10
_symmetry_space_group_name_H-M   'P 1'
_cell_length_a   6.66678500
_cell_length_b   7.13452042
_cell_length_c   22.16720688
_cell_angle_alpha   86.64258891
_cell_angle_beta   98.45249943
_cell_angle_gamma   114.08442026
_symmetry_Int_Tables_number   1
_chemical_formula_structural   Ca10Ti8NbAl(SiO5)10
_chemical_formula_sum   'Ca10 Ti8 Nb1 Al1 Si10 O50'
_cell_volume   952.12350229
_cell_formula_units_Z   1
loop_
 _symmetry_equiv_pos_site_id
 _symmetry_equiv_pos_as_xyz
  1  'x, y, z'
loop_
 _atom_site_type_symbol
 _atom_site_label
 _atom_site_symmetry_multiplicity
 _atom_site_fract_x
 _atom_site_fract_y
 _atom_site_fract_z
 _atom_site_occupancy
  Ca  Ca0  1  0.16551900  0.24781200  0.33139900  1
  Ca  Ca1  1  0.63569100  0.74862400  0.26866100  1
  Ca  Ca2  1  0.76501800  0.24988100  0.53142800  1
  Ca  Ca3  1  0.23498200  0.75011900  0.46857200  1
  Ca  Ca4  1  0.36430900  0.25137600  0.73133900  1
  Ca  Ca5  1  0.83448100  0.75218800  0.66860100  1
  Ca  Ca6  1  0.97800600  0.26232100  0.93140700  1
  Ca  Ca7  1  0.43414700  0.73516300  0.86860600  1
  Ca  Ca8  1  0.56585300  0.26483700  0.13139400  1
  Ca  Ca9  1  0.02199400  0.73767900  0.06859300  1
  Ti  Ti10  1  0.10097300  0.99667400  0.19944800  1
  Ti  Ti11  1  0.69955800  0.99899400  0.40015900  1
  Ti  Ti12  1  0.69961000  0.49908900  0.39987400  1
  Ti  Ti13  1  0.30044200  0.00100600  0.59984100  1
  Ti  Ti14  1  0.30039000  0.50091100  0.60012600  1
  Ti  Ti15  1  0.89902700  0.00332600  0.80055200  1
  Ti  Ti16  1  0.89828200  0.49835500  0.79990100  1
  Ti  Ti17  1  0.10171800  0.50164500  0.20009900  1
  Nb  Nb18  1  0.50000000  0.00000000  0.00000000  1
  Al  Al19  1  0.50000000  0.50000000  0.00000000  1
  Si  Si20  1  0.16423100  0.74875000  0.32777700  1
  Si  Si21  1  0.63634400  0.24815700  0.27214300  1
  Si  Si22  1  0.76363800  0.74920900  0.52785400  1
  Si  Si23  1  0.23636200  0.25079100  0.47214600  1
  Si  Si24  1  0.36365600  0.75184300  0.72785700  1
  Si  Si25  1  0.83576900  0.25125000  0.67222300  1
  Si  Si26  1  0.95284200  0.74334000  0.92815500  1
  Si  Si27  1  0.43418200  0.25494400  0.87223500  1
  Si  Si28  1  0.56581800  0.74505600  0.12776500  1
  Si  Si29  1  0.04715800  0.25666000  0.07184500  1
  O  O30  1  0.42729900  0.09272900  0.22491500  1
  O  O31  1  0.24335300  0.61494500  0.28523100  1
  O  O32  1  0.11153100  0.24741700  0.22753100  1
  O  O33  1  0.04487700  0.88345700  0.28543500  1
  O  O34  1  0.80012500  0.40802700  0.22580600  1
  O  O35  1  0.00077400  0.59029800  0.37432800  1
  O  O36  1  0.75563600  0.11317000  0.31439200  1
  O  O37  1  0.68586500  0.74798700  0.37251400  1
  O  O38  1  0.02598300  0.09057700  0.42532900  1
  O  O39  1  0.55753600  0.38177500  0.31479200  1
  O  O40  1  0.84187000  0.61479000  0.48532500  1
  O  O41  1  0.37326500  0.90580700  0.37480100  1
  O  O42  1  0.71378300  0.24856100  0.42755200  1
  O  O43  1  0.64340700  0.88328800  0.48547600  1
  O  O44  1  0.39855900  0.40599400  0.42556800  1
  O  O45  1  0.60144100  0.59400600  0.57443200  1
  O  O46  1  0.35659300  0.11671200  0.51452400  1
  O  O47  1  0.28621700  0.75143900  0.57244800  1
  O  O48  1  0.62673500  0.09419300  0.62519900  1
  O  O49  1  0.15813000  0.38521000  0.51467500  1
  O  O50  1  0.44246400  0.61822500  0.68520800  1
  O  O51  1  0.97401700  0.90942300  0.57467100  1
  O  O52  1  0.31413500  0.25201300  0.62748600  1
  O  O53  1  0.24436400  0.88683000  0.68560800  1
  O  O54  1  0.99922600  0.40970200  0.62567200  1
  O  O55  1  0.19987500  0.59197300  0.77419400  1
  O  O56  1  0.95512300  0.11654300  0.71456500  1
  O  O57  1  0.88846900  0.75258300  0.77246900  1
  O  O58  1  0.22459100  0.09642300  0.82582300  1
  O  O59  1  0.75664700  0.38505500  0.71476900  1
  O  O60  1  0.03855400  0.61363300  0.88589700  1
  O  O61  1  0.57270100  0.90727100  0.77508500  1
  O  O62  1  0.91098300  0.25036000  0.82764200  1
  O  O63  1  0.84007400  0.88178400  0.88511500  1
  O  O64  1  0.59676500  0.41159200  0.82522800  1
  O  O65  1  0.79305600  0.59010600  0.97519800  1
  O  O66  1  0.55556800  0.11685800  0.91335400  1
  O  O67  1  0.48486800  0.74373000  0.97291800  1
  O  O68  1  0.83392900  0.09458900  0.02535100  1
  O  O69  1  0.36036600  0.38598700  0.91629900  1
  O  O70  1  0.63963400  0.61401300  0.08370100  1
  O  O71  1  0.16607100  0.90541100  0.97464900  1
  O  O72  1  0.51513200  0.25627000  0.02708200  1
  O  O73  1  0.44443200  0.88314200  0.08664600  1
  O  O74  1  0.20694400  0.40989400  0.02480200  1
  O  O75  1  0.40323500  0.58840800  0.17477200  1
  O  O76  1  0.15992600  0.11821600  0.11488500  1
  O  O77  1  0.08901700  0.74964000  0.17235800  1
  O  O78  1  0.96144600  0.38636700  0.11410300  1
  O  O79  1  0.77540900  0.90357700  0.17417700  1
