# generated using pymatgen
data_Sr3La5Mn8O24
_symmetry_space_group_name_H-M   'P 1'
_cell_length_a   7.85727794
_cell_length_b   7.85727794
_cell_length_c   9.56831303
_cell_angle_alpha   66.34286535
_cell_angle_beta   66.34286535
_cell_angle_gamma   90.43760325
_symmetry_Int_Tables_number   1
_chemical_formula_structural   Sr3La5Mn8O24
_chemical_formula_sum   'Sr3 La5 Mn8 O24'
_cell_volume   485.48861040
_cell_formula_units_Z   1
loop_
 _symmetry_equiv_pos_site_id
 _symmetry_equiv_pos_as_xyz
  1  'x, y, z'
loop_
 _atom_site_type_symbol
 _atom_site_label
 _atom_site_symmetry_multiplicity
 _atom_site_fract_x
 _atom_site_fract_y
 _atom_site_fract_z
 _atom_site_occupancy
  Sr  Sr0  1  0.12448800  0.87551200  0.00000000  1
  Sr  Sr1  1  0.37633300  0.62366700  0.50000000  1
  Sr  Sr2  1  0.62431300  0.37568700  0.00000000  1
  La  La3  1  0.62411800  0.87436100  0.00204800  1
  La  La4  1  0.87508600  0.12491400  0.50000000  1
  La  La5  1  0.12563900  0.37588200  0.99795200  1
  La  La6  1  0.37495000  0.12492600  0.49980100  1
  La  La7  1  0.87507400  0.62505000  0.50019900  1
  Mn  Mn8  1  0.99975600  0.74900900  0.75101600  1
  Mn  Mn9  1  0.49943000  0.25050500  0.75013400  1
  Mn  Mn10  1  0.49939800  0.74918800  0.75060500  1
  Mn  Mn11  1  0.74972100  0.99969600  0.24938200  1
  Mn  Mn12  1  0.00030400  0.25027900  0.75061800  1
  Mn  Mn13  1  0.25081200  0.50060200  0.24939500  1
  Mn  Mn14  1  0.25099100  0.00024400  0.24898400  1
  Mn  Mn15  1  0.74949500  0.50057000  0.24986600  1
  O  O16  1  0.40188500  0.09661600  0.00001300  1
  O  O17  1  0.48900500  0.96979200  0.27181000  1
  O  O18  1  0.26421500  0.79247400  0.72148100  1
  O  O19  1  0.65700100  0.85341000  0.49966600  1
  O  O20  1  0.71229300  0.23391000  0.28168300  1
  O  O21  1  0.53917200  0.01307800  0.72378200  1
  O  O22  1  0.90338400  0.59811500  0.99998700  1
  O  O23  1  0.95685600  0.98907400  0.77228300  1
  O  O24  1  0.98692200  0.46082800  0.27621800  1
  O  O25  1  0.78085500  0.75950100  0.23099300  1
  O  O26  1  0.76609000  0.28770700  0.71831700  1
  O  O27  1  0.85495100  0.14504900  0.00000000  1
  O  O28  1  0.14659000  0.34299900  0.50033400  1
  O  O29  1  0.24049900  0.21914500  0.76900700  1
  O  O30  1  0.20752600  0.73578500  0.27851900  1
  O  O31  1  0.01092600  0.04314400  0.22771700  1
  O  O32  1  0.03020800  0.51099500  0.72819000  1
  O  O33  1  0.09864900  0.90135100  0.50000000  1
  O  O34  1  0.46069000  0.48689400  0.77621400  1
  O  O35  1  0.27725600  0.25905000  0.23180400  1
  O  O36  1  0.35390100  0.64609900  0.00000000  1
  O  O37  1  0.74095000  0.72274400  0.76819600  1
  O  O38  1  0.51310600  0.53931000  0.22378600  1
  O  O39  1  0.60716500  0.39283500  0.50000000  1
