# generated using pymatgen
data_Ca3Zr2Fe2SiO12
_symmetry_space_group_name_H-M   'P 1'
_cell_length_a   11.07186628
_cell_length_b   11.07186628
_cell_length_c   11.07186628
_cell_angle_alpha   108.95630571
_cell_angle_beta   108.95630571
_cell_angle_gamma   110.50603274
_symmetry_Int_Tables_number   1
_chemical_formula_structural   Ca3Zr2Fe2SiO12
_chemical_formula_sum   'Ca12 Zr8 Fe8 Si4 O48'
_cell_volume   1044.56176078
_cell_formula_units_Z   4
loop_
 _symmetry_equiv_pos_site_id
 _symmetry_equiv_pos_as_xyz
  1  'x, y, z'
loop_
 _atom_site_type_symbol
 _atom_site_label
 _atom_site_symmetry_multiplicity
 _atom_site_fract_x
 _atom_site_fract_y
 _atom_site_fract_z
 _atom_site_occupancy
  Ca  Ca0  1  0.25000000  0.25000000  0.00000000  1
  Ca  Ca1  1  0.37500000  0.74938800  0.87438800  1
  Ca  Ca2  1  0.99938800  0.62500000  0.87438800  1
  Ca  Ca3  1  0.75000000  0.75000000  0.00000000  1
  Ca  Ca4  1  0.37500000  0.24938800  0.37438800  1
  Ca  Ca5  1  0.75061200  0.12500000  0.12561200  1
  Ca  Ca6  1  0.49938800  0.62500000  0.37438800  1
  Ca  Ca7  1  0.50000000  0.00000000  0.50000000  1
  Ca  Ca8  1  0.87500000  0.50061200  0.12561200  1
  Ca  Ca9  1  0.25061200  0.12500000  0.62561200  1
  Ca  Ca10  1  0.87500000  0.00061200  0.62561200  1
  Ca  Ca11  1  0.00000000  0.50000000  0.50000000  1
  Zr  Zr12  1  0.12500000  0.87500000  0.75000000  1
  Zr  Zr13  1  0.62500000  0.87500000  0.75000000  1
  Zr  Zr14  1  0.62500000  0.37500000  0.75000000  1
  Zr  Zr15  1  0.12500000  0.87500000  0.25000000  1
  Zr  Zr16  1  0.12500000  0.37500000  0.25000000  1
  Zr  Zr17  1  0.62500000  0.87500000  0.25000000  1
  Zr  Zr18  1  0.62500000  0.37500000  0.25000000  1
  Zr  Zr19  1  0.12500000  0.37500000  0.75000000  1
  Fe  Fe20  1  0.50074600  0.12500000  0.87574600  1
  Fe  Fe21  1  0.87500000  0.25074600  0.87574600  1
  Fe  Fe22  1  0.37500000  0.99925400  0.12425400  1
  Fe  Fe23  1  0.24925400  0.62500000  0.12425400  1
  Fe  Fe24  1  0.00074600  0.12500000  0.37574600  1
  Fe  Fe25  1  0.87500000  0.75074600  0.37574600  1
  Fe  Fe26  1  0.37500000  0.49925400  0.62425400  1
  Fe  Fe27  1  0.74925400  0.62500000  0.62425400  1
  Si  Si28  1  0.50000000  0.50000000  0.00000000  1
  Si  Si29  1  0.00000000  0.00000000  0.00000000  1
  Si  Si30  1  0.25000000  0.75000000  0.50000000  1
  Si  Si31  1  0.75000000  0.25000000  0.50000000  1
  O  O32  1  0.32709100  0.37668500  0.86456400  1
  O  O33  1  0.54716200  0.97504100  0.87626100  1
  O  O34  1  0.53020900  0.69396500  0.78030200  1
  O  O35  1  0.30603500  0.08633700  0.83624400  1
  O  O36  1  0.03020900  0.24990700  0.83624400  1
  O  O37  1  0.03747300  0.98787900  0.86456400  1
  O  O38  1  0.22504100  0.84878000  0.92787900  1
  O  O39  1  0.41366300  0.19396500  0.16375600  1
  O  O40  1  0.53747300  0.67290900  0.04959400  1
  O  O41  1  0.52495900  0.95283800  0.12373900  1
  O  O42  1  0.92090100  0.29716200  0.07212100  1
  O  O43  1  0.75009300  0.58633700  0.78030200  1
  O  O44  1  0.20283800  0.57909900  0.92787900  1
  O  O45  1  0.82709100  0.96252700  0.95040600  1
  O  O46  1  0.12331500  0.17290900  0.13543600  1
  O  O47  1  0.65122000  0.27495900  0.07212100  1
  O  O48  1  0.01212100  0.87668500  0.04959400  1
  O  O49  1  0.82909900  0.40122000  0.87626100  1
  O  O50  1  0.51212100  0.46252700  0.13543600  1
  O  O51  1  0.33633700  0.00009300  0.28030200  1
  O  O52  1  0.44396500  0.78020900  0.28030200  1
  O  O53  1  0.09878000  0.67090100  0.12373900  1
  O  O54  1  0.99990700  0.28020900  0.33624400  1
  O  O55  1  0.62331500  0.48787900  0.95040600  1
  O  O56  1  0.62668500  0.26212100  0.54959400  1
  O  O57  1  0.25009300  0.46979100  0.16375600  1
  O  O58  1  0.15122000  0.07909900  0.37626100  1
  O  O59  1  0.80603500  0.96979100  0.21969800  1
  O  O60  1  0.91366300  0.74990700  0.21969800  1
  O  O61  1  0.73787900  0.28747300  0.36456400  1
  O  O62  1  0.42090100  0.34878000  0.62373900  1
  O  O63  1  0.23787900  0.87331500  0.45040600  1
  O  O64  1  0.59878000  0.47504100  0.42787900  1
  O  O65  1  0.12668500  0.57709100  0.36456400  1
  O  O66  1  0.42290900  0.78747300  0.54959400  1
  O  O67  1  0.04716200  0.17090100  0.57212100  1
  O  O68  1  0.49990700  0.16366300  0.71969800  1
  O  O69  1  0.32909900  0.45283800  0.42787900  1
  O  O70  1  0.72504100  0.79716200  0.37626100  1
  O  O71  1  0.71252700  0.07709100  0.45040600  1
  O  O72  1  0.83633700  0.55603500  0.33624400  1
  O  O73  1  0.02495900  0.90122000  0.57212100  1
  O  O74  1  0.21252700  0.76212100  0.63543600  1
  O  O75  1  0.21979100  0.50009300  0.66375600  1
  O  O76  1  0.94396500  0.66366300  0.66375600  1
  O  O77  1  0.71979100  0.05603500  0.71969800  1
  O  O78  1  0.70283800  0.77495900  0.62373900  1
  O  O79  1  0.92290900  0.37331500  0.63543600  1
