# generated using pymatgen
data_H3CO3
_symmetry_space_group_name_H-M   'P 1'
_cell_length_a   4.83016521
_cell_length_b   4.40180700
_cell_length_c   13.35093752
_cell_angle_alpha   90.00002676
_cell_angle_beta   103.00110301
_cell_angle_gamma   90.00002051
_symmetry_Int_Tables_number   1
_chemical_formula_structural   H3CO3
_chemical_formula_sum   'H12 C4 O12'
_cell_volume   276.58380600
_cell_formula_units_Z   4
loop_
 _symmetry_equiv_pos_site_id
 _symmetry_equiv_pos_as_xyz
  1  'x, y, z'
loop_
 _atom_site_type_symbol
 _atom_site_label
 _atom_site_symmetry_multiplicity
 _atom_site_fract_x
 _atom_site_fract_y
 _atom_site_fract_z
 _atom_site_occupancy
  H  H0  1  0.00079600  0.99244400  0.25487000  1
  H  H1  1  0.50079600  0.50755500  0.75487000  1
  H  H2  1  0.99920400  0.00755600  0.74513000  1
  H  H3  1  0.49920400  0.49244500  0.24513000  1
  H  H4  1  0.23761000  0.74948900  0.13616600  1
  H  H5  1  0.73761000  0.75051100  0.63616600  1
  H  H6  1  0.76239000  0.25051100  0.86383400  1
  H  H7  1  0.26239000  0.24948900  0.36383400  1
  H  H8  1  0.90603200  0.96398700  0.36330900  1
  H  H9  1  0.40603200  0.53601300  0.86330900  1
  H  H10  1  0.09396800  0.03601300  0.63669100  1
  H  H11  1  0.59396800  0.46398700  0.13669100  1
  C  C12  1  0.55183500  0.54977100  0.45149300  1
  C  C13  1  0.05183500  0.95022800  0.95149300  1
  C  C14  1  0.44816500  0.45022900  0.54850700  1
  C  C15  1  0.94816500  0.04977200  0.04850700  1
  O  O16  1  0.43992200  0.40094800  0.36678200  1
  O  O17  1  0.93992200  0.09905200  0.86678200  1
  O  O18  1  0.56007800  0.59905200  0.63321800  1
  O  O19  1  0.06007800  0.90094800  0.13321800  1
  O  O20  1  0.72836300  0.75278900  0.45632200  1
  O  O21  1  0.22836300  0.74721000  0.95632200  1
  O  O22  1  0.27163700  0.24721100  0.54367800  1
  O  O23  1  0.77163700  0.25279000  0.04367800  1
  O  O24  1  0.01132200  0.08720400  0.32271800  1
  O  O25  1  0.51132200  0.41279600  0.82271800  1
  O  O26  1  0.98867800  0.91279600  0.67728200  1
  O  O27  1  0.48867800  0.58720400  0.17728200  1
