# generated using pymatgen
data_Ca3YAl3B4O15
_symmetry_space_group_name_H-M   'P 1'
_cell_length_a   11.68992400
_cell_length_b   10.52650800
_cell_length_c   10.52771033
_cell_angle_alpha   60.00726543
_cell_angle_beta   90.00000000
_cell_angle_gamma   90.00000000
_symmetry_Int_Tables_number   1
_chemical_formula_structural   Ca3YAl3B4O15
_chemical_formula_sum   'Ca12 Y4 Al12 B16 O60'
_cell_volume   1121.99872013
_cell_formula_units_Z   4
loop_
 _symmetry_equiv_pos_site_id
 _symmetry_equiv_pos_as_xyz
  1  'x, y, z'
loop_
 _atom_site_type_symbol
 _atom_site_label
 _atom_site_symmetry_multiplicity
 _atom_site_fract_x
 _atom_site_fract_y
 _atom_site_fract_z
 _atom_site_occupancy
  Ca  Ca0  1  0.00000000  0.87454200  0.82363000  1
  Ca  Ca1  1  0.50000000  0.67299400  0.65893000  1
  Ca  Ca2  1  0.50000000  0.83844900  0.31009100  1
  Ca  Ca3  1  0.00000000  0.83802300  0.30628400  1
  Ca  Ca4  1  0.75063300  0.74924500  0.11851300  1
  Ca  Ca5  1  0.24936700  0.74924500  0.11851300  1
  Ca  Ca6  1  0.50000000  0.32894700  0.85339000  1
  Ca  Ca7  1  0.00000000  0.32535900  0.85895400  1
  Ca  Ca8  1  0.75079700  0.16457000  0.72583800  1
  Ca  Ca9  1  0.24920300  0.16457000  0.72583800  1
  Ca  Ca10  1  0.74950300  0.13571400  0.13695400  1
  Ca  Ca11  1  0.25049700  0.13571400  0.13695400  1
  Y  Y12  1  0.50000000  0.87047700  0.81608600  1
  Y  Y13  1  0.00000000  0.67723700  0.66262700  1
  Y  Y14  1  0.74978900  0.34327700  0.32844500  1
  Y  Y15  1  0.25021100  0.34327700  0.32844500  1
  Al  Al16  1  0.62718000  0.51394600  0.99569400  1
  Al  Al17  1  0.12645900  0.51508700  0.99604200  1
  Al  Al18  1  0.37435900  0.50954900  0.49444200  1
  Al  Al19  1  0.87377600  0.50809800  0.49709700  1
  Al  Al20  1  0.62564100  0.50954900  0.49444200  1
  Al  Al21  1  0.12622400  0.50809800  0.49709700  1
  Al  Al22  1  0.37282000  0.51394600  0.99569400  1
  Al  Al23  1  0.87354100  0.51508700  0.99604200  1
  Al  Al24  1  0.87367000  0.00909800  0.49388300  1
  Al  Al25  1  0.37106000  0.00769200  0.49195300  1
  Al  Al26  1  0.62894000  0.00769200  0.49195300  1
  Al  Al27  1  0.12633000  0.00909800  0.49388300  1
  B  B28  1  0.37410900  0.01272200  0.99365100  1
  B  B29  1  0.75264700  0.78369300  0.76467100  1
  B  B30  1  0.24735300  0.78369300  0.76467100  1
  B  B31  1  0.62589100  0.01272200  0.99365100  1
  B  B32  1  0.86947800  0.01552300  0.99339300  1
  B  B33  1  0.13052200  0.01552300  0.99339300  1
  B  B34  1  0.24934900  0.77552100  0.45374100  1
  B  B35  1  0.75065100  0.77552100  0.45374100  1
  B  B36  1  0.75007000  0.47632000  0.76650900  1
  B  B37  1  0.24993000  0.47632000  0.76650900  1
  B  B38  1  0.50000000  0.55472400  0.21918200  1
  B  B39  1  0.00000000  0.55480100  0.22041500  1
  B  B40  1  0.50000000  0.24078200  0.54039700  1
  B  B41  1  0.00000000  0.23986300  0.54020300  1
  B  B42  1  0.50000000  0.23546200  0.22615800  1
  B  B43  1  0.00000000  0.23382800  0.22551000  1
  O  O44  1  0.65029100  0.83994300  0.69084500  1
  O  O45  1  0.14531100  0.83445300  0.68861700  1
  O  O46  1  0.85468900  0.83445300  0.68861700  1
  O  O47  1  0.34970900  0.83994300  0.69084500  1
  O  O48  1  0.50000000  0.91903100  0.47592300  1
  O  O49  1  0.00000000  0.91551500  0.47493000  1
  O  O50  1  0.24983300  0.92332600  0.42166600  1
  O  O51  1  0.75016700  0.92332600  0.42166600  1
  O  O52  1  0.75145400  0.67433000  0.91375000  1
  O  O53  1  0.24854600  0.67433000  0.91375000  1
  O  O54  1  0.50000000  0.63006300  0.90621300  1
  O  O55  1  0.00000000  0.62717800  0.90356200  1
  O  O56  1  0.85382900  0.70237600  0.47536400  1
  O  O57  1  0.35114400  0.70340400  0.46843800  1
  O  O58  1  0.64885600  0.70340400  0.46843800  1
  O  O59  1  0.14617100  0.70237600  0.47536400  1
  O  O60  1  0.85313100  0.50019700  0.81769600  1
  O  O61  1  0.64847600  0.49538700  0.82223000  1
  O  O62  1  0.35152400  0.49538700  0.82223000  1
  O  O63  1  0.14686900  0.50019700  0.81769600  1
  O  O64  1  0.50000000  0.48426800  0.60733500  1
  O  O65  1  0.00000000  0.48728800  0.61067300  1
  O  O66  1  0.50000000  0.58797800  0.33266100  1
  O  O67  1  0.00000000  0.58581100  0.33575200  1
  O  O68  1  0.75011300  0.43709100  0.65597800  1
  O  O69  1  0.24988700  0.43709100  0.65597800  1
  O  O70  1  0.75064200  0.53188200  0.37787300  1
  O  O71  1  0.24935800  0.53188200  0.37787300  1
  O  O72  1  0.13691200  0.16574500  0.92888600  1
  O  O73  1  0.63334400  0.16222500  0.91922600  1
  O  O74  1  0.86308800  0.16574500  0.92888600  1
  O  O75  1  0.36665600  0.16222500  0.91922600  1
  O  O76  1  0.60440200  0.53860700  0.16492200  1
  O  O77  1  0.10405200  0.53985200  0.16501800  1
  O  O78  1  0.39559800  0.53860700  0.16492200  1
  O  O79  1  0.89594800  0.53985200  0.16501800  1
  O  O80  1  0.60407400  0.31210000  0.52037100  1
  O  O81  1  0.39592600  0.31210000  0.52037100  1
  O  O82  1  0.10378900  0.31137200  0.52434100  1
  O  O83  1  0.89621100  0.31137200  0.52434100  1
  O  O84  1  0.37130800  0.93786200  0.91630800  1
  O  O85  1  0.62869200  0.93786200  0.91630800  1
  O  O86  1  0.86125900  0.95111900  0.90771600  1
  O  O87  1  0.13874100  0.95111900  0.90771600  1
  O  O88  1  0.24936100  0.39358900  0.08798300  1
  O  O89  1  0.75063900  0.39358900  0.08798300  1
  O  O90  1  0.50000000  0.35161800  0.07936600  1
  O  O91  1  0.00000000  0.35124100  0.07973500  1
  O  O92  1  0.50000000  0.09056900  0.58073100  1
  O  O93  1  0.00000000  0.09332500  0.57121700  1
  O  O94  1  0.75061100  0.10348500  0.51905700  1
  O  O95  1  0.24938900  0.10348500  0.51905700  1
  O  O96  1  0.89608200  0.17739100  0.29653500  1
  O  O97  1  0.39597100  0.17970500  0.29725900  1
  O  O98  1  0.60402900  0.17970500  0.29725900  1
  O  O99  1  0.10391800  0.17739100  0.29653500  1
  O  O100  1  0.86456300  0.93004000  0.14354900  1
  O  O101  1  0.36558200  0.93377800  0.14357100  1
  O  O102  1  0.63441800  0.93377800  0.14357100  1
  O  O103  1  0.13543700  0.93004000  0.14354900  1
