# generated using pymatgen
data_Nd3Al3Si3(NO6)2
_symmetry_space_group_name_H-M   'P 1'
_cell_length_a   7.98593870
_cell_length_b   7.98593870
_cell_length_c   4.92310404
_cell_angle_alpha   89.31977918
_cell_angle_beta   89.31977918
_cell_angle_gamma   61.14836873
_symmetry_Int_Tables_number   1
_chemical_formula_structural   Nd3Al3Si3(NO6)2
_chemical_formula_sum   'Nd3 Al3 Si3 N2 O12'
_cell_volume   274.97322619
_cell_formula_units_Z   1
loop_
 _symmetry_equiv_pos_site_id
 _symmetry_equiv_pos_as_xyz
  1  'x, y, z'
loop_
 _atom_site_type_symbol
 _atom_site_label
 _atom_site_symmetry_multiplicity
 _atom_site_fract_x
 _atom_site_fract_y
 _atom_site_fract_z
 _atom_site_occupancy
  Nd  Nd0  1  0.58318500  0.01265500  0.00575500  1
  Nd  Nd1  1  0.98734500  0.41681500  0.99424500  1
  Nd  Nd2  1  0.41601200  0.58398800  0.00000000  1
  Al  Al3  1  0.23722300  0.99003700  0.52037800  1
  Al  Al4  1  0.00564200  0.99435800  0.00000000  1
  Al  Al5  1  0.00996300  0.76277700  0.47962200  1
  Si  Si6  1  0.66978300  0.66660200  0.54204300  1
  Si  Si7  1  0.33339800  0.33021700  0.45795700  1
  Si  Si8  1  0.73819000  0.26181000  0.50000000  1
  N  N9  1  0.69920500  0.46058200  0.68487900  1
  N  N10  1  0.53941800  0.30079500  0.31512100  1
  O  O11  1  0.21289100  0.85941000  0.24896400  1
  O  O12  1  0.47312800  0.84605500  0.67742300  1
  O  O13  1  0.87289200  0.89518200  0.19840500  1
  O  O14  1  0.65974400  0.67729800  0.20908000  1
  O  O15  1  0.84433200  0.70042500  0.66632300  1
  O  O16  1  0.14059000  0.78710900  0.75103600  1
  O  O17  1  0.15394500  0.52687200  0.32257700  1
  O  O18  1  0.90868400  0.21266800  0.26513600  1
  O  O19  1  0.10481800  0.12710800  0.80159500  1
  O  O20  1  0.32270200  0.34025600  0.79092000  1
  O  O21  1  0.29957500  0.15566800  0.33367700  1
  O  O22  1  0.78733200  0.09131600  0.73486400  1
