# generated using pymatgen
data_Ga2O3
_symmetry_space_group_name_H-M   'P 1'
_cell_length_a   11.88503931
_cell_length_b   5.21465445
_cell_length_c   6.96850154
_cell_angle_alpha   113.40954228
_cell_angle_beta   148.51410044
_cell_angle_gamma   62.23183204
_symmetry_Int_Tables_number   1
_chemical_formula_structural   Ga2O3
_chemical_formula_sum   'Ga4 O6'
_cell_volume   199.59098592
_cell_formula_units_Z   2
loop_
 _symmetry_equiv_pos_site_id
 _symmetry_equiv_pos_as_xyz
  1  'x, y, z'
loop_
 _atom_site_type_symbol
 _atom_site_label
 _atom_site_symmetry_multiplicity
 _atom_site_fract_x
 _atom_site_fract_y
 _atom_site_fract_z
 _atom_site_occupancy
  Ga  Ga0  1  0.28467900  0.17892700  0.02707100  1
  Ga  Ga1  1  0.71532100  0.82107300  0.97292900  1
  Ga  Ga2  1  0.25760900  0.67892700  0.97292900  1
  Ga  Ga3  1  0.74239100  0.32107300  0.02707100  1
  O  O4  1  0.52201300  0.81246400  0.26977500  1
  O  O5  1  0.24430400  0.25000000  0.48860800  1
  O  O6  1  0.74776200  0.68753600  0.26977500  1
  O  O7  1  0.47798700  0.18753600  0.73022500  1
  O  O8  1  0.75569600  0.75000000  0.51139200  1
  O  O9  1  0.25223800  0.31246400  0.73022500  1
