# generated using pymatgen
data_CoH22N7(ClO2)4
_symmetry_space_group_name_H-M   'P 1'
_cell_length_a   7.87660553
_cell_length_b   7.87660553
_cell_length_c   10.30100783
_cell_angle_alpha   65.57746882
_cell_angle_beta   65.57746882
_cell_angle_gamma   55.26669207
_symmetry_Int_Tables_number   1
_chemical_formula_structural   CoH22N7(ClO2)4
_chemical_formula_sum   'Co1 H22 N7 Cl4 O8'
_cell_volume   464.50259742
_cell_formula_units_Z   1
loop_
 _symmetry_equiv_pos_site_id
 _symmetry_equiv_pos_as_xyz
  1  'x, y, z'
loop_
 _atom_site_type_symbol
 _atom_site_label
 _atom_site_symmetry_multiplicity
 _atom_site_fract_x
 _atom_site_fract_y
 _atom_site_fract_z
 _atom_site_occupancy
  Co  Co0  1  0.05418200  0.05418200  0.82362800  1
  H  H1  1  0.47592200  0.62367300  0.42543300  1
  H  H2  1  0.62367300  0.47592200  0.42543300  1
  H  H3  1  0.33539800  0.54969800  0.53489700  1
  H  H4  1  0.54969800  0.33539800  0.53489700  1
  H  H5  1  0.98881500  0.76182100  0.85095200  1
  H  H6  1  0.42135500  0.76991400  0.83135400  1
  H  H7  1  0.76991400  0.42135500  0.83135400  1
  H  H8  1  0.97588900  0.38974100  0.85473800  1
  H  H9  1  0.76182100  0.98881500  0.85095200  1
  H  H10  1  0.38974100  0.97588900  0.85473800  1
  H  H11  1  0.21305700  0.50787700  0.06983400  1
  H  H12  1  0.20900500  0.71299500  0.08410000  1
  H  H13  1  0.98147200  0.71332900  0.10895500  1
  H  H14  1  0.11890800  0.55788500  0.24214700  1
  H  H15  1  0.50787700  0.21305700  0.06983400  1
  H  H16  1  0.20526000  0.20526000  0.06772600  1
  H  H17  1  0.71299500  0.20900500  0.08410000  1
  H  H18  1  0.97757700  0.21055300  0.09979700  1
  H  H19  1  0.21055300  0.97757700  0.09979700  1
  H  H20  1  0.71332900  0.98147200  0.10895500  1
  H  H21  1  0.55788500  0.11890800  0.24214700  1
  H  H22  1  0.09590500  0.09590500  0.24173600  1
  N  N23  1  0.90826800  0.90826800  0.87328400  1
  N  N24  1  0.31593800  0.88569000  0.88969800  1
  N  N25  1  0.88569000  0.31593800  0.88969800  1
  N  N26  1  0.49501100  0.49501100  0.53189700  1
  N  N27  1  0.12920500  0.62338400  0.13154700  1
  N  N28  1  0.62338400  0.12920500  0.13154700  1
  N  N29  1  0.11996400  0.11996400  0.13124800  1
  Cl  Cl30  1  0.83526700  0.83526700  0.53328600  1
  Cl  Cl31  1  0.61986800  0.61986800  0.20180600  1
  Cl  Cl32  1  0.35576100  0.35576100  0.90878000  1
  Cl  Cl33  1  0.17654400  0.17654400  0.44093000  1
  O  O34  1  0.88899900  0.88899900  0.37174300  1
  O  O35  1  0.30957700  0.98413100  0.38626100  1
  O  O36  1  0.29401500  0.29401500  0.38929800  1
  O  O37  1  0.98413100  0.30957700  0.38626100  1
  O  O38  1  0.71819600  0.71819600  0.58992900  1
  O  O39  1  0.03115800  0.70523300  0.58564800  1
  O  O40  1  0.70523300  0.03115800  0.58564800  1
  O  O41  1  0.12126000  0.12126000  0.60088900  1
