# generated using pymatgen
data_Na4MnAl3Si3O16
_symmetry_space_group_name_H-M   'P 1'
_cell_length_a   9.26924500
_cell_length_b   9.16289400
_cell_length_c   9.21392357
_cell_angle_alpha   89.97985241
_cell_angle_beta   90.00000000
_cell_angle_gamma   90.00000000
_symmetry_Int_Tables_number   1
_chemical_formula_structural   Na4MnAl3Si3O16
_chemical_formula_sum   'Na8 Mn2 Al6 Si6 O32'
_cell_volume   782.56713012
_cell_formula_units_Z   2
loop_
 _symmetry_equiv_pos_site_id
 _symmetry_equiv_pos_as_xyz
  1  'x, y, z'
loop_
 _atom_site_type_symbol
 _atom_site_label
 _atom_site_symmetry_multiplicity
 _atom_site_fract_x
 _atom_site_fract_y
 _atom_site_fract_z
 _atom_site_occupancy
  Na  Na0  1  0.77455900  0.77308300  0.27217400  1
  Na  Na1  1  0.77455900  0.22691700  0.72782600  1
  Na  Na2  1  0.72622000  0.72495600  0.77673400  1
  Na  Na3  1  0.72622000  0.27504400  0.22326600  1
  Na  Na4  1  0.27081100  0.72859100  0.22795000  1
  Na  Na5  1  0.27081100  0.27140900  0.77205000  1
  Na  Na6  1  0.22097300  0.77678500  0.72351200  1
  Na  Na7  1  0.22097300  0.22321500  0.27648800  1
  Mn  Mn8  1  0.02978300  0.00000000  0.50000000  1
  Mn  Mn9  1  0.48067600  0.50000000  0.00000000  1
  Al  Al10  1  0.00187300  0.75065100  0.00083600  1
  Al  Al11  1  0.00187300  0.24934900  0.99916400  1
  Al  Al12  1  0.74951000  0.50000000  0.50000000  1
  Al  Al13  1  0.50172400  0.00053600  0.75069800  1
  Al  Al14  1  0.50172400  0.99946400  0.24930200  1
  Al  Al15  1  0.24944600  0.50000000  0.50000000  1
  Si  Si16  1  0.99883700  0.49995100  0.25116300  1
  Si  Si17  1  0.99883700  0.50004900  0.74883700  1
  Si  Si18  1  0.75127500  0.00000000  0.00000000  1
  Si  Si19  1  0.49978800  0.25028400  0.49873900  1
  Si  Si20  1  0.49978800  0.74971600  0.50126100  1
  Si  Si21  1  0.25325100  0.00000000  0.00000000  1
  O  O22  1  0.96336900  0.35623300  0.15200500  1
  O  O23  1  0.96336900  0.64376700  0.84799500  1
  O  O24  1  0.85209300  0.53609500  0.34398200  1
  O  O25  1  0.85209300  0.46390500  0.65601800  1
  O  O26  1  0.84870600  0.85611200  0.03727500  1
  O  O27  1  0.84870600  0.14388800  0.96272500  1
  O  O28  1  0.65702800  0.96473000  0.85406800  1
  O  O29  1  0.65702800  0.03527000  0.14593200  1
  O  O30  1  0.64278000  0.65252800  0.53921300  1
  O  O31  1  0.64278000  0.34747200  0.46078700  1
  O  O32  1  0.58079900  0.64517800  0.99484800  1
  O  O33  1  0.58079900  0.35482200  0.00515200  1
  O  O34  1  0.53995000  0.84600600  0.35694100  1
  O  O35  1  0.53995000  0.15399400  0.64305900  1
  O  O36  1  0.46291700  0.84562400  0.64640200  1
  O  O37  1  0.46291700  0.15437600  0.35359800  1
  O  O38  1  0.38018700  0.50336000  0.14305400  1
  O  O39  1  0.38018700  0.49664000  0.85694600  1
  O  O40  1  0.35448600  0.65522100  0.46450800  1
  O  O41  1  0.35448600  0.34477900  0.53549200  1
  O  O42  1  0.35150700  0.96105100  0.14156800  1
  O  O43  1  0.35150700  0.03894900  0.85843200  1
  O  O44  1  0.15638200  0.85491600  0.96282100  1
  O  O45  1  0.15638200  0.14508400  0.03717900  1
  O  O46  1  0.13917400  0.53910100  0.64963700  1
  O  O47  1  0.13917400  0.46089900  0.35036300  1
  O  O48  1  0.13154100  0.04115900  0.63708000  1
  O  O49  1  0.13154100  0.95884100  0.36292000  1
  O  O50  1  0.03608200  0.64662800  0.15686100  1
  O  O51  1  0.03608200  0.35337200  0.84313900  1
  O  O52  1  0.92934800  0.86152200  0.54086100  1
  O  O53  1  0.92934800  0.13847800  0.45913900  1
