# generated using pymatgen
data_Ca2Fe2Si5HO15
_symmetry_space_group_name_H-M   'P 1'
_cell_length_a   6.79028200
_cell_length_b   7.58885485
_cell_length_c   11.76799660
_cell_angle_alpha   104.40763909
_cell_angle_beta   91.81925732
_cell_angle_gamma   94.02199600
_symmetry_Int_Tables_number   1
_chemical_formula_structural   Ca2Fe2Si5HO15
_chemical_formula_sum   'Ca4 Fe4 Si10 H2 O30'
_cell_volume   585.13211690
_cell_formula_units_Z   2
loop_
 _symmetry_equiv_pos_site_id
 _symmetry_equiv_pos_as_xyz
  1  'x, y, z'
loop_
 _atom_site_type_symbol
 _atom_site_label
 _atom_site_symmetry_multiplicity
 _atom_site_fract_x
 _atom_site_fract_y
 _atom_site_fract_z
 _atom_site_occupancy
  Ca  Ca0  1  0.85968800  0.21920000  0.05831100  1
  Ca  Ca1  1  0.14031200  0.78080000  0.94168900  1
  Ca  Ca2  1  0.70079500  0.76208600  0.47760600  1
  Ca  Ca3  1  0.29920500  0.23791400  0.52239400  1
  Fe  Fe4  1  0.93964900  0.40571300  0.35545200  1
  Fe  Fe5  1  0.06035100  0.59428700  0.64454800  1
  Fe  Fe6  1  0.81438200  0.95386800  0.76457000  1
  Fe  Fe7  1  0.18561800  0.04613200  0.23543000  1
  Si  Si8  1  0.65860500  0.71448200  0.94622800  1
  Si  Si9  1  0.34139500  0.28551800  0.05377200  1
  Si  Si10  1  0.57503300  0.53969900  0.68557500  1
  Si  Si11  1  0.42496700  0.46030100  0.31442500  1
  Si  Si12  1  0.78901600  0.19434900  0.55410600  1
  Si  Si13  1  0.21098400  0.80565100  0.44589400  1
  Si  Si14  1  0.69083100  0.01231600  0.28543900  1
  Si  Si15  1  0.30916900  0.98768400  0.71456100  1
  Si  Si16  1  0.89258900  0.67426100  0.16401900  1
  Si  Si17  1  0.10741100  0.32573900  0.83598100  1
  H  H18  1  0.52216700  0.11429900  0.90513200  1
  H  H19  1  0.47783300  0.88570100  0.09486800  1
  O  O20  1  0.46478500  0.80321500  0.01105000  1
  O  O21  1  0.53521500  0.19678500  0.98895000  1
  O  O22  1  0.81655000  0.87079600  0.91922600  1
  O  O23  1  0.18345000  0.12920400  0.08077400  1
  O  O24  1  0.56689800  0.56668300  0.82798700  1
  O  O25  1  0.43310200  0.43331700  0.17201300  1
  O  O26  1  0.75184900  0.68391300  0.66012100  1
  O  O27  1  0.24815100  0.31608700  0.33987900  1
  O  O28  1  0.63685100  0.45393200  0.37880400  1
  O  O29  1  0.36314900  0.54606800  0.62119600  1
  O  O30  1  0.62662800  0.32361200  0.62743800  1
  O  O31  1  0.37337200  0.67638800  0.37256200  1
  O  O32  1  0.83812100  0.03180800  0.61530200  1
  O  O33  1  0.16187900  0.96819200  0.38469800  1
  O  O34  1  0.97293000  0.32110900  0.52433200  1
  O  O35  1  0.02707000  0.67889100  0.47566800  1
  O  O36  1  0.66241300  0.07398700  0.43008000  1
  O  O37  1  0.33758700  0.92601300  0.56992000  1
  O  O38  1  0.87588100  0.12805200  0.24421500  1
  O  O39  1  0.12411900  0.87194800  0.75578500  1
  O  O40  1  0.52035700  0.98261000  0.78144000  1
  O  O41  1  0.47964300  0.01739000  0.21856000  1
  O  O42  1  0.75114900  0.79698500  0.26355300  1
  O  O43  1  0.24885100  0.20301500  0.73644700  1
  O  O44  1  0.93888700  0.49033400  0.20044200  1
  O  O45  1  0.06111300  0.50966600  0.79955800  1
  O  O46  1  0.91862000  0.19486100  0.85822600  1
  O  O47  1  0.08138000  0.80513900  0.14177400  1
  O  O48  1  0.77207200  0.60856600  0.03253500  1
  O  O49  1  0.22792800  0.39143400  0.96746500  1
