# generated using pymatgen
data_Na6ZnH4(S2O9)2
_symmetry_space_group_name_H-M   'P 1'
_cell_length_a   6.13316855
_cell_length_b   6.91434940
_cell_length_c   10.26015425
_cell_angle_alpha   70.23091497
_cell_angle_beta   77.18339547
_cell_angle_gamma   74.79164727
_symmetry_Int_Tables_number   1
_chemical_formula_structural   Na6ZnH4(S2O9)2
_chemical_formula_sum   'Na6 Zn1 H4 S4 O18'
_cell_volume   390.85044680
_cell_formula_units_Z   1
loop_
 _symmetry_equiv_pos_site_id
 _symmetry_equiv_pos_as_xyz
  1  'x, y, z'
loop_
 _atom_site_type_symbol
 _atom_site_label
 _atom_site_symmetry_multiplicity
 _atom_site_fract_x
 _atom_site_fract_y
 _atom_site_fract_z
 _atom_site_occupancy
  Na  Na0  1  0.44011300  0.29205700  0.89323200  1
  Na  Na1  1  0.55988700  0.70794300  0.10676800  1
  Na  Na2  1  0.95824900  0.78421100  0.66814200  1
  Na  Na3  1  0.04175100  0.21578900  0.33185800  1
  Na  Na4  1  0.39130400  0.26161700  0.53655100  1
  Na  Na5  1  0.60869600  0.73838300  0.46344900  1
  Zn  Zn6  1  0.00000000  0.00000000  0.00000000  1
  H  H7  1  0.99105600  0.36788100  0.86553500  1
  H  H8  1  0.00894400  0.63211900  0.13446500  1
  H  H9  1  0.91253300  0.35612100  0.03111300  1
  H  H10  1  0.08746700  0.64387900  0.96888700  1
  S  S11  1  0.87548600  0.26658900  0.67470800  1
  S  S12  1  0.12451400  0.73341100  0.32529200  1
  S  S13  1  0.44582800  0.79465500  0.80082800  1
  S  S14  1  0.55417200  0.20534500  0.19917200  1
  O  O15  1  0.82329100  0.11696100  0.81830500  1
  O  O16  1  0.17670900  0.88303900  0.18169500  1
  O  O17  1  0.01241400  0.14493100  0.57869900  1
  O  O18  1  0.98758600  0.85506900  0.42130100  1
  O  O19  1  0.01274500  0.41058300  0.68414100  1
  O  O20  1  0.98725500  0.58941700  0.31585900  1
  O  O21  1  0.65328900  0.38626600  0.62664400  1
  O  O22  1  0.34671100  0.61373400  0.37335600  1
  O  O23  1  0.63512200  0.64779200  0.87357100  1
  O  O24  1  0.36487800  0.35220800  0.12642900  1
  O  O25  1  0.53629600  0.90118000  0.65397700  1
  O  O26  1  0.46370400  0.09882000  0.34602300  1
  O  O27  1  0.33415400  0.95816700  0.87604600  1
  O  O28  1  0.66584600  0.04183300  0.12395400  1
  O  O29  1  0.27027000  0.67691600  0.80292100  1
  O  O30  1  0.72973000  0.32308400  0.19707900  1
  O  O31  1  0.03373000  0.30273700  0.96174200  1
  O  O32  1  0.96627000  0.69726300  0.03825800  1
