# generated using pymatgen
data_Ca10Al6Si13N30
_symmetry_space_group_name_H-M   'P 1'
_cell_length_a   5.06709200
_cell_length_b   5.65538600
_cell_length_c   24.62580536
_cell_angle_alpha   95.21614309
_cell_angle_beta   90.30771803
_cell_angle_gamma   89.99958462
_symmetry_Int_Tables_number   1
_chemical_formula_structural   Ca10Al6Si13N30
_chemical_formula_sum   'Ca10 Al6 Si13 N30'
_cell_volume   702.75338450
_cell_formula_units_Z   1
loop_
 _symmetry_equiv_pos_site_id
 _symmetry_equiv_pos_as_xyz
  1  'x, y, z'
loop_
 _atom_site_type_symbol
 _atom_site_label
 _atom_site_symmetry_multiplicity
 _atom_site_fract_x
 _atom_site_fract_y
 _atom_site_fract_z
 _atom_site_occupancy
  Ca  Ca0  1  0.49878000  0.48474300  0.60601600  1
  Ca  Ca1  1  0.48829600  0.69427200  0.99124800  1
  Ca  Ca2  1  0.54739700  0.10516900  0.81385900  1
  Ca  Ca3  1  0.50505500  0.88691300  0.40021300  1
  Ca  Ca4  1  0.49570600  0.27520400  0.19972300  1
  Ca  Ca5  1  0.01391000  0.67814000  0.81110500  1
  Ca  Ca6  1  0.98273400  0.35961800  0.97143800  1
  Ca  Ca7  1  0.99931700  0.91056400  0.19604000  1
  Ca  Ca8  1  0.00774800  0.50523000  0.39880100  1
  Ca  Ca9  1  0.00016400  0.12080600  0.59535400  1
  Al  Al10  1  0.97545500  0.07169300  0.46956500  1
  Al  Al11  1  0.48037400  0.31873600  0.32959500  1
  Al  Al12  1  0.47643100  0.99490900  0.67155300  1
  Al  Al13  1  0.47369900  0.39545200  0.47241600  1
  Al  Al14  1  0.46519000  0.19451300  0.06780900  1
  Al  Al15  1  0.47536900  0.78402400  0.26745300  1
  Si  Si16  1  0.00647300  0.84006000  0.93050400  1
  Si  Si17  1  0.98303300  0.18406900  0.73055000  1
  Si  Si18  1  0.97509400  0.60734800  0.53369400  1
  Si  Si19  1  0.97351900  0.67858600  0.67243100  1
  Si  Si20  1  0.97031200  0.99872500  0.32756000  1
  Si  Si21  1  0.96469100  0.40696400  0.12798500  1
  Si  Si22  1  0.96874600  0.47213800  0.26704100  1
  Si  Si23  1  0.95706900  0.88384600  0.06738300  1
  Si  Si24  1  0.49214000  0.14470500  0.93136900  1
  Si  Si25  1  0.48028500  0.91927700  0.53190900  1
  Si  Si26  1  0.48330600  0.51497400  0.73515600  1
  Si  Si27  1  0.49085000  0.59996300  0.87584600  1
  Si  Si28  1  0.46916000  0.71746200  0.12832800  1
  N  N29  1  0.66996300  0.86087000  0.90810200  1
  N  N30  1  0.63473700  0.63659600  0.52073100  1
  N  N31  1  0.63794100  0.24017300  0.71613700  1
  N  N32  1  0.63481900  0.01765500  0.31374700  1
  N  N33  1  0.62119500  0.43590000  0.11781200  1
  N  N34  1  0.63405700  0.70531500  0.69015500  1
  N  N35  1  0.64220100  0.35627000  0.89658800  1
  N  N36  1  0.63566600  0.49837900  0.27905000  1
  N  N37  1  0.61396600  0.09687200  0.48542300  1
  N  N38  1  0.61987300  0.90143200  0.08509300  1
  N  N39  1  0.53332600  0.25550300  0.99927000  1
  N  N40  1  0.51850900  0.05005200  0.59782800  1
  N  N41  1  0.50969800  0.61362200  0.80352400  1
  N  N42  1  0.50818700  0.45946200  0.40009100  1
  N  N43  1  0.49395600  0.84701700  0.19447400  1
  N  N44  1  0.13963800  0.47739600  0.71379300  1
  N  N45  1  0.17759800  0.08058700  0.91800300  1
  N  N46  1  0.17568600  0.60406100  0.90096200  1
  N  N47  1  0.11624500  0.26828800  0.30854300  1
  N  N48  1  0.13897800  0.86645900  0.51670600  1
  N  N49  1  0.11012500  0.75803900  0.28436100  1
  N  N50  1  0.10140100  0.16311200  0.08934400  1
  N  N51  1  0.11015200  0.37641600  0.49133300  1
  N  N52  1  0.10304600  0.96777400  0.67777600  1
  N  N53  1  0.12111800  0.67614000  0.11072800  1
  N  N54  1  0.03942300  0.09409500  0.79139600  1
  N  N55  1  0.99082200  0.78287700  0.00112400  1
  N  N56  1  0.01888000  0.36754100  0.19776500  1
  N  N57  1  0.02350700  0.95910000  0.39593200  1
  N  N58  1  0.00578400  0.55677600  0.60342600  1
