# generated using pymatgen
data_Mg7VFeMo15O56
_symmetry_space_group_name_H-M   'P 1'
_cell_length_a   8.51046900
_cell_length_b   9.24221527
_cell_length_c   16.23581805
_cell_angle_alpha   90.06383794
_cell_angle_beta   96.82993149
_cell_angle_gamma   90.17532425
_symmetry_Int_Tables_number   1
_chemical_formula_structural   Mg7VFeMo15O56
_chemical_formula_sum   'Mg7 V1 Fe1 Mo15 O56'
_cell_volume   1267.96797497
_cell_formula_units_Z   1
loop_
 _symmetry_equiv_pos_site_id
 _symmetry_equiv_pos_as_xyz
  1  'x, y, z'
loop_
 _atom_site_type_symbol
 _atom_site_label
 _atom_site_symmetry_multiplicity
 _atom_site_fract_x
 _atom_site_fract_y
 _atom_site_fract_z
 _atom_site_occupancy
  Mg  Mg0  1  0.59268000  0.50689800  0.59360900  1
  Mg  Mg1  1  0.34077900  0.99207000  0.84517300  1
  Mg  Mg2  1  0.09266400  0.50002700  0.09634300  1
  Mg  Mg3  1  0.15721000  0.00693000  0.65586300  1
  Mg  Mg4  1  0.84577100  0.99671200  0.33914300  1
  Mg  Mg5  1  0.90689500  0.49293800  0.90713100  1
  Mg  Mg6  1  0.40769800  0.49354600  0.40502600  1
  V  V7  1  0.03623200  0.13977800  0.17194500  1
  Fe  Fe8  1  0.66381600  0.00837900  0.15774300  1
  Mo  Mo9  1  0.74339000  0.11782700  0.94745400  1
  Mo  Mo10  1  0.53823700  0.13890700  0.67271100  1
  Mo  Mo11  1  0.50444700  0.61854500  0.80296500  1
  Mo  Mo12  1  0.24530700  0.11876000  0.44583400  1
  Mo  Mo13  1  0.21178000  0.63936100  0.57683700  1
  Mo  Mo14  1  0.28760700  0.36108700  0.92347100  1
  Mo  Mo15  1  0.00419300  0.61858000  0.30271100  1
  Mo  Mo16  1  0.99546700  0.38120500  0.69719300  1
  Mo  Mo17  1  0.96140900  0.86106100  0.82816100  1
  Mo  Mo18  1  0.71197900  0.64171300  0.07873400  1
  Mo  Mo19  1  0.78900000  0.36032800  0.42305100  1
  Mo  Mo20  1  0.75400000  0.88211700  0.55073700  1
  Mo  Mo21  1  0.49945900  0.37782100  0.19647300  1
  Mo  Mo22  1  0.46037700  0.86109100  0.32570300  1
  Mo  Mo23  1  0.25692600  0.88580800  0.05697900  1
  O  O24  1  0.89299500  0.99034500  0.90954200  1
  O  O25  1  0.79280700  0.29934100  0.93036600  1
  O  O26  1  0.69789500  0.16504700  0.74784600  1
  O  O27  1  0.69615000  0.57116600  0.84797200  1
  O  O28  1  0.49354300  0.30931100  0.62725400  1
  O  O29  1  0.55313900  0.07189600  0.90082700  1
  O  O30  1  0.49272800  0.59383600  0.69391100  1
  O  O31  1  0.39535000  0.99114100  0.40627400  1
  O  O32  1  0.45700500  0.79917700  0.82394800  1
  O  O33  1  0.37394400  0.57347100  0.52340400  1
  O  O34  1  0.44737600  0.33591700  0.99855900  1
  O  O35  1  0.37616100  0.07263300  0.72624700  1
  O  O36  1  0.29389000  0.29983300  0.42619000  1
  O  O37  1  0.35497300  0.49113400  0.84248600  1
  O  O38  1  0.18273300  0.15959700  0.24707300  1
  O  O39  1  0.25802000  0.09295500  0.55482700  1
  O  O40  1  0.19720900  0.57234800  0.34628400  1
  O  O41  1  0.25638800  0.80977800  0.62281300  1
  O  O42  1  0.24332800  0.19116100  0.87704500  1
  O  O43  1  0.24591900  0.91037900  0.94758800  1
  O  O44  1  0.14520800  0.50900300  0.65785400  1
  O  O45  1  0.99793500  0.30208900  0.12486400  1
  O  O46  1  0.05266200  0.07168900  0.40285500  1
  O  O47  1  0.98897000  0.59490300  0.19344300  1
  O  O48  1  0.12367500  0.92724000  0.77486100  1
  O  O49  1  0.05222700  0.66410700  0.50172200  1
  O  O50  1  0.12544300  0.42907300  0.97605600  1
  O  O51  1  0.04290800  0.20035700  0.67649400  1
  O  O52  1  0.95628600  0.79879900  0.32386000  1
  O  O53  1  0.87287700  0.57778000  0.02528100  1
  O  O54  1  0.94791600  0.33546700  0.49862200  1
  O  O55  1  0.86889300  0.06766100  0.22021300  1
  O  O56  1  0.00664700  0.40618600  0.80624300  1
  O  O57  1  0.94586000  0.92855600  0.59624800  1
  O  O58  1  0.00581000  0.69072800  0.87335500  1
  O  O59  1  0.85446700  0.49128500  0.34235200  1
  O  O60  1  0.74436400  0.08908500  0.05604600  1
  O  O61  1  0.75365200  0.81329700  0.12678400  1
  O  O62  1  0.74348600  0.19036100  0.37673800  1
  O  O63  1  0.80357600  0.42822000  0.65262300  1
  O  O64  1  0.74228100  0.90747900  0.44160900  1
  O  O65  1  0.80233600  0.83574200  0.75277300  1
  O  O66  1  0.64513000  0.50895900  0.15771600  1
  O  O67  1  0.70631500  0.70129700  0.57209700  1
  O  O68  1  0.62257800  0.92890300  0.27081600  1
  O  O69  1  0.55283400  0.66671300  0.00397900  1
  O  O70  1  0.62580700  0.42748700  0.47524600  1
  O  O71  1  0.55464800  0.19666000  0.17640400  1
  O  O72  1  0.60535200  0.00873700  0.59162200  1
  O  O73  1  0.50917000  0.40395300  0.30478200  1
  O  O74  1  0.45424200  0.93415100  0.10122200  1
  O  O75  1  0.50791000  0.69116800  0.37058000  1
  O  O76  1  0.30902600  0.42285800  0.15133000  1
  O  O77  1  0.30140600  0.83387300  0.25115200  1
  O  O78  1  0.20809500  0.70382700  0.07634600  1
  O  O79  1  0.11112900  0.01034700  0.09436700  1
