# generated using pymatgen
data_Te2AsS4N4(ClF2)3
_symmetry_space_group_name_H-M   'P 1'
_cell_length_a   10.18815000
_cell_length_b   10.61892835
_cell_length_c   10.67824333
_cell_angle_alpha   108.37449055
_cell_angle_beta   114.84080040
_cell_angle_gamma   91.44915560
_symmetry_Int_Tables_number   1
_chemical_formula_structural   Te2AsS4N4(ClF2)3
_chemical_formula_sum   'Te4 As2 S8 N8 Cl6 F12'
_cell_volume   978.08914588
_cell_formula_units_Z   2
loop_
 _symmetry_equiv_pos_site_id
 _symmetry_equiv_pos_as_xyz
  1  'x, y, z'
loop_
 _atom_site_type_symbol
 _atom_site_label
 _atom_site_symmetry_multiplicity
 _atom_site_fract_x
 _atom_site_fract_y
 _atom_site_fract_z
 _atom_site_occupancy
  Te  Te0  1  0.98534000  0.27580100  0.73659600  1
  Te  Te1  1  0.42699000  0.67729000  0.15131500  1
  Te  Te2  1  0.55656800  0.31006700  0.84891000  1
  Te  Te3  1  0.01283900  0.72359000  0.25663200  1
  As  As4  1  0.76761500  0.67398400  0.75552800  1
  As  As5  1  0.24116300  0.29159500  0.24951900  1
  S  S6  1  0.96528600  0.68548000  0.45667100  1
  S  S7  1  0.72365400  0.22153300  0.42763000  1
  S  S8  1  0.47972700  0.79981000  0.00956400  1
  S  S9  1  0.77245800  0.12995000  0.97424000  1
  S  S10  1  0.23406200  0.88267000  0.04176100  1
  S  S11  1  0.51969800  0.19587000  0.00527500  1
  S  S12  1  0.26859500  0.75704600  0.56289900  1
  S  S13  1  0.01946400  0.33304200  0.54153300  1
  N  N14  1  0.85449800  0.28062800  0.40808900  1
  N  N15  1  0.65339700  0.11182400  0.02792400  1
  N  N16  1  0.77246200  0.22305100  0.58795100  1
  N  N17  1  0.74084400  0.22982700  0.88854300  1
  N  N18  1  0.24936500  0.77197100  0.11206500  1
  N  N19  1  0.22604200  0.76227300  0.40656600  1
  N  N20  1  0.35425000  0.89353000  0.98659300  1
  N  N21  1  0.13334900  0.71868400  0.58779000  1
  Cl  Cl22  1  0.95457400  0.96194400  0.31939200  1
  Cl  Cl23  1  0.66718400  0.58682500  0.12284100  1
  Cl  Cl24  1  0.58645700  0.84113700  0.39245700  1
  Cl  Cl25  1  0.40742100  0.13936600  0.61473700  1
  Cl  Cl26  1  0.29170100  0.40508100  0.86302100  1
  Cl  Cl27  1  0.03734100  0.05420500  0.70583500  1
  F  F28  1  0.92518100  0.73737100  0.75548200  1
  F  F29  1  0.70217100  0.56916000  0.57184300  1
  F  F30  1  0.83209900  0.77862300  0.94000800  1
  F  F31  1  0.77262600  0.53430800  0.80615600  1
  F  F32  1  0.61490600  0.74911900  0.71008100  1
  F  F33  1  0.42370300  0.28430200  0.27017800  1
  F  F34  1  0.25143000  0.44333100  0.21425500  1
  F  F35  1  0.16845100  0.19858700  0.05544800  1
  F  F36  1  0.31067800  0.38637100  0.44128500  1
  F  F37  1  0.23768000  0.13759200  0.28131700  1
  F  F38  1  0.05929100  0.29454000  0.22840300  1
  F  F39  1  0.98484000  0.52342300  0.15876600  1
