# generated using pymatgen
data_BH5CN2
_symmetry_space_group_name_H-M   'P 1'
_cell_length_a   6.54290500
_cell_length_b   7.06079600
_cell_length_c   7.97970400
_cell_angle_alpha   90.00000000
_cell_angle_beta   90.00000000
_cell_angle_gamma   90.00000000
_symmetry_Int_Tables_number   1
_chemical_formula_structural   BH5CN2
_chemical_formula_sum   'B4 H20 C4 N8'
_cell_volume   368.64730263
_cell_formula_units_Z   4
loop_
 _symmetry_equiv_pos_site_id
 _symmetry_equiv_pos_as_xyz
  1  'x, y, z'
loop_
 _atom_site_type_symbol
 _atom_site_label
 _atom_site_symmetry_multiplicity
 _atom_site_fract_x
 _atom_site_fract_y
 _atom_site_fract_z
 _atom_site_occupancy
  B  B0  1  0.12126600  0.65665000  0.72149300  1
  B  B1  1  0.87873400  0.15665000  0.27850700  1
  B  B2  1  0.62126600  0.15665000  0.77850700  1
  B  B3  1  0.37873400  0.65665000  0.22149300  1
  H  H4  1  0.89740700  0.79331100  0.87745600  1
  H  H5  1  0.10259300  0.29331100  0.12254400  1
  H  H6  1  0.39740700  0.29331100  0.62254400  1
  H  H7  1  0.60259300  0.79331100  0.37745600  1
  H  H8  1  0.13476800  0.84321100  0.94153000  1
  H  H9  1  0.86523200  0.34321100  0.05847000  1
  H  H10  1  0.63476800  0.34321100  0.55847000  1
  H  H11  1  0.36523200  0.84321100  0.44153000  1
  H  H12  1  0.04078000  0.95281400  0.77526000  1
  H  H13  1  0.95922000  0.45281400  0.22474000  1
  H  H14  1  0.54078000  0.45281400  0.72474000  1
  H  H15  1  0.45922000  0.95281400  0.27526000  1
  H  H16  1  0.29150800  0.68755100  0.66700100  1
  H  H17  1  0.70849200  0.18755100  0.33299900  1
  H  H18  1  0.79150800  0.18755100  0.83299900  1
  H  H19  1  0.20849200  0.68755100  0.16700100  1
  H  H20  1  0.11807600  0.51109600  0.80212400  1
  H  H21  1  0.88192400  0.01109600  0.19787600  1
  H  H22  1  0.61807600  0.01109600  0.69787600  1
  H  H23  1  0.38192400  0.51109600  0.30212400  1
  C  C24  1  0.96607700  0.63717000  0.57163100  1
  C  C25  1  0.03392300  0.13717000  0.42836900  1
  C  C26  1  0.46607700  0.13717000  0.92836900  1
  C  C27  1  0.53392300  0.63717000  0.07163100  1
  N  N28  1  0.04362200  0.82538400  0.83776700  1
  N  N29  1  0.95637800  0.32538400  0.16223300  1
  N  N30  1  0.54362200  0.32538400  0.66223300  1
  N  N31  1  0.45637800  0.82538400  0.33776700  1
  N  N32  1  0.85081400  0.62081200  0.46057900  1
  N  N33  1  0.14918600  0.12081200  0.53942100  1
  N  N34  1  0.35081400  0.12081200  0.03942100  1
  N  N35  1  0.64918600  0.62081200  0.96057900  1
