# generated using pymatgen
data_Na13Zr7Si5P7O48
_symmetry_space_group_name_H-M   'P 1'
_cell_length_a   9.38585679
_cell_length_b   9.38505374
_cell_length_c   18.74643801
_cell_angle_alpha   59.29168253
_cell_angle_beta   59.26627271
_cell_angle_gamma   59.24136580
_symmetry_Int_Tables_number   1
_chemical_formula_structural   Na13Zr7Si5P7O48
_chemical_formula_sum   'Na13 Zr7 Si5 P7 O48'
_cell_volume   1148.14679867
_cell_formula_units_Z   1
loop_
 _symmetry_equiv_pos_site_id
 _symmetry_equiv_pos_as_xyz
  1  'x, y, z'
loop_
 _atom_site_type_symbol
 _atom_site_label
 _atom_site_symmetry_multiplicity
 _atom_site_fract_x
 _atom_site_fract_y
 _atom_site_fract_z
 _atom_site_occupancy
  Na  Na0  1  0.01799000  0.01449500  0.00986000  1
  Na  Na1  1  0.15160900  0.15128700  0.07578700  1
  Na  Na2  1  0.12729800  0.37715000  0.37122700  1
  Na  Na3  1  0.36693200  0.78671700  0.06938500  1
  Na  Na4  1  0.78957500  0.14342200  0.18162500  1
  Na  Na5  1  0.24973800  0.88205200  0.30225500  1
  Na  Na6  1  0.61770500  0.24744500  0.44061700  1
  Na  Na7  1  0.13705100  0.36512100  0.89883500  1
  Na  Na8  1  0.88389700  0.58865100  0.12543200  1
  Na  Na9  1  0.37139400  0.75284100  0.55788000  1
  Na  Na10  1  0.74875200  0.11104300  0.69407500  1
  Na  Na11  1  0.25297400  0.87223800  0.80934300  1
  Na  Na12  1  0.59642700  0.26034500  0.93631700  1
  Zr  Zr13  1  0.35705200  0.35637800  0.17489200  1
  Zr  Zr14  1  0.14568000  0.14664700  0.57337100  1
  Zr  Zr15  1  0.34849500  0.35612200  0.68100100  1
  Zr  Zr16  1  0.64518300  0.64903100  0.32638100  1
  Zr  Zr17  1  0.85607000  0.85084500  0.42621700  1
  Zr  Zr18  1  0.65701700  0.65303600  0.81575300  1
  Zr  Zr19  1  0.84979400  0.84767200  0.92645900  1
  Si  Si20  1  0.04023500  0.74524000  0.23154700  1
  Si  Si21  1  0.46258300  0.03816700  0.37502400  1
  Si  Si22  1  0.74481700  0.46005900  0.01624300  1
  Si  Si23  1  0.04389800  0.75205300  0.73064600  1
  Si  Si24  1  0.46172400  0.03880800  0.87223000  1
  P  P25  1  0.24942900  0.54164200  0.48080000  1
  P  P26  1  0.55168900  0.95218900  0.12341000  1
  P  P27  1  0.95217600  0.24704800  0.27536200  1
  P  P28  1  0.74615500  0.46234300  0.52147200  1
  P  P29  1  0.24729900  0.55146500  0.97577600  1
  P  P30  1  0.53843100  0.96454200  0.62311100  1
  P  P31  1  0.95902800  0.24688600  0.77154900  1
  O  O32  1  0.12323700  0.26834900  0.25666600  1
  O  O33  1  0.26993600  0.50548600  0.06304100  1
  O  O34  1  0.05916100  0.90722400  0.14195300  1
  O  O35  1  0.50752800  0.12307900  0.13653000  1
  O  O36  1  0.01418100  0.77562300  0.31829900  1
  O  O37  1  0.20839000  0.56148000  0.22352200  1
  O  O38  1  0.28688900  0.08031100  0.46096300  1
  O  O39  1  0.43340600  0.20505100  0.28656900  1
  O  O40  1  0.56249700  0.44679300  0.10251500  1
  O  O41  1  0.22092400  0.37666800  0.49709500  1
  O  O42  1  0.09103700  0.70956800  0.46332100  1
  O  O43  1  0.40190900  0.95454300  0.11255100  1
  O  O44  1  0.63868100  0.00753100  0.38721900  1
  O  O45  1  0.12637500  0.27701700  0.75233300  1
  O  O46  1  0.90642600  0.28068700  0.02958900  1
  O  O47  1  0.77796500  0.63278000  0.00349600  1
  O  O48  1  0.41605400  0.55987200  0.39693700  1
  O  O49  1  0.28368500  0.51341400  0.56028000  1
  O  O50  1  0.58899400  0.78774900  0.20715400  1
  O  O51  1  0.07362000  0.92762200  0.64343500  1
  O  O52  1  0.51044100  0.13266400  0.63330000  1
  O  O53  1  0.72795100  0.93246600  0.04242900  1
  O  O54  1  0.02396100  0.77153300  0.81789700  1
  O  O55  1  0.21844800  0.58140500  0.71093900  1
  O  O56  1  0.78470800  0.40380000  0.30141800  1
  O  O57  1  0.95309100  0.23936800  0.19659700  1
  O  O58  1  0.28295800  0.05925900  0.95356500  1
  O  O59  1  0.48099000  0.85470900  0.37423100  1
  O  O60  1  0.93611900  0.07687700  0.35936700  1
  O  O61  1  0.44365800  0.21564700  0.78165700  1
  O  O62  1  0.72615500  0.47639600  0.44132600  1
  O  O63  1  0.58365200  0.43187900  0.60438900  1
  O  O64  1  0.22263800  0.40100600  0.97909600  1
  O  O65  1  0.08307800  0.72705300  0.96820900  1
  O  O66  1  0.86355700  0.70290400  0.26154600  1
  O  O67  1  0.36983100  0.99915900  0.61047500  1
  O  O68  1  0.63670200  0.01350700  0.88648200  1
  O  O69  1  0.91331100  0.30143600  0.53681700  1
  O  O70  1  0.76320400  0.63309900  0.50443200  1
  O  O71  1  0.41021900  0.58941800  0.89310100  1
  O  O72  1  0.55523100  0.80085500  0.70523700  1
  O  O73  1  0.69969800  0.94064000  0.53965900  1
  O  O74  1  0.78977900  0.40373200  0.78766000  1
  O  O75  1  0.98866600  0.21147900  0.69195000  1
  O  O76  1  0.51121600  0.87394600  0.84613400  1
  O  O77  1  0.94394700  0.08086000  0.85624600  1
  O  O78  1  0.71116400  0.50681500  0.92789300  1
  O  O79  1  0.86622500  0.73825100  0.74399600  1
