# generated using pymatgen
data_Zn2FeP2(H2O3)4
_symmetry_space_group_name_H-M   'P 1'
_cell_length_a   5.12605400
_cell_length_b   10.44437400
_cell_length_c   10.73982721
_cell_angle_alpha   59.49687515
_cell_angle_beta   90.00000000
_cell_angle_gamma   90.00000000
_symmetry_Int_Tables_number   1
_chemical_formula_structural   Zn2FeP2(H2O3)4
_chemical_formula_sum   'Zn4 Fe2 P4 H16 O24'
_cell_volume   495.41519347
_cell_formula_units_Z   2
loop_
 _symmetry_equiv_pos_site_id
 _symmetry_equiv_pos_as_xyz
  1  'x, y, z'
loop_
 _atom_site_type_symbol
 _atom_site_label
 _atom_site_symmetry_multiplicity
 _atom_site_fract_x
 _atom_site_fract_y
 _atom_site_fract_z
 _atom_site_occupancy
  Zn  Zn0  1  0.80539300  0.49999400  0.85609800  1
  Zn  Zn1  1  0.30539300  0.50000600  0.64390200  1
  Zn  Zn2  1  0.19460700  0.50000600  0.14390200  1
  Zn  Zn3  1  0.69460700  0.49999400  0.35609800  1
  Fe  Fe4  1  0.50000000  0.00000000  0.50000000  1
  Fe  Fe5  1  0.00000000  0.00000000  0.00000000  1
  P  P6  1  0.78399400  0.30911100  0.69218800  1
  P  P7  1  0.28399400  0.69088900  0.80781200  1
  P  P8  1  0.21600600  0.69088900  0.30781200  1
  P  P9  1  0.71600600  0.30911100  0.19218800  1
  H  H10  1  0.78367100  0.04513100  0.70337100  1
  H  H11  1  0.28367100  0.95486900  0.79662900  1
  H  H12  1  0.21632900  0.95486900  0.29662900  1
  H  H13  1  0.71632900  0.04513100  0.20337100  1
  H  H14  1  0.95012100  0.94102300  0.66241400  1
  H  H15  1  0.45012100  0.05897700  0.83758600  1
  H  H16  1  0.04987900  0.05897700  0.33758600  1
  H  H17  1  0.54987900  0.94102300  0.16241400  1
  H  H18  1  0.88741500  0.76041000  0.96605900  1
  H  H19  1  0.38741500  0.23959000  0.53394100  1
  H  H20  1  0.11258500  0.23959000  0.03394100  1
  H  H21  1  0.61258500  0.76041000  0.46605900  1
  H  H22  1  0.61176800  0.81801600  0.99110000  1
  H  H23  1  0.11176800  0.18198400  0.50890000  1
  H  H24  1  0.38823200  0.18198400  0.00890000  1
  H  H25  1  0.88823200  0.81801600  0.49110000  1
  O  O26  1  0.80118200  0.01229900  0.63197700  1
  O  O27  1  0.30118200  0.98770100  0.86802300  1
  O  O28  1  0.19881800  0.98770100  0.36802300  1
  O  O29  1  0.69881800  0.01229900  0.13197700  1
  O  O30  1  0.79967400  0.81704500  0.00616200  1
  O  O31  1  0.29967400  0.18295500  0.49383800  1
  O  O32  1  0.20032600  0.18295500  0.99383800  1
  O  O33  1  0.70032600  0.81704500  0.50616200  1
  O  O34  1  0.75414700  0.14274000  0.80876900  1
  O  O35  1  0.25414700  0.85726000  0.69123100  1
  O  O36  1  0.24585300  0.85726000  0.19123100  1
  O  O37  1  0.74585300  0.14274000  0.30876900  1
  O  O38  1  0.57148000  0.64983300  0.84350200  1
  O  O39  1  0.07148000  0.35016700  0.65649800  1
  O  O40  1  0.42852000  0.35016700  0.15649800  1
  O  O41  1  0.92852000  0.64983300  0.34350200  1
  O  O42  1  0.62851900  0.33793700  0.55541000  1
  O  O43  1  0.12851900  0.66206300  0.94459000  1
  O  O44  1  0.37148100  0.66206300  0.44459000  1
  O  O45  1  0.87148100  0.33793700  0.05541000  1
  O  O46  1  0.64975600  0.41206900  0.74368600  1
  O  O47  1  0.14975600  0.58793100  0.75631400  1
  O  O48  1  0.35024400  0.58793100  0.25631400  1
  O  O49  1  0.85024400  0.41206900  0.24368600  1
