# generated using pymatgen
data_RbTiPO5
_symmetry_space_group_name_H-M   'P 1'
_cell_length_a   8.61768400
_cell_length_b   9.95077700
_cell_length_c   10.31114200
_cell_angle_alpha   90.00000000
_cell_angle_beta   90.00000000
_cell_angle_gamma   90.00000000
_symmetry_Int_Tables_number   1
_chemical_formula_structural   RbTiPO5
_chemical_formula_sum   'Rb8 Ti8 P8 O40'
_cell_volume   884.20776897
_cell_formula_units_Z   8
loop_
 _symmetry_equiv_pos_site_id
 _symmetry_equiv_pos_as_xyz
  1  'x, y, z'
loop_
 _atom_site_type_symbol
 _atom_site_label
 _atom_site_symmetry_multiplicity
 _atom_site_fract_x
 _atom_site_fract_y
 _atom_site_fract_z
 _atom_site_occupancy
  Rb  Rb0  1  0.45057300  0.60247600  0.65230100  1
  Rb  Rb1  1  0.95057300  0.10247600  0.84769900  1
  Rb  Rb2  1  0.32169400  0.89292600  0.56024900  1
  Rb  Rb3  1  0.17830600  0.89292600  0.06024900  1
  Rb  Rb4  1  0.54942700  0.10247600  0.34769900  1
  Rb  Rb5  1  0.82169400  0.39292600  0.93975100  1
  Rb  Rb6  1  0.67830600  0.39292600  0.43975100  1
  Rb  Rb7  1  0.04942700  0.60247600  0.15230100  1
  Ti  Ti8  1  0.71635800  0.74611600  0.34949300  1
  Ti  Ti9  1  0.68578400  0.88559200  0.10641200  1
  Ti  Ti10  1  0.21635800  0.24611600  0.15050700  1
  Ti  Ti11  1  0.28364200  0.24611600  0.65050700  1
  Ti  Ti12  1  0.81421600  0.88559200  0.60641200  1
  Ti  Ti13  1  0.18578400  0.38559200  0.39358800  1
  Ti  Ti14  1  0.78364200  0.74611600  0.84949300  1
  Ti  Ti15  1  0.31421600  0.38559200  0.89358800  1
  P  P16  1  0.49068600  0.05827700  0.98057200  1
  P  P17  1  0.40516900  0.71532200  0.27097000  1
  P  P18  1  0.99068600  0.55827700  0.51942800  1
  P  P19  1  0.90516900  0.21532200  0.22903000  1
  P  P20  1  0.59483100  0.21532200  0.72903000  1
  P  P21  1  0.50931400  0.55827700  0.01942800  1
  P  P22  1  0.09483100  0.71532200  0.77097000  1
  P  P23  1  0.00931400  0.05827700  0.48057200  1
  O  O24  1  0.26908000  0.16831400  0.83342200  1
  O  O25  1  0.15909900  0.03914000  0.36511900  1
  O  O26  1  0.13927400  0.56774400  0.41173900  1
  O  O27  1  0.49531900  0.90163000  0.98427300  1
  O  O28  1  0.90530400  0.14647900  0.37778500  1
  O  O29  1  0.69114000  0.88162800  0.75330300  1
  O  O30  1  0.51392300  0.84469400  0.24691900  1
  O  O31  1  0.15908200  0.35637400  0.01232700  1
  O  O32  1  0.76908000  0.66831400  0.66657800  1
  O  O33  1  0.52269200  0.63359400  0.36296900  1
  O  O34  1  0.65909900  0.53914000  0.13488100  1
  O  O35  1  0.12622900  0.13649600  0.57671900  1
  O  O36  1  0.63927400  0.06774400  0.08826100  1
  O  O37  1  0.99531900  0.40163000  0.51572700  1
  O  O38  1  0.87377100  0.63649600  0.42328100  1
  O  O39  1  0.40530400  0.64647900  0.12221500  1
  O  O40  1  0.47730800  0.13359500  0.63703100  1
  O  O41  1  0.19114000  0.38162800  0.74669700  1
  O  O42  1  0.84091800  0.85637400  0.98767300  1
  O  O43  1  0.48607700  0.34469400  0.75308100  1
  O  O44  1  0.01392300  0.34469400  0.25308100  1
  O  O45  1  0.65908200  0.85637400  0.48767300  1
  O  O46  1  0.30886000  0.38162800  0.24669700  1
  O  O47  1  0.02269200  0.13359500  0.13703100  1
  O  O48  1  0.09469600  0.64647900  0.62221500  1
  O  O49  1  0.62622900  0.63649600  0.92328100  1
  O  O50  1  0.50468100  0.40163000  0.01572700  1
  O  O51  1  0.86072600  0.06774400  0.58826100  1
  O  O52  1  0.37377100  0.13649600  0.07671900  1
  O  O53  1  0.84090100  0.53914000  0.63488100  1
  O  O54  1  0.97730800  0.63359400  0.86296900  1
  O  O55  1  0.73092000  0.66831400  0.16657800  1
  O  O56  1  0.34091800  0.35637400  0.51232700  1
  O  O57  1  0.98607700  0.84469400  0.74691900  1
  O  O58  1  0.80886000  0.88162800  0.25330300  1
  O  O59  1  0.59469600  0.14647900  0.87778500  1
  O  O60  1  0.00468100  0.90163000  0.48427300  1
  O  O61  1  0.36072600  0.56774400  0.91173900  1
  O  O62  1  0.34090100  0.03914000  0.86511900  1
  O  O63  1  0.23092000  0.16831400  0.33342200  1
