# generated using pymatgen
data_FeS4Br4N5
_symmetry_space_group_name_H-M   'P 1'
_cell_length_a   10.05176711
_cell_length_b   10.05176711
_cell_length_c   12.05006924
_cell_angle_alpha   89.00740772
_cell_angle_beta   89.00740772
_cell_angle_gamma   138.39926203
_symmetry_Int_Tables_number   1
_chemical_formula_structural   FeS4Br4N5
_chemical_formula_sum   'Fe2 S8 Br8 N10'
_cell_volume   807.38957118
_cell_formula_units_Z   2
loop_
 _symmetry_equiv_pos_site_id
 _symmetry_equiv_pos_as_xyz
  1  'x, y, z'
loop_
 _atom_site_type_symbol
 _atom_site_label
 _atom_site_symmetry_multiplicity
 _atom_site_fract_x
 _atom_site_fract_y
 _atom_site_fract_z
 _atom_site_occupancy
  Fe  Fe0  1  0.92878900  0.56104800  0.80305300  1
  Fe  Fe1  1  0.56104800  0.92878900  0.30305300  1
  S  S2  1  0.25552200  0.35965900  0.11342000  1
  S  S3  1  0.35965900  0.25552200  0.61342000  1
  S  S4  1  0.59697900  0.46327300  0.09427200  1
  S  S5  1  0.46327300  0.59697900  0.59427200  1
  S  S6  1  0.36059700  0.28152300  0.28706700  1
  S  S7  1  0.28152300  0.36059700  0.78706700  1
  S  S8  1  0.21967300  0.06121100  0.10029100  1
  S  S9  1  0.06121100  0.21967300  0.60029100  1
  Br  Br10  1  0.16837200  0.63438100  0.90391400  1
  Br  Br11  1  0.63438100  0.16837200  0.40391400  1
  Br  Br12  1  0.09139500  0.67273600  0.59270200  1
  Br  Br13  1  0.67273600  0.09139500  0.09270200  1
  Br  Br14  1  0.63992600  0.22176700  0.79165200  1
  Br  Br15  1  0.22176700  0.63992600  0.29165200  1
  Br  Br16  1  0.89958100  0.76378000  0.82823700  1
  Br  Br17  1  0.76378000  0.89958100  0.32823700  1
  N  N18  1  0.69695900  0.98205400  0.99077200  1
  N  N19  1  0.98205400  0.69695900  0.49077200  1
  N  N20  1  0.48469800  0.51807800  0.06249100  1
  N  N21  1  0.51807800  0.48469800  0.56249100  1
  N  N22  1  0.58509600  0.44119000  0.22895100  1
  N  N23  1  0.44119000  0.58509600  0.72895100  1
  N  N24  1  0.23208100  0.06589700  0.23477600  1
  N  N25  1  0.06589700  0.23208100  0.73477600  1
  N  N26  1  0.13080700  0.14092900  0.06809900  1
  N  N27  1  0.14092900  0.13080700  0.56809900  1
