# generated using pymatgen
data_LaH6S3(NO3)3
_symmetry_space_group_name_H-M   'P 1'
_cell_length_a   6.07938000
_cell_length_b   9.86825780
_cell_length_c   9.87367380
_cell_angle_alpha   119.90601151
_cell_angle_beta   90.62997373
_cell_angle_gamma   89.72363588
_symmetry_Int_Tables_number   1
_chemical_formula_structural   LaH6S3(NO3)3
_chemical_formula_sum   'La2 H12 S6 N6 O18'
_cell_volume   513.44430816
_cell_formula_units_Z   2
loop_
 _symmetry_equiv_pos_site_id
 _symmetry_equiv_pos_as_xyz
  1  'x, y, z'
loop_
 _atom_site_type_symbol
 _atom_site_label
 _atom_site_symmetry_multiplicity
 _atom_site_fract_x
 _atom_site_fract_y
 _atom_site_fract_z
 _atom_site_occupancy
  La  La0  1  0.24921100  0.33312000  0.66665700  1
  La  La1  1  0.74897400  0.66689700  0.33326700  1
  H  H2  1  0.62961700  0.79966200  0.88714500  1
  H  H3  1  0.76849400  0.67039000  0.73280700  1
  H  H4  1  0.73042900  0.26649800  0.93691500  1
  H  H5  1  0.87374400  0.11200200  0.91080500  1
  H  H6  1  0.13266200  0.90104600  0.80062800  1
  H  H7  1  0.27370900  0.93844500  0.67770300  1
  H  H8  1  0.73026100  0.06238900  0.32707700  1
  H  H9  1  0.87289500  0.09309700  0.20264000  1
  H  H10  1  0.36879800  0.89670600  0.09798300  1
  H  H11  1  0.22462100  0.73762000  0.06166900  1
  H  H12  1  0.23109100  0.32517800  0.26272900  1
  H  H13  1  0.37528700  0.20163300  0.10708200  1
  S  S14  1  0.75004700  0.59868200  0.91351000  1
  S  S15  1  0.75137000  0.08645100  0.68461900  1
  S  S16  1  0.74779300  0.31545500  0.40147500  1
  S  S17  1  0.25121700  0.68262400  0.59737800  1
  S  S18  1  0.24917900  0.91447100  0.31689100  1
  S  S19  1  0.24872500  0.40167700  0.08514600  1
  N  N20  1  0.76355600  0.72778600  0.85258400  1
  N  N21  1  0.73844200  0.14673900  0.87405200  1
  N  N22  1  0.26615000  0.87072500  0.72950700  1
  N  N23  1  0.73525100  0.12577700  0.27036700  1
  N  N24  1  0.23399700  0.85705800  0.12843900  1
  N  N25  1  0.23715800  0.26998700  0.14307800  1
  O  O26  1  0.94935800  0.50484300  0.85312300  1
  O  O27  1  0.54961200  0.50292000  0.85364200  1
  O  O28  1  0.25217900  0.60636800  0.69216300  1
  O  O29  1  0.24845500  0.30695300  0.91472800  1
  O  O30  1  0.55027800  0.34677400  0.49517600  1
  O  O31  1  0.95013600  0.35116000  0.49637700  1
  O  O32  1  0.55102100  0.14784200  0.65189000  1
  O  O33  1  0.95083100  0.14575700  0.64836700  1
  O  O34  1  0.75558200  0.91521100  0.61036200  1
  O  O35  1  0.24936200  0.08509600  0.39198600  1
  O  O36  1  0.05125600  0.84997900  0.34726000  1
  O  O37  1  0.45176100  0.85619800  0.35361100  1
  O  O38  1  0.04871700  0.64749300  0.50264700  1
  O  O39  1  0.44892000  0.65181500  0.50284600  1
  O  O40  1  0.74718100  0.69542400  0.08461600  1
  O  O41  1  0.74756300  0.39103900  0.30548200  1
  O  O42  1  0.44998300  0.49692700  0.14532400  1
  O  O43  1  0.04972900  0.49608400  0.14824700  1
