# generated using pymatgen
data_Li2FeP2O7
_symmetry_space_group_name_H-M   'P 1'
_cell_length_a   5.10209915
_cell_length_b   12.84484460
_cell_length_c   8.50438959
_cell_angle_alpha   79.87484299
_cell_angle_beta   88.64372110
_cell_angle_gamma   88.31190977
_symmetry_Int_Tables_number   1
_chemical_formula_structural   Li2FeP2O7
_chemical_formula_sum   'Li8 Fe4 P8 O28'
_cell_volume   548.32594579
_cell_formula_units_Z   4
loop_
 _symmetry_equiv_pos_site_id
 _symmetry_equiv_pos_as_xyz
  1  'x, y, z'
loop_
 _atom_site_type_symbol
 _atom_site_label
 _atom_site_symmetry_multiplicity
 _atom_site_fract_x
 _atom_site_fract_y
 _atom_site_fract_z
 _atom_site_occupancy
  Li  Li0  1  0.23121900  0.68314300  0.88123000  1
  Li  Li1  1  0.23063100  0.18325900  0.38130700  1
  Li  Li2  1  0.76911100  0.31670200  0.11861400  1
  Li  Li3  1  0.76862100  0.81681900  0.61886000  1
  Li  Li4  1  0.29378700  0.91825000  0.07728200  1
  Li  Li5  1  0.29341100  0.41804400  0.57732700  1
  Li  Li6  1  0.70659500  0.08197000  0.92263500  1
  Li  Li7  1  0.70637100  0.58177000  0.42269500  1
  Fe  Fe8  1  0.76664200  0.02072700  0.25886100  1
  Fe  Fe9  1  0.23341000  0.47924700  0.24115100  1
  Fe  Fe10  1  0.76669900  0.52078500  0.75880300  1
  Fe  Fe11  1  0.23345900  0.97917500  0.74118800  1
  P  P12  1  0.21923400  0.14750800  0.03154200  1
  P  P13  1  0.21905400  0.64738100  0.53150500  1
  P  P14  1  0.78101600  0.85262600  0.96853100  1
  P  P15  1  0.78081300  0.35250600  0.46839700  1
  P  P16  1  0.71793000  0.62433300  0.07352900  1
  P  P17  1  0.71749900  0.12421600  0.57357500  1
  P  P18  1  0.28242300  0.37577400  0.92642000  1
  P  P19  1  0.28203900  0.87567000  0.42652200  1
  O  O20  1  0.07850000  0.85065900  0.93180900  1
  O  O21  1  0.07836800  0.35042400  0.43187100  1
  O  O22  1  0.92168500  0.14961300  0.06799500  1
  O  O23  1  0.92153800  0.64933100  0.56817400  1
  O  O24  1  0.28186800  0.25279000  0.90272200  1
  O  O25  1  0.28118000  0.75267700  0.40269500  1
  O  O26  1  0.71896300  0.74732600  0.09732500  1
  O  O27  1  0.71834600  0.24720300  0.59721200  1
  O  O28  1  0.57318800  0.40251700  0.92931400  1
  O  O29  1  0.57281800  0.90232200  0.42957500  1
  O  O30  1  0.42707700  0.59774400  0.07058500  1
  O  O31  1  0.42667400  0.09754900  0.57075100  1
  O  O32  1  0.61261400  0.35580100  0.32122400  1
  O  O33  1  0.61251100  0.85591900  0.82147800  1
  O  O34  1  0.38745500  0.64411600  0.67860300  1
  O  O35  1  0.38740000  0.14423900  0.17872700  1
  O  O36  1  0.85924400  0.56481700  0.21995900  1
  O  O37  1  0.85905300  0.06474700  0.71991900  1
  O  O38  1  0.14088900  0.43519800  0.78002700  1
  O  O39  1  0.14079900  0.93517500  0.28004800  1
  O  O40  1  0.69656100  0.43952900  0.56468000  1
  O  O41  1  0.69681700  0.93966600  0.06484700  1
  O  O42  1  0.30332500  0.56034700  0.43520900  1
  O  O43  1  0.30354200  0.06046200  0.93530800  1
  O  O44  1  0.13464400  0.37967300  0.08504600  1
  O  O45  1  0.13409100  0.87951100  0.58511400  1
  O  O46  1  0.86575700  0.62044800  0.91491500  1
  O  O47  1  0.86513000  0.12029200  0.41489300  1
