# generated using pymatgen
data_Fe3(PO6)2
_symmetry_space_group_name_H-M   'P 1'
_cell_length_a   4.56157900
_cell_length_b   8.68332900
_cell_length_c   10.65010848
_cell_angle_alpha   75.10343004
_cell_angle_beta   90.00000000
_cell_angle_gamma   90.00000000
_symmetry_Int_Tables_number   1
_chemical_formula_structural   Fe3(PO6)2
_chemical_formula_sum   'Fe6 P4 O24'
_cell_volume   407.66983409
_cell_formula_units_Z   2
loop_
 _symmetry_equiv_pos_site_id
 _symmetry_equiv_pos_as_xyz
  1  'x, y, z'
loop_
 _atom_site_type_symbol
 _atom_site_label
 _atom_site_symmetry_multiplicity
 _atom_site_fract_x
 _atom_site_fract_y
 _atom_site_fract_z
 _atom_site_occupancy
  Fe  Fe0  1  0.50000000  0.00000000  0.50000000  1
  Fe  Fe1  1  0.00000000  0.00000000  0.00000000  1
  Fe  Fe2  1  0.42543300  0.65956000  0.68024400  1
  Fe  Fe3  1  0.92543300  0.34044000  0.81975600  1
  Fe  Fe4  1  0.57456700  0.34044000  0.31975600  1
  Fe  Fe5  1  0.07456700  0.65956000  0.18024400  1
  P  P6  1  0.48736800  0.76534600  0.94478700  1
  P  P7  1  0.98736800  0.23465400  0.55521300  1
  P  P8  1  0.51263200  0.23465400  0.05521300  1
  P  P9  1  0.01263200  0.76534600  0.44478700  1
  O  O10  1  0.73918800  0.79574300  0.52444100  1
  O  O11  1  0.23918800  0.20425700  0.97555900  1
  O  O12  1  0.26081200  0.20425700  0.47555900  1
  O  O13  1  0.76081200  0.79574300  0.02444100  1
  O  O14  1  0.30246900  0.91887900  0.89515800  1
  O  O15  1  0.80246900  0.08112100  0.60484200  1
  O  O16  1  0.69753100  0.08112100  0.10484200  1
  O  O17  1  0.19753100  0.91887900  0.39515800  1
  O  O18  1  0.61688300  0.71019700  0.82836700  1
  O  O19  1  0.11688300  0.28980300  0.67163300  1
  O  O20  1  0.38311700  0.28980300  0.17163300  1
  O  O21  1  0.88311700  0.71019700  0.32836700  1
  O  O22  1  0.20232300  0.62977100  0.53111600  1
  O  O23  1  0.70232300  0.37022900  0.96888400  1
  O  O24  1  0.79767700  0.37022900  0.46888400  1
  O  O25  1  0.29767700  0.62977100  0.03111600  1
  O  O26  1  0.29579400  0.87254300  0.64231900  1
  O  O27  1  0.79579400  0.12745700  0.85768100  1
  O  O28  1  0.70420600  0.12745700  0.35768100  1
  O  O29  1  0.20420600  0.87254300  0.14231900  1
  O  O30  1  0.13552600  0.53062400  0.79760300  1
  O  O31  1  0.63552600  0.46937600  0.70239700  1
  O  O32  1  0.86447400  0.46937600  0.20239700  1
  O  O33  1  0.36447400  0.53062400  0.29760300  1
