# generated using pymatgen
data_NaSr8NdTi10O30
_symmetry_space_group_name_H-M   'P 1'
_cell_length_a   5.55392000
_cell_length_b   5.55392000
_cell_length_c   39.36908600
_cell_angle_alpha   90.00000000
_cell_angle_beta   90.00000000
_cell_angle_gamma   90.00000000
_symmetry_Int_Tables_number   1
_chemical_formula_structural   NaSr8NdTi10O30
_chemical_formula_sum   'Na2 Sr16 Nd2 Ti20 O60'
_cell_volume   1214.37990415
_cell_formula_units_Z   2
loop_
 _symmetry_equiv_pos_site_id
 _symmetry_equiv_pos_as_xyz
  1  'x, y, z'
loop_
 _atom_site_type_symbol
 _atom_site_label
 _atom_site_symmetry_multiplicity
 _atom_site_fract_x
 _atom_site_fract_y
 _atom_site_fract_z
 _atom_site_occupancy
  Na  Na0  1  0.00000000  0.50000000  0.54955900  1
  Na  Na1  1  0.50000000  0.00000000  0.45044100  1
  Sr  Sr2  1  0.50000000  0.00000000  0.35068300  1
  Sr  Sr3  1  0.00000000  0.50000000  0.25003500  1
  Sr  Sr4  1  0.00000000  0.50000000  0.35047800  1
  Sr  Sr5  1  0.50000000  0.00000000  0.14999900  1
  Sr  Sr6  1  0.50000000  0.00000000  0.25011000  1
  Sr  Sr7  1  0.00000000  0.50000000  0.04999600  1
  Sr  Sr8  1  0.00000000  0.50000000  0.14999700  1
  Sr  Sr9  1  0.50000000  0.00000000  0.95000400  1
  Sr  Sr10  1  0.50000000  0.00000000  0.04999600  1
  Sr  Sr11  1  0.00000000  0.50000000  0.85000100  1
  Sr  Sr12  1  0.00000000  0.50000000  0.95000400  1
  Sr  Sr13  1  0.50000000  0.00000000  0.74996500  1
  Sr  Sr14  1  0.50000000  0.00000000  0.85000300  1
  Sr  Sr15  1  0.00000000  0.50000000  0.64931700  1
  Sr  Sr16  1  0.00000000  0.50000000  0.74989000  1
  Sr  Sr17  1  0.50000000  0.00000000  0.64952200  1
  Nd  Nd18  1  0.50000000  0.00000000  0.54987300  1
  Nd  Nd19  1  0.00000000  0.50000000  0.45012700  1
  Ti  Ti20  1  0.00000000  0.00000000  0.50000000  1
  Ti  Ti21  1  0.50000000  0.50000000  0.40156900  1
  Ti  Ti22  1  0.50000000  0.50000000  0.50000000  1
  Ti  Ti23  1  0.00000000  0.00000000  0.30043300  1
  Ti  Ti24  1  0.00000000  0.00000000  0.40156900  1
  Ti  Ti25  1  0.50000000  0.50000000  0.20006700  1
  Ti  Ti26  1  0.50000000  0.50000000  0.30043300  1
  Ti  Ti27  1  0.00000000  0.00000000  0.10000200  1
  Ti  Ti28  1  0.00000000  0.00000000  0.20006700  1
  Ti  Ti29  1  0.50000000  0.50000000  0.00000000  1
  Ti  Ti30  1  0.50000000  0.50000000  0.10000200  1
  Ti  Ti31  1  0.00000000  0.00000000  0.89999800  1
  Ti  Ti32  1  0.00000000  0.00000000  0.00000000  1
  Ti  Ti33  1  0.50000000  0.50000000  0.79993300  1
  Ti  Ti34  1  0.50000000  0.50000000  0.89999800  1
  Ti  Ti35  1  0.00000000  0.00000000  0.69956700  1
  Ti  Ti36  1  0.00000000  0.00000000  0.79993300  1
  Ti  Ti37  1  0.50000000  0.50000000  0.59843100  1
  Ti  Ti38  1  0.50000000  0.50000000  0.69956700  1
  Ti  Ti39  1  0.00000000  0.00000000  0.59843100  1
  O  O40  1  0.00000000  0.00000000  0.54955600  1
  O  O41  1  0.71935200  0.21935200  0.50152700  1
  O  O42  1  0.21935200  0.28064800  0.49847300  1
  O  O43  1  0.50000000  0.50000000  0.45044400  1
  O  O44  1  0.50000000  0.50000000  0.54955600  1
  O  O45  1  0.22001900  0.72001900  0.40249900  1
  O  O46  1  0.78064800  0.71935200  0.49847300  1
  O  O47  1  0.73565000  0.76435000  0.40096000  1
  O  O48  1  0.28064800  0.78064800  0.50152700  1
  O  O49  1  0.00000000  0.00000000  0.35070200  1
  O  O50  1  0.00000000  0.00000000  0.45044400  1
  O  O51  1  0.73418800  0.23418800  0.30036100  1
  O  O52  1  0.26435000  0.23565000  0.40096000  1
  O  O53  1  0.23477600  0.26522400  0.30011100  1
  O  O54  1  0.77998100  0.27998100  0.40249900  1
  O  O55  1  0.50000000  0.50000000  0.25015300  1
  O  O56  1  0.50000000  0.50000000  0.35070200  1
  O  O57  1  0.23456400  0.73456400  0.20003400  1
  O  O58  1  0.76522400  0.73477600  0.30011100  1
  O  O59  1  0.73462200  0.76537800  0.20001700  1
  O  O60  1  0.26581200  0.76581200  0.30036100  1
  O  O61  1  0.00000000  0.00000000  0.15003700  1
  O  O62  1  0.00000000  0.00000000  0.25015300  1
  O  O63  1  0.73457600  0.23457600  0.10000000  1
  O  O64  1  0.26537800  0.23462200  0.20001700  1
  O  O65  1  0.23460700  0.26539300  0.09999900  1
  O  O66  1  0.76543600  0.26543600  0.20003400  1
  O  O67  1  0.50000000  0.50000000  0.05000600  1
  O  O68  1  0.50000000  0.50000000  0.15003700  1
  O  O69  1  0.23457600  0.73457600  0.00000000  1
  O  O70  1  0.76539300  0.73460700  0.09999900  1
  O  O71  1  0.73457600  0.76542400  0.00000000  1
  O  O72  1  0.26542400  0.76542400  0.10000000  1
  O  O73  1  0.00000000  0.00000000  0.94999400  1
  O  O74  1  0.00000000  0.00000000  0.05000600  1
  O  O75  1  0.73460700  0.23460700  0.90000100  1
  O  O76  1  0.26542400  0.23457600  0.00000000  1
  O  O77  1  0.23457600  0.26542400  0.90000000  1
  O  O78  1  0.76542400  0.26542400  0.00000000  1
  O  O79  1  0.50000000  0.50000000  0.84996300  1
  O  O80  1  0.50000000  0.50000000  0.94999400  1
  O  O81  1  0.23462200  0.73462200  0.79998300  1
  O  O82  1  0.76542400  0.73457600  0.90000000  1
  O  O83  1  0.73456400  0.76543600  0.79996600  1
  O  O84  1  0.26539300  0.76539300  0.90000100  1
  O  O85  1  0.00000000  0.00000000  0.74984700  1
  O  O86  1  0.00000000  0.00000000  0.84996300  1
  O  O87  1  0.73477600  0.23477600  0.69988900  1
  O  O88  1  0.26543600  0.23456400  0.79996600  1
  O  O89  1  0.23418800  0.26581200  0.69963900  1
  O  O90  1  0.76537800  0.26537800  0.79998300  1
  O  O91  1  0.50000000  0.50000000  0.64929800  1
  O  O92  1  0.50000000  0.50000000  0.74984700  1
  O  O93  1  0.23565000  0.73565000  0.59904000  1
  O  O94  1  0.76581200  0.73418800  0.69963900  1
  O  O95  1  0.72001900  0.77998100  0.59750100  1
  O  O96  1  0.26522400  0.76522400  0.69988900  1
  O  O97  1  0.00000000  0.00000000  0.64929800  1
  O  O98  1  0.27998100  0.22001900  0.59750100  1
  O  O99  1  0.76435000  0.26435000  0.59904000  1
