# generated using pymatgen
data_KH2Au(Cl2O)2
_symmetry_space_group_name_H-M   'P 1'
_cell_length_a   7.39974400
_cell_length_b   9.41401500
_cell_length_c   12.30692200
_cell_angle_alpha   90.00000000
_cell_angle_beta   90.00000000
_cell_angle_gamma   90.00000000
_symmetry_Int_Tables_number   1
_chemical_formula_structural   KH2Au(Cl2O)2
_chemical_formula_sum   'K4 H8 Au4 Cl16 O8'
_cell_volume   857.31619798
_cell_formula_units_Z   4
loop_
 _symmetry_equiv_pos_site_id
 _symmetry_equiv_pos_as_xyz
  1  'x, y, z'
loop_
 _atom_site_type_symbol
 _atom_site_label
 _atom_site_symmetry_multiplicity
 _atom_site_fract_x
 _atom_site_fract_y
 _atom_site_fract_z
 _atom_site_occupancy
  K  K0  1  0.75000000  0.88593800  0.50000000  1
  K  K1  1  0.25000000  0.61406200  0.00000000  1
  K  K2  1  0.25000000  0.11406200  0.50000000  1
  K  K3  1  0.75000000  0.38593800  0.00000000  1
  H  H4  1  0.95953300  0.54018800  0.21856800  1
  H  H5  1  0.45953300  0.95981200  0.28143200  1
  H  H6  1  0.04046700  0.95981200  0.71856800  1
  H  H7  1  0.54046700  0.54018800  0.78143200  1
  H  H8  1  0.04046700  0.45981200  0.78143200  1
  H  H9  1  0.54046700  0.04018800  0.71856800  1
  H  H10  1  0.95953300  0.04018800  0.28143200  1
  H  H11  1  0.45953300  0.45981200  0.21856800  1
  Au  Au12  1  0.75000000  0.91754500  0.00000000  1
  Au  Au13  1  0.25000000  0.58245500  0.50000000  1
  Au  Au14  1  0.25000000  0.08245500  0.00000000  1
  Au  Au15  1  0.75000000  0.41754500  0.50000000  1
  Cl  Cl16  1  0.66645500  0.58971500  0.37580200  1
  Cl  Cl17  1  0.16645500  0.91028500  0.12419800  1
  Cl  Cl18  1  0.33354500  0.91028500  0.87580200  1
  Cl  Cl19  1  0.83354500  0.58971500  0.62419800  1
  Cl  Cl20  1  0.33354500  0.41028500  0.62419800  1
  Cl  Cl21  1  0.83354500  0.08971500  0.87580200  1
  Cl  Cl22  1  0.66645500  0.08971500  0.12419800  1
  Cl  Cl23  1  0.16645500  0.41028500  0.37580200  1
  Cl  Cl24  1  0.67275700  0.74409900  0.12667500  1
  Cl  Cl25  1  0.17275700  0.75590100  0.37332500  1
  Cl  Cl26  1  0.32724300  0.75590100  0.62667500  1
  Cl  Cl27  1  0.82724300  0.74409900  0.87332500  1
  Cl  Cl28  1  0.32724300  0.25590100  0.87332500  1
  Cl  Cl29  1  0.82724300  0.24409900  0.62667500  1
  Cl  Cl30  1  0.67275700  0.24409900  0.37332500  1
  Cl  Cl31  1  0.17275700  0.25590100  0.12667500  1
  O  O32  1  0.95715200  0.53804100  0.13865100  1
  O  O33  1  0.45715200  0.96195900  0.36134900  1
  O  O34  1  0.04284800  0.96195900  0.63865100  1
  O  O35  1  0.54284800  0.53804100  0.86134900  1
  O  O36  1  0.04284800  0.46195900  0.86134900  1
  O  O37  1  0.54284800  0.03804100  0.63865100  1
  O  O38  1  0.95715200  0.03804100  0.36134900  1
  O  O39  1  0.45715200  0.46195900  0.13865100  1
