# generated using pymatgen
data_La2S3O16
_symmetry_space_group_name_H-M   'P 1'
_cell_length_a   7.29712400
_cell_length_b   12.77518000
_cell_length_c   18.59368771
_cell_angle_alpha   49.81960712
_cell_angle_beta   90.00000000
_cell_angle_gamma   90.00000000
_symmetry_Int_Tables_number   1
_chemical_formula_structural   La2S3O16
_chemical_formula_sum   'La8 S12 O64'
_cell_volume   1324.30260190
_cell_formula_units_Z   4
loop_
 _symmetry_equiv_pos_site_id
 _symmetry_equiv_pos_as_xyz
  1  'x, y, z'
loop_
 _atom_site_type_symbol
 _atom_site_label
 _atom_site_symmetry_multiplicity
 _atom_site_fract_x
 _atom_site_fract_y
 _atom_site_fract_z
 _atom_site_occupancy
  La  La0  1  0.87092500  0.23507400  0.08162200  1
  La  La1  1  0.62907500  0.23507400  0.58162200  1
  La  La2  1  0.12907500  0.76492600  0.91837800  1
  La  La3  1  0.37092500  0.76492600  0.41837800  1
  La  La4  1  0.08723600  0.16494900  0.31390000  1
  La  La5  1  0.41276400  0.16494900  0.81390000  1
  La  La6  1  0.91276400  0.83505100  0.68610000  1
  La  La7  1  0.58723600  0.83505100  0.18610000  1
  S  S8  1  0.62366300  0.18701200  0.94847900  1
  S  S9  1  0.87633700  0.18701200  0.44847900  1
  S  S10  1  0.37633700  0.81298800  0.05152100  1
  S  S11  1  0.12366300  0.81298800  0.55152100  1
  S  S12  1  0.81662900  0.46274100  0.09972500  1
  S  S13  1  0.68337100  0.46274100  0.59972500  1
  S  S14  1  0.18337100  0.53725900  0.90027500  1
  S  S15  1  0.31662900  0.53725900  0.40027500  1
  S  S16  1  0.87710700  0.90860800  0.30494800  1
  S  S17  1  0.62289300  0.90860800  0.80494800  1
  S  S18  1  0.12289300  0.09139200  0.69505200  1
  S  S19  1  0.37710700  0.09139200  0.19505200  1
  O  O20  1  0.71015800  0.84156800  0.36197600  1
  O  O21  1  0.78984200  0.84156800  0.86197600  1
  O  O22  1  0.28984200  0.15843200  0.63802400  1
  O  O23  1  0.21015800  0.15843200  0.13802400  1
  O  O24  1  0.85366000  0.93697600  0.21291200  1
  O  O25  1  0.64634000  0.93697600  0.71291200  1
  O  O26  1  0.14634000  0.06302400  0.78708800  1
  O  O27  1  0.35366000  0.06302400  0.28708800  1
  O  O28  1  0.89745300  0.05041600  0.27527500  1
  O  O29  1  0.60254700  0.05041600  0.77527500  1
  O  O30  1  0.10254700  0.94958400  0.72472500  1
  O  O31  1  0.39745300  0.94958400  0.22472500  1
  O  O32  1  0.04344500  0.82868900  0.35424700  1
  O  O33  1  0.45655500  0.82868900  0.85424700  1
  O  O34  1  0.95655500  0.17131100  0.64575300  1
  O  O35  1  0.54344500  0.17131100  0.14575300  1
  O  O36  1  0.42220900  0.20129700  0.93345700  1
  O  O37  1  0.07779100  0.20129700  0.43345700  1
  O  O38  1  0.57779100  0.79870300  0.06654300  1
  O  O39  1  0.92220900  0.79870300  0.56654300  1
  O  O40  1  0.70903000  0.30158300  0.93709000  1
  O  O41  1  0.79097000  0.30158300  0.43709000  1
  O  O42  1  0.29097000  0.69841700  0.06291000  1
  O  O43  1  0.20903000  0.69841700  0.56291000  1
  O  O44  1  0.66917600  0.06047900  0.04793200  1
  O  O45  1  0.83082400  0.06047900  0.54793200  1
  O  O46  1  0.33082400  0.93952100  0.95206800  1
  O  O47  1  0.16917600  0.93952100  0.45206800  1
  O  O48  1  0.69780000  0.17144500  0.88078400  1
  O  O49  1  0.80220000  0.17144500  0.38078400  1
  O  O50  1  0.30220000  0.82855500  0.11921600  1
  O  O51  1  0.19780000  0.82855500  0.61921600  1
  O  O52  1  0.93508100  0.58697000  0.04627300  1
  O  O53  1  0.56491900  0.58697000  0.54627300  1
  O  O54  1  0.06491900  0.41303000  0.95372700  1
  O  O55  1  0.43508100  0.41303000  0.45372700  1
  O  O56  1  0.94764200  0.33467900  0.16142900  1
  O  O57  1  0.55235800  0.33467900  0.66142900  1
  O  O58  1  0.05235800  0.66532100  0.83857100  1
  O  O59  1  0.44764200  0.66532100  0.33857100  1
  O  O60  1  0.68617200  0.45936700  0.15892100  1
  O  O61  1  0.81382800  0.45936700  0.65892100  1
  O  O62  1  0.31382800  0.54063300  0.84107900  1
  O  O63  1  0.18617200  0.54063300  0.34107900  1
  O  O64  1  0.73692300  0.44364200  0.03452400  1
  O  O65  1  0.76307700  0.44364200  0.53452400  1
  O  O66  1  0.26307700  0.55635800  0.96547600  1
  O  O67  1  0.23692300  0.55635800  0.46547600  1
  O  O68  1  0.31443100  0.40056800  0.19543200  1
  O  O69  1  0.18556900  0.40056800  0.69543200  1
  O  O70  1  0.68556900  0.59943200  0.80456800  1
  O  O71  1  0.81443100  0.59943200  0.30456800  1
  O  O72  1  0.05899900  0.13699800  0.97994000  1
  O  O73  1  0.44100100  0.13699800  0.47994000  1
  O  O74  1  0.94100100  0.86300200  0.02006000  1
  O  O75  1  0.55899900  0.86300200  0.52006000  1
  O  O76  1  0.21528600  0.44366200  0.22530600  1
  O  O77  1  0.28471400  0.44366200  0.72530600  1
  O  O78  1  0.78471400  0.55633800  0.77469400  1
  O  O79  1  0.71528600  0.55633800  0.27469400  1
  O  O80  1  0.43302300  0.19745600  0.39514900  1
  O  O81  1  0.06697700  0.19745600  0.89514900  1
  O  O82  1  0.56697700  0.80254400  0.60485100  1
  O  O83  1  0.93302300  0.80254400  0.10485100  1
