# generated using pymatgen
data_H12AuC4N
_symmetry_space_group_name_H-M   'P 1'
_cell_length_a   7.83300800
_cell_length_b   7.83300800
_cell_length_c   5.48769300
_cell_angle_alpha   90.00000000
_cell_angle_beta   90.00000000
_cell_angle_gamma   90.00000000
_symmetry_Int_Tables_number   1
_chemical_formula_structural   H12AuC4N
_chemical_formula_sum   'H24 Au2 C8 N2'
_cell_volume   336.70297034
_cell_formula_units_Z   2
loop_
 _symmetry_equiv_pos_site_id
 _symmetry_equiv_pos_as_xyz
  1  'x, y, z'
loop_
 _atom_site_type_symbol
 _atom_site_label
 _atom_site_symmetry_multiplicity
 _atom_site_fract_x
 _atom_site_fract_y
 _atom_site_fract_z
 _atom_site_occupancy
  H  H0  1  0.11504600  0.84213600  0.26937000  1
  H  H1  1  0.11504600  0.15786400  0.26937000  1
  H  H2  1  0.88495400  0.84213600  0.26937000  1
  H  H3  1  0.88495400  0.15786400  0.26937000  1
  H  H4  1  0.34213600  0.61504600  0.26937000  1
  H  H5  1  0.34213600  0.38495400  0.26937000  1
  H  H6  1  0.65786400  0.61504600  0.26937000  1
  H  H7  1  0.65786400  0.38495400  0.26937000  1
  H  H8  1  0.38495400  0.65786400  0.73063000  1
  H  H9  1  0.38495400  0.34213600  0.73063000  1
  H  H10  1  0.61504600  0.65786400  0.73063000  1
  H  H11  1  0.61504600  0.34213600  0.73063000  1
  H  H12  1  0.15786400  0.88495400  0.73063000  1
  H  H13  1  0.15786400  0.11504600  0.73063000  1
  H  H14  1  0.84213600  0.88495400  0.73063000  1
  H  H15  1  0.84213600  0.11504600  0.73063000  1
  H  H16  1  0.00000000  0.73059200  0.03289200  1
  H  H17  1  0.00000000  0.26940800  0.03289200  1
  H  H18  1  0.23059200  0.50000000  0.03289200  1
  H  H19  1  0.76940800  0.50000000  0.03289200  1
  H  H20  1  0.50000000  0.76940800  0.96710800  1
  H  H21  1  0.50000000  0.23059200  0.96710800  1
  H  H22  1  0.26940800  0.00000000  0.96710800  1
  H  H23  1  0.73059200  0.00000000  0.96710800  1
  Au  Au24  1  0.00000000  0.50000000  0.63674900  1
  Au  Au25  1  0.50000000  0.00000000  0.36325100  1
  C  C26  1  0.00000000  0.84188800  0.15529500  1
  C  C27  1  0.00000000  0.15811200  0.15529500  1
  C  C28  1  0.34188800  0.50000000  0.15529500  1
  C  C29  1  0.65811200  0.50000000  0.15529500  1
  C  C30  1  0.50000000  0.65811200  0.84470500  1
  C  C31  1  0.50000000  0.34188800  0.84470500  1
  C  C32  1  0.15811200  0.00000000  0.84470500  1
  C  C33  1  0.84188800  0.00000000  0.84470500  1
  N  N34  1  0.00000000  0.00000000  0.00000000  1
  N  N35  1  0.50000000  0.50000000  0.00000000  1
