# generated using pymatgen
data_SbH2(NF2)3
_symmetry_space_group_name_H-M   'P 1'
_cell_length_a   5.29493900
_cell_length_b   6.62752500
_cell_length_c   10.32176500
_cell_angle_alpha   90.00000000
_cell_angle_beta   90.00000000
_cell_angle_gamma   90.00000000
_symmetry_Int_Tables_number   1
_chemical_formula_structural   SbH2(NF2)3
_chemical_formula_sum   'Sb2 H4 N6 F12'
_cell_volume   362.21489293
_cell_formula_units_Z   2
loop_
 _symmetry_equiv_pos_site_id
 _symmetry_equiv_pos_as_xyz
  1  'x, y, z'
loop_
 _atom_site_type_symbol
 _atom_site_label
 _atom_site_symmetry_multiplicity
 _atom_site_fract_x
 _atom_site_fract_y
 _atom_site_fract_z
 _atom_site_occupancy
  Sb  Sb0  1  0.83451600  0.00000000  0.69042100  1
  Sb  Sb1  1  0.16548400  0.00000000  0.19042100  1
  H  H2  1  0.28906000  0.15518300  0.55935800  1
  H  H3  1  0.28906000  0.84481700  0.55935800  1
  H  H4  1  0.71094000  0.84481700  0.05935800  1
  H  H5  1  0.71094000  0.15518300  0.05935800  1
  N  N6  1  0.78147900  0.50000000  0.37511900  1
  N  N7  1  0.21852100  0.50000000  0.87511900  1
  N  N8  1  0.52564100  0.50000000  0.39758300  1
  N  N9  1  0.47435900  0.50000000  0.89758300  1
  N  N10  1  0.71784800  0.50000000  0.49423400  1
  N  N11  1  0.28215200  0.50000000  0.99423400  1
  F  F12  1  0.13870900  0.75350600  0.57371500  1
  F  F13  1  0.13870900  0.24649400  0.57371500  1
  F  F14  1  0.86129100  0.24649400  0.07371500  1
  F  F15  1  0.86129100  0.75350600  0.07371500  1
  F  F16  1  0.65781200  0.22040200  0.77699700  1
  F  F17  1  0.65781200  0.77959800  0.77699700  1
  F  F18  1  0.34218800  0.77959800  0.27699700  1
  F  F19  1  0.34218800  0.22040200  0.27699700  1
  F  F20  1  0.46837100  0.00000000  0.55134500  1
  F  F21  1  0.53162900  0.00000000  0.05134500  1
  F  F22  1  0.09842800  0.00000000  0.82245800  1
  F  F23  1  0.90157200  0.00000000  0.32245800  1
