# generated using pymatgen
data_Na17Zr12Si11P7O72
_symmetry_space_group_name_H-M   'P 1'
_cell_length_a   9.19908900
_cell_length_b   9.34811499
_cell_length_c   22.70376054
_cell_angle_alpha   91.01800973
_cell_angle_beta   90.15692677
_cell_angle_gamma   119.19439573
_symmetry_Int_Tables_number   1
_chemical_formula_structural   Na17Zr12Si11P7O72
_chemical_formula_sum   'Na17 Zr12 Si11 P7 O72'
_cell_volume   1703.96334049
_cell_formula_units_Z   1
loop_
 _symmetry_equiv_pos_site_id
 _symmetry_equiv_pos_as_xyz
  1  'x, y, z'
loop_
 _atom_site_type_symbol
 _atom_site_label
 _atom_site_symmetry_multiplicity
 _atom_site_fract_x
 _atom_site_fract_y
 _atom_site_fract_z
 _atom_site_occupancy
  Na  Na0  1  0.68751800  0.20931200  0.77552100  1
  Na  Na1  1  0.24634300  0.12080100  0.87616000  1
  Na  Na2  1  0.10373500  0.56244300  0.79554500  1
  Na  Na3  1  0.54914200  0.48455700  0.70500100  1
  Na  Na4  1  0.69971900  0.65137900  0.91723900  1
  Na  Na5  1  0.58101200  0.79180500  0.53719400  1
  Na  Na6  1  0.01616600  0.96979500  0.48555300  1
  Na  Na7  1  0.44332000  0.23879200  0.45722200  1
  Na  Na8  1  0.88165000  0.13690400  0.36800000  1
  Na  Na9  1  0.98689200  0.25695400  0.58493500  1
  Na  Na10  1  0.27234700  0.67342800  0.65283900  1
  Na  Na11  1  0.91890200  0.46791400  0.20301600  1
  Na  Na12  1  0.34916700  0.63570000  0.15213900  1
  Na  Na13  1  0.79624500  0.92515300  0.11264900  1
  Na  Na14  1  0.21866700  0.84561300  0.02937000  1
  Na  Na15  1  0.31474000  0.92250600  0.25284500  1
  Na  Na16  1  0.59599300  0.33911500  0.31766900  1
  Zr  Zr17  1  0.18157000  0.37441400  0.95573600  1
  Zr  Zr18  1  0.47804200  0.95083700  0.88297700  1
  Zr  Zr19  1  0.52400300  0.05078800  0.62133800  1
  Zr  Zr20  1  0.81585300  0.61856400  0.54716100  1
  Zr  Zr21  1  0.86612200  0.72726500  0.78141100  1
  Zr  Zr22  1  0.85552500  0.71715100  0.28969900  1
  Zr  Zr23  1  0.12622600  0.26211900  0.71660200  1
  Zr  Zr24  1  0.14892800  0.28355300  0.21595400  1
  Zr  Zr25  1  0.19856000  0.39914400  0.44907600  1
  Zr  Zr26  1  0.46205400  0.93009200  0.38191600  1
  Zr  Zr27  1  0.53409500  0.07052700  0.11770600  1
  Zr  Zr28  1  0.79634700  0.59666800  0.05036700  1
  Si  Si29  1  0.90396700  0.09830800  0.84388900  1
  Si  Si30  1  0.28442400  0.98796000  0.75004500  1
  Si  Si31  1  0.47112900  0.23530000  0.98688200  1
  Si  Si32  1  0.86566600  0.43242900  0.67872000  1
  Si  Si33  1  0.23587700  0.76770500  0.51176900  1
  Si  Si34  1  0.62362400  0.66144000  0.41558200  1
  Si  Si35  1  0.80097200  0.89586200  0.65077800  1
  Si  Si36  1  0.19549600  0.09861200  0.34805900  1
  Si  Si37  1  0.56998700  0.43935700  0.17859700  1
  Si  Si38  1  0.95477300  0.32982000  0.08505000  1
  Si  Si39  1  0.13154100  0.56211000  0.31855400  1
  P  P40  1  0.04599500  0.66973700  0.91625100  1
  P  P41  1  0.42551200  0.56408800  0.82342100  1
  P  P42  1  0.37834400  0.33875700  0.58276800  1
  P  P43  1  0.75992000  0.22942400  0.48678800  1
  P  P44  1  0.51857100  0.75696900  0.01413900  1
  P  P45  1  0.70782200  0.00003300  0.24814500  1
  P  P46  1  0.09479600  0.89417600  0.15466800  1
  O  O47  1  0.41955700  0.72494200  0.83483100  1
  O  O48  1  0.53472900  0.86292700  0.96044700  1
  O  O49  1  0.03295300  0.18942500  0.89828300  1
  O  O50  1  0.21112800  0.83306300  0.90877500  1
  O  O51  1  0.71623300  0.06738200  0.85542200  1
  O  O52  1  0.96847300  0.21561300  0.78508900  1
  O  O53  1  0.37160600  0.96011800  0.69156700  1
  O  O54  1  0.40785500  0.03236600  0.80786600  1
  O  O55  1  0.49272300  0.14629300  0.92749600  1
  O  O56  1  0.70983400  0.24530600  0.66844800  1
  O  O57  1  0.04440800  0.43092300  0.68480300  1
  O  O58  1  0.08436500  0.52679100  0.91944800  1
  O  O59  1  0.25075000  0.14438000  0.74258500  1
  O  O60  1  0.76648200  0.39552800  0.49885600  1
  O  O61  1  0.30361200  0.25009700  0.97655600  1
  O  O62  1  0.63427200  0.41640900  0.99655600  1
  O  O63  1  0.82199600  0.49647500  0.74108000  1
  O  O64  1  0.87702000  0.54043400  0.62176500  1
  O  O65  1  0.92432100  0.63509100  0.86325000  1
  O  O66  1  0.35486100  0.84405800  0.57046700  1
  O  O67  1  0.96366400  0.69076400  0.97340800  1
  O  O68  1  0.54124200  0.49693200  0.56840700  1
  O  O69  1  0.05488300  0.75617200  0.51970500  1
  O  O70  1  0.32792900  0.88612300  0.45580000  1
  O  O71  1  0.36172600  0.45458500  0.87761600  1
  O  O72  1  0.60564900  0.59614700  0.81107800  1
  O  O73  1  0.11047500  0.81699600  0.76043400  1
  O  O74  1  0.69524800  0.61302600  0.35754600  1
  O  O75  1  0.31804500  0.48262300  0.76622700  1
  O  O76  1  0.74590400  0.70931900  0.47343900  1
  O  O77  1  0.77880900  0.77616700  0.70591500  1
  O  O78  1  0.83123300  0.82438300  0.58820400  1
  O  O79  1  0.03592000  0.91776200  0.33410100  1
  O  O80  1  0.37348500  0.09547500  0.35383000  1
  O  O81  1  0.90212700  0.92467300  0.83083000  1
  O  O82  1  0.41643200  0.19615000  0.59091000  1
  O  O83  1  0.60026200  0.82270400  0.40442700  1
  O  O84  1  0.10682900  0.06194500  0.16865300  1
  O  O85  1  0.62889900  0.90492300  0.64062900  1
  O  O86  1  0.96049800  0.08140600  0.66196900  1
  O  O87  1  0.15796900  0.16634500  0.41102600  1
  O  O88  1  0.21389600  0.21447200  0.29248100  1
  O  O89  1  0.24630700  0.28761200  0.53158700  1
  O  O90  1  0.69051400  0.51324000  0.23674200  1
  O  O91  1  0.30538000  0.37272800  0.64030300  1
  O  O92  1  0.87404500  0.15598200  0.23523200  1
  O  O93  1  0.38724400  0.42177800  0.18848100  1
  O  O94  1  0.65453800  0.55798900  0.12235200  1
  O  O95  1  0.68318300  0.11622600  0.54014600  1
  O  O96  1  0.93552900  0.24434300  0.47847100  1
  O  O97  1  0.44353500  0.49869800  0.43069500  1
  O  O98  1  0.03008900  0.30302400  0.02422600  1
  O  O99  1  0.65758600  0.15705200  0.42859500  1
  O  O100  1  0.07936900  0.37153800  0.14178200  1
  O  O101  1  0.10912600  0.44323500  0.37432400  1
  O  O102  1  0.16143100  0.48904700  0.25649500  1
  O  O103  1  0.36337500  0.58734000  0.00529400  1
  O  O104  1  0.68264800  0.74783600  0.01955200  1
  O  O105  1  0.21766400  0.58543000  0.50102200  1
  O  O106  1  0.74011500  0.85547900  0.25915100  1
  O  O107  1  0.91937400  0.48581900  0.08154200  1
  O  O108  1  0.96129400  0.57280900  0.30839200  1
  O  O109  1  0.29182100  0.74707700  0.32982000  1
  O  O110  1  0.49342500  0.83382100  0.07265400  1
  O  O111  1  0.57940000  0.95026400  0.19572600  1
  O  O112  1  0.63056900  0.03856500  0.30374600  1
  O  O113  1  0.01974300  0.78001500  0.20790200  1
  O  O114  1  0.27029600  0.90835100  0.14480000  1
  O  O115  1  0.77707500  0.16240100  0.09813300  1
  O  O116  1  0.99054100  0.82548300  0.09675200  1
  O  O117  1  0.44514300  0.11761400  0.04362500  1
  O  O118  1  0.55514300  0.25740900  0.16738800  1
