# generated using pymatgen
data_FeBiO3
_symmetry_space_group_name_H-M   'P 1'
_cell_length_a   5.63378005
_cell_length_b   5.55340314
_cell_length_c   7.87630500
_cell_angle_alpha   90.00000000
_cell_angle_beta   90.00000000
_cell_angle_gamma   88.12752218
_symmetry_Int_Tables_number   1
_chemical_formula_structural   FeBiO3
_chemical_formula_sum   'Fe4 Bi4 O12'
_cell_volume   246.29162882
_cell_formula_units_Z   4
loop_
 _symmetry_equiv_pos_site_id
 _symmetry_equiv_pos_as_xyz
  1  'x, y, z'
loop_
 _atom_site_type_symbol
 _atom_site_label
 _atom_site_symmetry_multiplicity
 _atom_site_fract_x
 _atom_site_fract_y
 _atom_site_fract_z
 _atom_site_occupancy
  Fe  Fe0  1  0.98966500  0.48352300  0.25000000  1
  Fe  Fe1  1  0.51033500  0.01647700  0.75000000  1
  Fe  Fe2  1  0.01033500  0.51647700  0.75000000  1
  Fe  Fe3  1  0.48966500  0.98352300  0.25000000  1
  Bi  Bi4  1  0.50000000  0.50000000  0.50000000  1
  Bi  Bi5  1  0.50000000  0.50000000  0.00000000  1
  Bi  Bi6  1  0.00000000  0.00000000  0.00000000  1
  Bi  Bi7  1  0.00000000  0.00000000  0.50000000  1
  O  O8  1  0.24345400  0.71968000  0.25000000  1
  O  O9  1  0.00000000  0.50000000  0.50000000  1
  O  O10  1  0.00000000  0.50000000  0.00000000  1
  O  O11  1  0.74345400  0.21968100  0.25000000  1
  O  O12  1  0.50000000  0.00000000  0.00000000  1
  O  O13  1  0.50000000  0.00000000  0.50000000  1
  O  O14  1  0.25654600  0.78032000  0.75000000  1
  O  O15  1  0.75654600  0.28031900  0.75000000  1
  O  O16  1  0.79505300  0.80337800  0.75000000  1
  O  O17  1  0.70494700  0.69662200  0.25000000  1
  O  O18  1  0.29505300  0.30337800  0.75000000  1
  O  O19  1  0.20494700  0.19662200  0.25000000  1
