# generated using pymatgen
data_FeF3
_symmetry_space_group_name_H-M   'P 1'
_cell_length_a   5.23321600
_cell_length_b   5.23321600
_cell_length_c   6.98452400
_cell_angle_alpha   90.00000000
_cell_angle_beta   90.00000000
_cell_angle_gamma   120.00000001
_symmetry_Int_Tables_number   1
_chemical_formula_structural   FeF3
_chemical_formula_sum   'Fe3 F9'
_cell_volume   165.65508315
_cell_formula_units_Z   3
loop_
 _symmetry_equiv_pos_site_id
 _symmetry_equiv_pos_as_xyz
  1  'x, y, z'
loop_
 _atom_site_type_symbol
 _atom_site_label
 _atom_site_symmetry_multiplicity
 _atom_site_fract_x
 _atom_site_fract_y
 _atom_site_fract_z
 _atom_site_occupancy
  Fe  Fe0  1  0.66666700  0.33333300  0.33985800  1
  Fe  Fe1  1  0.00000000  0.00000000  0.00000000  1
  Fe  Fe2  1  0.33333300  0.66666700  0.66014200  1
  F  F3  1  0.91430300  0.66962200  0.17394700  1
  F  F4  1  0.24468000  0.33037800  0.82605300  1
  F  F5  1  0.33037800  0.24468000  0.17394700  1
  F  F6  1  0.60958600  0.60958600  0.50000000  1
  F  F7  1  0.08569700  0.75532000  0.82605300  1
  F  F8  1  0.39041400  0.00000000  0.50000000  1
  F  F9  1  0.75532000  0.08569700  0.17394700  1
  F  F10  1  0.00000000  0.39041400  0.50000000  1
  F  F11  1  0.66962200  0.91430300  0.82605300  1
