# generated using pymatgen
data_Er(ClO2)3
_symmetry_space_group_name_H-M   'P 1'
_cell_length_a   6.67415900
_cell_length_b   5.71607100
_cell_length_c   10.26869447
_cell_angle_alpha   73.17057713
_cell_angle_beta   90.00000000
_cell_angle_gamma   90.00000000
_symmetry_Int_Tables_number   1
_chemical_formula_structural   Er(ClO2)3
_chemical_formula_sum   'Er2 Cl6 O12'
_cell_volume   374.97205519
_cell_formula_units_Z   2
loop_
 _symmetry_equiv_pos_site_id
 _symmetry_equiv_pos_as_xyz
  1  'x, y, z'
loop_
 _atom_site_type_symbol
 _atom_site_label
 _atom_site_symmetry_multiplicity
 _atom_site_fract_x
 _atom_site_fract_y
 _atom_site_fract_z
 _atom_site_occupancy
  Er  Er0  1  0.33749100  0.50000000  0.25000000  1
  Er  Er1  1  0.66250900  0.50000000  0.75000000  1
  Cl  Cl2  1  0.76802800  0.69595500  0.05352500  1
  Cl  Cl3  1  0.23197200  0.30404500  0.94647500  1
  Cl  Cl4  1  0.76802800  0.30404500  0.44647500  1
  Cl  Cl5  1  0.23197200  0.69595500  0.55352500  1
  Cl  Cl6  1  0.00368600  0.00000000  0.75000000  1
  Cl  Cl7  1  0.99631400  0.00000000  0.25000000  1
  O  O8  1  0.12794000  0.17782400  0.30572000  1
  O  O9  1  0.87206000  0.82217600  0.69428000  1
  O  O10  1  0.12794000  0.82217600  0.19428000  1
  O  O11  1  0.87206000  0.17782400  0.80572000  1
  O  O12  1  0.58288300  0.74590900  0.13825100  1
  O  O13  1  0.41711700  0.25409100  0.86174900  1
  O  O14  1  0.58288300  0.25409100  0.36174900  1
  O  O15  1  0.41711700  0.74590900  0.63825100  1
  O  O16  1  0.28611200  0.52991500  0.46090800  1
  O  O17  1  0.71388800  0.47008500  0.53909200  1
  O  O18  1  0.28611200  0.47008500  0.03909200  1
  O  O19  1  0.71388800  0.52991500  0.96090800  1
