# generated using pymatgen
data_KH3SO6
_symmetry_space_group_name_H-M   'P 1'
_cell_length_a   10.02158845
_cell_length_b   10.02158845
_cell_length_c   7.56573309
_cell_angle_alpha   89.01515856
_cell_angle_beta   89.01515856
_cell_angle_gamma   45.49167898
_symmetry_Int_Tables_number   1
_chemical_formula_structural   KH3SO6
_chemical_formula_sum   'K4 H12 S4 O24'
_cell_volume   541.78723548
_cell_formula_units_Z   4
loop_
 _symmetry_equiv_pos_site_id
 _symmetry_equiv_pos_as_xyz
  1  'x, y, z'
loop_
 _atom_site_type_symbol
 _atom_site_label
 _atom_site_symmetry_multiplicity
 _atom_site_fract_x
 _atom_site_fract_y
 _atom_site_fract_z
 _atom_site_occupancy
  K  K0  1  0.80192800  0.55920000  0.62313600  1
  K  K1  1  0.44080000  0.19807200  0.87686400  1
  K  K2  1  0.19807200  0.44080000  0.37686400  1
  K  K3  1  0.55920000  0.80192800  0.12313600  1
  H  H4  1  0.36685500  0.71812400  0.45681000  1
  H  H5  1  0.28187600  0.63314500  0.04319000  1
  H  H6  1  0.63314500  0.28187600  0.54319000  1
  H  H7  1  0.71812400  0.36685500  0.95681000  1
  H  H8  1  0.08553400  0.82301500  0.37730900  1
  H  H9  1  0.17698500  0.91446600  0.12269100  1
  H  H10  1  0.91446600  0.17698500  0.62269100  1
  H  H11  1  0.82301500  0.08553400  0.87730900  1
  H  H12  1  0.13947400  0.76083200  0.57367600  1
  H  H13  1  0.23916800  0.86052600  0.92632400  1
  H  H14  1  0.86052600  0.23916800  0.42632400  1
  H  H15  1  0.76083200  0.13947400  0.07367600  1
  S  S16  1  0.29260200  0.01250400  0.64505800  1
  S  S17  1  0.98749600  0.70739800  0.85494200  1
  S  S18  1  0.70739800  0.98749600  0.35494200  1
  S  S19  1  0.01250400  0.29260200  0.14505800  1
  O  O20  1  0.47131200  0.71401800  0.46187100  1
  O  O21  1  0.28598200  0.52868800  0.03812900  1
  O  O22  1  0.52868800  0.28598200  0.53812900  1
  O  O23  1  0.71401800  0.47131200  0.96187100  1
  O  O24  1  0.36510000  0.91369100  0.44561300  1
  O  O25  1  0.08630900  0.63490000  0.05438700  1
  O  O26  1  0.63490000  0.08630900  0.55438700  1
  O  O27  1  0.91369100  0.36510000  0.94561300  1
  O  O28  1  0.16807700  0.99367600  0.71125400  1
  O  O29  1  0.00632400  0.83192300  0.78874600  1
  O  O30  1  0.83192300  0.00632400  0.28874600  1
  O  O31  1  0.99367600  0.16807700  0.21125400  1
  O  O32  1  0.46019000  0.91066600  0.75209700  1
  O  O33  1  0.08933400  0.53981000  0.74790300  1
  O  O34  1  0.53981000  0.08933400  0.24790300  1
  O  O35  1  0.91066600  0.46019000  0.25209700  1
  O  O36  1  0.20044100  0.20093700  0.59218100  1
  O  O37  1  0.79906300  0.79955900  0.90781900  1
  O  O38  1  0.79955900  0.79906300  0.40781900  1
  O  O39  1  0.20093700  0.20044100  0.09218100  1
  O  O40  1  0.19368600  0.72688300  0.45335900  1
  O  O41  1  0.27311700  0.80631400  0.04664100  1
  O  O42  1  0.80631400  0.27311700  0.54664100  1
  O  O43  1  0.72688300  0.19368600  0.95335900  1
