# generated using pymatgen
data_H6S(NO2)2
_symmetry_space_group_name_H-M   'P 1'
_cell_length_a   5.54446000
_cell_length_b   8.19895500
_cell_length_c   9.21762300
_cell_angle_alpha   90.00000000
_cell_angle_beta   90.00000000
_cell_angle_gamma   90.00000000
_symmetry_Int_Tables_number   1
_chemical_formula_structural   H6S(NO2)2
_chemical_formula_sum   'H24 S4 N8 O16'
_cell_volume   419.02187801
_cell_formula_units_Z   4
loop_
 _symmetry_equiv_pos_site_id
 _symmetry_equiv_pos_as_xyz
  1  'x, y, z'
loop_
 _atom_site_type_symbol
 _atom_site_label
 _atom_site_symmetry_multiplicity
 _atom_site_fract_x
 _atom_site_fract_y
 _atom_site_fract_z
 _atom_site_occupancy
  H  H0  1  0.26758100  0.96479800  0.43365800  1
  H  H1  1  0.23241900  0.03520200  0.93365800  1
  H  H2  1  0.76758100  0.53520200  0.56634200  1
  H  H3  1  0.73241900  0.46479800  0.06634200  1
  H  H4  1  0.04253600  0.98871200  0.31140700  1
  H  H5  1  0.45746400  0.01128800  0.81140700  1
  H  H6  1  0.54253600  0.51128800  0.68859300  1
  H  H7  1  0.95746400  0.48871200  0.18859300  1
  H  H8  1  0.31962500  0.92745300  0.25097300  1
  H  H9  1  0.18037500  0.07254700  0.75097300  1
  H  H10  1  0.81962500  0.57254700  0.74902700  1
  H  H11  1  0.68037500  0.42745300  0.24902700  1
  H  H12  1  0.26672900  0.19962400  0.19893300  1
  H  H13  1  0.23327100  0.80037600  0.69893300  1
  H  H14  1  0.76672900  0.30037600  0.80106700  1
  H  H15  1  0.73327100  0.69962400  0.30106700  1
  H  H16  1  0.20525600  0.24536000  0.37534300  1
  H  H17  1  0.29474400  0.75464000  0.87534300  1
  H  H18  1  0.70525600  0.25464000  0.62465700  1
  H  H19  1  0.79474400  0.74536000  0.12465700  1
  H  H20  1  0.48703900  0.17042300  0.32274800  1
  H  H21  1  0.01296100  0.82957700  0.82274800  1
  H  H22  1  0.98703900  0.32957700  0.67725200  1
  H  H23  1  0.51296100  0.67042300  0.17725200  1
  S  S24  1  0.24774000  0.54939000  0.42651100  1
  S  S25  1  0.25226000  0.45061000  0.92651100  1
  S  S26  1  0.74774000  0.95061000  0.57348900  1
  S  S27  1  0.75226000  0.04939000  0.07348900  1
  N  N28  1  0.22744500  0.99753800  0.32755700  1
  N  N29  1  0.27255500  0.00246200  0.82755700  1
  N  N30  1  0.72744500  0.50246200  0.67244300  1
  N  N31  1  0.77255500  0.49753800  0.17244300  1
  N  N32  1  0.30146300  0.16334200  0.30626600  1
  N  N33  1  0.19853700  0.83665800  0.80626600  1
  N  N34  1  0.80146300  0.33665800  0.69373400  1
  N  N35  1  0.69853700  0.66334200  0.19373400  1
  O  O36  1  0.49010600  0.47019200  0.41077100  1
  O  O37  1  0.00989400  0.52980800  0.91077100  1
  O  O38  1  0.99010600  0.02980800  0.58922900  1
  O  O39  1  0.50989400  0.97019200  0.08922900  1
  O  O40  1  0.23701300  0.64417800  0.56321100  1
  O  O41  1  0.26298700  0.35582200  0.06321100  1
  O  O42  1  0.73701300  0.85582200  0.43678900  1
  O  O43  1  0.76298700  0.14417800  0.93678900  1
  O  O44  1  0.19895400  0.65433000  0.29754300  1
  O  O45  1  0.30104600  0.34567000  0.79754300  1
  O  O46  1  0.69895400  0.84567000  0.70245700  1
  O  O47  1  0.80104600  0.15433000  0.20245700  1
  O  O48  1  0.06052300  0.41538500  0.43229000  1
  O  O49  1  0.43947700  0.58461500  0.93229000  1
  O  O50  1  0.56052300  0.08461500  0.56771000  1
  O  O51  1  0.93947700  0.91538500  0.06771000  1
