# generated using pymatgen
data_Ti2CrTe4
_symmetry_space_group_name_H-M   'P 1'
_cell_length_a   7.45581155
_cell_length_b   7.45581155
_cell_length_c   6.89495324
_cell_angle_alpha   63.88291192
_cell_angle_beta   63.88291192
_cell_angle_gamma   29.81535342
_symmetry_Int_Tables_number   1
_chemical_formula_structural   Ti2CrTe4
_chemical_formula_sum   'Ti2 Cr1 Te4'
_cell_volume   169.64969404
_cell_formula_units_Z   1
loop_
 _symmetry_equiv_pos_site_id
 _symmetry_equiv_pos_as_xyz
  1  'x, y, z'
loop_
 _atom_site_type_symbol
 _atom_site_label
 _atom_site_symmetry_multiplicity
 _atom_site_fract_x
 _atom_site_fract_y
 _atom_site_fract_z
 _atom_site_occupancy
  Ti  Ti0  1  0.74688000  0.74688000  0.29891600  1
  Ti  Ti1  1  0.25312000  0.25312000  0.70108400  1
  Cr  Cr2  1  0.00000000  0.00000000  0.00000000  1
  Te  Te3  1  0.89307300  0.89307300  0.44694200  1
  Te  Te4  1  0.10692700  0.10692700  0.55305800  1
  Te  Te5  1  0.63546700  0.63546700  0.03096300  1
  Te  Te6  1  0.36453300  0.36453300  0.96903700  1
