# generated using pymatgen
data_ZnH12C2S2(N3O4)2
_symmetry_space_group_name_H-M   'P 1'
_cell_length_a   10.05805777
_cell_length_b   10.05805777
_cell_length_c   10.05805777
_cell_angle_alpha   122.06790991
_cell_angle_beta   122.06790991
_cell_angle_gamma   86.45410273
_symmetry_Int_Tables_number   1
_chemical_formula_structural   ZnH12C2S2(N3O4)2
_chemical_formula_sum   'Zn2 H24 C4 S4 N12 O16'
_cell_volume   695.55542731
_cell_formula_units_Z   2
loop_
 _symmetry_equiv_pos_site_id
 _symmetry_equiv_pos_as_xyz
  1  'x, y, z'
loop_
 _atom_site_type_symbol
 _atom_site_label
 _atom_site_symmetry_multiplicity
 _atom_site_fract_x
 _atom_site_fract_y
 _atom_site_fract_z
 _atom_site_occupancy
  Zn  Zn0  1  0.75000000  0.25000000  0.50000000  1
  Zn  Zn1  1  0.00000000  0.00000000  0.00000000  1
  H  H2  1  0.51018200  0.12816600  0.98614600  1
  H  H3  1  0.23981800  0.72596500  0.11798400  1
  H  H4  1  0.14201900  0.52403500  0.01385400  1
  H  H5  1  0.60798100  0.12183400  0.88201600  1
  H  H6  1  0.47596500  0.48981800  0.61798400  1
  H  H7  1  0.27403500  0.39201900  0.51385400  1
  H  H8  1  0.87183400  0.85798100  0.38201600  1
  H  H9  1  0.87816600  0.76018200  0.48614600  1
  H  H10  1  0.13205100  0.12784200  0.63988800  1
  H  H11  1  0.61794900  0.75783600  0.49579100  1
  H  H12  1  0.48795500  0.49216400  0.36011200  1
  H  H13  1  0.26204500  0.12215800  0.50420900  1
  H  H14  1  0.50783600  0.86794900  0.99579100  1
  H  H15  1  0.24216400  0.73795500  0.86011200  1
  H  H16  1  0.87215800  0.51204500  0.00420900  1
  H  H17  1  0.87784200  0.38205100  0.13988800  1
  H  H18  1  0.23166700  0.10405000  0.82914600  1
  H  H19  1  0.51833300  0.84747900  0.37238300  1
  H  H20  1  0.27490400  0.40252100  0.17085400  1
  H  H21  1  0.47509600  0.14595000  0.62761700  1
  H  H22  1  0.59747900  0.76833300  0.87238300  1
  H  H23  1  0.15252100  0.52490400  0.67085400  1
  H  H24  1  0.89595000  0.72509600  0.12761700  1
  H  H25  1  0.85405000  0.48166700  0.32914600  1
  C  C26  1  0.36943700  0.12500000  0.74443700  1
  C  C27  1  0.38056300  0.62500000  0.25556300  1
  C  C28  1  0.37500000  0.63056300  0.75556300  1
  C  C29  1  0.87500000  0.61943700  0.24443700  1
  S  S30  1  0.37500000  0.08346800  0.20846800  1
  S  S31  1  0.87500000  0.16653200  0.79153200  1
  S  S32  1  0.83346800  0.62500000  0.70846800  1
  S  S33  1  0.91653200  0.12500000  0.29153200  1
  N  N34  1  0.50670600  0.12500000  0.88170600  1
  N  N35  1  0.24329400  0.62500000  0.11829400  1
  N  N36  1  0.37500000  0.49329400  0.61829400  1
  N  N37  1  0.87500000  0.75670600  0.38170600  1
  N  N38  1  0.23394000  0.12088500  0.73902300  1
  N  N39  1  0.51606000  0.75508300  0.38694400  1
  N  N40  1  0.38186200  0.49491700  0.26097700  1
  N  N41  1  0.36813800  0.12911500  0.61305600  1
  N  N42  1  0.50508300  0.76606000  0.88694400  1
  N  N43  1  0.24491700  0.63186200  0.76097700  1
  N  N44  1  0.87911500  0.61813800  0.11305600  1
  N  N45  1  0.87088500  0.48394000  0.23902300  1
  O  O46  1  0.51791600  0.23789000  0.39212600  1
  O  O47  1  0.23208400  0.12421000  0.21997400  1
  O  O48  1  0.84576500  0.12579000  0.60787400  1
  O  O49  1  0.90423500  0.01211000  0.78002600  1
  O  O50  1  0.87421000  0.48208400  0.71997400  1
  O  O51  1  0.87579000  0.09576500  0.10787400  1
  O  O52  1  0.76211000  0.15423500  0.28002600  1
  O  O53  1  0.98789000  0.76791600  0.89212600  1
  O  O54  1  0.40423100  0.93893200  0.21060200  1
  O  O55  1  0.34576900  0.05637100  0.03470100  1
  O  O56  1  0.72833000  0.19362900  0.78939800  1
  O  O57  1  0.02167000  0.31106800  0.96529900  1
  O  O58  1  0.80637100  0.59576900  0.53470100  1
  O  O59  1  0.94362900  0.97833000  0.28939800  1
  O  O60  1  0.06106800  0.27167000  0.46529900  1
  O  O61  1  0.68893200  0.65423100  0.71060200  1
