# generated using pymatgen
data_H2S
_symmetry_space_group_name_H-M   'P 1'
_cell_length_a   8.83753076
_cell_length_b   8.83753076
_cell_length_c   8.83753076
_cell_angle_alpha   118.69031851
_cell_angle_beta   118.69031851
_cell_angle_gamma   92.28380992
_symmetry_Int_Tables_number   1
_chemical_formula_structural   H2S
_chemical_formula_sum   'H16 S8'
_cell_volume   497.29941773
_cell_formula_units_Z   8
loop_
 _symmetry_equiv_pos_site_id
 _symmetry_equiv_pos_as_xyz
  1  'x, y, z'
loop_
 _atom_site_type_symbol
 _atom_site_label
 _atom_site_symmetry_multiplicity
 _atom_site_fract_x
 _atom_site_fract_y
 _atom_site_fract_z
 _atom_site_occupancy
  H  H0  1  0.12619200  0.83121300  0.85965000  1
  H  H1  1  0.62619200  0.76654200  0.29497900  1
  H  H2  1  0.77843600  0.98345800  0.35965000  1
  H  H3  1  0.27843600  0.91878700  0.79497900  1
  H  H4  1  0.97156400  0.26654200  0.14035000  1
  H  H5  1  0.47156400  0.33121300  0.70502100  1
  H  H6  1  0.62380800  0.41878700  0.64035000  1
  H  H7  1  0.12380800  0.48345800  0.20502100  1
  H  H8  1  0.16878700  0.02843600  0.29497900  1
  H  H9  1  0.23345800  0.52843600  0.85965000  1
  H  H10  1  0.01654200  0.37619200  0.79497900  1
  H  H11  1  0.08121300  0.87619200  0.35965000  1
  H  H12  1  0.73345800  0.87380800  0.70502100  1
  H  H13  1  0.66878700  0.37380800  0.14035000  1
  H  H14  1  0.58121300  0.22156400  0.20502100  1
  H  H15  1  0.51654200  0.72156400  0.64035000  1
  S  S16  1  0.12500000  0.84905700  0.22405700  1
  S  S17  1  0.62500000  0.40094300  0.27594300  1
  S  S18  1  0.12500000  0.34905700  0.72405700  1
  S  S19  1  0.62500000  0.90094300  0.77594300  1
  S  S20  1  0.15094300  0.37500000  0.27594300  1
  S  S21  1  0.59905700  0.87500000  0.22405700  1
  S  S22  1  0.65094300  0.37500000  0.77594300  1
  S  S23  1  0.09905700  0.87500000  0.72405700  1
