# generated using pymatgen
data_H2SeNO4
_symmetry_space_group_name_H-M   'P 1'
_cell_length_a   10.05288725
_cell_length_b   10.05288725
_cell_length_c   4.75431873
_cell_angle_alpha   88.11149059
_cell_angle_beta   88.11149059
_cell_angle_gamma   49.43665721
_symmetry_Int_Tables_number   1
_chemical_formula_structural   H2SeNO4
_chemical_formula_sum   'H6 Se3 N3 O12'
_cell_volume   364.76983446
_cell_formula_units_Z   3
loop_
 _symmetry_equiv_pos_site_id
 _symmetry_equiv_pos_as_xyz
  1  'x, y, z'
loop_
 _atom_site_type_symbol
 _atom_site_label
 _atom_site_symmetry_multiplicity
 _atom_site_fract_x
 _atom_site_fract_y
 _atom_site_fract_z
 _atom_site_occupancy
  H  H0  1  0.06643800  0.12362700  0.70740900  1
  H  H1  1  0.87637300  0.93356200  0.29259100  1
  H  H2  1  0.93640600  0.40086200  0.96423900  1
  H  H3  1  0.59913800  0.06359400  0.03576100  1
  H  H4  1  0.99920300  0.63565900  0.40861500  1
  H  H5  1  0.36434100  0.00079700  0.59138500  1
  Se  Se6  1  0.05349800  0.94650200  0.00000000  1
  Se  Se7  1  0.74847300  0.59651300  0.61142800  1
  Se  Se8  1  0.40348700  0.25152700  0.38857200  1
  N  N9  1  0.23345500  0.11404300  0.58740100  1
  N  N10  1  0.88595700  0.76654500  0.41259900  1
  N  N11  1  0.57111100  0.42888900  0.00000000  1
  O  O12  1  0.96297700  0.14479700  0.81103700  1
  O  O13  1  0.85520300  0.03702300  0.18896300  1
  O  O14  1  0.20153000  0.90376300  0.21078100  1
  O  O15  1  0.09623700  0.79847000  0.78921900  1
  O  O16  1  0.87149000  0.52800700  0.94127500  1
  O  O17  1  0.47199300  0.12851000  0.05872500  1
  O  O18  1  0.75244100  0.78951600  0.53881200  1
  O  O19  1  0.21048400  0.24755900  0.46118800  1
  O  O20  1  0.48004200  0.45196500  0.80985500  1
  O  O21  1  0.54803500  0.51995800  0.19014500  1
  O  O22  1  0.54381100  0.72632400  0.70706200  1
  O  O23  1  0.27367600  0.45618900  0.29293800  1
