# generated using pymatgen
data_ScH8(NF2)3
_symmetry_space_group_name_H-M   'P 1'
_cell_length_a   6.51927400
_cell_length_b   6.52146400
_cell_length_c   11.47812756
_cell_angle_alpha   55.86524551
_cell_angle_beta   90.00000000
_cell_angle_gamma   90.00000000
_symmetry_Int_Tables_number   1
_chemical_formula_structural   ScH8(NF2)3
_chemical_formula_sum   'Sc2 H16 N6 F12'
_cell_volume   403.92328442
_cell_formula_units_Z   2
loop_
 _symmetry_equiv_pos_site_id
 _symmetry_equiv_pos_as_xyz
  1  'x, y, z'
loop_
 _atom_site_type_symbol
 _atom_site_label
 _atom_site_symmetry_multiplicity
 _atom_site_fract_x
 _atom_site_fract_y
 _atom_site_fract_z
 _atom_site_occupancy
  Sc  Sc0  1  0.50000000  0.00000000  0.50000000  1
  Sc  Sc1  1  0.00000000  0.00000000  0.00000000  1
  H  H2  1  0.42517100  0.89196200  0.16316900  1
  H  H3  1  0.07482900  0.89196200  0.66316900  1
  H  H4  1  0.57482900  0.10803800  0.83683100  1
  H  H5  1  0.92517100  0.10803800  0.33683100  1
  H  H6  1  0.47047900  0.74870300  0.33720000  1
  H  H7  1  0.02952100  0.74870300  0.83720000  1
  H  H8  1  0.52952100  0.25129700  0.66280000  1
  H  H9  1  0.97047900  0.25129700  0.16280000  1
  H  H10  1  0.66638800  0.78533200  0.22854900  1
  H  H11  1  0.83361200  0.78533200  0.72854900  1
  H  H12  1  0.33361200  0.21466800  0.77145100  1
  H  H13  1  0.16638800  0.21466800  0.27145100  1
  H  H14  1  0.47922600  0.58200700  0.26510800  1
  H  H15  1  0.02077400  0.58200700  0.76510800  1
  H  H16  1  0.52077400  0.41799300  0.73489200  1
  H  H17  1  0.97922600  0.41799300  0.23489200  1
  N  N18  1  0.00000000  0.50000000  0.50000000  1
  N  N19  1  0.50000000  0.50000000  0.00000000  1
  N  N20  1  0.51059800  0.75281200  0.24876200  1
  N  N21  1  0.98940200  0.75281200  0.74876200  1
  N  N22  1  0.48940200  0.24718800  0.75123800  1
  N  N23  1  0.01059800  0.24718800  0.25123800  1
  F  F24  1  0.76458800  0.89878900  0.45287800  1
  F  F25  1  0.73541200  0.89878900  0.95287800  1
  F  F26  1  0.23541200  0.10121100  0.54712200  1
  F  F27  1  0.26458800  0.10121100  0.04712200  1
  F  F28  1  0.45413500  0.28065900  0.29403700  1
  F  F29  1  0.04586500  0.28065900  0.79403700  1
  F  F30  1  0.54586500  0.71934100  0.70596300  1
  F  F31  1  0.95413500  0.71934100  0.20596300  1
  F  F32  1  0.34545400  0.76514500  0.46723200  1
  F  F33  1  0.15454600  0.76514500  0.96723200  1
  F  F34  1  0.65454600  0.23485500  0.53276800  1
  F  F35  1  0.84545400  0.23485500  0.03276800  1
