# generated using pymatgen
data_Cs2Zr2ZnH12(OF2)6
_symmetry_space_group_name_H-M   'P 1'
_cell_length_a   10.77284900
_cell_length_b   6.95008300
_cell_length_c   14.92518925
_cell_angle_alpha   65.21934854
_cell_angle_beta   90.00000000
_cell_angle_gamma   90.00000000
_symmetry_Int_Tables_number   1
_chemical_formula_structural   Cs2Zr2ZnH12(OF2)6
_chemical_formula_sum   'Cs4 Zr4 Zn2 H24 O12 F24'
_cell_volume   1014.58292771
_cell_formula_units_Z   2
loop_
 _symmetry_equiv_pos_site_id
 _symmetry_equiv_pos_as_xyz
  1  'x, y, z'
loop_
 _atom_site_type_symbol
 _atom_site_label
 _atom_site_symmetry_multiplicity
 _atom_site_fract_x
 _atom_site_fract_y
 _atom_site_fract_z
 _atom_site_occupancy
  Cs  Cs0  1  0.20987400  0.47484500  0.58411300  1
  Cs  Cs1  1  0.29012600  0.47484500  0.08411300  1
  Cs  Cs2  1  0.79012600  0.52515500  0.41588700  1
  Cs  Cs3  1  0.70987400  0.52515500  0.91588700  1
  Zr  Zr4  1  0.46415900  0.11927500  0.86647600  1
  Zr  Zr5  1  0.03584100  0.11927500  0.36647600  1
  Zr  Zr6  1  0.53584100  0.88072500  0.13352400  1
  Zr  Zr7  1  0.96415900  0.88072500  0.63352400  1
  Zn  Zn8  1  0.50000000  0.00000000  0.50000000  1
  Zn  Zn9  1  0.00000000  0.00000000  0.00000000  1
  H  H10  1  0.11364000  0.03148200  0.20189400  1
  H  H11  1  0.38636000  0.03148200  0.70189400  1
  H  H12  1  0.88636000  0.96851800  0.79810600  1
  H  H13  1  0.61364000  0.96851800  0.29810600  1
  H  H14  1  0.73183100  0.15245400  0.29532100  1
  H  H15  1  0.76816900  0.15245400  0.79532100  1
  H  H16  1  0.26816900  0.84754600  0.70467900  1
  H  H17  1  0.23183100  0.84754600  0.20467900  1
  H  H18  1  0.32852200  0.94661300  0.42192300  1
  H  H19  1  0.17147800  0.94661300  0.92192300  1
  H  H20  1  0.67147800  0.05338700  0.57807700  1
  H  H21  1  0.82852200  0.05338700  0.07807700  1
  H  H22  1  0.38082400  0.54629600  0.35291900  1
  H  H23  1  0.11917600  0.54629600  0.85291900  1
  H  H24  1  0.61917600  0.45370400  0.64708100  1
  H  H25  1  0.88082400  0.45370400  0.14708100  1
  H  H26  1  0.41256700  0.62137300  0.43366900  1
  H  H27  1  0.08743300  0.62137300  0.93366900  1
  H  H28  1  0.58743300  0.37862700  0.56633100  1
  H  H29  1  0.91256700  0.37862700  0.06633100  1
  H  H30  1  0.59986500  0.21725000  0.22992300  1
  H  H31  1  0.90013500  0.21725000  0.72992300  1
  H  H32  1  0.40013500  0.78275000  0.77007700  1
  H  H33  1  0.09986500  0.78275000  0.27007700  1
  O  O34  1  0.61279600  0.50672400  0.57563500  1
  O  O35  1  0.88720400  0.50672400  0.07563500  1
  O  O36  1  0.38720400  0.49327600  0.42436500  1
  O  O37  1  0.11279600  0.49327600  0.92436500  1
  O  O38  1  0.39117300  0.84745800  0.46606500  1
  O  O39  1  0.10882700  0.84745800  0.96606500  1
  O  O40  1  0.60882700  0.15254200  0.53393500  1
  O  O41  1  0.89117300  0.15254200  0.03393500  1
  O  O42  1  0.63639800  0.12200400  0.29464900  1
  O  O43  1  0.86360200  0.12200400  0.79464900  1
  O  O44  1  0.36360200  0.87799600  0.70535100  1
  O  O45  1  0.13639800  0.87799600  0.20535100  1
  F  F46  1  0.60666700  0.03716300  0.98292000  1
  F  F47  1  0.89333300  0.03716300  0.48292000  1
  F  F48  1  0.39333300  0.96283700  0.01708000  1
  F  F49  1  0.10666700  0.96283700  0.51708000  1
  F  F50  1  0.27746000  0.12043000  0.85000300  1
  F  F51  1  0.22254000  0.12043000  0.35000300  1
  F  F52  1  0.72254000  0.87957000  0.14999700  1
  F  F53  1  0.77746000  0.87957000  0.64999700  1
  F  F54  1  0.45613400  0.41113000  0.86250300  1
  F  F55  1  0.04386600  0.41113000  0.36250300  1
  F  F56  1  0.54386600  0.58887000  0.13749700  1
  F  F57  1  0.95613400  0.58887000  0.63749700  1
  F  F58  1  0.43009400  0.20334300  0.71277900  1
  F  F59  1  0.06990600  0.20334300  0.21277900  1
  F  F60  1  0.56990600  0.79665700  0.28722100  1
  F  F61  1  0.93009400  0.79665700  0.78722100  1
  F  F62  1  0.64223200  0.21078700  0.79597600  1
  F  F63  1  0.85776800  0.21078700  0.29597600  1
  F  F64  1  0.35776800  0.78921300  0.20402400  1
  F  F65  1  0.14223200  0.78921300  0.70402400  1
  F  F66  1  0.48394900  0.82182200  0.87094300  1
  F  F67  1  0.01605100  0.82182200  0.37094300  1
  F  F68  1  0.51605100  0.17817800  0.12905700  1
  F  F69  1  0.98394900  0.17817800  0.62905700  1
