# generated using pymatgen
data_Ca2H2S2O9
_symmetry_space_group_name_H-M   'P 1'
_cell_length_a   9.46767531
_cell_length_b   9.46767531
_cell_length_c   12.20035724
_cell_angle_alpha   50.41093707
_cell_angle_beta   50.41093707
_cell_angle_gamma   43.66657986
_symmetry_Int_Tables_number   1
_chemical_formula_structural   Ca2H2S2O9
_chemical_formula_sum   'Ca6 H6 S6 O27'
_cell_volume   549.03266952
_cell_formula_units_Z   3
loop_
 _symmetry_equiv_pos_site_id
 _symmetry_equiv_pos_as_xyz
  1  'x, y, z'
loop_
 _atom_site_type_symbol
 _atom_site_label
 _atom_site_symmetry_multiplicity
 _atom_site_fract_x
 _atom_site_fract_y
 _atom_site_fract_z
 _atom_site_occupancy
  Ca  Ca0  1  0.48395700  0.51604300  0.50000000  1
  Ca  Ca1  1  0.98232700  0.34341400  0.55625500  1
  Ca  Ca2  1  0.65658600  0.01767300  0.44374500  1
  Ca  Ca3  1  0.11844700  0.55279400  0.92550500  1
  Ca  Ca4  1  0.44720600  0.88155300  0.07449500  1
  Ca  Ca5  1  0.98426300  0.01573700  0.00000000  1
  H  H6  1  0.60182300  0.47137100  0.91248700  1
  H  H7  1  0.52862900  0.39817700  0.08751300  1
  H  H8  1  0.09378400  0.21286200  0.32600200  1
  H  H9  1  0.78713800  0.90621600  0.67399800  1
  H  H10  1  0.30943600  0.09412300  0.34344000  1
  H  H11  1  0.90587700  0.69056400  0.65656000  1
  S  S12  1  0.23347300  0.26923900  0.74807500  1
  S  S13  1  0.73076100  0.76652700  0.25192500  1
  S  S14  1  0.23464000  0.60291000  0.30587500  1
  S  S15  1  0.39709000  0.76536000  0.69412500  1
  S  S16  1  0.88244500  0.29112300  0.18798400  1
  S  S17  1  0.70887700  0.11755500  0.81201600  1
  O  O18  1  0.17214400  0.45863700  0.75718200  1
  O  O19  1  0.54136300  0.82785600  0.24281800  1
  O  O20  1  0.28553900  0.07442900  0.88456400  1
  O  O21  1  0.92557100  0.71446100  0.11543600  1
  O  O22  1  0.05077400  0.31898400  0.73969900  1
  O  O23  1  0.68101600  0.94922600  0.26030100  1
  O  O24  1  0.42551000  0.23068300  0.60936100  1
  O  O25  1  0.76931700  0.57449000  0.39063900  1
  O  O26  1  0.00559600  0.66459700  0.40389400  1
  O  O27  1  0.33540300  0.99440400  0.59610600  1
  O  O28  1  0.25563400  0.72110600  0.14272400  1
  O  O29  1  0.27889400  0.74436600  0.85727600  1
  O  O30  1  0.31072000  0.66539700  0.33624000  1
  O  O31  1  0.33460300  0.68928000  0.66376000  1
  O  O32  1  0.36625900  0.36581800  0.33766200  1
  O  O33  1  0.63418200  0.63374100  0.66233800  1
  O  O34  1  0.78187600  0.51514300  0.08318300  1
  O  O35  1  0.48485700  0.21812400  0.91681700  1
  O  O36  1  0.76687700  0.28486900  0.34695900  1
  O  O37  1  0.71513100  0.23312300  0.65304100  1
  O  O38  1  0.88294600  0.13866500  0.18228100  1
  O  O39  1  0.86133500  0.11705400  0.81771900  1
  O  O40  1  0.11284400  0.21821000  0.13864800  1
  O  O41  1  0.78179000  0.88715600  0.86135200  1
  O  O42  1  0.15326200  0.16591100  0.39352700  1
  O  O43  1  0.83408900  0.84673800  0.60647300  1
  O  O44  1  0.64770900  0.35229100  0.00000000  1
