# generated using pymatgen
data_NiH10C4(SN4)2
_symmetry_space_group_name_H-M   'P 1'
_cell_length_a   8.50605386
_cell_length_b   8.50605386
_cell_length_c   9.20461957
_cell_angle_alpha   71.39701423
_cell_angle_beta   71.39701423
_cell_angle_gamma   56.60723972
_symmetry_Int_Tables_number   1
_chemical_formula_structural   NiH10C4(SN4)2
_chemical_formula_sum   'Ni2 H20 C8 S4 N16'
_cell_volume   518.25745195
_cell_formula_units_Z   2
loop_
 _symmetry_equiv_pos_site_id
 _symmetry_equiv_pos_as_xyz
  1  'x, y, z'
loop_
 _atom_site_type_symbol
 _atom_site_label
 _atom_site_symmetry_multiplicity
 _atom_site_fract_x
 _atom_site_fract_y
 _atom_site_fract_z
 _atom_site_occupancy
  Ni  Ni0  1  0.10965500  0.89034500  0.25000000  1
  Ni  Ni1  1  0.89034500  0.10965500  0.75000000  1
  H  H2  1  0.76435900  0.11378000  0.22055400  1
  H  H3  1  0.88622000  0.23564100  0.27944600  1
  H  H4  1  0.23564100  0.88622000  0.77944600  1
  H  H5  1  0.11378000  0.76435900  0.72055400  1
  H  H6  1  0.90374000  0.66917400  0.04528000  1
  H  H7  1  0.33082600  0.09626000  0.45472000  1
  H  H8  1  0.09626000  0.33082600  0.95472000  1
  H  H9  1  0.66917400  0.90374000  0.54528000  1
  H  H10  1  0.36569800  0.58882900  0.15124600  1
  H  H11  1  0.41117100  0.63430200  0.34875400  1
  H  H12  1  0.63430200  0.41117100  0.84875400  1
  H  H13  1  0.58882900  0.36569800  0.65124600  1
  H  H14  1  0.54689300  0.12055900  0.12358200  1
  H  H15  1  0.87944100  0.45310700  0.37641800  1
  H  H16  1  0.45310700  0.87944100  0.87641800  1
  H  H17  1  0.12055900  0.54689300  0.62358200  1
  H  H18  1  0.59991400  0.89767100  0.10255700  1
  H  H19  1  0.10232900  0.40008600  0.39744300  1
  H  H20  1  0.40008600  0.10232900  0.89744300  1
  H  H21  1  0.89767100  0.59991400  0.60255700  1
  C  C22  1  0.82522100  0.90235000  0.13472100  1
  C  C23  1  0.09765000  0.17477900  0.36527900  1
  C  C24  1  0.17477900  0.09765000  0.86527900  1
  C  C25  1  0.90235000  0.82522100  0.63472100  1
  C  C26  1  0.14794300  0.62701500  0.08904100  1
  C  C27  1  0.37298500  0.85205700  0.41095900  1
  C  C28  1  0.85205700  0.37298500  0.91095900  1
  C  C29  1  0.62701500  0.14794300  0.58904100  1
  S  S30  1  0.28742700  0.44671200  0.98058600  1
  S  S31  1  0.55328800  0.71257300  0.51941400  1
  S  S32  1  0.71257300  0.55328800  0.01941400  1
  S  S33  1  0.44671200  0.28742700  0.48058600  1
  N  N34  1  0.87788500  0.98650200  0.19062900  1
  N  N35  1  0.01349800  0.12211500  0.30937100  1
  N  N36  1  0.12211500  0.01349800  0.80937100  1
  N  N37  1  0.98650200  0.87788500  0.69062900  1
  N  N38  1  0.95332000  0.72713000  0.09068100  1
  N  N39  1  0.27287000  0.04668000  0.40931900  1
  N  N40  1  0.04668000  0.27287000  0.90931900  1
  N  N41  1  0.72713000  0.95332000  0.59068100  1
  N  N42  1  0.21946700  0.67359900  0.16534100  1
  N  N43  1  0.32640100  0.78053300  0.33465900  1
  N  N44  1  0.78053300  0.32640100  0.83465900  1
  N  N45  1  0.67359900  0.21946700  0.66534100  1
  N  N46  1  0.64500800  0.98213600  0.11092100  1
  N  N47  1  0.01786400  0.35499200  0.38907900  1
  N  N48  1  0.35499200  0.01786400  0.88907900  1
  N  N49  1  0.98213600  0.64500800  0.61092100  1
