# generated using pymatgen
data_Sr5La5Mn9CuO30
_symmetry_space_group_name_H-M   'P 1'
_cell_length_a   5.47796000
_cell_length_b   5.53506854
_cell_length_c   22.69429879
_cell_angle_alpha   83.93886659
_cell_angle_beta   83.12999567
_cell_angle_gamma   60.34926069
_symmetry_Int_Tables_number   1
_chemical_formula_structural   Sr5La5Mn9CuO30
_chemical_formula_sum   'Sr5 La5 Mn9 Cu1 O30'
_cell_volume   592.85470176
_cell_formula_units_Z   1
loop_
 _symmetry_equiv_pos_site_id
 _symmetry_equiv_pos_as_xyz
  1  'x, y, z'
loop_
 _atom_site_type_symbol
 _atom_site_label
 _atom_site_symmetry_multiplicity
 _atom_site_fract_x
 _atom_site_fract_y
 _atom_site_fract_z
 _atom_site_occupancy
  Sr  Sr0  1  0.54882800  0.54982000  0.34873600  1
  Sr  Sr1  1  0.14921800  0.15033400  0.54977100  1
  Sr  Sr2  1  0.34655300  0.34988900  0.95262400  1
  Sr  Sr3  1  0.65211800  0.64981400  0.05040100  1
  Sr  Sr4  1  0.25225400  0.25024400  0.25029700  1
  La  La5  1  0.95533600  0.94997100  0.15060900  1
  La  La6  1  0.75215200  0.75070100  0.74866100  1
  La  La7  1  0.84550300  0.85099700  0.44792300  1
  La  La8  1  0.45400600  0.44961800  0.64869600  1
  La  La9  1  0.04556400  0.04908200  0.85232100  1
  Mn  Mn10  1  0.99993500  0.99905500  0.00086900  1
  Mn  Mn11  1  0.60024300  0.59957500  0.20050700  1
  Mn  Mn12  1  0.19991200  0.20105600  0.39932800  1
  Mn  Mn13  1  0.80355500  0.80088200  0.59905900  1
  Mn  Mn14  1  0.39665700  0.39899500  0.80058500  1
  Mn  Mn15  1  0.30045800  0.29998600  0.09993100  1
  Mn  Mn16  1  0.89999200  0.90019900  0.29982300  1
  Mn  Mn17  1  0.49830400  0.50131800  0.49913800  1
  Mn  Mn18  1  0.70130500  0.69820300  0.90150100  1
  Cu  Cu19  1  0.10064200  0.10045600  0.69942700  1
  O  O20  1  0.14797600  0.65323300  0.05202200  1
  O  O21  1  0.75369700  0.24606800  0.24770800  1
  O  O22  1  0.34805500  0.84918700  0.45050800  1
  O  O23  1  0.93568100  0.46709900  0.64995700  1
  O  O24  1  0.55174700  0.04276400  0.84807400  1
  O  O25  1  0.93262300  0.41996500  0.14434400  1
  O  O26  1  0.53477500  0.03000900  0.34546600  1
  O  O27  1  0.11972000  0.63566900  0.53893400  1
  O  O28  1  0.70900800  0.22369700  0.74234300  1
  O  O29  1  0.32727600  0.83523400  0.94082400  1
  O  O30  1  0.19040700  0.13033500  0.04513500  1
  O  O31  1  0.40944200  0.31698400  0.44377000  1
  O  O32  1  0.79568700  0.73669300  0.24168900  1
  O  O33  1  0.01762000  0.90325500  0.64157500  1
  O  O34  1  0.61500200  0.52144400  0.84073100  1
  O  O35  1  0.45547800  0.94927300  0.15014200  1
  O  O36  1  0.04570900  0.55562200  0.35278000  1
  O  O37  1  0.64577100  0.15419400  0.54962400  1
  O  O38  1  0.25865900  0.73798900  0.75227600  1
  O  O39  1  0.85237900  0.34476400  0.94690100  1
  O  O40  1  0.39681300  0.48022700  0.15590100  1
  O  O41  1  0.00457200  0.06326200  0.35888800  1
  O  O42  1  0.59694400  0.66483100  0.55849400  1
  O  O43  1  0.18073400  0.28236600  0.76243100  1
  O  O44  1  0.80582100  0.87288300  0.95486000  1
  O  O45  1  0.67427200  0.16330200  0.05861000  1
  O  O46  1  0.26492700  0.77041000  0.25465800  1
  O  O47  1  0.86727900  0.38248700  0.45676100  1
  O  O48  1  0.48774400  0.98183800  0.65703300  1
  O  O49  1  0.07164700  0.58472200  0.85735100  1
