# generated using pymatgen
data_MnGe4H24C8(S5N)2
_symmetry_space_group_name_H-M   'P 1'
_cell_length_a   9.99998527
_cell_length_b   9.99998527
_cell_length_c   9.99998527
_cell_angle_alpha   122.01154324
_cell_angle_beta   122.01154324
_cell_angle_gamma   86.54984296
_symmetry_Int_Tables_number   1
_chemical_formula_structural   MnGe4H24C8(S5N)2
_chemical_formula_sum   'Mn1 Ge4 H24 C8 S10 N2'
_cell_volume   684.25426637
_cell_formula_units_Z   1
loop_
 _symmetry_equiv_pos_site_id
 _symmetry_equiv_pos_as_xyz
  1  'x, y, z'
loop_
 _atom_site_type_symbol
 _atom_site_label
 _atom_site_symmetry_multiplicity
 _atom_site_fract_x
 _atom_site_fract_y
 _atom_site_fract_z
 _atom_site_occupancy
  Mn  Mn0  1  0.25000000  0.75000000  0.50000000  1
  Ge  Ge1  1  0.48032100  0.58626300  0.24351800  1
  Ge  Ge2  1  0.34274600  0.23680300  0.75648200  1
  Ge  Ge3  1  0.76319700  0.51967900  0.10594300  1
  Ge  Ge4  1  0.41373700  0.65725400  0.89405700  1
  H  H5  1  0.00157300  0.39569200  0.69412600  1
  H  H6  1  0.70156500  0.30744700  0.30587400  1
  H  H7  1  0.69255300  0.99842700  0.39411800  1
  H  H8  1  0.60430800  0.29843500  0.60588200  1
  H  H9  1  0.89371200  0.43999900  0.80401600  1
  H  H10  1  0.63598300  0.08969500  0.19598400  1
  H  H11  1  0.91030500  0.10628800  0.54628800  1
  H  H12  1  0.56000100  0.36401700  0.45371200  1
  H  H13  1  0.85154300  0.50372700  0.64992500  1
  H  H14  1  0.85380200  0.20161800  0.35007500  1
  H  H15  1  0.79838200  0.14845700  0.65218400  1
  H  H16  1  0.49627300  0.14619800  0.34781600  1
  H  H17  1  0.84412900  0.75489200  0.80740400  1
  H  H18  1  0.94748800  0.03672600  0.19259600  1
  H  H19  1  0.96327400  0.15587100  0.91076200  1
  H  H20  1  0.24510800  0.05251200  0.08923800  1
  H  H21  1  0.02500300  0.80841100  0.03725100  1
  H  H22  1  0.77116000  0.98775200  0.96274900  1
  H  H23  1  0.01224800  0.97499700  0.78340800  1
  H  H24  1  0.19158900  0.22884000  0.21659200  1
  H  H25  1  0.04647700  0.77581900  0.85519100  1
  H  H26  1  0.92062800  0.19128700  0.14480900  1
  H  H27  1  0.80871300  0.95352300  0.72934200  1
  H  H28  1  0.22418100  0.07937200  0.27065800  1
  C  C29  1  0.88484400  0.40997100  0.67629300  1
  C  C30  1  0.73367800  0.20855100  0.32370700  1
  C  C31  1  0.79144900  0.11515600  0.52512700  1
  C  C32  1  0.59002900  0.26632200  0.47487300  1
  C  C33  1  0.97720500  0.82039400  0.91824000  1
  C  C34  1  0.90215400  0.05896600  0.08176000  1
  C  C35  1  0.94103400  0.02279500  0.84318900  1
  C  C36  1  0.17960600  0.09784600  0.15681100  1
  S  S37  1  0.48569300  0.67151200  0.49874800  1
  S  S38  1  0.17276400  0.98694600  0.50125200  1
  S  S39  1  0.01305400  0.51430700  0.18581900  1
  S  S40  1  0.32848800  0.82723600  0.81418100  1
  S  S41  1  0.75037000  0.61318900  0.35854000  1
  S  S42  1  0.25464900  0.39183000  0.64146000  1
  S  S43  1  0.60817000  0.24963000  0.86281900  1
  S  S44  1  0.38681100  0.74535100  0.13718100  1
  S  S45  1  0.31898500  0.31898500  0.00000000  1
  S  S46  1  0.68101500  0.68101500  0.00000000  1
  N  N47  1  0.75000000  0.25000000  0.50000000  1
  N  N48  1  0.00000000  0.00000000  0.00000000  1
