# generated using pymatgen
data_CuH4C2NCl3O
_symmetry_space_group_name_H-M   'P 1'
_cell_length_a   6.32024100
_cell_length_b   7.92178269
_cell_length_c   8.38389477
_cell_angle_alpha   71.11153431
_cell_angle_beta   76.47625304
_cell_angle_gamma   81.97237667
_symmetry_Int_Tables_number   1
_chemical_formula_structural   CuH4C2NCl3O
_chemical_formula_sum   'Cu2 H8 C4 N2 Cl6 O2'
_cell_volume   385.21131489
_cell_formula_units_Z   2
loop_
 _symmetry_equiv_pos_site_id
 _symmetry_equiv_pos_as_xyz
  1  'x, y, z'
loop_
 _atom_site_type_symbol
 _atom_site_label
 _atom_site_symmetry_multiplicity
 _atom_site_fract_x
 _atom_site_fract_y
 _atom_site_fract_z
 _atom_site_occupancy
  Cu  Cu0  1  0.70328900  0.91137900  0.61246300  1
  Cu  Cu1  1  0.29671100  0.08862100  0.38753700  1
  H  H2  1  0.96984500  0.27763700  0.75365300  1
  H  H3  1  0.03015500  0.72236300  0.24634700  1
  H  H4  1  0.91361300  0.46203900  0.85849400  1
  H  H5  1  0.08638700  0.53796100  0.14150600  1
  H  H6  1  0.71906800  0.52721500  0.57269300  1
  H  H7  1  0.28093200  0.47278500  0.42730700  1
  H  H8  1  0.50998700  0.36004700  0.70887900  1
  H  H9  1  0.49001300  0.63995300  0.29112100  1
  C  C10  1  0.88456100  0.32480400  0.86502400  1
  C  C11  1  0.11543900  0.67519600  0.13497600  1
  C  C12  1  0.56921000  0.49536000  0.67529600  1
  C  C13  1  0.43079000  0.50464000  0.32470400  1
  N  N14  1  0.75714800  0.22977900  0.98623900  1
  N  N15  1  0.24285200  0.77022100  0.01376100  1
  Cl  Cl16  1  0.62124400  0.92466200  0.35972600  1
  Cl  Cl17  1  0.37875600  0.07533800  0.64027400  1
  Cl  Cl18  1  0.01789100  0.75951600  0.56544200  1
  Cl  Cl19  1  0.98210900  0.24048400  0.43455800  1
  Cl  Cl20  1  0.75602800  0.91696200  0.85738000  1
  Cl  Cl21  1  0.24397200  0.08303800  0.14262000  1
  O  O22  1  0.47774900  0.60573300  0.74594200  1
  O  O23  1  0.52225100  0.39426700  0.25405800  1
