# generated using pymatgen
data_HgTe3H12C4N
_symmetry_space_group_name_H-M   'P 1'
_cell_length_a   22.29623300
_cell_length_b   10.56215200
_cell_length_c   11.22349189
_cell_angle_alpha   69.53411241
_cell_angle_beta   90.00000000
_cell_angle_gamma   90.00000000
_symmetry_Int_Tables_number   1
_chemical_formula_structural   HgTe3H12C4N
_chemical_formula_sum   'Hg8 Te24 H96 C32 N8'
_cell_volume   2476.25928398
_cell_formula_units_Z   8
loop_
 _symmetry_equiv_pos_site_id
 _symmetry_equiv_pos_as_xyz
  1  'x, y, z'
loop_
 _atom_site_type_symbol
 _atom_site_label
 _atom_site_symmetry_multiplicity
 _atom_site_fract_x
 _atom_site_fract_y
 _atom_site_fract_z
 _atom_site_occupancy
  Hg  Hg0  1  0.46430100  0.46198800  0.74582700  1
  Hg  Hg1  1  0.03569900  0.96198800  0.24582700  1
  Hg  Hg2  1  0.53569900  0.53801200  0.25417300  1
  Hg  Hg3  1  0.96430100  0.03801200  0.75417300  1
  Hg  Hg4  1  0.61164800  0.40405500  0.60038900  1
  Hg  Hg5  1  0.88835200  0.90405500  0.10038900  1
  Hg  Hg6  1  0.38835200  0.59594500  0.39961100  1
  Hg  Hg7  1  0.11164800  0.09594500  0.89961100  1
  Te  Te8  1  0.57377800  0.35045100  0.85093000  1
  Te  Te9  1  0.92622200  0.85045100  0.35093000  1
  Te  Te10  1  0.42622200  0.64954900  0.14907000  1
  Te  Te11  1  0.07377800  0.14954900  0.64907000  1
  Te  Te12  1  0.41402800  0.31195500  0.58054300  1
  Te  Te13  1  0.08597200  0.81195500  0.08054300  1
  Te  Te14  1  0.58597200  0.68804500  0.41945700  1
  Te  Te15  1  0.91402800  0.18804500  0.91945700  1
  Te  Te16  1  0.47732900  0.72319200  0.52830100  1
  Te  Te17  1  0.02267100  0.22319200  0.02830100  1
  Te  Te18  1  0.52267100  0.27680800  0.47169900  1
  Te  Te19  1  0.97732900  0.77680800  0.97169900  1
  Te  Te20  1  0.72692000  0.36078300  0.51227700  1
  Te  Te21  1  0.77308000  0.86078300  0.01227700  1
  Te  Te22  1  0.27308000  0.63921700  0.48772300  1
  Te  Te23  1  0.22692000  0.13921700  0.98772300  1
  Te  Te24  1  0.72114200  0.56564300  0.27476400  1
  Te  Te25  1  0.77885800  0.06564300  0.77476400  1
  Te  Te26  1  0.27885800  0.43435700  0.72523600  1
  Te  Te27  1  0.22114200  0.93435700  0.22523600  1
  Te  Te28  1  0.35985800  0.52482300  0.86639500  1
  Te  Te29  1  0.14014200  0.02482300  0.36639500  1
  Te  Te30  1  0.64014200  0.47517700  0.13360500  1
  Te  Te31  1  0.85985800  0.97517700  0.63360500  1
  H  H32  1  0.25857600  0.75590600  0.76317900  1
  H  H33  1  0.24142400  0.25590600  0.26317900  1
  H  H34  1  0.74142400  0.24409400  0.23682100  1
  H  H35  1  0.75857600  0.74409400  0.73682100  1
  H  H36  1  0.21266700  0.86345200  0.63570000  1
  H  H37  1  0.28733300  0.36345200  0.13570000  1
  H  H38  1  0.78733300  0.13654800  0.36430000  1
  H  H39  1  0.71266700  0.63654800  0.86430000  1
  H  H40  1  0.20848400  0.87831600  0.79054100  1
  H  H41  1  0.29151600  0.37831600  0.29054100  1
  H  H42  1  0.79151600  0.12168400  0.20945900  1
  H  H43  1  0.70848400  0.62168400  0.70945900  1
  H  H44  1  0.22729900  0.10773900  0.70934800  1
  H  H45  1  0.27270100  0.60773900  0.20934800  1
  H  H46  1  0.77270100  0.89226100  0.29065200  1
  H  H47  1  0.72729900  0.39226100  0.79065200  1
  H  H48  1  0.23029400  0.10236300  0.55114600  1
  H  H49  1  0.26970600  0.60236300  0.05114600  1
  H  H50  1  0.76970600  0.89763700  0.44885400  1
  H  H51  1  0.73029400  0.39763700  0.94885400  1
  H  H52  1  0.29182400  0.17554600  0.61073800  1
  H  H53  1  0.20817600  0.67554600  0.11073800  1
  H  H54  1  0.70817600  0.82445400  0.38926200  1
  H  H55  1  0.79182400  0.32445400  0.88926200  1
  H  H56  1  0.29934500  0.97137800  0.86927400  1
  H  H57  1  0.20065500  0.47137800  0.36927400  1
  H  H58  1  0.70065500  0.02862200  0.13072600  1
  H  H59  1  0.79934500  0.52862200  0.63072600  1
  H  H60  1  0.36122000  0.02795700  0.76042100  1
  H  H61  1  0.13878000  0.52795700  0.26042100  1
  H  H62  1  0.63878000  0.97204300  0.23957900  1
  H  H63  1  0.86122000  0.47204300  0.73957900  1
  H  H64  1  0.34553500  0.84927500  0.83031500  1
  H  H65  1  0.15446500  0.34927500  0.33031500  1
  H  H66  1  0.65446500  0.15072500  0.16968500  1
  H  H67  1  0.84553500  0.65072500  0.66968500  1
  H  H68  1  0.35817900  0.02931300  0.55819000  1
  H  H69  1  0.14182100  0.52931300  0.05819000  1
  H  H70  1  0.64182100  0.97068700  0.44181000  1
  H  H71  1  0.85817900  0.47068700  0.94181000  1
  H  H72  1  0.29719200  0.95311200  0.49947000  1
  H  H73  1  0.20280800  0.45311200  0.99947000  1
  H  H74  1  0.70280800  0.04688800  0.50053000  1
  H  H75  1  0.79719200  0.54688800  0.00053000  1
  H  H76  1  0.34778800  0.84817300  0.61746900  1
  H  H77  1  0.15221200  0.34817300  0.11746900  1
  H  H78  1  0.65221200  0.15182700  0.38253100  1
  H  H79  1  0.84778800  0.65182700  0.88253100  1
  H  H80  1  0.58339200  0.99928400  0.95059900  1
  H  H81  1  0.91660800  0.49928400  0.45059900  1
  H  H82  1  0.41660800  0.00071600  0.04940100  1
  H  H83  1  0.08339200  0.50071600  0.54940100  1
  H  H84  1  0.62270700  0.84095800  0.98403000  1
  H  H85  1  0.87729300  0.34095800  0.48403000  1
  H  H86  1  0.37729300  0.15904200  0.01597000  1
  H  H87  1  0.12270700  0.65904200  0.51597000  1
  H  H88  1  0.54608200  0.84030900  0.03471000  1
  H  H89  1  0.95391800  0.34030900  0.53471000  1
  H  H90  1  0.45391800  0.15969100  0.96529000  1
  H  H91  1  0.04608200  0.65969100  0.46529000  1
  H  H92  1  0.59235600  0.68630100  0.87887400  1
  H  H93  1  0.90764400  0.18630100  0.37887400  1
  H  H94  1  0.40764400  0.31369900  0.12112600  1
  H  H95  1  0.09235600  0.81369900  0.62112600  1
  H  H96  1  0.53584400  0.73807200  0.75539900  1
  H  H97  1  0.96415600  0.23807200  0.25539900  1
  H  H98  1  0.46415600  0.26192800  0.24460100  1
  H  H99  1  0.03584400  0.76192800  0.74460100  1
  H  H100  1  0.51531700  0.69422900  0.92040300  1
  H  H101  1  0.98468300  0.19422900  0.42040300  1
  H  H102  1  0.48468300  0.30577100  0.07959700  1
  H  H103  1  0.01531700  0.80577100  0.57959700  1
  H  H104  1  0.60333900  0.05950400  0.71638200  1
  H  H105  1  0.89666100  0.55950400  0.21638200  1
  H  H106  1  0.39666100  0.94049600  0.28361800  1
  H  H107  1  0.10333900  0.44049600  0.78361800  1
  H  H108  1  0.58378500  0.93645300  0.64614300  1
  H  H109  1  0.91621500  0.43645300  0.14614300  1
  H  H110  1  0.41621500  0.06354700  0.35385700  1
  H  H111  1  0.08378500  0.56354700  0.85385700  1
  H  H112  1  0.64577100  0.90573700  0.75694100  1
  H  H113  1  0.85422900  0.40573700  0.25694100  1
  H  H114  1  0.35422900  0.09426300  0.24305900  1
  H  H115  1  0.14577100  0.59426300  0.74305900  1
  H  H116  1  0.46518900  0.90187300  0.87236200  1
  H  H117  1  0.03481100  0.40187300  0.37236200  1
  H  H118  1  0.53481100  0.09812700  0.12763800  1
  H  H119  1  0.96518900  0.59812700  0.62763800  1
  H  H120  1  0.48680700  0.95259200  0.70681600  1
  H  H121  1  0.01319300  0.45259200  0.20681600  1
  H  H122  1  0.51319300  0.04740800  0.29318400  1
  H  H123  1  0.98680700  0.54740800  0.79318400  1
  H  H124  1  0.50378000  0.06047900  0.79551200  1
  H  H125  1  0.99622000  0.56047900  0.29551200  1
  H  H126  1  0.49622000  0.93952100  0.20448800  1
  H  H127  1  0.00378000  0.43952100  0.70448800  1
  C  C128  1  0.23775700  0.85626500  0.72186600  1
  C  C129  1  0.26224300  0.35626500  0.22186600  1
  C  C130  1  0.76224300  0.14373500  0.27813400  1
  C  C131  1  0.73775700  0.64373500  0.77813400  1
  C  C132  1  0.25659300  0.09775500  0.63509500  1
  C  C133  1  0.24340700  0.59775500  0.13509500  1
  C  C134  1  0.74340700  0.90224500  0.36490500  1
  C  C135  1  0.75659300  0.40224500  0.86490500  1
  C  C136  1  0.32596500  0.95120000  0.79575200  1
  C  C137  1  0.17403500  0.45120000  0.29575200  1
  C  C138  1  0.67403500  0.04880000  0.20424800  1
  C  C139  1  0.82596500  0.54880000  0.70424800  1
  C  C140  1  0.32530500  0.94666800  0.58135400  1
  C  C141  1  0.17469500  0.44666800  0.08135400  1
  C  C142  1  0.67469500  0.05333200  0.41864600  1
  C  C143  1  0.82530500  0.55333200  0.91864600  1
  C  C144  1  0.57916100  0.89223700  0.96132900  1
  C  C145  1  0.92083900  0.39223700  0.46132900  1
  C  C146  1  0.42083900  0.10776300  0.03867100  1
  C  C147  1  0.07916100  0.60776300  0.53867100  1
  C  C148  1  0.54989600  0.73969200  0.84854300  1
  C  C149  1  0.95010400  0.23969200  0.34854300  1
  C  C150  1  0.45010400  0.26030800  0.15145700  1
  C  C151  1  0.04989600  0.76030800  0.65145700  1
  C  C152  1  0.60120300  0.95115700  0.73170100  1
  C  C153  1  0.89879700  0.45115700  0.23170100  1
  C  C154  1  0.39879700  0.04884300  0.26829900  1
  C  C155  1  0.10120300  0.54884300  0.76829900  1
  C  C156  1  0.49859000  0.95557100  0.80058700  1
  C  C157  1  0.00141000  0.45557100  0.30058700  1
  C  C158  1  0.50141000  0.04442900  0.19941300  1
  C  C159  1  0.99859000  0.54442900  0.69941300  1
  N  N160  1  0.28628700  0.96173000  0.68432400  1
  N  N161  1  0.21371300  0.46173000  0.18432400  1
  N  N162  1  0.71371300  0.03827000  0.31567600  1
  N  N163  1  0.78628700  0.53827000  0.81567600  1
  N  N164  1  0.55769600  0.88468900  0.83686600  1
  N  N165  1  0.94230400  0.38468900  0.33686600  1
  N  N166  1  0.44230400  0.11531100  0.16313400  1
  N  N167  1  0.05769600  0.61531100  0.66313400  1
