# generated using pymatgen
data_VH7(CO2)4
_symmetry_space_group_name_H-M   'P 1'
_cell_length_a   7.66733600
_cell_length_b   7.68819455
_cell_length_c   8.29587670
_cell_angle_alpha   107.09044898
_cell_angle_beta   94.64031054
_cell_angle_gamma   114.53301488
_symmetry_Int_Tables_number   1
_chemical_formula_structural   VH7(CO2)4
_chemical_formula_sum   'V2 H14 C8 O16'
_cell_volume   413.49086891
_cell_formula_units_Z   2
loop_
 _symmetry_equiv_pos_site_id
 _symmetry_equiv_pos_as_xyz
  1  'x, y, z'
loop_
 _atom_site_type_symbol
 _atom_site_label
 _atom_site_symmetry_multiplicity
 _atom_site_fract_x
 _atom_site_fract_y
 _atom_site_fract_z
 _atom_site_occupancy
  V  V0  1  0.18879000  0.19357300  0.10454000  1
  V  V1  1  0.81121000  0.80642700  0.89546000  1
  H  H2  1  0.36142100  0.60466000  0.26366800  1
  H  H3  1  0.63857900  0.39534000  0.73633200  1
  H  H4  1  0.28332400  0.54830500  0.05530600  1
  H  H5  1  0.71667600  0.45169500  0.94469400  1
  H  H6  1  0.08292700  0.84698800  0.14870200  1
  H  H7  1  0.91707300  0.15301200  0.85129800  1
  H  H8  1  0.57188600  0.30017600  0.20903000  1
  H  H9  1  0.42811400  0.69982400  0.79097000  1
  H  H10  1  0.46054300  0.23513700  0.36327000  1
  H  H11  1  0.53945700  0.76486300  0.63673000  1
  H  H12  1  0.11800600  0.48478800  0.78743000  1
  H  H13  1  0.88199400  0.51521200  0.21257000  1
  H  H14  1  0.17734300  0.71294100  0.91342300  1
  H  H15  1  0.82265700  0.28705900  0.08657700  1
  C  C16  1  0.25366300  0.06830500  0.74294200  1
  C  C17  1  0.74633700  0.93169500  0.25705800  1
  C  C18  1  0.32585600  0.07648900  0.58584200  1
  C  C19  1  0.67414400  0.92351100  0.41415800  1
  C  C20  1  0.14568700  0.88239000  0.48170200  1
  C  C21  1  0.85431300  0.11761000  0.51829800  1
  C  C22  1  0.07420900  0.88118400  0.64146500  1
  C  C23  1  0.92579100  0.11881600  0.35853500  1
  O  O24  1  0.32173000  0.18826900  0.90037100  1
  O  O25  1  0.67827000  0.81173100  0.09962900  1
  O  O26  1  0.47466500  0.20635300  0.55644000  1
  O  O27  1  0.52533500  0.79364700  0.44356000  1
  O  O28  1  0.07550100  0.77116300  0.32376900  1
  O  O29  1  0.92449900  0.22883700  0.67623100  1
  O  O30  1  0.91363300  0.76905600  0.67124900  1
  O  O31  1  0.08636700  0.23094400  0.32875100  1
  O  O32  1  0.27168300  0.49384100  0.15105400  1
  O  O33  1  0.72831700  0.50615900  0.84894600  1
  O  O34  1  0.07796100  0.88527300  0.04356400  1
  O  O35  1  0.92203900  0.11472700  0.95643600  1
  O  O36  1  0.44456400  0.24874300  0.24720400  1
  O  O37  1  0.55543600  0.75125700  0.75279600  1
  O  O38  1  0.23015000  0.61460300  0.86985800  1
  O  O39  1  0.76985000  0.38539700  0.13014200  1
