# generated using pymatgen
data_NaCaB5H16O17
_symmetry_space_group_name_H-M   'P 1'
_cell_length_a   6.61481500
_cell_length_b   9.20549512
_cell_length_c   13.42165760
_cell_angle_alpha   103.10241765
_cell_angle_beta   88.89686390
_cell_angle_gamma   110.19313016
_symmetry_Int_Tables_number   1
_chemical_formula_structural   NaCaB5H16O17
_chemical_formula_sum   'Na2 Ca2 B10 H32 O34'
_cell_volume   745.51898730
_cell_formula_units_Z   2
loop_
 _symmetry_equiv_pos_site_id
 _symmetry_equiv_pos_as_xyz
  1  'x, y, z'
loop_
 _atom_site_type_symbol
 _atom_site_label
 _atom_site_symmetry_multiplicity
 _atom_site_fract_x
 _atom_site_fract_y
 _atom_site_fract_z
 _atom_site_occupancy
  Na  Na0  1  0.24329100  0.46757400  0.50286300  1
  Na  Na1  1  0.75670900  0.53242600  0.49713700  1
  Ca  Ca2  1  0.87502300  0.15656300  0.02685100  1
  Ca  Ca3  1  0.12497700  0.84343700  0.97314900  1
  B  B4  1  0.39539200  0.05909700  0.18197600  1
  B  B5  1  0.60460800  0.94090300  0.81802400  1
  B  B6  1  0.46951900  0.37772600  0.28618800  1
  B  B7  1  0.53048100  0.62227400  0.71381200  1
  B  B8  1  0.02054500  0.84393800  0.20105300  1
  B  B9  1  0.97945500  0.15606200  0.79894700  1
  B  B10  1  0.45521700  0.17429200  0.02002100  1
  B  B11  1  0.54478300  0.82570800  0.97997900  1
  B  B12  1  0.39460300  0.80221900  0.25098400  1
  B  B13  1  0.60539700  0.19778100  0.74901600  1
  H  H14  1  0.82040300  0.51912300  0.95335800  1
  H  H15  1  0.17959700  0.48087700  0.04664200  1
  H  H16  1  0.99507400  0.78589500  0.46271600  1
  H  H17  1  0.00492600  0.21410500  0.53728400  1
  H  H18  1  0.20432800  0.21741200  0.91703000  1
  H  H19  1  0.79567200  0.78258800  0.08297000  1
  H  H20  1  0.57116900  0.52339800  0.19292100  1
  H  H21  1  0.42883100  0.47660200  0.80707900  1
  H  H22  1  0.41651600  0.66317600  0.34078700  1
  H  H23  1  0.58348400  0.33682400  0.65921300  1
  H  H24  1  0.80919500  0.80422200  0.40278100  1
  H  H25  1  0.19080500  0.19577800  0.59721900  1
  H  H26  1  0.66248900  0.00483200  0.24489000  1
  H  H27  1  0.33751100  0.99516800  0.75511000  1
  H  H28  1  0.02583100  0.11172100  0.21258000  1
  H  H29  1  0.97416900  0.88827900  0.78742000  1
  H  H30  1  0.25729300  0.42531300  0.13579400  1
  H  H31  1  0.74270700  0.57468700  0.86420600  1
  H  H32  1  0.13107100  0.62528900  0.17989600  1
  H  H33  1  0.86892900  0.37471100  0.82010400  1
  H  H34  1  0.97307800  0.26667400  0.26683300  1
  H  H35  1  0.02692200  0.73332600  0.73316700  1
  H  H36  1  0.99617800  0.57733600  0.32099300  1
  H  H37  1  0.00382200  0.42266400  0.67900700  1
  H  H38  1  0.04576400  0.98780000  0.34631300  1
  H  H39  1  0.95423600  0.01220000  0.65368700  1
  H  H40  1  0.52998500  0.10640900  0.45079300  1
  H  H41  1  0.47001500  0.89359100  0.54920700  1
  H  H42  1  0.43940500  0.18768900  0.34753500  1
  H  H43  1  0.56059500  0.81231100  0.65246500  1
  H  H44  1  0.45215500  0.14553500  0.47615800  1
  H  H45  1  0.54784500  0.85446500  0.52384200  1
  O  O46  1  0.43310900  0.20539600  0.27839100  1
  O  O47  1  0.56689100  0.79460400  0.72160900  1
  O  O48  1  0.51572400  0.11103300  0.10354700  1
  O  O49  1  0.48427600  0.88896700  0.89645300  1
  O  O50  1  0.50173300  0.95857700  0.23615100  1
  O  O51  1  0.49826700  0.04142300  0.76384900  1
  O  O52  1  0.17326400  0.97243400  0.16159200  1
  O  O53  1  0.82673600  0.02756600  0.83840800  1
  O  O54  1  0.48829000  0.41033700  0.18859400  1
  O  O55  1  0.51171000  0.58966300  0.81140600  1
  O  O56  1  0.17115500  0.73774400  0.22499800  1
  O  O57  1  0.82884500  0.26225600  0.77500200  1
  O  O58  1  0.62555100  0.25204100  0.97323900  1
  O  O59  1  0.37444900  0.74795900  0.02676100  1
  O  O60  1  0.94220900  0.90236900  0.29669000  1
  O  O61  1  0.05779100  0.09763100  0.70331000  1
  O  O62  1  0.23721600  0.12890000  0.99572300  1
  O  O63  1  0.76278400  0.87110000  0.00427700  1
  O  O64  1  0.86419000  0.72947500  0.12660400  1
  O  O65  1  0.13581000  0.27052500  0.87339600  1
  O  O66  1  0.47445200  0.46550000  0.37602700  1
  O  O67  1  0.52554800  0.53450000  0.62397300  1
  O  O68  1  0.50083100  0.73040100  0.29386200  1
  O  O69  1  0.49916900  0.26959900  0.70613800  1
  O  O70  1  0.91766900  0.16479500  0.21556600  1
  O  O71  1  0.08233100  0.83520500  0.78443400  1
  O  O72  1  0.13051000  0.44508300  0.10904800  1
  O  O73  1  0.86949000  0.55491700  0.89095200  1
  O  O74  1  0.02198800  0.52716000  0.37359800  1
  O  O75  1  0.97801200  0.47284000  0.62640200  1
  O  O76  1  0.15071200  0.20456500  0.52894600  1
  O  O77  1  0.84928800  0.79543500  0.47105400  1
  O  O78  1  0.81300200  0.32802300  0.55764900  1
  O  O79  1  0.18699800  0.67197700  0.44235100  1
