# generated using pymatgen
data_RbCoH24(C7N4)2
_symmetry_space_group_name_H-M   'P 1'
_cell_length_a   8.84474173
_cell_length_b   8.84474173
_cell_length_c   8.84474173
_cell_angle_alpha   119.39169456
_cell_angle_beta   119.39169456
_cell_angle_gamma   91.05688520
_symmetry_Int_Tables_number   1
_chemical_formula_structural   RbCoH24(C7N4)2
_chemical_formula_sum   'Rb1 Co1 H24 C14 N8'
_cell_volume   493.66846564
_cell_formula_units_Z   1
loop_
 _symmetry_equiv_pos_site_id
 _symmetry_equiv_pos_as_xyz
  1  'x, y, z'
loop_
 _atom_site_type_symbol
 _atom_site_label
 _atom_site_symmetry_multiplicity
 _atom_site_fract_x
 _atom_site_fract_y
 _atom_site_fract_z
 _atom_site_occupancy
  Rb  Rb0  1  0.50000000  0.50000000  0.00000000  1
  Co  Co1  1  0.00000000  0.00000000  0.00000000  1
  H  H2  1  0.02106200  0.34011200  0.77674400  1
  H  H3  1  0.56336800  0.24431800  0.22325600  1
  H  H4  1  0.24431800  0.02106200  0.68095000  1
  H  H5  1  0.34011200  0.56336800  0.31905000  1
  H  H6  1  0.97893800  0.65988800  0.22325600  1
  H  H7  1  0.43663200  0.75568200  0.77674400  1
  H  H8  1  0.75568200  0.97893800  0.31905000  1
  H  H9  1  0.65988800  0.43663200  0.68095000  1
  H  H10  1  0.00674900  0.44560600  0.64452800  1
  H  H11  1  0.80107700  0.36222100  0.35547200  1
  H  H12  1  0.36222100  0.00674900  0.56114400  1
  H  H13  1  0.44560600  0.80107700  0.43885600  1
  H  H14  1  0.99325100  0.55439400  0.35547200  1
  H  H15  1  0.19892300  0.63777900  0.64452800  1
  H  H16  1  0.63777900  0.99325100  0.43885600  1
  H  H17  1  0.55439400  0.19892300  0.56114400  1
  H  H18  1  0.91635700  0.51343000  0.79975800  1
  H  H19  1  0.71367200  0.11659900  0.20024200  1
  H  H20  1  0.11659900  0.91635700  0.40292700  1
  H  H21  1  0.51343000  0.71367200  0.59707300  1
  H  H22  1  0.08364300  0.48657000  0.20024200  1
  H  H23  1  0.28632800  0.88340100  0.79975800  1
  H  H24  1  0.88340100  0.08364300  0.59707300  1
  H  H25  1  0.48657000  0.28632800  0.40292700  1
  C  C26  1  0.84845400  0.84845400  0.00000000  1
  C  C27  1  0.15154600  0.15154600  0.00000000  1
  C  C28  1  0.16851300  0.87211100  0.04062400  1
  C  C29  1  0.83148700  0.12788900  0.95937600  1
  C  C30  1  0.12788900  0.16851300  0.29640200  1
  C  C31  1  0.87211100  0.83148700  0.70359800  1
  C  C32  1  0.93710700  0.39786600  0.69419100  1
  C  C33  1  0.70367500  0.24291600  0.30580900  1
  C  C34  1  0.24291600  0.93710700  0.53924100  1
  C  C35  1  0.39786600  0.70367500  0.46075900  1
  C  C36  1  0.06289300  0.60213400  0.30580900  1
  C  C37  1  0.29632500  0.75708400  0.69419100  1
  C  C38  1  0.75708400  0.06289300  0.46075900  1
  C  C39  1  0.60213400  0.29632500  0.53924100  1
  N  N40  1  0.75365800  0.75365800  0.00000000  1
  N  N41  1  0.24634200  0.24634200  0.00000000  1
  N  N42  1  0.27201300  0.79091800  0.06293200  1
  N  N43  1  0.72798700  0.20908200  0.93706800  1
  N  N44  1  0.20908200  0.27201300  0.48109500  1
  N  N45  1  0.79091800  0.72798700  0.51890500  1
  N  N46  1  0.75000000  0.25000000  0.50000000  1
  N  N47  1  0.25000000  0.75000000  0.50000000  1
