# generated using pymatgen
data_Ti3V2O9
_symmetry_space_group_name_H-M   'P 1'
_cell_length_a   10.86995708
_cell_length_b   10.86995708
_cell_length_c   6.94179588
_cell_angle_alpha   75.61193362
_cell_angle_beta   75.61193362
_cell_angle_gamma   28.27818330
_symmetry_Int_Tables_number   1
_chemical_formula_structural   Ti3V2O9
_chemical_formula_sum   'Ti6 V4 O18'
_cell_volume   375.60449756
_cell_formula_units_Z   2
loop_
 _symmetry_equiv_pos_site_id
 _symmetry_equiv_pos_as_xyz
  1  'x, y, z'
loop_
 _atom_site_type_symbol
 _atom_site_label
 _atom_site_symmetry_multiplicity
 _atom_site_fract_x
 _atom_site_fract_y
 _atom_site_fract_z
 _atom_site_occupancy
  Ti  Ti0  1  0.00000000  0.00000000  0.00000000  1
  Ti  Ti1  1  0.00000000  0.00000000  0.50000000  1
  Ti  Ti2  1  0.08616500  0.26629500  0.94175300  1
  Ti  Ti3  1  0.73370500  0.91383500  0.55824700  1
  Ti  Ti4  1  0.91383500  0.73370500  0.05824700  1
  Ti  Ti5  1  0.26629500  0.08616500  0.44175300  1
  V  V6  1  0.51081100  0.61618900  0.08421200  1
  V  V7  1  0.38381100  0.48918900  0.41578800  1
  V  V8  1  0.48918900  0.38381100  0.91578800  1
  V  V9  1  0.61618900  0.51081100  0.58421200  1
  O  O10  1  0.13820100  0.04967200  0.99139800  1
  O  O11  1  0.95032800  0.86179900  0.50860200  1
  O  O12  1  0.86179900  0.95032800  0.00860200  1
  O  O13  1  0.04967200  0.13820100  0.49139800  1
  O  O14  1  0.73589900  0.55773100  0.97974200  1
  O  O15  1  0.44226900  0.26410100  0.52025800  1
  O  O16  1  0.26410100  0.44226900  0.02025800  1
  O  O17  1  0.55773100  0.73589900  0.47974200  1
  O  O18  1  0.64050300  0.31644700  0.11950100  1
  O  O19  1  0.68355300  0.35949700  0.38049900  1
  O  O20  1  0.35949700  0.68355300  0.88049900  1
  O  O21  1  0.31644700  0.64050300  0.61950100  1
  O  O22  1  0.79324500  0.79341900  0.33753700  1
  O  O23  1  0.20658100  0.20675500  0.16246300  1
  O  O24  1  0.20675500  0.20658100  0.66246300  1
  O  O25  1  0.79341900  0.79324500  0.83753700  1
  O  O26  1  0.18803600  0.81196400  0.25000000  1
  O  O27  1  0.81196400  0.18803600  0.75000000  1
