# generated using pymatgen
data_FeBi25O39
_symmetry_space_group_name_H-M   'P 1'
_cell_length_a   10.33105814
_cell_length_b   10.33105814
_cell_length_c   10.33105844
_cell_angle_alpha   90.16161996
_cell_angle_beta   90.16161996
_cell_angle_gamma   90.16161686
_symmetry_Int_Tables_number   1
_chemical_formula_structural   FeBi25O39
_chemical_formula_sum   'Fe1 Bi25 O39'
_cell_volume   1102.62855646
_cell_formula_units_Z   1
loop_
 _symmetry_equiv_pos_site_id
 _symmetry_equiv_pos_as_xyz
  1  'x, y, z'
loop_
 _atom_site_type_symbol
 _atom_site_label
 _atom_site_symmetry_multiplicity
 _atom_site_fract_x
 _atom_site_fract_y
 _atom_site_fract_z
 _atom_site_occupancy
  Fe  Fe0  1  0.49959300  0.49959300  0.49959300  1
  Bi  Bi1  1  0.68416400  0.98750600  0.82270800  1
  Bi  Bi2  1  0.32473500  0.81261300  0.51449100  1
  Bi  Bi3  1  0.33170300  0.98365900  0.18294600  1
  Bi  Bi4  1  0.67603100  0.81474400  0.49019000  1
  Bi  Bi5  1  0.98750600  0.82270800  0.68416400  1
  Bi  Bi6  1  0.51165900  0.67127600  0.18240900  1
  Bi  Bi7  1  0.01075800  0.81787500  0.32600000  1
  Bi  Bi8  1  0.81261300  0.51449100  0.32473500  1
  Bi  Bi9  1  0.01677100  0.01677100  0.01677100  1
  Bi  Bi10  1  0.49019000  0.67603100  0.81474400  1
  Bi  Bi11  1  0.82270800  0.68416400  0.98750600  1
  Bi  Bi12  1  0.18577700  0.48812500  0.32322500  1
  Bi  Bi13  1  0.17653500  0.68610100  0.01277000  1
  Bi  Bi14  1  0.81787500  0.32600000  0.01075800  1
  Bi  Bi15  1  0.81474400  0.49019000  0.67603100  1
  Bi  Bi16  1  0.18294600  0.33170300  0.98365900  1
  Bi  Bi17  1  0.48812500  0.32322500  0.18577700  1
  Bi  Bi18  1  0.18240900  0.51165900  0.67127600  1
  Bi  Bi19  1  0.01277000  0.17653500  0.68610100  1
  Bi  Bi20  1  0.51449100  0.32473500  0.81261300  1
  Bi  Bi21  1  0.32600000  0.01075800  0.81787500  1
  Bi  Bi22  1  0.98365900  0.18294600  0.33170300  1
  Bi  Bi23  1  0.32322500  0.18577700  0.48812500  1
  Bi  Bi24  1  0.67127600  0.18240900  0.51165900  1
  Bi  Bi25  1  0.68610100  0.01277000  0.17653500  1
  O  O26  1  0.10447400  0.88412100  0.88928800  1
  O  O27  1  0.25106700  0.98718600  0.62988200  1
  O  O28  1  0.51012900  0.86844600  0.74795100  1
  O  O29  1  0.30805600  0.68948200  0.69202100  1
  O  O30  1  0.80894500  0.80894500  0.80894500  1
  O  O31  1  0.48784800  0.86520200  0.25132500  1
  O  O32  1  0.60784000  0.60784000  0.60784000  1
  O  O33  1  0.39177700  0.60661100  0.39124300  1
  O  O34  1  0.74759000  0.98965700  0.37016000  1
  O  O35  1  0.86844600  0.74795100  0.51012900  1
  O  O36  1  0.37016000  0.74759000  0.98965700  1
  O  O37  1  0.68948200  0.69202100  0.30805600  1
  O  O38  1  0.60661100  0.39124300  0.39177700  1
  O  O39  1  0.62952500  0.74674000  0.01137900  1
  O  O40  1  0.88412100  0.88928800  0.10447400  1
  O  O41  1  0.13218200  0.74543800  0.48956400  1
  O  O42  1  0.98718600  0.62988200  0.25106700  1
  O  O43  1  0.74543800  0.48956400  0.13218200  1
  O  O44  1  0.18512700  0.81547100  0.18655100  1
  O  O45  1  0.74795100  0.51012900  0.86844600  1
  O  O46  1  0.01405700  0.36566900  0.24972500  1
  O  O47  1  0.81547100  0.18655100  0.18512700  1
  O  O48  1  0.25031500  0.50994800  0.12893900  1
  O  O49  1  0.01137900  0.62952500  0.74674000  1
  O  O50  1  0.30811400  0.30811400  0.30811400  1
  O  O51  1  0.98965700  0.37016000  0.74759000  1
  O  O52  1  0.88928800  0.10447400  0.88412100  1
  O  O53  1  0.25132500  0.48784800  0.86520200  1
  O  O54  1  0.36566900  0.24972500  0.01405700  1
  O  O55  1  0.86520200  0.25132500  0.48784800  1
  O  O56  1  0.18655100  0.18512700  0.81547100  1
  O  O57  1  0.12893900  0.25031500  0.50994800  1
  O  O58  1  0.39124300  0.39177700  0.60661100  1
  O  O59  1  0.62988200  0.25106700  0.98718600  1
  O  O60  1  0.48956400  0.13218200  0.74543800  1
  O  O61  1  0.69202100  0.30805600  0.68948200  1
  O  O62  1  0.24972500  0.01405700  0.36566900  1
  O  O63  1  0.74674000  0.01137900  0.62952500  1
  O  O64  1  0.50994800  0.12893900  0.25031500  1
