# generated using pymatgen
data_K2TcC2S4NO4
_symmetry_space_group_name_H-M   'P 1'
_cell_length_a   9.26912545
_cell_length_b   16.43347600
_cell_length_c   7.90584485
_cell_angle_alpha   90.00000000
_cell_angle_beta   87.28073231
_cell_angle_gamma   90.00000000
_symmetry_Int_Tables_number   1
_chemical_formula_structural   K2TcC2S4NO4
_chemical_formula_sum   'K8 Tc4 C8 S16 N4 O16'
_cell_volume   1202.89350851
_cell_formula_units_Z   4
loop_
 _symmetry_equiv_pos_site_id
 _symmetry_equiv_pos_as_xyz
  1  'x, y, z'
loop_
 _atom_site_type_symbol
 _atom_site_label
 _atom_site_symmetry_multiplicity
 _atom_site_fract_x
 _atom_site_fract_y
 _atom_site_fract_z
 _atom_site_occupancy
  K  K0  1  0.41129200  0.68142900  0.73458100  1
  K  K1  1  0.91129200  0.81857100  0.23458100  1
  K  K2  1  0.58870800  0.31857100  0.26541900  1
  K  K3  1  0.08870800  0.18142900  0.76541900  1
  K  K4  1  0.13033500  0.45507700  0.71734800  1
  K  K5  1  0.63033500  0.04492300  0.21734800  1
  K  K6  1  0.86966500  0.54492300  0.28265200  1
  K  K7  1  0.36966500  0.95507700  0.78265200  1
  Tc  Tc8  1  0.24628400  0.68420600  0.24911100  1
  Tc  Tc9  1  0.74628400  0.81579400  0.74911100  1
  Tc  Tc10  1  0.75371600  0.31579400  0.75088900  1
  Tc  Tc11  1  0.25371600  0.18420600  0.25088900  1
  C  C12  1  0.34720200  0.50866400  0.18028900  1
  C  C13  1  0.84720200  0.99133600  0.68028900  1
  C  C14  1  0.65279800  0.49133600  0.81971100  1
  C  C15  1  0.15279800  0.00866400  0.31971100  1
  C  C16  1  0.36130100  0.85576500  0.16754600  1
  C  C17  1  0.86130100  0.64423500  0.66754600  1
  C  C18  1  0.63869900  0.14423500  0.83245400  1
  C  C19  1  0.13869900  0.35576500  0.33245400  1
  S  S20  1  0.24885400  0.57500000  0.04943200  1
  S  S21  1  0.74885400  0.92500000  0.54943200  1
  S  S22  1  0.75114600  0.42500000  0.95056800  1
  S  S23  1  0.25114600  0.07500000  0.45056800  1
  S  S24  1  0.39637300  0.57863900  0.35647400  1
  S  S25  1  0.89637300  0.92136100  0.85647400  1
  S  S26  1  0.60362700  0.42136100  0.64352600  1
  S  S27  1  0.10362700  0.07863900  0.14352600  1
  S  S28  1  0.25595100  0.79134800  0.04084300  1
  S  S29  1  0.75595100  0.70865200  0.54084300  1
  S  S30  1  0.74404900  0.20865200  0.95915700  1
  S  S31  1  0.24404900  0.29134800  0.45915700  1
  S  S32  1  0.41291600  0.78658800  0.33651200  1
  S  S33  1  0.91291600  0.71341200  0.83651200  1
  S  S34  1  0.58708400  0.21341200  0.66348800  1
  S  S35  1  0.08708400  0.28658800  0.16348800  1
  N  N36  1  0.09160400  0.68646400  0.36199300  1
  N  N37  1  0.59160400  0.81353600  0.86199200  1
  N  N38  1  0.90839600  0.31353600  0.63800800  1
  N  N39  1  0.40839600  0.18646400  0.13800800  1
  O  O40  1  0.38697700  0.43943000  0.15497600  1
  O  O41  1  0.88697700  0.06057000  0.65497600  1
  O  O42  1  0.61302300  0.56057000  0.84502400  1
  O  O43  1  0.11302300  0.93943000  0.34502400  1
  O  O44  1  0.40452100  0.92482700  0.13882600  1
  O  O45  1  0.90452100  0.57517300  0.63882600  1
  O  O46  1  0.59547900  0.07517300  0.86117400  1
  O  O47  1  0.09547900  0.42482700  0.36117400  1
  O  O48  1  0.35672200  0.54748800  0.53622300  1
  O  O49  1  0.85672200  0.95251200  0.03622300  1
  O  O50  1  0.64327800  0.45251200  0.46377700  1
  O  O51  1  0.14327800  0.04748800  0.96377700  1
  O  O52  1  0.40831200  0.82262800  0.51548500  1
  O  O53  1  0.90831200  0.67737200  0.01548500  1
  O  O54  1  0.59168800  0.17737200  0.48451500  1
  O  O55  1  0.09168800  0.32262800  0.98451500  1
