# generated using pymatgen
data_H4NClO4
_symmetry_space_group_name_H-M   'P 1'
_cell_length_a   5.90014800
_cell_length_b   7.57347300
_cell_length_c   9.35744100
_cell_angle_alpha   90.00000000
_cell_angle_beta   90.00000000
_cell_angle_gamma   90.00000000
_symmetry_Int_Tables_number   1
_chemical_formula_structural   H4NClO4
_chemical_formula_sum   'H16 N4 Cl4 O16'
_cell_volume   418.13361641
_cell_formula_units_Z   4
loop_
 _symmetry_equiv_pos_site_id
 _symmetry_equiv_pos_as_xyz
  1  'x, y, z'
loop_
 _atom_site_type_symbol
 _atom_site_label
 _atom_site_symmetry_multiplicity
 _atom_site_fract_x
 _atom_site_fract_y
 _atom_site_fract_z
 _atom_site_occupancy
  H  H0  1  0.82767100  0.07276600  0.30342600  1
  H  H1  1  0.32767100  0.92723400  0.69657400  1
  H  H2  1  0.32767100  0.57276600  0.19657400  1
  H  H3  1  0.82767100  0.42723400  0.80342600  1
  H  H4  1  0.59281600  0.12642200  0.39725600  1
  H  H5  1  0.09281600  0.87357800  0.60274400  1
  H  H6  1  0.09281600  0.62642200  0.10274400  1
  H  H7  1  0.59281600  0.37357800  0.89725600  1
  H  H8  1  0.77880200  0.28339300  0.35116400  1
  H  H9  1  0.27880200  0.71660700  0.64883600  1
  H  H10  1  0.27880200  0.78339300  0.14883600  1
  H  H11  1  0.77880200  0.21660700  0.85116400  1
  H  H12  1  0.61735200  0.19021300  0.22517300  1
  H  H13  1  0.11735200  0.80978700  0.77482700  1
  H  H14  1  0.11735200  0.69021300  0.27482700  1
  H  H15  1  0.61735200  0.30978700  0.72517300  1
  N  N16  1  0.70442600  0.16697800  0.31890200  1
  N  N17  1  0.20442600  0.83302200  0.68109800  1
  N  N18  1  0.20442600  0.66697800  0.18109800  1
  N  N19  1  0.70442600  0.33302200  0.81890200  1
  Cl  Cl20  1  0.20068100  0.30796000  0.56818300  1
  Cl  Cl21  1  0.70068100  0.69204000  0.43181700  1
  Cl  Cl22  1  0.70068100  0.80796000  0.93181700  1
  Cl  Cl23  1  0.20068100  0.19204000  0.06818300  1
  O  O24  1  0.40078800  0.19085100  0.58220600  1
  O  O25  1  0.90078800  0.80914900  0.41779400  1
  O  O26  1  0.90078800  0.69085100  0.91779400  1
  O  O27  1  0.40078800  0.30914900  0.08220600  1
  O  O28  1  0.20546200  0.43551800  0.68565900  1
  O  O29  1  0.70546200  0.56448200  0.31434100  1
  O  O30  1  0.70546200  0.93551800  0.81434100  1
  O  O31  1  0.20546200  0.06448200  0.18565900  1
  O  O32  1  0.99557500  0.19995600  0.57771000  1
  O  O33  1  0.49557500  0.80004400  0.42229000  1
  O  O34  1  0.49557500  0.69995600  0.92229000  1
  O  O35  1  0.99557500  0.30004400  0.07771000  1
  O  O36  1  0.20872600  0.39806200  0.43139100  1
  O  O37  1  0.70872600  0.60193800  0.56860900  1
  O  O38  1  0.70872600  0.89806200  0.06860900  1
  O  O39  1  0.20872600  0.10193800  0.93139100  1
