# generated using pymatgen
data_AgH12C4S5N
_symmetry_space_group_name_H-M   'P 1'
_cell_length_a   10.83171490
_cell_length_b   10.83171490
_cell_length_c   7.21975421
_cell_angle_alpha   73.88333976
_cell_angle_beta   73.88333976
_cell_angle_gamma   118.69452167
_symmetry_Int_Tables_number   1
_chemical_formula_structural   AgH12C4S5N
_chemical_formula_sum   'Ag2 H24 C8 S10 N2'
_cell_volume   623.24170242
_cell_formula_units_Z   2
loop_
 _symmetry_equiv_pos_site_id
 _symmetry_equiv_pos_as_xyz
  1  'x, y, z'
loop_
 _atom_site_type_symbol
 _atom_site_label
 _atom_site_symmetry_multiplicity
 _atom_site_fract_x
 _atom_site_fract_y
 _atom_site_fract_z
 _atom_site_occupancy
  Ag  Ag0  1  0.82474400  0.78083100  0.27487200  1
  Ag  Ag1  1  0.78083100  0.82474400  0.77487200  1
  H  H2  1  0.41337800  0.09608900  0.96886100  1
  H  H3  1  0.09608900  0.41337800  0.46886100  1
  H  H4  1  0.51275000  0.03406200  0.82035500  1
  H  H5  1  0.03406200  0.51275000  0.32035500  1
  H  H6  1  0.57468500  0.23702100  0.68824000  1
  H  H7  1  0.23702100  0.57468500  0.18824000  1
  H  H8  1  0.47337400  0.99928400  0.51678300  1
  H  H9  1  0.99928400  0.47337400  0.01678300  1
  H  H10  1  0.53583400  0.20283600  0.38654200  1
  H  H11  1  0.20283600  0.53583400  0.88654200  1
  H  H12  1  0.34440300  0.03662900  0.44270100  1
  H  H13  1  0.03662900  0.34440300  0.94270100  1
  H  H14  1  0.40299200  0.28688300  0.58556800  1
  H  H15  1  0.28688300  0.40299200  0.08556800  1
  H  H16  1  0.21061400  0.12033400  0.64249800  1
  H  H17  1  0.12033400  0.21061400  0.14249800  1
  H  H18  1  0.23893400  0.14622500  0.86537500  1
  H  H19  1  0.14622500  0.23893400  0.36537500  1
  H  H20  1  0.12565400  0.84651700  0.82052600  1
  H  H21  1  0.84651700  0.12565400  0.32052600  1
  H  H22  1  0.15354200  0.87121800  0.04531200  1
  H  H23  1  0.87121800  0.15354200  0.54531200  1
  H  H24  1  0.25489800  0.81055400  0.89404800  1
  H  H25  1  0.81055400  0.25489800  0.39404800  1
  C  C26  1  0.47259800  0.10990900  0.80630800  1
  C  C27  1  0.10990900  0.47259800  0.30630800  1
  C  C28  1  0.43314800  0.07537200  0.50021800  1
  C  C29  1  0.07537200  0.43314800  0.00021800  1
  C  C30  1  0.29765600  0.16087300  0.70241700  1
  C  C31  1  0.16087300  0.29765600  0.20241700  1
  C  C32  1  0.21127200  0.88358800  0.88295500  1
  C  C33  1  0.88358800  0.21127100  0.38295500  1
  S  S34  1  0.87539800  0.00804300  0.94449500  1
  S  S35  1  0.00804300  0.87539800  0.44449500  1
  S  S36  1  0.76843800  0.52739600  0.25538000  1
  S  S37  1  0.52739600  0.76843800  0.75538000  1
  S  S38  1  0.68634500  0.01476100  0.08941700  1
  S  S39  1  0.01476100  0.68634500  0.58941700  1
  S  S40  1  0.48128700  0.78096900  0.30236100  1
  S  S41  1  0.78096900  0.48128700  0.80236100  1
  S  S42  1  0.52067900  0.67466200  0.54352000  1
  S  S43  1  0.67466200  0.52067900  0.04352000  1
  N  N44  1  0.35345000  0.05727300  0.72344600  1
  N  N45  1  0.05727300  0.35345000  0.22344600  1
