# generated using pymatgen
data_K2Cd3H10S4O21
_symmetry_space_group_name_H-M   'P 1'
_cell_length_a   10.08036700
_cell_length_b   10.21807300
_cell_length_c   20.72560739
_cell_angle_alpha   81.52544612
_cell_angle_beta   90.00000000
_cell_angle_gamma   90.00000000
_symmetry_Int_Tables_number   1
_chemical_formula_structural   K2Cd3H10S4O21
_chemical_formula_sum   'K8 Cd12 H40 S16 O84'
_cell_volume   2111.46871807
_cell_formula_units_Z   4
loop_
 _symmetry_equiv_pos_site_id
 _symmetry_equiv_pos_as_xyz
  1  'x, y, z'
loop_
 _atom_site_type_symbol
 _atom_site_label
 _atom_site_symmetry_multiplicity
 _atom_site_fract_x
 _atom_site_fract_y
 _atom_site_fract_z
 _atom_site_occupancy
  K  K0  1  0.50959100  0.22379200  0.74981400  1
  K  K1  1  0.00959100  0.27620800  0.25018600  1
  K  K2  1  0.49040900  0.77620800  0.25018600  1
  K  K3  1  0.99040900  0.72379200  0.74981400  1
  K  K4  1  0.73550500  0.63648300  0.61350500  1
  K  K5  1  0.23550500  0.86351700  0.38649500  1
  K  K6  1  0.26449500  0.36351700  0.38649500  1
  K  K7  1  0.76449500  0.13648300  0.61350500  1
  Cd  Cd8  1  0.87806800  0.08251900  0.82958400  1
  Cd  Cd9  1  0.37806800  0.41748100  0.17041600  1
  Cd  Cd10  1  0.12193200  0.91748100  0.17041600  1
  Cd  Cd11  1  0.62193200  0.58251900  0.82958400  1
  Cd  Cd12  1  0.17404100  0.29602600  0.82713300  1
  Cd  Cd13  1  0.67404100  0.20397400  0.17286700  1
  Cd  Cd14  1  0.82595900  0.70397400  0.17286700  1
  Cd  Cd15  1  0.32595900  0.79602600  0.82713300  1
  Cd  Cd16  1  0.30433100  0.62124100  0.56435300  1
  Cd  Cd17  1  0.80433100  0.87875900  0.43564700  1
  Cd  Cd18  1  0.69566900  0.37875900  0.43564700  1
  Cd  Cd19  1  0.19566900  0.12124100  0.56435300  1
  H  H20  1  0.99939600  0.21089900  0.92036200  1
  H  H21  1  0.49939600  0.28910100  0.07963800  1
  H  H22  1  0.00060400  0.78910100  0.07963800  1
  H  H23  1  0.50060400  0.71089900  0.92036200  1
  H  H24  1  0.07735100  0.02328200  0.94532200  1
  H  H25  1  0.57735100  0.47671800  0.05467800  1
  H  H26  1  0.92264900  0.97671800  0.05467800  1
  H  H27  1  0.42264900  0.52328200  0.94532200  1
  H  H28  1  0.17788000  0.32978900  0.63936400  1
  H  H29  1  0.67788000  0.17021100  0.36063600  1
  H  H30  1  0.82212000  0.67021100  0.36063600  1
  H  H31  1  0.32212000  0.82978900  0.63936400  1
  H  H32  1  0.81012000  0.72288200  0.89366400  1
  H  H33  1  0.31012000  0.77711800  0.10633600  1
  H  H34  1  0.18988000  0.27711800  0.10633600  1
  H  H35  1  0.68988000  0.22288200  0.89366400  1
  H  H36  1  0.72096800  0.91637200  0.07421600  1
  H  H37  1  0.22096800  0.58362800  0.92578400  1
  H  H38  1  0.27903200  0.08362800  0.92578400  1
  H  H39  1  0.77903200  0.41637200  0.07421600  1
  H  H40  1  0.65925900  0.08040200  0.93114600  1
  H  H41  1  0.15925900  0.41959800  0.06885400  1
  H  H42  1  0.34074100  0.91959800  0.06885400  1
  H  H43  1  0.84074100  0.58040200  0.93114600  1
  H  H44  1  0.89891300  0.39485600  0.94592400  1
  H  H45  1  0.39891300  0.10514400  0.05407600  1
  H  H46  1  0.10108700  0.60514400  0.05407600  1
  H  H47  1  0.60108700  0.89485600  0.94592400  1
  H  H48  1  0.16029800  0.54084600  0.92548400  1
  H  H49  1  0.66029800  0.95915400  0.07451600  1
  H  H50  1  0.83970200  0.45915400  0.07451600  1
  H  H51  1  0.33970200  0.04084600  0.92548400  1
  H  H52  1  0.02680900  0.66340200  0.33989800  1
  H  H53  1  0.52680900  0.83659800  0.66010200  1
  H  H54  1  0.97319100  0.33659800  0.66010200  1
  H  H55  1  0.47319100  0.16340200  0.33989800  1
  H  H56  1  0.15802300  0.50517500  0.50180500  1
  H  H57  1  0.65802300  0.99482500  0.49819500  1
  H  H58  1  0.84197700  0.49482500  0.49819500  1
  H  H59  1  0.34197700  0.00517500  0.50180500  1
  S  S60  1  0.32837700  0.54690200  0.73308500  1
  S  S61  1  0.82837700  0.95309800  0.26691500  1
  S  S62  1  0.67162300  0.45309800  0.26691500  1
  S  S63  1  0.17162300  0.04690200  0.73308500  1
  S  S64  1  0.66675500  0.89535200  0.74661000  1
  S  S65  1  0.16675500  0.60464800  0.25339000  1
  S  S66  1  0.33324500  0.10464800  0.25339000  1
  S  S67  1  0.83324500  0.39535200  0.74661000  1
  S  S68  1  0.47228500  0.32971200  0.92700200  1
  S  S69  1  0.97228500  0.17028800  0.07299800  1
  S  S70  1  0.52771500  0.67028800  0.07299800  1
  S  S71  1  0.02771500  0.82971200  0.92700200  1
  S  S72  1  0.45896100  0.30376500  0.56480200  1
  S  S73  1  0.95896100  0.19623500  0.43519800  1
  S  S74  1  0.54103900  0.69623500  0.43519800  1
  S  S75  1  0.04103900  0.80376500  0.56480200  1
  O  O76  1  0.28794000  0.40673600  0.73549500  1
  O  O77  1  0.78794000  0.09326400  0.26450500  1
  O  O78  1  0.71206000  0.59326400  0.26450500  1
  O  O79  1  0.21206000  0.90673600  0.73549500  1
  O  O80  1  0.25961100  0.60471200  0.78742700  1
  O  O81  1  0.75961100  0.89528800  0.21257300  1
  O  O82  1  0.74038900  0.39528800  0.21257300  1
  O  O83  1  0.24038900  0.10471200  0.78742700  1
  O  O84  1  0.47417700  0.55797400  0.74102100  1
  O  O85  1  0.97417700  0.94202600  0.25897900  1
  O  O86  1  0.52582300  0.44202600  0.25897900  1
  O  O87  1  0.02582300  0.05797400  0.74102100  1
  O  O88  1  0.28268100  0.62620600  0.67119300  1
  O  O89  1  0.78268100  0.87379400  0.32880700  1
  O  O90  1  0.71731900  0.37379400  0.32880700  1
  O  O91  1  0.21731900  0.12620600  0.67119300  1
  O  O92  1  0.71801700  0.03036700  0.75281000  1
  O  O93  1  0.21801700  0.46963300  0.24719000  1
  O  O94  1  0.28198300  0.96963300  0.24719000  1
  O  O95  1  0.78198300  0.53036700  0.75281000  1
  O  O96  1  0.51948700  0.90348300  0.73393900  1
  O  O97  1  0.01948700  0.59651700  0.26606100  1
  O  O98  1  0.48051300  0.09651700  0.26606100  1
  O  O99  1  0.98051300  0.40348300  0.73393900  1
  O  O100  1  0.73089300  0.84738600  0.69021000  1
  O  O101  1  0.23089300  0.65261400  0.30979000  1
  O  O102  1  0.26910700  0.15261400  0.30979000  1
  O  O103  1  0.76910700  0.34738600  0.69021000  1
  O  O104  1  0.69220300  0.80446100  0.80773800  1
  O  O105  1  0.19220300  0.69553900  0.19226200  1
  O  O106  1  0.30779700  0.19553900  0.19226200  1
  O  O107  1  0.80779700  0.30446100  0.80773800  1
  O  O108  1  0.49127600  0.20776800  0.97116400  1
  O  O109  1  0.99127600  0.29223200  0.02883600  1
  O  O110  1  0.50872400  0.79223200  0.02883600  1
  O  O111  1  0.00872400  0.70776800  0.97116400  1
  O  O112  1  0.40867100  0.42902500  0.96935600  1
  O  O113  1  0.90867100  0.07097500  0.03064400  1
  O  O114  1  0.59132900  0.57097500  0.03064400  1
  O  O115  1  0.09132900  0.92902500  0.96935600  1
  O  O116  1  0.38363300  0.32134800  0.87077000  1
  O  O117  1  0.88363300  0.17865200  0.12923000  1
  O  O118  1  0.61636700  0.67865200  0.12923000  1
  O  O119  1  0.11636700  0.82134800  0.87077000  1
  O  O120  1  0.60185100  0.38804200  0.90180300  1
  O  O121  1  0.10185100  0.11195800  0.09819700  1
  O  O122  1  0.39814900  0.61195800  0.09819700  1
  O  O123  1  0.89814900  0.88804200  0.90180300  1
  O  O124  1  0.40186300  0.41944800  0.59215500  1
  O  O125  1  0.90186300  0.08055200  0.40784500  1
  O  O126  1  0.59813700  0.58055200  0.40784500  1
  O  O127  1  0.09813700  0.91944800  0.59215500  1
  O  O128  1  0.36011400  0.25918200  0.51691500  1
  O  O129  1  0.86011400  0.24081800  0.48308500  1
  O  O130  1  0.63988600  0.74081800  0.48308500  1
  O  O131  1  0.13988600  0.75918200  0.51691500  1
  O  O132  1  0.58616800  0.34522400  0.52957100  1
  O  O133  1  0.08616800  0.15477600  0.47042900  1
  O  O134  1  0.41383200  0.65477600  0.47042900  1
  O  O135  1  0.91383200  0.84522400  0.52957100  1
  O  O136  1  0.48744300  0.19484100  0.61773100  1
  O  O137  1  0.98744300  0.30515900  0.38226900  1
  O  O138  1  0.51255700  0.80515900  0.38226900  1
  O  O139  1  0.01255700  0.69484100  0.61773100  1
  O  O140  1  0.04575400  0.15648100  0.89233600  1
  O  O141  1  0.54575400  0.34351900  0.10766400  1
  O  O142  1  0.95424600  0.84351900  0.10766400  1
  O  O143  1  0.45424600  0.65648100  0.89233600  1
  O  O144  1  0.49410000  0.20834700  0.37816500  1
  O  O145  1  0.99410000  0.29165300  0.62183500  1
  O  O146  1  0.50590000  0.79165300  0.62183500  1
  O  O147  1  0.00590000  0.70834700  0.37816500  1
  O  O148  1  0.69587800  0.12747300  0.89049400  1
  O  O149  1  0.19587800  0.37252700  0.10950600  1
  O  O150  1  0.30412200  0.87252700  0.10950600  1
  O  O151  1  0.80412200  0.62747300  0.89049400  1
  O  O152  1  0.07455100  0.49158500  0.82962200  1
  O  O153  1  0.57455100  0.00841500  0.17037800  1
  O  O154  1  0.92544900  0.50841500  0.17037800  1
  O  O155  1  0.42544900  0.99158500  0.82962200  1
  O  O156  1  0.12145400  0.35155100  0.60004800  1
  O  O157  1  0.62145400  0.14844900  0.39995200  1
  O  O158  1  0.87854600  0.64844900  0.39995200  1
  O  O159  1  0.37854600  0.85155100  0.60004800  1
