# generated using pymatgen
data_Fe2NiO4
_symmetry_space_group_name_H-M   'P 1'
_cell_length_a   6.00262400
_cell_length_b   5.98753792
_cell_length_c   29.98170199
_cell_angle_alpha   59.84726648
_cell_angle_beta   59.67897706
_cell_angle_gamma   59.86266654
_symmetry_Int_Tables_number   1
_chemical_formula_structural   Fe2NiO4
_chemical_formula_sum   'Fe20 Ni10 O40'
_cell_volume   758.42915793
_cell_formula_units_Z   10
loop_
 _symmetry_equiv_pos_site_id
 _symmetry_equiv_pos_as_xyz
  1  'x, y, z'
loop_
 _atom_site_type_symbol
 _atom_site_label
 _atom_site_symmetry_multiplicity
 _atom_site_fract_x
 _atom_site_fract_y
 _atom_site_fract_z
 _atom_site_occupancy
  Fe  Fe0  1  0.25073600  0.24779300  0.05082200  1
  Fe  Fe1  1  0.12203300  0.62780700  0.12450900  1
  Fe  Fe2  1  0.62756500  0.12301600  0.12441800  1
  Fe  Fe3  1  0.99330100  0.99303800  0.40130300  1
  Fe  Fe4  1  0.25189700  0.25225300  0.25041200  1
  Fe  Fe5  1  0.62755000  0.62741900  0.12450800  1
  Fe  Fe6  1  0.25553200  0.25676800  0.44845400  1
  Fe  Fe7  1  0.62466400  0.62478700  0.22499300  1
  Fe  Fe8  1  0.99337000  0.99252600  0.60166800  1
  Fe  Fe9  1  0.62825600  0.62820500  0.32453500  1
  Fe  Fe10  1  0.99494300  0.99584600  0.79983700  1
  Fe  Fe11  1  0.25566800  0.25582300  0.64942400  1
  Fe  Fe12  1  0.62393300  0.62634300  0.42537300  1
  Fe  Fe13  1  0.62459200  0.62484800  0.52507300  1
  Fe  Fe14  1  0.62572600  0.62487500  0.62516000  1
  Fe  Fe15  1  0.25897900  0.24913300  0.84915300  1
  Fe  Fe16  1  0.62400800  0.62453300  0.72549300  1
  Fe  Fe17  1  0.62774300  0.11669200  0.92691800  1
  Fe  Fe18  1  0.62507900  0.62269600  0.82453600  1
  Fe  Fe19  1  0.62702700  0.62224900  0.92659700  1
  Ni  Ni20  1  0.99918900  0.00481200  0.99825200  1
  Ni  Ni21  1  0.99803100  0.99743500  0.20179400  1
  Ni  Ni22  1  0.62722100  0.62626500  0.02390400  1
  Ni  Ni23  1  0.12426400  0.62584100  0.32463600  1
  Ni  Ni24  1  0.62580900  0.12431600  0.32462300  1
  Ni  Ni25  1  0.12505900  0.62510100  0.52492100  1
  Ni  Ni26  1  0.62507600  0.12518300  0.52489800  1
  Ni  Ni27  1  0.12249800  0.62469400  0.72552600  1
  Ni  Ni28  1  0.62424400  0.12211100  0.72567600  1
  Ni  Ni29  1  0.12060200  0.62515900  0.92608400  1
  O  O30  1  0.37575100  0.37650000  0.07871400  1
  O  O31  1  0.37624300  0.85298700  0.07876900  1
  O  O32  1  0.38385100  0.38496100  0.16986400  1
  O  O33  1  0.85525400  0.37621900  0.07851500  1
  O  O34  1  0.38871500  0.38824700  0.27294300  1
  O  O35  1  0.40485200  0.86871400  0.17251000  1
  O  O36  1  0.86876800  0.40505800  0.17243100  1
  O  O37  1  0.38692500  0.38809900  0.36994600  1
  O  O38  1  0.86401300  0.86664500  0.08026800  1
  O  O39  1  0.39077500  0.85936400  0.27425600  1
  O  O40  1  0.85917500  0.39072500  0.27413100  1
  O  O41  1  0.86583500  0.86684500  0.17158600  1
  O  O42  1  0.38684200  0.38587700  0.47459300  1
  O  O43  1  0.39008900  0.86302600  0.37476400  1
  O  O44  1  0.86273600  0.39011900  0.37481000  1
  O  O45  1  0.39215700  0.39256500  0.57010800  1
  O  O46  1  0.86226300  0.86140100  0.28100800  1
  O  O47  1  0.38261800  0.86209300  0.47457400  1
  O  O48  1  0.85762300  0.38792900  0.47531100  1
  O  O49  1  0.86422200  0.86487400  0.37518600  1
  O  O50  1  0.39212500  0.86218800  0.57497900  1
  O  O51  1  0.38491700  0.38462600  0.67550500  1
  O  O52  1  0.86709400  0.38789900  0.57581000  1
  O  O53  1  0.85666300  0.85628400  0.48023800  1
  O  O54  1  0.38962100  0.38951800  0.77077500  1
  O  O55  1  0.38978600  0.85557200  0.67680400  1
  O  O56  1  0.85320600  0.39344400  0.67714800  1
  O  O57  1  0.86368100  0.86490200  0.57505400  1
  O  O58  1  0.39510800  0.38456800  0.87439700  1
  O  O59  1  0.40092600  0.85005800  0.77447400  1
  O  O60  1  0.85337000  0.39931900  0.77438100  1
  O  O61  1  0.85762600  0.85730800  0.68074900  1
  O  O62  1  0.38309000  0.37725700  0.97284600  1
  O  O63  1  0.39408600  0.84970600  0.87389000  1
  O  O64  1  0.85212200  0.38545600  0.87471900  1
  O  O65  1  0.85769600  0.85784200  0.77681500  1
  O  O66  1  0.40532900  0.87188900  0.97046300  1
  O  O67  1  0.85924200  0.40357600  0.97256400  1
  O  O68  1  0.86365100  0.87384300  0.87749500  1
  O  O69  1  0.85736000  0.87493000  0.97310400  1
