# generated using pymatgen
data_Nb2CoO6
_symmetry_space_group_name_H-M   'P 1'
_cell_length_a   5.72325976
_cell_length_b   10.11524199
_cell_length_c   7.87265078
_cell_angle_alpha   103.66080255
_cell_angle_beta   95.01009315
_cell_angle_gamma   100.27440009
_symmetry_Int_Tables_number   1
_chemical_formula_structural   Nb2CoO6
_chemical_formula_sum   'Nb8 Co4 O24'
_cell_volume   431.75731353
_cell_formula_units_Z   4
loop_
 _symmetry_equiv_pos_site_id
 _symmetry_equiv_pos_as_xyz
  1  'x, y, z'
loop_
 _atom_site_type_symbol
 _atom_site_label
 _atom_site_symmetry_multiplicity
 _atom_site_fract_x
 _atom_site_fract_y
 _atom_site_fract_z
 _atom_site_occupancy
  Nb  Nb0  1  0.33341400  0.99998400  0.33331800  1
  Nb  Nb1  1  0.83329900  0.49999700  0.83329700  1
  Nb  Nb2  1  0.58341300  0.25013300  0.08390600  1
  Nb  Nb3  1  0.08324500  0.74990600  0.58272500  1
  Nb  Nb4  1  0.48897700  0.49017400  0.50934300  1
  Nb  Nb5  1  0.98920600  0.99016100  0.00903200  1
  Nb  Nb6  1  0.67756700  0.00986100  0.65769200  1
  Nb  Nb7  1  0.17765000  0.50986200  0.15735700  1
  Co  Co8  1  0.41970700  0.75189100  0.91677200  1
  Co  Co9  1  0.24705400  0.24806700  0.74999600  1
  Co  Co10  1  0.91914700  0.25164000  0.41558000  1
  Co  Co11  1  0.74753000  0.74835300  0.25113700  1
  O  O12  1  0.91388200  0.14849300  0.61828800  1
  O  O13  1  0.41345000  0.64823500  0.11792200  1
  O  O14  1  0.25317900  0.35170100  0.54878100  1
  O  O15  1  0.75274000  0.85149400  0.04839400  1
  O  O16  1  0.26109900  0.15017500  0.96173600  1
  O  O17  1  0.76115300  0.64985500  0.46126700  1
  O  O18  1  0.90548100  0.35013700  0.20533900  1
  O  O19  1  0.40547100  0.84984900  0.70485800  1
  O  O20  1  0.57383400  0.14931100  0.27487600  1
  O  O21  1  0.07433400  0.64987300  0.77544600  1
  O  O22  1  0.59244200  0.35014900  0.89121900  1
  O  O23  1  0.09287700  0.85070500  0.39177700  1
  O  O24  1  0.43060300  0.40280200  0.23610600  1
  O  O25  1  0.93048400  0.90279500  0.73617700  1
  O  O26  1  0.73614900  0.09719100  0.93050000  1
  O  O27  1  0.23604000  0.59718400  0.43056100  1
  O  O28  1  0.06854200  0.09303800  0.26430000  1
  O  O29  1  0.56914700  0.59301800  0.76366600  1
  O  O30  1  0.75987100  0.40232800  0.57348200  1
  O  O31  1  0.25900900  0.90236000  0.07387700  1
  O  O32  1  0.40756600  0.09762100  0.59280000  1
  O  O33  1  0.90676400  0.59769100  0.09316000  1
  O  O34  1  0.09754500  0.40701400  0.90296400  1
  O  O35  1  0.59812900  0.90695200  0.40234800  1
