# generated using pymatgen
data_Fe3O4
_symmetry_space_group_name_H-M   'P 1'
_cell_length_a   6.05716200
_cell_length_b   6.11929900
_cell_length_c   8.56245749
_cell_angle_alpha   89.59256384
_cell_angle_beta   90.00000000
_cell_angle_gamma   90.00000000
_symmetry_Int_Tables_number   1
_chemical_formula_structural   Fe3O4
_chemical_formula_sum   'Fe12 O16'
_cell_volume   317.36447474
_cell_formula_units_Z   4
loop_
 _symmetry_equiv_pos_site_id
 _symmetry_equiv_pos_as_xyz
  1  'x, y, z'
loop_
 _atom_site_type_symbol
 _atom_site_label
 _atom_site_symmetry_multiplicity
 _atom_site_fract_x
 _atom_site_fract_y
 _atom_site_fract_z
 _atom_site_occupancy
  Fe  Fe0  1  0.75199600  0.24764100  0.25288400  1
  Fe  Fe1  1  0.75199600  0.75235900  0.74711600  1
  Fe  Fe2  1  0.24800400  0.75235900  0.74711600  1
  Fe  Fe3  1  0.24800400  0.24764100  0.25288400  1
  Fe  Fe4  1  0.00000000  0.50000000  0.50000000  1
  Fe  Fe5  1  0.50000000  0.50000000  0.00000000  1
  Fe  Fe6  1  0.50000000  0.00000000  0.00000000  1
  Fe  Fe7  1  0.00000000  0.00000000  0.50000000  1
  Fe  Fe8  1  0.50000000  0.25529400  0.62779200  1
  Fe  Fe9  1  0.50000000  0.74470600  0.37220800  1
  Fe  Fe10  1  0.00000000  0.24873900  0.87372400  1
  Fe  Fe11  1  0.00000000  0.75126100  0.12627600  1
  O  O12  1  0.73003100  0.25106500  0.00396700  1
  O  O13  1  0.73003100  0.74893500  0.99603300  1
  O  O14  1  0.26996900  0.74893500  0.99603300  1
  O  O15  1  0.26996900  0.25106500  0.00396700  1
  O  O16  1  0.76148400  0.25852600  0.49692900  1
  O  O17  1  0.76148400  0.74147400  0.50307100  1
  O  O18  1  0.23851600  0.74147400  0.50307100  1
  O  O19  1  0.23851600  0.25852600  0.49692900  1
  O  O20  1  0.50000000  0.99719700  0.75918300  1
  O  O21  1  0.50000000  0.00280300  0.24081700  1
  O  O22  1  0.50000000  0.48857500  0.23872600  1
  O  O23  1  0.50000000  0.51142500  0.76127400  1
  O  O24  1  0.00000000  0.50486000  0.74144900  1
  O  O25  1  0.00000000  0.49514000  0.25855100  1
  O  O26  1  0.00000000  0.01107100  0.24643800  1
  O  O27  1  0.00000000  0.98892900  0.75356200  1
