# generated using pymatgen
data_BaVCdP2O9
_symmetry_space_group_name_H-M   'P 1'
_cell_length_a   8.94382500
_cell_length_b   9.03930100
_cell_length_c   19.74939100
_cell_angle_alpha   90.00000000
_cell_angle_beta   90.00000000
_cell_angle_gamma   90.00000000
_symmetry_Int_Tables_number   1
_chemical_formula_structural   BaVCdP2O9
_chemical_formula_sum   'Ba8 V8 Cd8 P16 O72'
_cell_volume   1596.65780859
_cell_formula_units_Z   8
loop_
 _symmetry_equiv_pos_site_id
 _symmetry_equiv_pos_as_xyz
  1  'x, y, z'
loop_
 _atom_site_type_symbol
 _atom_site_label
 _atom_site_symmetry_multiplicity
 _atom_site_fract_x
 _atom_site_fract_y
 _atom_site_fract_z
 _atom_site_occupancy
  Ba  Ba0  1  0.81933100  0.48185800  0.08203200  1
  Ba  Ba1  1  0.68066900  0.51814200  0.58203200  1
  Ba  Ba2  1  0.68066900  0.98185800  0.08203200  1
  Ba  Ba3  1  0.81933100  0.01814200  0.58203200  1
  Ba  Ba4  1  0.18066900  0.98185800  0.41796800  1
  Ba  Ba5  1  0.31933100  0.01814200  0.91796800  1
  Ba  Ba6  1  0.18066900  0.51814200  0.91796800  1
  Ba  Ba7  1  0.31933100  0.48185800  0.41796800  1
  V  V8  1  0.50079800  0.14497600  0.27448900  1
  V  V9  1  0.00079800  0.35502400  0.72551100  1
  V  V10  1  0.50079800  0.35502400  0.77448900  1
  V  V11  1  0.99920200  0.85502400  0.77448900  1
  V  V12  1  0.00079800  0.14497600  0.22551100  1
  V  V13  1  0.99920200  0.64497600  0.27448900  1
  V  V14  1  0.49920200  0.64497600  0.22551100  1
  V  V15  1  0.49920200  0.85502400  0.72551100  1
  Cd  Cd16  1  0.17886600  0.62315100  0.58994200  1
  Cd  Cd17  1  0.67886600  0.87684900  0.41005800  1
  Cd  Cd18  1  0.67886600  0.62315100  0.91005800  1
  Cd  Cd19  1  0.32113400  0.37684900  0.08994200  1
  Cd  Cd20  1  0.32113400  0.12315100  0.58994200  1
  Cd  Cd21  1  0.17886600  0.87684900  0.08994200  1
  Cd  Cd22  1  0.82113400  0.37684900  0.41005800  1
  Cd  Cd23  1  0.82113400  0.12315100  0.91005800  1
  P  P24  1  0.44218100  0.70885400  0.02326100  1
  P  P25  1  0.75254400  0.39284900  0.25372500  1
  P  P26  1  0.74745600  0.89284900  0.25372500  1
  P  P27  1  0.44218100  0.79114600  0.52326100  1
  P  P28  1  0.94218100  0.79114600  0.97673900  1
  P  P29  1  0.24745600  0.60715100  0.74627500  1
  P  P30  1  0.24745600  0.89284900  0.24627500  1
  P  P31  1  0.55781900  0.29114600  0.97673900  1
  P  P32  1  0.75254400  0.10715100  0.75372500  1
  P  P33  1  0.05781900  0.29114600  0.52326100  1
  P  P34  1  0.55781900  0.20885400  0.47673900  1
  P  P35  1  0.74745600  0.60715100  0.75372500  1
  P  P36  1  0.94218100  0.70885400  0.47673900  1
  P  P37  1  0.25254400  0.39284900  0.24627500  1
  P  P38  1  0.25254400  0.10715100  0.74627500  1
  P  P39  1  0.05781900  0.20885400  0.02326100  1
  O  O40  1  0.85079100  0.19720700  0.70409100  1
  O  O41  1  0.90331300  0.87519800  0.46058100  1
  O  O42  1  0.64773000  0.98495400  0.30354400  1
  O  O43  1  0.40331300  0.62480200  0.53941900  1
  O  O44  1  0.54481300  0.19533400  0.55587800  1
  O  O45  1  0.35227000  0.01504600  0.69645600  1
  O  O46  1  0.59668700  0.37519800  0.46058100  1
  O  O47  1  0.40988500  0.16996400  0.44103800  1
  O  O48  1  0.98724700  0.85913700  0.69236500  1
  O  O49  1  0.45518700  0.69533400  0.94412200  1
  O  O50  1  0.30598800  0.88524200  0.54697500  1
  O  O51  1  0.48724700  0.64086300  0.30763500  1
  O  O52  1  0.14920900  0.69720700  0.79590900  1
  O  O53  1  0.59011500  0.83003600  0.55896200  1
  O  O54  1  0.35227000  0.48495400  0.19645600  1
  O  O55  1  0.65904000  0.29395600  0.30152600  1
  O  O56  1  0.34061900  0.99465200  0.29280500  1
  O  O57  1  0.48724700  0.85913700  0.80763500  1
  O  O58  1  0.35079100  0.30279300  0.29590900  1
  O  O59  1  0.19401200  0.11475800  0.04697500  1
  O  O60  1  0.40331300  0.87519800  0.03941900  1
  O  O61  1  0.80598800  0.61475800  0.45302500  1
  O  O62  1  0.85079100  0.30279300  0.20409100  1
  O  O63  1  0.51275300  0.35913700  0.69236500  1
  O  O64  1  0.09011500  0.83003600  0.94103800  1
  O  O65  1  0.90331300  0.62480200  0.96058100  1
  O  O66  1  0.15938100  0.49465200  0.29280500  1
  O  O67  1  0.65938100  0.00534800  0.70719500  1
  O  O68  1  0.64773000  0.51504600  0.80354400  1
  O  O69  1  0.85227000  0.48495400  0.30354400  1
  O  O70  1  0.84061900  0.50534800  0.70719500  1
  O  O71  1  0.40988500  0.33003600  0.94103800  1
  O  O72  1  0.95518700  0.80466600  0.05587800  1
  O  O73  1  0.65938100  0.49465200  0.20719500  1
  O  O74  1  0.35079100  0.19720700  0.79590900  1
  O  O75  1  0.14773000  0.51504600  0.69645600  1
  O  O76  1  0.90988500  0.33003600  0.55896200  1
  O  O77  1  0.15904000  0.29395600  0.19847400  1
  O  O78  1  0.69401200  0.38524200  0.95302500  1
  O  O79  1  0.04481300  0.19533400  0.94412200  1
  O  O80  1  0.09668700  0.37519800  0.03941900  1
  O  O81  1  0.54481300  0.30466600  0.05587800  1
  O  O82  1  0.14920900  0.80279300  0.29590900  1
  O  O83  1  0.01275300  0.14086300  0.30763500  1
  O  O84  1  0.69401200  0.11475800  0.45302500  1
  O  O85  1  0.15938100  0.00534800  0.79280500  1
  O  O86  1  0.19401200  0.38524200  0.54697500  1
  O  O87  1  0.14773000  0.98495400  0.19645600  1
  O  O88  1  0.59011500  0.66996400  0.05896200  1
  O  O89  1  0.65904000  0.20604400  0.80152600  1
  O  O90  1  0.84061900  0.99465200  0.20719500  1
  O  O91  1  0.80598800  0.88524200  0.95302500  1
  O  O92  1  0.30598800  0.61475800  0.04697500  1
  O  O93  1  0.84096000  0.79395600  0.30152600  1
  O  O94  1  0.34096000  0.79395600  0.19847400  1
  O  O95  1  0.09011500  0.66996400  0.44103800  1
  O  O96  1  0.15904000  0.20604400  0.69847400  1
  O  O97  1  0.04481300  0.30466600  0.44412200  1
  O  O98  1  0.34061900  0.50534800  0.79280500  1
  O  O99  1  0.64920900  0.69720700  0.70409100  1
  O  O100  1  0.09668700  0.12480200  0.53941900  1
  O  O101  1  0.51275300  0.14086300  0.19236500  1
  O  O102  1  0.34096000  0.70604400  0.69847400  1
  O  O103  1  0.85227000  0.01504600  0.80354400  1
  O  O104  1  0.95518700  0.69533400  0.55587800  1
  O  O105  1  0.64920900  0.80279300  0.20409100  1
  O  O106  1  0.90988500  0.16996400  0.05896200  1
  O  O107  1  0.98724700  0.64086300  0.19236500  1
  O  O108  1  0.45518700  0.80466600  0.44412200  1
  O  O109  1  0.59668700  0.12480200  0.96058100  1
  O  O110  1  0.84096000  0.70604400  0.80152600  1
  O  O111  1  0.01275300  0.35913700  0.80763500  1
