# generated using pymatgen
data_H5ClO6
_symmetry_space_group_name_H-M   'P 1'
_cell_length_a   6.25080957
_cell_length_b   11.97567026
_cell_length_c   7.44239195
_cell_angle_alpha   90.11173230
_cell_angle_beta   96.45235893
_cell_angle_gamma   90.39611356
_symmetry_Int_Tables_number   1
_chemical_formula_structural   H5ClO6
_chemical_formula_sum   'H20 Cl4 O24'
_cell_volume   553.57554217
_cell_formula_units_Z   4
loop_
 _symmetry_equiv_pos_site_id
 _symmetry_equiv_pos_as_xyz
  1  'x, y, z'
loop_
 _atom_site_type_symbol
 _atom_site_label
 _atom_site_symmetry_multiplicity
 _atom_site_fract_x
 _atom_site_fract_y
 _atom_site_fract_z
 _atom_site_occupancy
  H  H0  1  0.94616300  0.25061200  0.27926100  1
  H  H1  1  0.16771600  0.72005000  0.29248400  1
  H  H2  1  0.52140000  0.05593700  0.75037500  1
  H  H3  1  0.01516700  0.47744900  0.75441100  1
  H  H4  1  0.67982400  0.01706500  0.24271700  1
  H  H5  1  0.52349600  0.44059000  0.74710700  1
  H  H6  1  0.01162900  0.01903500  0.75485100  1
  H  H7  1  0.50176300  0.11572700  0.19158200  1
  H  H8  1  0.97019300  0.53874700  0.25027000  1
  H  H9  1  0.93168500  0.50881800  0.45130200  1
  H  H10  1  0.37650000  0.54074100  0.78153500  1
  H  H11  1  0.51570700  0.47720800  0.01490300  1
  H  H12  1  0.00012800  0.89172900  0.71354300  1
  H  H13  1  0.51946500  0.02059800  0.02805200  1
  H  H14  1  0.39305800  0.94852800  0.78803600  1
  H  H15  1  0.00970500  0.60626000  0.72210700  1
  H  H16  1  0.50026500  0.38083800  0.18225600  1
  H  H17  1  0.66917200  0.48192800  0.23313100  1
  H  H18  1  0.93066200  0.99074300  0.45348500  1
  H  H19  1  0.96587000  0.95835400  0.25101400  1
  Cl  Cl20  1  0.59625300  0.24962800  0.49766800  1
  Cl  Cl21  1  0.04171000  0.24952100  0.00917600  1
  Cl  Cl22  1  0.42857700  0.74879200  0.51025600  1
  Cl  Cl23  1  0.92718800  0.75696800  0.00539400  1
  O  O24  1  0.59437000  0.24982400  0.29523700  1
  O  O25  1  0.08812300  0.25008900  0.23011800  1
  O  O26  1  0.40313100  0.75121500  0.69851000  1
  O  O27  1  0.92538400  0.74296900  0.80883600  1
  O  O28  1  0.81950400  0.25125700  0.57590700  1
  O  O29  1  0.25635200  0.24867800  0.96096800  1
  O  O30  1  0.17674000  0.75097200  0.42061200  1
  O  O31  1  0.71435400  0.74859300  0.05919000  1
  O  O32  1  0.48580900  0.14914000  0.54716800  1
  O  O33  1  0.92681000  0.35042700  0.96010000  1
  O  O34  1  0.51485300  0.64678200  0.44901300  1
  O  O35  1  0.02847500  0.86454000  0.05692900  1
  O  O36  1  0.52846300  0.84693200  0.44835300  1
  O  O37  1  0.06591700  0.66658800  0.09479600  1
  O  O38  1  0.48362400  0.34884600  0.54785400  1
  O  O39  1  0.92065600  0.15027000  0.95963800  1
  O  O40  1  0.52238700  0.03537300  0.16842800  1
  O  O41  1  0.88818200  0.48934000  0.32206300  1
  O  O42  1  0.51023900  0.50322300  0.83109400  1
  O  O43  1  0.05185700  0.96324700  0.66929000  1
  O  O44  1  0.51741200  0.99397200  0.83649600  1
  O  O45  1  0.06356100  0.53549400  0.67617900  1
  O  O46  1  0.51865000  0.46144100  0.15849500  1
  O  O47  1  0.88911800  0.00999100  0.32343700  1
