# generated using pymatgen
data_La(Mo4O7)2
_symmetry_space_group_name_H-M   'P 1'
_cell_length_a   8.30067572
_cell_length_b   8.27943602
_cell_length_c   28.86327989
_cell_angle_alpha   90.92722311
_cell_angle_beta   90.83967776
_cell_angle_gamma   97.72337085
_symmetry_Int_Tables_number   1
_chemical_formula_structural   La(Mo4O7)2
_chemical_formula_sum   'La6 Mo48 O84'
_cell_volume   1965.09095521
_cell_formula_units_Z   6
loop_
 _symmetry_equiv_pos_site_id
 _symmetry_equiv_pos_as_xyz
  1  'x, y, z'
loop_
 _atom_site_type_symbol
 _atom_site_label
 _atom_site_symmetry_multiplicity
 _atom_site_fract_x
 _atom_site_fract_y
 _atom_site_fract_z
 _atom_site_occupancy
  La  La0  1  0.09633217  0.91707890  0.99364461  1
  La  La1  1  0.11962075  0.94079096  0.32979583  1
  La  La2  1  0.05262869  0.88287080  0.66465482  1
  La  La3  1  0.41182502  0.42794079  0.18319455  1
  La  La4  1  0.42729136  0.41578199  0.51447965  1
  La  La5  1  0.41494392  0.42665786  0.84828714  1
  Mo  Mo6  1  0.03931318  0.80424746  0.12043200  1
  Mo  Mo7  1  0.04035500  0.80597728  0.45432458  1
  Mo  Mo8  1  0.04248913  0.80549739  0.78790164  1
  Mo  Mo9  1  0.20796745  0.94834255  0.21250881  1
  Mo  Mo10  1  0.20189222  0.96182914  0.54626542  1
  Mo  Mo11  1  0.20410627  0.96023254  0.87884168  1
  Mo  Mo12  1  0.16552374  0.18028710  0.11954884  1
  Mo  Mo13  1  0.16570391  0.17930325  0.45241407  1
  Mo  Mo14  1  0.16830816  0.17742962  0.78511136  1
  Mo  Mo15  1  0.29667870  0.55291464  0.05038348  1
  Mo  Mo16  1  0.29681812  0.55501137  0.38400196  1
  Mo  Mo17  1  0.29648892  0.55580918  0.71679883  1
  Mo  Mo18  1  0.42123270  0.92069531  0.12333283  1
  Mo  Mo19  1  0.42527377  0.91904977  0.45658158  1
  Mo  Mo20  1  0.42578071  0.91902464  0.78994629  1
  Mo  Mo21  1  0.31099015  0.32762915  0.29207382  1
  Mo  Mo22  1  0.30346398  0.32875972  0.62601546  1
  Mo  Mo23  1  0.31541122  0.32718131  0.95837680  1
  Mo  Mo24  1  0.43884362  0.71009860  0.62018406  1
  Mo  Mo25  1  0.43916847  0.70390688  0.28792396  1
  Mo  Mo26  1  0.43975805  0.70612323  0.95253309  1
  Mo  Mo27  1  0.53581557  0.28748407  0.04848770  1
  Mo  Mo28  1  0.53549894  0.29106120  0.38230420  1
  Mo  Mo29  1  0.53910763  0.29188093  0.71545540  1
  Mo  Mo30  1  0.58222568  0.07725670  0.28858027  1
  Mo  Mo31  1  0.58239302  0.07776897  0.95414084  1
  Mo  Mo32  1  0.58222768  0.08085081  0.61950500  1
  Mo  Mo33  1  0.67409483  0.69644598  0.04262461  1
  Mo  Mo34  1  0.67291294  0.69553459  0.71066460  1
  Mo  Mo35  1  0.67485142  0.69542165  0.37720056  1
  Mo  Mo36  1  0.71589701  0.46736972  0.27976877  1
  Mo  Mo37  1  0.70471387  0.47054535  0.94888975  1
  Mo  Mo38  1  0.70201311  0.47275842  0.61539313  1
  Mo  Mo39  1  0.81360590  0.82972000  0.21021127  1
  Mo  Mo40  1  0.81140100  0.82543192  0.54311809  1
  Mo  Mo41  1  0.81215794  0.82473559  0.87678236  1
  Mo  Mo42  1  0.78782379  0.05496266  0.12105310  1
  Mo  Mo43  1  0.78777912  0.05542072  0.45304883  1
  Mo  Mo44  1  0.78988026  0.05561933  0.78583848  1
  Mo  Mo45  1  0.92152093  0.41893844  0.03341463  1
  Mo  Mo46  1  0.92604210  0.42245443  0.36627449  1
  Mo  Mo47  1  0.92113342  0.41768522  0.69968194  1
  Mo  Mo48  1  0.90599924  0.43931668  0.13390723  1
  Mo  Mo49  1  0.91000869  0.43954868  0.46701381  1
  Mo  Mo50  1  0.91180728  0.43808556  0.80050383  1
  Mo  Mo51  1  0.95078674  0.21125436  0.21745541  1
  Mo  Mo52  1  0.94958877  0.22002034  0.88768580  1
  Mo  Mo53  1  0.94636876  0.22211544  0.55304653  1
  O  O54  1  0.02876506  0.83350977  0.24933982  1
  O  O55  1  0.01031781  0.82806243  0.58498655  1
  O  O56  1  0.01433664  0.82950770  0.91877498  1
  O  O57  1  0.06970247  0.58266447  0.08322760  1
  O  O58  1  0.06933295  0.58267329  0.41662515  1
  O  O59  1  0.06822723  0.58423913  0.74903787  1
  O  O60  1  0.15504286  0.39103222  0.00972547  1
  O  O61  1  0.13578698  0.38348492  0.34091138  1
  O  O62  1  0.14760031  0.38384267  0.67171806  1
  O  O63  1  0.11375873  0.35948429  0.16991890  1
  O  O64  1  0.10856154  0.35054915  0.50446966  1
  O  O65  1  0.11201083  0.35168154  0.83777802  1
  O  O66  1  0.20661967  0.96389697  0.08159936  1
  O  O67  1  0.20822040  0.96351348  0.41368082  1
  O  O68  1  0.20898714  0.96106729  0.74718444  1
  O  O69  1  0.15330728  0.14366356  0.25781493  1
  O  O70  1  0.13904264  0.14644016  0.92732466  1
  O  O71  1  0.13777642  0.15275410  0.59307819  1
  O  O72  1  0.26409809  0.72505244  -0.00030139  1
  O  O73  1  0.26124211  0.73102150  0.33212295  1
  O  O74  1  0.26096581  0.73137364  0.66421000  1
  O  O75  1  0.24377344  0.77468520  0.16468936  1
  O  O76  1  0.24428641  0.78167951  0.49700071  1
  O  O77  1  0.24704822  0.77948308  0.82998276  1
  O  O78  1  0.31806569  0.51800665  0.58237845  1
  O  O79  1  0.30773299  0.53048683  0.24829767  1
  O  O80  1  0.31014041  0.52992719  0.91430597  1
  O  O81  1  0.35045451  0.36413505  0.09359395  1
  O  O82  1  0.35470625  0.36031230  0.42877758  1
  O  O83  1  0.35530017  0.36178093  0.76111599  1
  O  O84  1  0.40968726  0.92684130  0.58701988  1
  O  O85  1  0.40669608  0.91099202  0.25148705  1
  O  O86  1  0.40638219  0.92455760  0.92104015  1
  O  O87  1  0.38953593  0.13267226  0.99790131  1
  O  O88  1  0.37918334  0.13592365  0.33318497  1
  O  O89  1  0.39569034  0.15091911  0.66216199  1
  O  O90  1  0.34087488  0.11965576  0.16875776  1
  O  O91  1  0.34863072  0.12267283  0.49888800  1
  O  O92  1  0.35078724  0.12213483  0.83207546  1
  O  O93  1  0.46035841  0.71538498  0.08302156  1
  O  O94  1  0.47545352  0.70844753  0.42071915  1
  O  O95  1  0.47411368  0.70859441  0.75399727  1
  O  O96  1  0.52320762  0.29686323  0.25078419  1
  O  O97  1  0.52357528  0.28839773  0.91631971  1
  O  O98  1  0.51882832  0.29058017  0.58378981  1
  O  O99  1  0.64939141  0.90050379  0.16099316  1
  O  O100  1  0.65196277  0.89758085  0.82968377  1
  O  O101  1  0.65089073  0.90246241  0.49607337  1
  O  O102  1  0.60673564  0.85131366  0.32355447  1
  O  O103  1  0.60867934  0.85771600  0.65549965  1
  O  O104  1  0.60633186  0.85618105  0.98919872  1
  O  O105  1  0.58340678  0.08263868  0.08440627  1
  O  O106  1  0.59014462  0.08633326  0.41756020  1
  O  O107  1  0.59243590  0.08758675  0.75170498  1
  O  O108  1  0.63418974  0.64812104  0.24101222  1
  O  O109  1  0.63088572  0.65520142  0.90644821  1
  O  O110  1  0.62917874  0.65638530  0.57265169  1
  O  O111  1  0.72239041  0.47187814  0.07941440  1
  O  O112  1  0.73016993  0.46801999  0.41212856  1
  O  O113  1  0.72674477  0.47192193  0.74603679  1
  O  O114  1  0.76559179  0.24713993  0.16725665  1
  O  O115  1  0.78032047  0.24111429  0.83471902  1
  O  O116  1  0.77002094  0.24771013  0.50102602  1
  O  O117  1  0.72123411  0.26539794  0.99624904  1
  O  O118  1  0.72264747  0.28037691  0.32957244  1
  O  O119  1  0.72069948  0.26788361  0.66201215  1
  O  O120  1  0.84670026  0.87312928  0.07788466  1
  O  O121  1  0.85540614  0.87352392  0.74088521  1
  O  O122  1  0.84926930  0.87377922  0.40966388  1
  O  O123  1  0.87894043  0.66253583  0.16581270  1
  O  O124  1  0.87962660  0.66216388  0.49898284  1
  O  O125  1  0.88291384  0.66133837  0.83286907  1
  O  O126  1  0.78341463  0.03035389  0.24856592  1
  O  O127  1  0.77967982  0.04196387  0.58350372  1
  O  O128  1  0.77972732  0.04049542  0.91775611  1
  O  O129  1  0.85983658  0.61206291  0.33201179  1
  O  O130  1  0.86000386  0.62915041  0.66386231  1
  O  O131  1  0.85758117  0.62604927  0.99790172  1
  O  O132  1  0.90632060  0.41332011  0.25390144  1
  O  O133  1  0.90714221  0.40802336  0.58657710  1
  O  O134  1  0.91168210  0.40618987  0.92041427  1
  O  O135  1  0.94523598  0.23314766  0.08609402  1
  O  O136  1  0.94515859  0.24062116  0.41773945  1
  O  O137  1  0.95052710  0.23877646  0.75164608  1
