# generated using pymatgen
data_BH6Ru3C6O19F4
_symmetry_space_group_name_H-M   'P 1'
_cell_length_a   6.81564900
_cell_length_b   11.21069000
_cell_length_c   14.50967000
_cell_angle_alpha   90.00000000
_cell_angle_beta   90.00000000
_cell_angle_gamma   90.00000000
_symmetry_Int_Tables_number   1
_chemical_formula_structural   BH6Ru3C6O19F4
_chemical_formula_sum   'B2 H12 Ru6 C12 O38 F8'
_cell_volume   1108.65672387
_cell_formula_units_Z   2
loop_
 _symmetry_equiv_pos_site_id
 _symmetry_equiv_pos_as_xyz
  1  'x, y, z'
loop_
 _atom_site_type_symbol
 _atom_site_label
 _atom_site_symmetry_multiplicity
 _atom_site_fract_x
 _atom_site_fract_y
 _atom_site_fract_z
 _atom_site_occupancy
  B  B0  1  0.10334800  0.50000000  0.28754500  1
  B  B1  1  0.89665200  0.00000000  0.78754500  1
  H  H2  1  0.03802300  0.76357800  0.89559300  1
  H  H3  1  0.03802300  0.23642200  0.89559300  1
  H  H4  1  0.96197700  0.73642200  0.39559300  1
  H  H5  1  0.96197700  0.26357800  0.39559300  1
  H  H6  1  0.32976300  0.75814500  0.73313100  1
  H  H7  1  0.32976300  0.24185500  0.73313100  1
  H  H8  1  0.67023700  0.74185500  0.23313100  1
  H  H9  1  0.67023700  0.25814500  0.23313100  1
  H  H10  1  0.66741000  0.50000000  0.21988400  1
  H  H11  1  0.33259000  0.00000000  0.71988400  1
  H  H12  1  0.99591100  0.50000000  0.03942400  1
  H  H13  1  0.00408900  0.00000000  0.53942400  1
  Ru  Ru14  1  0.71457100  0.50000000  0.78977500  1
  Ru  Ru15  1  0.28542900  0.00000000  0.28977500  1
  Ru  Ru16  1  0.50946700  0.65889900  0.98332400  1
  Ru  Ru17  1  0.50946700  0.34110100  0.98332400  1
  Ru  Ru18  1  0.49053300  0.84110100  0.48332400  1
  Ru  Ru19  1  0.49053300  0.15889900  0.48332400  1
  C  C20  1  0.90936600  0.70453600  0.89476300  1
  C  C21  1  0.90936600  0.29546400  0.89476300  1
  C  C22  1  0.09063400  0.79546400  0.39476300  1
  C  C23  1  0.09063400  0.20453600  0.39476300  1
  C  C24  1  0.41713200  0.70261500  0.78026900  1
  C  C25  1  0.41713200  0.29738500  0.78026900  1
  C  C26  1  0.58286800  0.79738500  0.28026900  1
  C  C27  1  0.58286800  0.20261500  0.28026900  1
  C  C28  1  0.62887200  0.50000000  0.14620200  1
  C  C29  1  0.37112800  0.00000000  0.64620200  1
  C  C30  1  0.15324200  0.50000000  0.02213700  1
  C  C31  1  0.84675800  0.00000000  0.52213700  1
  O  O32  1  0.57588400  0.50000000  0.92291900  1
  O  O33  1  0.42411600  0.00000000  0.42291900  1
  O  O34  1  0.91027000  0.62557200  0.83210600  1
  O  O35  1  0.91027000  0.37442800  0.83210600  1
  O  O36  1  0.08973000  0.87442800  0.33210600  1
  O  O37  1  0.08973000  0.12557200  0.33210600  1
  O  O38  1  0.52240900  0.62406700  0.74206000  1
  O  O39  1  0.52240900  0.37593300  0.74206000  1
  O  O40  1  0.47759100  0.87593300  0.24206000  1
  O  O41  1  0.47759100  0.12406700  0.24206000  1
  O  O42  1  0.78414000  0.72224500  0.95782000  1
  O  O43  1  0.78414000  0.27775500  0.95782000  1
  O  O44  1  0.21586000  0.77775500  0.45782000  1
  O  O45  1  0.21586000  0.22224500  0.45782000  1
  O  O46  1  0.39404300  0.72527400  0.86511100  1
  O  O47  1  0.39404300  0.27472600  0.86511100  1
  O  O48  1  0.60595700  0.77472600  0.36511100  1
  O  O49  1  0.60595700  0.22527400  0.36511100  1
  O  O50  1  0.61201400  0.60206800  0.10957600  1
  O  O51  1  0.61201400  0.39793200  0.10957600  1
  O  O52  1  0.38798600  0.89793200  0.60957600  1
  O  O53  1  0.38798600  0.10206800  0.60957600  1
  O  O54  1  0.22908500  0.60218700  0.01238800  1
  O  O55  1  0.22908500  0.39781300  0.01238800  1
  O  O56  1  0.77091500  0.89781300  0.51238800  1
  O  O57  1  0.77091500  0.10218700  0.51238800  1
  O  O58  1  0.83320000  0.50000000  0.68574700  1
  O  O59  1  0.16680000  0.00000000  0.18574700  1
  O  O60  1  0.44970700  0.79017700  0.03650700  1
  O  O61  1  0.44970700  0.20982300  0.03650700  1
  O  O62  1  0.55029300  0.70982300  0.53650700  1
  O  O63  1  0.55029300  0.29017700  0.53650700  1
  O  O64  1  0.59316800  0.50000000  0.43896800  1
  O  O65  1  0.40683200  0.00000000  0.93896800  1
  O  O66  1  0.00730700  0.69852200  0.62964800  1
  O  O67  1  0.00730700  0.30147800  0.62964800  1
  O  O68  1  0.99269300  0.80147800  0.12964800  1
  O  O69  1  0.99269300  0.19852200  0.12964800  1
  F  F70  1  0.06883900  0.60358600  0.23314200  1
  F  F71  1  0.06883900  0.39641400  0.23314200  1
  F  F72  1  0.93116100  0.89641400  0.73314200  1
  F  F73  1  0.93116100  0.10358600  0.73314200  1
  F  F74  1  0.97386700  0.50000000  0.36405800  1
  F  F75  1  0.02613300  0.00000000  0.86405800  1
  F  F76  1  0.30121200  0.50000000  0.31786800  1
  F  F77  1  0.69878800  0.00000000  0.81786800  1
