# generated using pymatgen
data_V5As3
_symmetry_space_group_name_H-M   'P 1'
_cell_length_a   7.13096920
_cell_length_b   7.13096920
_cell_length_c   7.13096920
_cell_angle_alpha   96.90648598
_cell_angle_beta   96.90648598
_cell_angle_gamma   139.42027622
_symmetry_Int_Tables_number   1
_chemical_formula_structural   V5As3
_chemical_formula_sum   'V10 As6'
_cell_volume   221.24653225
_cell_formula_units_Z   2
loop_
 _symmetry_equiv_pos_site_id
 _symmetry_equiv_pos_as_xyz
  1  'x, y, z'
loop_
 _atom_site_type_symbol
 _atom_site_label
 _atom_site_symmetry_multiplicity
 _atom_site_fract_x
 _atom_site_fract_y
 _atom_site_fract_z
 _atom_site_occupancy
  V  V0  1  0.42245700  0.27390200  0.69635800  1
  V  V1  1  0.75000000  0.25000000  0.50000000  1
  V  V2  1  0.92245700  0.22609800  0.14855500  1
  V  V3  1  0.25000000  0.75000000  0.50000000  1
  V  V4  1  0.27390200  0.57754300  0.85144500  1
  V  V5  1  0.57754300  0.72609800  0.30364200  1
  V  V6  1  0.07754300  0.77390200  0.85144500  1
  V  V7  1  0.22609800  0.07754300  0.30364200  1
  V  V8  1  0.72609800  0.42245700  0.14855500  1
  V  V9  1  0.77390200  0.92245700  0.69635800  1
  As  As10  1  0.83582100  0.66417900  0.50000000  1
  As  As11  1  0.16417900  0.33582100  0.50000000  1
  As  As12  1  0.75000000  0.75000000  0.00000000  1
  As  As13  1  0.33582100  0.83582100  0.17164200  1
  As  As14  1  0.66417900  0.16417900  0.82835800  1
  As  As15  1  0.25000000  0.25000000  0.00000000  1
