# generated using pymatgen
data_NaSr3NdTi5O15
_symmetry_space_group_name_H-M   'P 1'
_cell_length_a   20.16092064
_cell_length_b   20.16092064
_cell_length_c   20.16092064
_cell_angle_alpha   164.27680126
_cell_angle_beta   164.27680126
_cell_angle_gamma   22.30687113
_symmetry_Int_Tables_number   1
_chemical_formula_structural   NaSr3NdTi5O15
_chemical_formula_sum   'Na2 Sr6 Nd2 Ti10 O30'
_cell_volume   601.67136514
_cell_formula_units_Z   2
loop_
 _symmetry_equiv_pos_site_id
 _symmetry_equiv_pos_as_xyz
  1  'x, y, z'
loop_
 _atom_site_type_symbol
 _atom_site_label
 _atom_site_symmetry_multiplicity
 _atom_site_fract_x
 _atom_site_fract_y
 _atom_site_fract_z
 _atom_site_occupancy
  Na  Na0  1  0.79936600  0.79936600  0.00000000  1
  Na  Na1  1  0.20063400  0.20063400  0.00000000  1
  Sr  Sr2  1  0.10078900  0.10078900  0.00000000  1
  Sr  Sr3  1  0.50000000  0.50000000  0.00000000  1
  Sr  Sr4  1  0.60063800  0.60063800  0.00000000  1
  Sr  Sr5  1  0.89921100  0.89921100  0.00000000  1
  Sr  Sr6  1  0.00000000  0.00000000  0.00000000  1
  Sr  Sr7  1  0.39936200  0.39936200  0.00000000  1
  Nd  Nd8  1  0.29942400  0.29942400  0.00000000  1
  Nd  Nd9  1  0.70057600  0.70057600  0.00000000  1
  Ti  Ti10  1  0.75000000  0.25000000  0.50000000  1
  Ti  Ti11  1  0.25000000  0.75000000  0.50000000  1
  Ti  Ti12  1  0.55042800  0.05042800  0.50000000  1
  Ti  Ti13  1  0.65139800  0.15139800  0.50000000  1
  Ti  Ti14  1  0.94957200  0.44957200  0.50000000  1
  Ti  Ti15  1  0.05042800  0.55042800  0.50000000  1
  Ti  Ti16  1  0.15139800  0.65139800  0.50000000  1
  Ti  Ti17  1  0.34860200  0.84860200  0.50000000  1
  Ti  Ti18  1  0.44957200  0.94957200  0.50000000  1
  Ti  Ti19  1  0.84860200  0.34860200  0.50000000  1
  O  O20  1  0.79935600  0.29935600  0.50000000  1
  O  O21  1  0.05024200  0.45341900  0.00000000  1
  O  O22  1  0.54658100  0.54658100  0.59682300  1
  O  O23  1  0.20064400  0.70064400  0.50000000  1
  O  O24  1  0.29935600  0.79935600  0.50000000  1
  O  O25  1  0.44246300  0.86237200  0.00000000  1
  O  O26  1  0.94975800  0.94975800  0.40317700  1
  O  O27  1  0.92930500  0.92930500  0.55710600  1
  O  O28  1  0.45341900  0.05024200  0.00000000  1
  O  O29  1  0.60082700  0.10082700  0.50000000  1
  O  O30  1  0.70064400  0.20064400  0.50000000  1
  O  O31  1  0.82378100  0.27753000  0.00000000  1
  O  O32  1  0.37219900  0.37219900  0.44289400  1
  O  O33  1  0.32368500  0.32368500  0.54680000  1
  O  O34  1  0.86237200  0.44246300  0.00000000  1
  O  O35  1  0.00000000  0.50000000  0.50000000  1
  O  O36  1  0.10082700  0.60082700  0.50000000  1
  O  O37  1  0.22311500  0.67631500  0.00000000  1
  O  O38  1  0.77688500  0.77688500  0.45320000  1
  O  O39  1  0.72247000  0.72247000  0.54625100  1
  O  O40  1  0.27753000  0.82378100  0.00000000  1
  O  O41  1  0.39917300  0.89917300  0.50000000  1
  O  O42  1  0.50000000  0.00000000  0.50000000  1
  O  O43  1  0.62780100  0.07069500  0.00000000  1
  O  O44  1  0.17621900  0.17621900  0.45374900  1
  O  O45  1  0.13762800  0.13762800  0.58009100  1
  O  O46  1  0.67631500  0.22311500  0.00000000  1
  O  O47  1  0.89917300  0.39917300  0.50000000  1
  O  O48  1  0.55753700  0.55753700  0.41990900  1
  O  O49  1  0.07069500  0.62780100  0.00000000  1
