# generated using pymatgen
data_KTb2Cu(MoO4)4
_symmetry_space_group_name_H-M   'P 1'
_cell_length_a   6.90614089
_cell_length_b   6.90614089
_cell_length_c   19.74273705
_cell_angle_alpha   88.81185389
_cell_angle_beta   88.81185389
_cell_angle_gamma   134.71989495
_symmetry_Int_Tables_number   1
_chemical_formula_structural   KTb2Cu(MoO4)4
_chemical_formula_sum   'K2 Tb4 Cu2 Mo8 O32'
_cell_volume   668.10549567
_cell_formula_units_Z   2
loop_
 _symmetry_equiv_pos_site_id
 _symmetry_equiv_pos_as_xyz
  1  'x, y, z'
loop_
 _atom_site_type_symbol
 _atom_site_label
 _atom_site_symmetry_multiplicity
 _atom_site_fract_x
 _atom_site_fract_y
 _atom_site_fract_z
 _atom_site_occupancy
  K  K0  1  0.97133200  0.02866800  0.75000000  1
  K  K1  1  0.02866800  0.97133200  0.25000000  1
  Tb  Tb2  1  0.14587600  0.85141300  0.46772600  1
  Tb  Tb3  1  0.85141300  0.14587600  0.96772600  1
  Tb  Tb4  1  0.85412400  0.14858700  0.53227400  1
  Tb  Tb5  1  0.14858700  0.85412400  0.03227400  1
  Cu  Cu6  1  0.30896400  0.69103600  0.25000000  1
  Cu  Cu7  1  0.69103600  0.30896400  0.75000000  1
  Mo  Mo8  1  0.73293500  0.25081400  0.14703300  1
  Mo  Mo9  1  0.54796300  0.42537500  0.59125000  1
  Mo  Mo10  1  0.26706500  0.74918600  0.85296700  1
  Mo  Mo11  1  0.45203700  0.57462500  0.40875000  1
  Mo  Mo12  1  0.42537500  0.54796300  0.09125000  1
  Mo  Mo13  1  0.74918600  0.26706500  0.35296700  1
  Mo  Mo14  1  0.25081400  0.73293500  0.64703300  1
  Mo  Mo15  1  0.57462500  0.45203700  0.90875000  1
  O  O16  1  0.93482400  0.52970800  0.28687500  1
  O  O17  1  0.32447600  0.22878700  0.10090800  1
  O  O18  1  0.47029200  0.06517600  0.21312500  1
  O  O19  1  0.26668000  0.98708000  0.67261300  1
  O  O20  1  0.49213800  0.82996500  0.45762000  1
  O  O21  1  0.25535800  0.21648800  0.96301700  1
  O  O22  1  0.98708000  0.26668000  0.17261300  1
  O  O23  1  0.06200500  0.58523800  0.56660600  1
  O  O24  1  0.90277600  0.60211000  0.13170200  1
  O  O25  1  0.93799500  0.41476200  0.43339400  1
  O  O26  1  0.67552400  0.77121300  0.89909200  1
  O  O27  1  0.58523800  0.06200500  0.06660600  1
  O  O28  1  0.09722400  0.39789000  0.86829800  1
  O  O29  1  0.69758400  0.51635000  0.67166200  1
  O  O30  1  0.21648800  0.25535800  0.46301700  1
  O  O31  1  0.06517600  0.47029200  0.71312500  1
  O  O32  1  0.22878700  0.32447600  0.60090800  1
  O  O33  1  0.73332000  0.01292000  0.32738700  1
  O  O34  1  0.50786200  0.17003500  0.54238000  1
  O  O35  1  0.01292000  0.73332000  0.82738700  1
  O  O36  1  0.51635000  0.69758400  0.17166200  1
  O  O37  1  0.52970800  0.93482400  0.78687500  1
  O  O38  1  0.48365000  0.30241600  0.82833800  1
  O  O39  1  0.30241600  0.48365000  0.32833800  1
  O  O40  1  0.39789000  0.09722400  0.36829800  1
  O  O41  1  0.74464200  0.78351200  0.03698300  1
  O  O42  1  0.60211000  0.90277600  0.63170200  1
  O  O43  1  0.82996500  0.49213800  0.95762000  1
  O  O44  1  0.78351200  0.74464200  0.53698300  1
  O  O45  1  0.41476200  0.93799500  0.93339400  1
  O  O46  1  0.77121300  0.67552400  0.39909200  1
  O  O47  1  0.17003500  0.50786200  0.04238000  1
