# generated using pymatgen
data_Mo6H20Cl14O9
_symmetry_space_group_name_H-M   'P 1'
_cell_length_a   9.98185998
_cell_length_b   9.98185998
_cell_length_c   19.86338353
_cell_angle_alpha   83.55104064
_cell_angle_beta   83.55104064
_cell_angle_gamma   58.36219630
_symmetry_Int_Tables_number   1
_chemical_formula_structural   Mo6H20Cl14O9
_chemical_formula_sum   'Mo12 H40 Cl28 O18'
_cell_volume   1670.99967587
_cell_formula_units_Z   2
loop_
 _symmetry_equiv_pos_site_id
 _symmetry_equiv_pos_as_xyz
  1  'x, y, z'
loop_
 _atom_site_type_symbol
 _atom_site_label
 _atom_site_symmetry_multiplicity
 _atom_site_fract_x
 _atom_site_fract_y
 _atom_site_fract_z
 _atom_site_occupancy
  Mo  Mo0  1  0.12784000  0.39756600  0.39460800  1
  Mo  Mo1  1  0.60243400  0.87216000  0.10539200  1
  Mo  Mo2  1  0.87216000  0.60243400  0.60539200  1
  Mo  Mo3  1  0.39756600  0.12784000  0.89460800  1
  Mo  Mo4  1  0.77545100  0.73263100  0.44585900  1
  Mo  Mo5  1  0.26736900  0.22454900  0.05414100  1
  Mo  Mo6  1  0.22454900  0.26736900  0.55414100  1
  Mo  Mo7  1  0.73263100  0.77545100  0.94585900  1
  Mo  Mo8  1  0.11870600  0.60047000  0.49308700  1
  Mo  Mo9  1  0.39953000  0.88129400  0.00691300  1
  Mo  Mo10  1  0.88129400  0.39953000  0.50691300  1
  Mo  Mo11  1  0.60047000  0.11870600  0.99308700  1
  H  H12  1  0.55202200  0.32360700  0.28323100  1
  H  H13  1  0.67639300  0.44797800  0.21676900  1
  H  H14  1  0.44797800  0.67639300  0.71676900  1
  H  H15  1  0.32360700  0.55202200  0.78323100  1
  H  H16  1  0.55542300  0.16471200  0.30757000  1
  H  H17  1  0.83528800  0.44457700  0.19243000  1
  H  H18  1  0.44457700  0.83528800  0.69243000  1
  H  H19  1  0.16471200  0.55542300  0.80757000  1
  H  H20  1  0.84818700  0.17714900  0.09201900  1
  H  H21  1  0.82285100  0.15181300  0.40798100  1
  H  H22  1  0.15181300  0.82285100  0.90798100  1
  H  H23  1  0.17714900  0.84818700  0.59201900  1
  H  H24  1  0.84806600  0.24923300  0.16697100  1
  H  H25  1  0.75076700  0.15193400  0.33302900  1
  H  H26  1  0.15193400  0.75076700  0.83302900  1
  H  H27  1  0.24923300  0.84806600  0.66697100  1
  H  H28  1  0.90840300  0.04428900  0.16331300  1
  H  H29  1  0.95571100  0.09159700  0.33668700  1
  H  H30  1  0.09159700  0.95571100  0.83668700  1
  H  H31  1  0.04428900  0.90840300  0.66331300  1
  H  H32  1  0.22869400  0.63643400  0.12045400  1
  H  H33  1  0.36356600  0.77130600  0.37954600  1
  H  H34  1  0.77130600  0.36356600  0.87954600  1
  H  H35  1  0.63643400  0.22869400  0.62045400  1
  H  H36  1  0.17913000  0.53757900  0.17033500  1
  H  H37  1  0.46242100  0.82087000  0.32966500  1
  H  H38  1  0.82087000  0.46242100  0.82966500  1
  H  H39  1  0.53757900  0.17913000  0.67033500  1
  H  H40  1  0.43918800  0.61676100  0.27827300  1
  H  H41  1  0.38323900  0.56081200  0.22172700  1
  H  H42  1  0.56081200  0.38323900  0.72172700  1
  H  H43  1  0.61676100  0.43918800  0.77827300  1
  H  H44  1  0.02982700  0.80459600  0.19036600  1
  H  H45  1  0.19540400  0.97017300  0.30963400  1
  H  H46  1  0.97017300  0.19540400  0.80963400  1
  H  H47  1  0.80459600  0.02982700  0.69036600  1
  H  H48  1  0.11440000  0.15193900  0.29055100  1
  H  H49  1  0.84806100  0.88560000  0.20944900  1
  H  H50  1  0.88560000  0.84806100  0.70944900  1
  H  H51  1  0.15193900  0.11440000  0.79055100  1
  Cl  Cl52  1  0.36691500  0.36028900  0.44257900  1
  Cl  Cl53  1  0.63971100  0.63308500  0.05742100  1
  Cl  Cl54  1  0.63308500  0.63971100  0.55742100  1
  Cl  Cl55  1  0.36028900  0.36691500  0.94257900  1
  Cl  Cl56  1  0.05675900  0.67774300  0.36699000  1
  Cl  Cl57  1  0.32225700  0.94324100  0.13301000  1
  Cl  Cl58  1  0.94324100  0.32225700  0.63301000  1
  Cl  Cl59  1  0.67774300  0.05675900  0.86699000  1
  Cl  Cl60  1  0.14445100  0.15460900  0.45868300  1
  Cl  Cl61  1  0.84539100  0.85554900  0.04131700  1
  Cl  Cl62  1  0.85554900  0.84539100  0.54131700  1
  Cl  Cl63  1  0.15460900  0.14445100  0.95868300  1
  Cl  Cl64  1  0.84341100  0.47520900  0.37988700  1
  Cl  Cl65  1  0.52479100  0.15658900  0.12011300  1
  Cl  Cl66  1  0.15658900  0.52479100  0.62011300  1
  Cl  Cl67  1  0.47520900  0.84341100  0.87988700  1
  Cl  Cl68  1  0.25597400  0.74866400  0.49197100  1
  Cl  Cl69  1  0.25133600  0.74402600  0.00802900  1
  Cl  Cl70  1  0.74402600  0.25133600  0.50802900  1
  Cl  Cl71  1  0.74866400  0.25597400  0.99197100  1
  Cl  Cl72  1  0.23501700  0.29155900  0.28352700  1
  Cl  Cl73  1  0.70844100  0.76498300  0.21647300  1
  Cl  Cl74  1  0.76498300  0.70844100  0.71647300  1
  Cl  Cl75  1  0.29155900  0.23501700  0.78352700  1
  Cl  Cl76  1  0.55779000  0.94734400  0.38496300  1
  Cl  Cl77  1  0.05265600  0.44221000  0.11503700  1
  Cl  Cl78  1  0.44221000  0.05265600  0.61503700  1
  Cl  Cl79  1  0.94734400  0.55779000  0.88496300  1
  O  O80  1  0.62185000  0.20783100  0.29192000  1
  O  O81  1  0.79216900  0.37815000  0.20808000  1
  O  O82  1  0.37815000  0.79216900  0.70808000  1
  O  O83  1  0.20783100  0.62185000  0.79192000  1
  O  O84  1  0.85075300  0.10096700  0.36393700  1
  O  O85  1  0.89903300  0.14924700  0.13606300  1
  O  O86  1  0.14924700  0.89903300  0.63606300  1
  O  O87  1  0.10096700  0.85075300  0.86393700  1
  O  O88  1  0.38339900  0.78980600  0.33086400  1
  O  O89  1  0.21019400  0.61660100  0.16913600  1
  O  O90  1  0.61660100  0.21019400  0.66913600  1
  O  O91  1  0.78980600  0.38339900  0.83086400  1
  O  O92  1  0.47191000  0.52809000  0.25000000  1
  O  O93  1  0.52809000  0.47191000  0.75000000  1
  O  O94  1  0.09338500  0.06552800  0.29813700  1
  O  O95  1  0.93447200  0.90661500  0.20186300  1
  O  O96  1  0.90661500  0.93447200  0.70186300  1
  O  O97  1  0.06552800  0.09338500  0.79813700  1
