# generated using pymatgen
data_SrLaMn2O6
_symmetry_space_group_name_H-M   'P 1'
_cell_length_a   5.49559000
_cell_length_b   5.49559000
_cell_length_c   23.64605500
_cell_angle_alpha   90.00000000
_cell_angle_beta   90.00000000
_cell_angle_gamma   90.00000000
_symmetry_Int_Tables_number   1
_chemical_formula_structural   SrLaMn2O6
_chemical_formula_sum   'Sr6 La6 Mn12 O36'
_cell_volume   714.14655349
_cell_formula_units_Z   6
loop_
 _symmetry_equiv_pos_site_id
 _symmetry_equiv_pos_as_xyz
  1  'x, y, z'
loop_
 _atom_site_type_symbol
 _atom_site_label
 _atom_site_symmetry_multiplicity
 _atom_site_fract_x
 _atom_site_fract_y
 _atom_site_fract_z
 _atom_site_occupancy
  Sr  Sr0  1  0.50000000  0.50000000  0.33368400  1
  Sr  Sr1  1  0.00000000  0.00000000  0.16661000  1
  Sr  Sr2  1  0.50000000  0.50000000  0.00000000  1
  Sr  Sr3  1  0.00000000  0.00000000  0.83339000  1
  Sr  Sr4  1  0.50000000  0.50000000  0.66631600  1
  Sr  Sr5  1  0.50000000  0.50000000  0.50000000  1
  La  La6  1  0.00000000  0.00000000  0.33338000  1
  La  La7  1  0.50000000  0.50000000  0.16674400  1
  La  La8  1  0.00000000  0.00000000  0.00000000  1
  La  La9  1  0.50000000  0.50000000  0.83325600  1
  La  La10  1  0.00000000  0.00000000  0.50000000  1
  La  La11  1  0.00000000  0.00000000  0.66662000  1
  Mn  Mn12  1  0.00000000  0.50000000  0.24993500  1
  Mn  Mn13  1  0.50000000  0.00000000  0.08325400  1
  Mn  Mn14  1  0.50000000  0.00000000  0.24993500  1
  Mn  Mn15  1  0.00000000  0.50000000  0.08325400  1
  Mn  Mn16  1  0.50000000  0.00000000  0.75006500  1
  Mn  Mn17  1  0.50000000  0.00000000  0.91674600  1
  Mn  Mn18  1  0.00000000  0.50000000  0.58330000  1
  Mn  Mn19  1  0.00000000  0.50000000  0.75006500  1
  Mn  Mn20  1  0.00000000  0.50000000  0.91674600  1
  Mn  Mn21  1  0.50000000  0.00000000  0.41670000  1
  Mn  Mn22  1  0.50000000  0.00000000  0.58330000  1
  Mn  Mn23  1  0.00000000  0.50000000  0.41670000  1
  O  O24  1  0.00000000  0.50000000  0.33336200  1
  O  O25  1  0.28397800  0.71602200  0.24805000  1
  O  O26  1  0.78409200  0.78409200  0.25185000  1
  O  O27  1  0.50000000  0.00000000  0.16663900  1
  O  O28  1  0.50000000  0.00000000  0.33336200  1
  O  O29  1  0.78400200  0.21599800  0.08104200  1
  O  O30  1  0.21590800  0.21590800  0.25185000  1
  O  O31  1  0.28469800  0.28469800  0.08551500  1
  O  O32  1  0.71602200  0.28397800  0.24805000  1
  O  O33  1  0.00000000  0.50000000  0.00000000  1
  O  O34  1  0.00000000  0.50000000  0.16663900  1
  O  O35  1  0.28469800  0.71530200  0.91448500  1
  O  O36  1  0.71530200  0.71530200  0.08551500  1
  O  O37  1  0.78400200  0.78400200  0.91895800  1
  O  O38  1  0.21599800  0.78400200  0.08104200  1
  O  O39  1  0.50000000  0.00000000  0.83336100  1
  O  O40  1  0.50000000  0.00000000  0.00000000  1
  O  O41  1  0.78409200  0.21590800  0.74815000  1
  O  O42  1  0.21599800  0.21599800  0.91895800  1
  O  O43  1  0.28397800  0.28397800  0.75195000  1
  O  O44  1  0.71530200  0.28469800  0.91448500  1
  O  O45  1  0.00000000  0.50000000  0.66663800  1
  O  O46  1  0.00000000  0.50000000  0.83336100  1
  O  O47  1  0.27320500  0.72679500  0.58291200  1
  O  O48  1  0.71602200  0.71602200  0.75195000  1
  O  O49  1  0.78866500  0.78866500  0.58365700  1
  O  O50  1  0.21590800  0.78409200  0.74815000  1
  O  O51  1  0.50000000  0.00000000  0.50000000  1
  O  O52  1  0.50000000  0.00000000  0.66663800  1
  O  O53  1  0.78866500  0.21133500  0.41634300  1
  O  O54  1  0.21133500  0.21133500  0.58365700  1
  O  O55  1  0.27320500  0.27320500  0.41708800  1
  O  O56  1  0.72679500  0.27320500  0.58291200  1
  O  O57  1  0.00000000  0.50000000  0.50000000  1
  O  O58  1  0.72679500  0.72679500  0.41708800  1
  O  O59  1  0.21133500  0.78866500  0.41634300  1
