# generated using pymatgen
data_KLi6BiO6
_symmetry_space_group_name_H-M   'P 1'
_cell_length_a   10.03207599
_cell_length_b   6.60731983
_cell_length_c   6.61308821
_cell_angle_alpha   108.75547292
_cell_angle_beta   139.33227967
_cell_angle_gamma   64.91884907
_symmetry_Int_Tables_number   1
_chemical_formula_structural   KLi6BiO6
_chemical_formula_sum   'K1 Li6 Bi1 O6'
_cell_volume   258.72435914
_cell_formula_units_Z   1
loop_
 _symmetry_equiv_pos_site_id
 _symmetry_equiv_pos_as_xyz
  1  'x, y, z'
loop_
 _atom_site_type_symbol
 _atom_site_label
 _atom_site_symmetry_multiplicity
 _atom_site_fract_x
 _atom_site_fract_y
 _atom_site_fract_z
 _atom_site_occupancy
  K  K0  1  0.00000000  0.50000000  0.00000000  1
  Li  Li1  1  0.55089200  0.17481000  0.65349800  1
  Li  Li2  1  0.89739400  0.17481000  0.34650200  1
  Li  Li3  1  0.68643900  0.00000000  0.37287900  1
  Li  Li4  1  0.44910800  0.82519000  0.34650200  1
  Li  Li5  1  0.10260600  0.82519000  0.65349800  1
  Li  Li6  1  0.31356100  0.00000000  0.62712100  1
  Bi  Bi7  1  0.00000000  0.00000000  0.00000000  1
  O  O8  1  0.09549900  0.88215000  0.38396700  1
  O  O9  1  0.71153200  0.88215000  0.61603300  1
  O  O10  1  0.20533900  0.71469900  0.00000000  1
  O  O11  1  0.90450100  0.11785000  0.61603300  1
  O  O12  1  0.28846800  0.11785000  0.38396700  1
  O  O13  1  0.79466100  0.28530100  0.00000000  1
