# generated using pymatgen
data_YbSi6H54(C6N)3
_symmetry_space_group_name_H-M   'P 1'
_cell_length_a   16.57415005
_cell_length_b   16.57415005
_cell_length_c   9.69173100
_cell_angle_alpha   90.00000000
_cell_angle_beta   90.00000000
_cell_angle_gamma   120.00000019
_symmetry_Int_Tables_number   1
_chemical_formula_structural   YbSi6H54(C6N)3
_chemical_formula_sum   'Yb2 Si12 H108 C36 N6'
_cell_volume   2305.65601618
_cell_formula_units_Z   2
loop_
 _symmetry_equiv_pos_site_id
 _symmetry_equiv_pos_as_xyz
  1  'x, y, z'
loop_
 _atom_site_type_symbol
 _atom_site_label
 _atom_site_symmetry_multiplicity
 _atom_site_fract_x
 _atom_site_fract_y
 _atom_site_fract_z
 _atom_site_occupancy
  Yb  Yb0  1  0.33333300  0.66666700  0.18545300  1
  Yb  Yb1  1  0.66666700  0.33333300  0.68545300  1
  Si  Si2  1  0.17394900  0.71351700  0.37873900  1
  Si  Si3  1  0.28472700  0.82726400  0.12339000  1
  Si  Si4  1  0.17273600  0.45746300  0.12339000  1
  Si  Si5  1  0.28648300  0.46043200  0.37873900  1
  Si  Si6  1  0.53956800  0.82605100  0.37873900  1
  Si  Si7  1  0.54253700  0.71527300  0.12339000  1
  Si  Si8  1  0.46043200  0.28648300  0.87873900  1
  Si  Si9  1  0.45746300  0.17273600  0.62339000  1
  Si  Si10  1  0.71527300  0.54253700  0.62339000  1
  Si  Si11  1  0.82605100  0.53956800  0.87873900  1
  Si  Si12  1  0.71351700  0.17394900  0.87873900  1
  Si  Si13  1  0.82726400  0.28472700  0.62339000  1
  H  H14  1  0.99940400  0.61773000  0.38519700  1
  H  H15  1  0.03641800  0.69321000  0.24009100  1
  H  H16  1  0.11982200  0.78636800  0.55020900  1
  H  H17  1  0.12898400  0.81597300  0.07648300  1
  H  H18  1  0.04307500  0.58921000  0.23715900  1
  H  H19  1  0.18448200  0.87040600  0.42172100  1
  H  H20  1  0.21317700  0.88094200  0.94805000  1
  H  H21  1  0.15537900  0.75701300  0.94680400  1
  H  H22  1  0.99807800  0.38109600  0.11530500  1
  H  H23  1  0.24362100  0.84475200  0.55221400  1
  H  H24  1  0.04304700  0.45385100  0.26285600  1
  H  H25  1  0.13267600  0.62756300  0.59419000  1
  H  H26  1  0.30758600  0.96509400  0.26044700  1
  H  H27  1  0.03490600  0.34249200  0.26044700  1
  H  H28  1  0.16423500  0.59828100  0.02493600  1
  H  H29  1  0.16402000  0.56598800  0.47586600  1
  H  H30  1  0.13460600  0.50572500  0.90903800  1
  H  H31  1  0.38301800  0.00192200  0.11530500  1
  H  H32  1  0.25192400  0.66753500  0.56094600  1
  H  H33  1  0.41080400  0.95695300  0.26285600  1
  H  H34  1  0.37111900  0.86539400  0.90903800  1
  H  H35  1  0.25229300  0.58465200  0.93735900  1
  H  H36  1  0.11905800  0.33223500  0.94805000  1
  H  H37  1  0.33235900  0.74770700  0.93735900  1
  H  H38  1  0.15524800  0.39886900  0.55221400  1
  H  H39  1  0.12959400  0.31407600  0.42172100  1
  H  H40  1  0.40196900  0.83598000  0.47586600  1
  H  H41  1  0.43404600  0.83576500  0.02493600  1
  H  H42  1  0.18402700  0.31301200  0.07648300  1
  H  H43  1  0.24298700  0.39836700  0.94680400  1
  H  H44  1  0.41561100  0.74807600  0.56094600  1
  H  H45  1  0.21363200  0.33345400  0.55020900  1
  H  H46  1  0.33246500  0.58438900  0.56094600  1
  H  H47  1  0.49488700  0.86732400  0.59419000  1
  H  H48  1  0.54613500  0.95692500  0.23715900  1
  H  H49  1  0.41534800  0.66764100  0.93735900  1
  H  H50  1  0.61832500  0.00059600  0.38519700  1
  H  H51  1  0.37243700  0.50511300  0.59419000  1
  H  H52  1  0.40171900  0.56595400  0.02493600  1
  H  H53  1  0.43401200  0.59803100  0.47586600  1
  H  H54  1  0.30679000  0.34320800  0.24009100  1
  H  H55  1  0.65679200  0.96358200  0.24009100  1
  H  H56  1  0.49427500  0.62888100  0.90903800  1
  H  H57  1  0.41079000  0.45386500  0.23715900  1
  H  H58  1  0.60163300  0.84462100  0.94680400  1
  H  H59  1  0.38227000  0.38167500  0.38519700  1
  H  H60  1  0.38167500  0.38227000  0.88519700  1
  H  H61  1  0.34320800  0.30679000  0.74009100  1
  H  H62  1  0.60113100  0.75637900  0.55221400  1
  H  H63  1  0.33345400  0.21363200  0.05020900  1
  H  H64  1  0.66654600  0.88017800  0.55020900  1
  H  H65  1  0.31301200  0.18402700  0.57648300  1
  H  H66  1  0.45386500  0.41079000  0.73715900  1
  H  H67  1  0.68698800  0.87101600  0.07648300  1
  H  H68  1  0.31407600  0.12959400  0.92172100  1
  H  H69  1  0.54614900  0.58919600  0.26285600  1
  H  H70  1  0.68592400  0.81551800  0.42172100  1
  H  H71  1  0.33223500  0.11905800  0.44805000  1
  H  H72  1  0.66776500  0.78682300  0.94805000  1
  H  H73  1  0.39836700  0.24298700  0.44680400  1
  H  H74  1  0.65750800  0.69241400  0.26044700  1
  H  H75  1  0.61890400  0.61698200  0.11530500  1
  H  H76  1  0.61698200  0.61890400  0.61530500  1
  H  H77  1  0.39886900  0.15524800  0.05221400  1
  H  H78  1  0.58919600  0.54614900  0.76285600  1
  H  H79  1  0.50511300  0.37243700  0.09419000  1
  H  H80  1  0.34249200  0.03490600  0.76044700  1
  H  H81  1  0.69241400  0.65750800  0.76044700  1
  H  H82  1  0.56595400  0.40171900  0.52493600  1
  H  H83  1  0.59803100  0.43401200  0.97586600  1
  H  H84  1  0.62888100  0.49427500  0.40903800  1
  H  H85  1  0.38109600  0.99807800  0.61530500  1
  H  H86  1  0.58438900  0.33246500  0.06094600  1
  H  H87  1  0.45385100  0.04304700  0.76285600  1
  H  H88  1  0.50572500  0.13460600  0.40903800  1
  H  H89  1  0.66764100  0.41534800  0.43735900  1
  H  H90  1  0.78682300  0.66776500  0.44805000  1
  H  H91  1  0.58465200  0.25229300  0.43735900  1
  H  H92  1  0.75637900  0.60113100  0.05221400  1
  H  H93  1  0.81551800  0.68592400  0.92172100  1
  H  H94  1  0.56598800  0.16402000  0.97586600  1
  H  H95  1  0.59828100  0.16423500  0.52493600  1
  H  H96  1  0.87101600  0.68698800  0.57648300  1
  H  H97  1  0.84462100  0.60163300  0.44680400  1
  H  H98  1  0.66753500  0.25192400  0.06094600  1
  H  H99  1  0.88017800  0.66654600  0.05020900  1
  H  H100  1  0.74807600  0.41561100  0.06094600  1
  H  H101  1  0.62756300  0.13267600  0.09419000  1
  H  H102  1  0.58921000  0.04307500  0.73715900  1
  H  H103  1  0.74770700  0.33235900  0.43735900  1
  H  H104  1  0.61773000  0.99940400  0.88519700  1
  H  H105  1  0.86732400  0.49488700  0.09419000  1
  H  H106  1  0.83576500  0.43404600  0.52493600  1
  H  H107  1  0.83598000  0.40196900  0.97586600  1
  H  H108  1  0.96358200  0.65679200  0.74009100  1
  H  H109  1  0.69321000  0.03641800  0.74009100  1
  H  H110  1  0.86539400  0.37111900  0.40903800  1
  H  H111  1  0.95692500  0.54613500  0.73715900  1
  H  H112  1  0.75701300  0.15537900  0.44680400  1
  H  H113  1  0.00059600  0.61832500  0.88519700  1
  H  H114  1  0.84475200  0.24362100  0.05221400  1
  H  H115  1  0.78636800  0.11982200  0.05020900  1
  H  H116  1  0.81597300  0.12898400  0.57648300  1
  H  H117  1  0.95695300  0.41080400  0.76285600  1
  H  H118  1  0.87040600  0.18448200  0.92172100  1
  H  H119  1  0.88094200  0.21317700  0.44805000  1
  H  H120  1  0.96509400  0.30758600  0.76044700  1
  H  H121  1  0.00192200  0.38301800  0.61530500  1
  C  C122  1  0.05192600  0.64725500  0.30279300  1
  C  C123  1  0.18223100  0.81412500  0.48406800  1
  C  C124  1  0.18563200  0.81868200  0.01441100  1
  C  C125  1  0.05084800  0.40395700  0.19726300  1
  C  C126  1  0.18243700  0.63575100  0.51314900  1
  C  C127  1  0.35310900  0.94915200  0.19726300  1
  C  C128  1  0.18413900  0.54732600  0.99022700  1
  C  C129  1  0.36318600  0.81586100  0.99022700  1
  C  C130  1  0.18131800  0.36695000  0.01441100  1
  C  C131  1  0.18587500  0.36810600  0.48406800  1
  C  C132  1  0.45331400  0.81756300  0.51314900  1
  C  C133  1  0.36424900  0.54668600  0.51314900  1
  C  C134  1  0.59532800  0.94807400  0.30279300  1
  C  C135  1  0.45267400  0.63681400  0.99022700  1
  C  C136  1  0.35274500  0.40467200  0.30279300  1
  C  C137  1  0.63189400  0.81776900  0.48406800  1
  C  C138  1  0.40467200  0.35274500  0.80279300  1
  C  C139  1  0.63305000  0.81436800  0.01441100  1
  C  C140  1  0.36810600  0.18587500  0.98406800  1
  C  C141  1  0.59604300  0.64689100  0.19726300  1
  C  C142  1  0.36695000  0.18131800  0.51441100  1
  C  C143  1  0.64689100  0.59604300  0.69726300  1
  C  C144  1  0.54668600  0.36424900  0.01314900  1
  C  C145  1  0.40395700  0.05084800  0.69726300  1
  C  C146  1  0.63681400  0.45267400  0.49022700  1
  C  C147  1  0.54732600  0.18413900  0.49022700  1
  C  C148  1  0.81436800  0.63305000  0.51441100  1
  C  C149  1  0.81776900  0.63189400  0.98406800  1
  C  C150  1  0.63575100  0.18243700  0.01314900  1
  C  C151  1  0.81756300  0.45331400  0.01314900  1
  C  C152  1  0.64725500  0.05192600  0.80279300  1
  C  C153  1  0.81586100  0.36318600  0.49022700  1
  C  C154  1  0.94807400  0.59532800  0.80279300  1
  C  C155  1  0.81412500  0.18223100  0.98406800  1
  C  C156  1  0.81868200  0.18563200  0.51441100  1
  C  C157  1  0.94915200  0.35310900  0.69726300  1
  N  N158  1  0.25455200  0.74315900  0.24820700  1
  N  N159  1  0.25684100  0.51139300  0.24820700  1
  N  N160  1  0.48860700  0.74544800  0.24820700  1
  N  N161  1  0.51139300  0.25684100  0.74820700  1
  N  N162  1  0.74544800  0.48860700  0.74820700  1
  N  N163  1  0.74315900  0.25455200  0.74820700  1
