# generated using pymatgen
data_B3H52C16(NO)12
_symmetry_space_group_name_H-M   'P 1'
_cell_length_a   10.74672682
_cell_length_b   10.74672682
_cell_length_c   10.68607600
_cell_angle_alpha   90.00000000
_cell_angle_beta   90.00000000
_cell_angle_gamma   91.30186973
_symmetry_Int_Tables_number   1
_chemical_formula_structural   B3H52C16(NO)12
_chemical_formula_sum   'B3 H52 C16 N12 O12'
_cell_volume   1233.83918090
_cell_formula_units_Z   1
loop_
 _symmetry_equiv_pos_site_id
 _symmetry_equiv_pos_as_xyz
  1  'x, y, z'
loop_
 _atom_site_type_symbol
 _atom_site_label
 _atom_site_symmetry_multiplicity
 _atom_site_fract_x
 _atom_site_fract_y
 _atom_site_fract_z
 _atom_site_occupancy
  B  B0  1  0.00000000  0.50000000  0.49660800  1
  B  B1  1  0.50000000  0.50000000  0.99994000  1
  B  B2  1  0.50000000  0.00000000  0.49660800  1
  H  H3  1  0.49121600  0.34847700  0.77096800  1
  H  H4  1  0.34847700  0.49121600  0.77096800  1
  H  H5  1  0.65152300  0.50878400  0.77096800  1
  H  H6  1  0.50878400  0.65152300  0.77096800  1
  H  H7  1  0.77348300  0.34585400  0.49852400  1
  H  H8  1  0.65414600  0.22651700  0.49852400  1
  H  H9  1  0.34585400  0.77348300  0.49852400  1
  H  H10  1  0.22651700  0.65414600  0.49852400  1
  H  H11  1  0.26909400  0.97689100  0.38726900  1
  H  H12  1  0.02310900  0.73090600  0.38726900  1
  H  H13  1  0.97689100  0.26909400  0.38726900  1
  H  H14  1  0.73090600  0.02310900  0.38726900  1
  H  H15  1  0.77407100  0.49890000  0.34673600  1
  H  H16  1  0.49890000  0.77407100  0.34673600  1
  H  H17  1  0.50110000  0.22592900  0.34673600  1
  H  H18  1  0.22592900  0.50110000  0.34673600  1
  H  H19  1  0.29142800  0.11187200  0.29163700  1
  H  H20  1  0.11187200  0.29142800  0.29163700  1
  H  H21  1  0.88812800  0.70857200  0.29163700  1
  H  H22  1  0.70857200  0.88812800  0.29163700  1
  H  H23  1  0.38267000  0.97544500  0.26555700  1
  H  H24  1  0.02455500  0.61733000  0.26555700  1
  H  H25  1  0.97544500  0.38267000  0.26555700  1
  H  H26  1  0.61733000  0.02455500  0.26555700  1
  H  H27  1  0.28970300  0.28970300  0.11091000  1
  H  H28  1  0.71029700  0.71029700  0.11091000  1
  H  H29  1  0.38626700  0.73247300  0.02455900  1
  H  H30  1  0.26752700  0.61373300  0.02455900  1
  H  H31  1  0.73247300  0.38626700  0.02455900  1
  H  H32  1  0.61373300  0.26752700  0.02455900  1
  H  H33  1  0.38474200  0.26814600  0.97504500  1
  H  H34  1  0.73185400  0.61525800  0.97504500  1
  H  H35  1  0.26814600  0.38474200  0.97504500  1
  H  H36  1  0.61525800  0.73185400  0.97504500  1
  H  H37  1  0.29225700  0.70774300  0.88850800  1
  H  H38  1  0.70774300  0.29225700  0.88850800  1
  H  H39  1  0.38799300  0.02562700  0.72983600  1
  H  H40  1  0.97437300  0.61200700  0.72983600  1
  H  H41  1  0.02562700  0.38799300  0.72983600  1
  H  H42  1  0.61200700  0.97437300  0.72983600  1
  H  H43  1  0.29170400  0.88851800  0.70811700  1
  H  H44  1  0.11148200  0.70829600  0.70811700  1
  H  H45  1  0.88851800  0.29170400  0.70811700  1
  H  H46  1  0.70829600  0.11148200  0.70811700  1
  H  H47  1  0.26609700  0.02684700  0.61701000  1
  H  H48  1  0.02684700  0.26609700  0.61701000  1
  H  H49  1  0.97315300  0.73390300  0.61701000  1
  H  H50  1  0.73390300  0.97315300  0.61701000  1
  H  H51  1  0.49489100  0.65786800  0.22696000  1
  H  H52  1  0.34213200  0.50510900  0.22696000  1
  H  H53  1  0.65786800  0.49489100  0.22696000  1
  H  H54  1  0.50510900  0.34213200  0.22696000  1
  C  C55  1  0.35345400  0.35345400  0.64697500  1
  C  C56  1  0.64654600  0.64654600  0.64697500  1
  C  C57  1  0.35129000  0.64871000  0.35324400  1
  C  C58  1  0.33926900  0.03499400  0.33706900  1
  C  C59  1  0.03499400  0.33926900  0.33706900  1
  C  C60  1  0.96500600  0.66073100  0.33706900  1
  C  C61  1  0.66073100  0.96500600  0.33706900  1
  C  C62  1  0.33767100  0.33767100  0.03325000  1
  C  C63  1  0.66232900  0.66232900  0.03325000  1
  C  C64  1  0.33917300  0.66082700  0.96606700  1
  C  C65  1  0.66082700  0.33917300  0.96606700  1
  C  C66  1  0.33741300  0.96775500  0.66009700  1
  C  C67  1  0.03224500  0.66258700  0.66009700  1
  C  C68  1  0.96775500  0.33741300  0.66009700  1
  C  C69  1  0.66258700  0.03224500  0.66009700  1
  C  C70  1  0.64871000  0.35129000  0.35324400  1
  N  N71  1  0.29422900  0.44987200  0.69955600  1
  N  N72  1  0.70577100  0.55012800  0.69955600  1
  N  N73  1  0.55012800  0.70577100  0.69955600  1
  N  N74  1  0.69897800  0.30102200  0.45491400  1
  N  N75  1  0.30102200  0.69897800  0.45491400  1
  N  N76  1  0.70135900  0.45307900  0.30084600  1
  N  N77  1  0.45307900  0.70135900  0.30084600  1
  N  N78  1  0.29864100  0.54692100  0.30084600  1
  N  N79  1  0.44987200  0.29422900  0.69955600  1
  N  N80  1  0.69959400  0.69959400  0.54269800  1
  N  N81  1  0.30040600  0.30040600  0.54269800  1
  N  N82  1  0.54692100  0.29864100  0.30084600  1
  O  O83  1  0.42992600  0.08803500  0.41847300  1
  O  O84  1  0.08803500  0.42992600  0.41847300  1
  O  O85  1  0.91196500  0.57007400  0.41847300  1
  O  O86  1  0.57007400  0.91196500  0.41847300  1
  O  O87  1  0.42404200  0.42404200  0.08808200  1
  O  O88  1  0.57595800  0.57595800  0.08808200  1
  O  O89  1  0.42454800  0.57545200  0.91328000  1
  O  O90  1  0.57545200  0.42454800  0.91328000  1
  O  O91  1  0.41736600  0.91696700  0.56918500  1
  O  O92  1  0.08303300  0.58263400  0.56918500  1
  O  O93  1  0.91696700  0.41736600  0.56918500  1
  O  O94  1  0.58263400  0.08303300  0.56918500  1
