# generated using pymatgen
data_Na2AlFeF7
_symmetry_space_group_name_H-M   'P 1'
_cell_length_a   7.28553498
_cell_length_b   7.28553498
_cell_length_c   24.50285078
_cell_angle_alpha   81.62184470
_cell_angle_beta   81.62184470
_cell_angle_gamma   60.63196189
_symmetry_Int_Tables_number   1
_chemical_formula_structural   Na2AlFeF7
_chemical_formula_sum   'Na16 Al8 Fe8 F56'
_cell_volume   1117.18362933
_cell_formula_units_Z   8
loop_
 _symmetry_equiv_pos_site_id
 _symmetry_equiv_pos_as_xyz
  1  'x, y, z'
loop_
 _atom_site_type_symbol
 _atom_site_label
 _atom_site_symmetry_multiplicity
 _atom_site_fract_x
 _atom_site_fract_y
 _atom_site_fract_z
 _atom_site_occupancy
  Na  Na0  1  0.11693200  0.13595600  0.12159000  1
  Na  Na1  1  0.50000000  0.50000000  0.00000000  1
  Na  Na2  1  0.13595600  0.11693200  0.62159000  1
  Na  Na3  1  0.69919300  0.79581800  0.25255300  1
  Na  Na4  1  0.88306800  0.86404400  0.87841000  1
  Na  Na5  1  0.79282300  0.20717700  0.75000000  1
  Na  Na6  1  0.79581800  0.69919300  0.75255300  1
  Na  Na7  1  0.00000000  0.00000000  0.00000000  1
  Na  Na8  1  0.30080700  0.20418200  0.74744700  1
  Na  Na9  1  0.00000000  0.00000000  0.50000000  1
  Na  Na10  1  0.20418200  0.30080700  0.24744700  1
  Na  Na11  1  0.50000000  0.00000000  0.50000000  1
  Na  Na12  1  0.50000000  0.50000000  0.50000000  1
  Na  Na13  1  0.00000000  0.50000000  0.00000000  1
  Na  Na14  1  0.86404400  0.88306800  0.37841000  1
  Na  Na15  1  0.20717700  0.79282300  0.25000000  1
  Al  Al16  1  0.74981800  0.25018200  0.25000000  1
  Al  Al17  1  0.25018200  0.74981800  0.75000000  1
  Al  Al18  1  0.36115700  0.89170200  0.37413600  1
  Al  Al19  1  0.89170200  0.36115700  0.87413600  1
  Al  Al20  1  0.63884300  0.10829800  0.62586400  1
  Al  Al21  1  0.50000000  0.00000000  0.00000000  1
  Al  Al22  1  0.00000000  0.50000000  0.50000000  1
  Al  Al23  1  0.10829800  0.63884300  0.12586400  1
  Fe  Fe24  1  0.13654800  0.61039000  0.62590700  1
  Fe  Fe25  1  0.38822900  0.36687500  0.87229500  1
  Fe  Fe26  1  0.38961000  0.86345200  0.87409300  1
  Fe  Fe27  1  0.36687500  0.38822900  0.37229500  1
  Fe  Fe28  1  0.61177100  0.63312500  0.12770500  1
  Fe  Fe29  1  0.86345200  0.38961000  0.37409300  1
  Fe  Fe30  1  0.61039000  0.13654800  0.12590700  1
  Fe  Fe31  1  0.63312500  0.61177100  0.62770500  1
  F  F32  1  0.00363500  0.15044600  0.20946200  1
  F  F33  1  0.15044600  0.00363500  0.70946200  1
  F  F34  1  0.50999300  0.64298300  0.71001600  1
  F  F35  1  0.29257700  0.72333800  0.14020000  1
  F  F36  1  0.14771000  0.64195300  0.70744800  1
  F  F37  1  0.45072700  0.07233900  0.38788900  1
  F  F38  1  0.77855300  0.87669000  0.96946200  1
  F  F39  1  0.57184900  0.76354600  0.04659100  1
  F  F40  1  0.35804700  0.85229000  0.79255200  1
  F  F41  1  0.42815100  0.23645400  0.95340900  1
  F  F42  1  0.91932600  0.92635000  0.61085300  1
  F  F43  1  0.86966000  0.43016600  0.45528100  1
  F  F44  1  0.72333800  0.29257800  0.64020000  1
  F  F45  1  0.27666200  0.70742200  0.35980000  1
  F  F46  1  0.64799200  0.28608700  0.40875900  1
  F  F47  1  0.07233900  0.45072700  0.88788900  1
  F  F48  1  0.35200800  0.71391300  0.59124100  1
  F  F49  1  0.50989900  0.91901700  0.16129300  1
  F  F50  1  0.02137300  0.64762700  0.20041000  1
  F  F51  1  0.35773700  0.29324300  0.64057100  1
  F  F52  1  0.64226300  0.70675700  0.35942900  1
  F  F53  1  0.12331000  0.22144700  0.53053800  1
  F  F54  1  0.84955400  0.99636500  0.29053800  1
  F  F55  1  0.99636500  0.84955400  0.79053800  1
  F  F56  1  0.35701700  0.49000700  0.78998400  1
  F  F57  1  0.49010100  0.08098300  0.83870700  1
  F  F58  1  0.13034000  0.56983400  0.54471900  1
  F  F59  1  0.08098300  0.49010100  0.33870700  1
  F  F60  1  0.92766100  0.54927300  0.11211100  1
  F  F61  1  0.07365000  0.08067400  0.88914700  1
  F  F62  1  0.97862700  0.35237300  0.79959000  1
  F  F63  1  0.71391300  0.35200800  0.09124100  1
  F  F64  1  0.49000700  0.35701700  0.28998400  1
  F  F65  1  0.35237300  0.97862700  0.29959000  1
  F  F66  1  0.19152600  0.63179800  0.05120900  1
  F  F67  1  0.54927300  0.92766100  0.61211100  1
  F  F68  1  0.91901700  0.50989900  0.66129300  1
  F  F69  1  0.70742300  0.27666200  0.85980000  1
  F  F70  1  0.76354600  0.57184900  0.54659100  1
  F  F71  1  0.64762700  0.02137300  0.70041000  1
  F  F72  1  0.29324300  0.35773700  0.14057100  1
  F  F73  1  0.64195300  0.14771000  0.20744800  1
  F  F74  1  0.87669000  0.77855300  0.46946200  1
  F  F75  1  0.56983400  0.13034000  0.04471900  1
  F  F76  1  0.22144700  0.12331000  0.03053800  1
  F  F77  1  0.85229000  0.35804700  0.29255200  1
  F  F78  1  0.70675700  0.64226300  0.85942900  1
  F  F79  1  0.28608700  0.64799200  0.90875900  1
  F  F80  1  0.43016600  0.86966000  0.95528100  1
  F  F81  1  0.63179800  0.19152600  0.55120900  1
  F  F82  1  0.64298300  0.50999300  0.21001600  1
  F  F83  1  0.36820200  0.80847400  0.44879100  1
  F  F84  1  0.08067400  0.07365000  0.38914700  1
  F  F85  1  0.92635000  0.91932600  0.11085300  1
  F  F86  1  0.80847400  0.36820200  0.94879100  1
  F  F87  1  0.23645400  0.42815100  0.45340900  1
