# generated using pymatgen
data_Na3CaFe4(SiO3)8
_symmetry_space_group_name_H-M   'P 1'
_cell_length_a   7.73260802
_cell_length_b   7.73260802
_cell_length_c   10.89162683
_cell_angle_alpha   63.33170456
_cell_angle_beta   63.33170456
_cell_angle_gamma   72.89000942
_symmetry_Int_Tables_number   1
_chemical_formula_structural   Na3CaFe4(SiO3)8
_chemical_formula_sum   'Na3 Ca1 Fe4 Si8 O24'
_cell_volume   516.53557939
_cell_formula_units_Z   1
loop_
 _symmetry_equiv_pos_site_id
 _symmetry_equiv_pos_as_xyz
  1  'x, y, z'
loop_
 _atom_site_type_symbol
 _atom_site_label
 _atom_site_symmetry_multiplicity
 _atom_site_fract_x
 _atom_site_fract_y
 _atom_site_fract_z
 _atom_site_occupancy
  Na  Na0  1  0.92207000  0.60535700  0.24439500  1
  Na  Na1  1  0.39464300  0.07793000  0.75560500  1
  Na  Na2  1  0.57853200  0.42146800  0.00000000  1
  Ca  Ca3  1  0.10658600  0.89341400  0.50000000  1
  Fe  Fe4  1  0.52958300  0.97657000  0.24265300  1
  Fe  Fe5  1  0.48770800  0.51229200  0.50000000  1
  Fe  Fe6  1  0.02343000  0.47041700  0.75734700  1
  Fe  Fe7  1  0.96016100  0.03983900  0.00000000  1
  Si  Si8  1  0.39449800  0.57471800  0.74717500  1
  Si  Si9  1  0.08829500  0.38540300  0.99901300  1
  Si  Si10  1  0.87165400  0.09737300  0.24623300  1
  Si  Si11  1  0.90262700  0.12834600  0.75376700  1
  Si  Si12  1  0.58084600  0.87846700  0.49786200  1
  Si  Si13  1  0.61459700  0.91170500  0.00098700  1
  Si  Si14  1  0.42528200  0.60550200  0.25282500  1
  Si  Si15  1  0.12153300  0.41915400  0.50213800  1
  O  O16  1  0.65990100  0.72068800  0.41668000  1
  O  O17  1  0.23946800  0.65129300  0.66161600  1
  O  O18  1  0.28627000  0.49999700  0.93098700  1
  O  O19  1  0.46512300  0.07861300  0.06205200  1
  O  O20  1  0.15145500  0.22953400  0.91640600  1
  O  O21  1  0.40200100  0.01168400  0.44152400  1
  O  O22  1  0.00598200  0.27717900  0.18449200  1
  O  O23  1  0.98747900  0.23543600  0.56792900  1
  O  O24  1  0.59558300  0.46534500  0.31492000  1
  O  O25  1  0.71796600  0.17333500  0.16114400  1
  O  O26  1  0.53465500  0.40441700  0.68508000  1
  O  O27  1  0.76456400  0.01252100  0.43207100  1
  O  O28  1  0.72282100  0.99401800  0.81550800  1
  O  O29  1  0.98831600  0.59799900  0.55847600  1
  O  O30  1  0.77046600  0.84854500  0.08359400  1
  O  O31  1  0.92138700  0.53487700  0.93794800  1
  O  O32  1  0.51201000  0.76897400  0.68203100  1
  O  O33  1  0.50000300  0.71373000  0.06901300  1
  O  O34  1  0.07571500  0.98892000  0.81362900  1
  O  O35  1  0.34870700  0.76053200  0.33838400  1
  O  O36  1  0.01108000  0.92428500  0.18637100  1
  O  O37  1  0.23102600  0.48799000  0.31796900  1
  O  O38  1  0.27931200  0.34009900  0.58332000  1
  O  O39  1  0.82666500  0.28203400  0.83885600  1
