# generated using pymatgen
data_V3P4PbO17
_symmetry_space_group_name_H-M   'P 1'
_cell_length_a   7.64880400
_cell_length_b   10.25324500
_cell_length_c   16.60114700
_cell_angle_alpha   90.00000000
_cell_angle_beta   90.00000000
_cell_angle_gamma   90.00000000
_symmetry_Int_Tables_number   1
_chemical_formula_structural   V3P4PbO17
_chemical_formula_sum   'V12 P16 Pb4 O68'
_cell_volume   1301.94597227
_cell_formula_units_Z   4
loop_
 _symmetry_equiv_pos_site_id
 _symmetry_equiv_pos_as_xyz
  1  'x, y, z'
loop_
 _atom_site_type_symbol
 _atom_site_label
 _atom_site_symmetry_multiplicity
 _atom_site_fract_x
 _atom_site_fract_y
 _atom_site_fract_z
 _atom_site_occupancy
  V  V0  1  0.21865300  0.32561200  0.15205600  1
  V  V1  1  0.21210700  0.25090700  0.50382800  1
  V  V2  1  0.21972400  0.17666800  0.84970500  1
  V  V3  1  0.71210700  0.24909300  0.49617200  1
  V  V4  1  0.78134700  0.82561200  0.34794400  1
  V  V5  1  0.28027600  0.82333200  0.34970500  1
  V  V6  1  0.28134700  0.67438800  0.65205600  1
  V  V7  1  0.71972400  0.32333200  0.15029500  1
  V  V8  1  0.78027600  0.67666800  0.65029500  1
  V  V9  1  0.78789300  0.75090700  0.99617200  1
  V  V10  1  0.28789300  0.74909300  0.00382800  1
  V  V11  1  0.71865300  0.17438800  0.84794400  1
  P  P12  1  0.69620100  0.36390500  0.68921500  1
  P  P13  1  0.19412700  0.63818200  0.18787700  1
  P  P14  1  0.80587300  0.13818200  0.31212300  1
  P  P15  1  0.29292800  0.93610200  0.53802700  1
  P  P16  1  0.20333300  0.56113600  0.46144700  1
  P  P17  1  0.80379900  0.63609500  0.18921500  1
  P  P18  1  0.19620100  0.13609500  0.31078500  1
  P  P19  1  0.70333300  0.93886400  0.53855300  1
  P  P20  1  0.30379900  0.86390500  0.81078500  1
  P  P21  1  0.69412700  0.86181800  0.81212300  1
  P  P22  1  0.30587300  0.36181800  0.68787700  1
  P  P23  1  0.70707200  0.43610200  0.96197300  1
  P  P24  1  0.79292800  0.56389800  0.46197300  1
  P  P25  1  0.20707200  0.06389800  0.03802700  1
  P  P26  1  0.79666700  0.06113600  0.03855300  1
  P  P27  1  0.29666700  0.43886400  0.96144700  1
  Pb  Pb28  1  0.49061200  0.43781500  0.32160900  1
  Pb  Pb29  1  0.99061200  0.06218500  0.67839100  1
  Pb  Pb30  1  0.00938800  0.56218500  0.82160900  1
  Pb  Pb31  1  0.50938800  0.93781500  0.17839100  1
  O  O32  1  0.21381000  0.25152900  0.73407200  1
  O  O33  1  0.71861200  0.11034800  0.96097100  1
  O  O34  1  0.21850100  0.74970900  0.76424000  1
  O  O35  1  0.75902700  0.35561500  0.88776300  1
  O  O36  1  0.49851500  0.73099700  0.02868800  1
  O  O37  1  0.75796000  0.86280700  0.61441600  1
  O  O38  1  0.75218000  0.91808800  0.05884900  1
  O  O39  1  0.74289500  0.42296200  0.44025400  1
  O  O40  1  0.28119900  0.11246000  0.95893300  1
  O  O41  1  0.00148500  0.26900300  0.52868800  1
  O  O42  1  0.50148500  0.23099700  0.47131200  1
  O  O43  1  0.24289500  0.07703800  0.55974600  1
  O  O44  1  0.49857400  0.92707700  0.52849600  1
  O  O45  1  0.19201900  0.15921200  0.40031800  1
  O  O46  1  0.74782000  0.08191200  0.55884900  1
  O  O47  1  0.72023500  0.50401800  0.21056300  1
  O  O48  1  0.50068900  0.33106700  0.14399500  1
  O  O49  1  0.78619000  0.75152900  0.76592800  1
  O  O50  1  0.99988300  0.62678400  0.22330000  1
  O  O51  1  0.31945300  0.33494700  0.59875200  1
  O  O52  1  0.78149900  0.24970900  0.73576000  1
  O  O53  1  0.74097300  0.64438500  0.38776300  1
  O  O54  1  0.24782000  0.41808800  0.44115100  1
  O  O55  1  0.71850100  0.75029100  0.23576000  1
  O  O56  1  0.81945300  0.16505300  0.40124800  1
  O  O57  1  0.77763800  0.99603500  0.79378100  1
  O  O58  1  0.99857400  0.57292300  0.47150400  1
  O  O59  1  0.49963500  0.66873600  0.66455500  1
  O  O60  1  0.69201900  0.34078800  0.59968200  1
  O  O61  1  0.75710500  0.57703800  0.94025400  1
  O  O62  1  0.28149900  0.25029100  0.26424000  1
  O  O63  1  0.99851500  0.76900300  0.97131200  1
  O  O64  1  0.25710500  0.92296200  0.05974600  1
  O  O65  1  0.25902700  0.14438500  0.11223700  1
  O  O66  1  0.00068900  0.16893300  0.85600500  1
  O  O67  1  0.30798100  0.84078800  0.90031800  1
  O  O68  1  0.77976500  0.49598200  0.71056300  1
  O  O69  1  0.24204000  0.36280700  0.88558400  1
  O  O70  1  0.27763800  0.50396500  0.20621900  1
  O  O71  1  0.78138800  0.88965200  0.46097100  1
  O  O72  1  0.22023500  0.99598200  0.78943700  1
  O  O73  1  0.28619000  0.74847100  0.23407200  1
  O  O74  1  0.25218000  0.58191200  0.94115100  1
  O  O75  1  0.99931100  0.66893300  0.64399500  1
  O  O76  1  0.68054700  0.83494700  0.90124800  1
  O  O77  1  0.49931100  0.83106700  0.35600500  1
  O  O78  1  0.00142600  0.07292300  0.02849600  1
  O  O79  1  0.00036500  0.33126400  0.16455500  1
  O  O80  1  0.21880100  0.88754000  0.45893300  1
  O  O81  1  0.18054700  0.66505300  0.09875200  1
  O  O82  1  0.71381000  0.24847100  0.26592800  1
  O  O83  1  0.80798100  0.65921200  0.09968200  1
  O  O84  1  0.74204000  0.13719300  0.11441600  1
  O  O85  1  0.27976500  0.00401800  0.28943700  1
  O  O86  1  0.99963500  0.83126400  0.33544500  1
  O  O87  1  0.25796000  0.63719300  0.38558400  1
  O  O88  1  0.72236200  0.00396500  0.29378100  1
  O  O89  1  0.78119900  0.38754000  0.04106700  1
  O  O90  1  0.50036500  0.16873600  0.83544500  1
  O  O91  1  0.71880100  0.61246000  0.54106700  1
  O  O92  1  0.50142600  0.42707700  0.97150400  1
  O  O93  1  0.49988300  0.87321600  0.77670000  1
  O  O94  1  0.00011700  0.12678400  0.27670000  1
  O  O95  1  0.22236200  0.49603500  0.70621900  1
  O  O96  1  0.21861200  0.38965200  0.03902900  1
  O  O97  1  0.24097300  0.85561500  0.61223700  1
  O  O98  1  0.28138800  0.61034800  0.53902900  1
  O  O99  1  0.50011700  0.37321600  0.72330000  1
