# generated using pymatgen
data_NaMgFe(SO4)3
_symmetry_space_group_name_H-M   'P 1'
_cell_length_a   8.95886776
_cell_length_b   8.95886776
_cell_length_c   8.95886779
_cell_angle_alpha   57.51167087
_cell_angle_beta   57.51167087
_cell_angle_gamma   57.51167504
_symmetry_Int_Tables_number   1
_chemical_formula_structural   NaMgFe(SO4)3
_chemical_formula_sum   'Na2 Mg2 Fe2 S6 O24'
_cell_volume   479.34878077
_cell_formula_units_Z   2
loop_
 _symmetry_equiv_pos_site_id
 _symmetry_equiv_pos_as_xyz
  1  'x, y, z'
loop_
 _atom_site_type_symbol
 _atom_site_label
 _atom_site_symmetry_multiplicity
 _atom_site_fract_x
 _atom_site_fract_y
 _atom_site_fract_z
 _atom_site_occupancy
  Na  Na0  1  0.00000000  0.00000000  0.00000000  1
  Na  Na1  1  0.50000000  0.50000000  0.50000000  1
  Mg  Mg2  1  0.14790100  0.14790100  0.14790100  1
  Mg  Mg3  1  0.85209900  0.85209900  0.85209900  1
  Fe  Fe4  1  0.35148100  0.35148100  0.35148100  1
  Fe  Fe5  1  0.64851900  0.64851900  0.64851900  1
  S  S6  1  0.75551700  0.04001500  0.45143800  1
  S  S7  1  0.04001500  0.45143800  0.75551700  1
  S  S8  1  0.45143800  0.75551700  0.04001500  1
  S  S9  1  0.54856200  0.24448300  0.95998500  1
  S  S10  1  0.95998500  0.54856200  0.24448300  1
  S  S11  1  0.24448300  0.95998500  0.54856200  1
  O  O12  1  0.27657900  0.12380100  0.51777600  1
  O  O13  1  0.51777600  0.27657900  0.12380100  1
  O  O14  1  0.91307100  0.06961600  0.27200200  1
  O  O15  1  0.12380100  0.51777600  0.27657900  1
  O  O16  1  0.58147500  0.21379000  0.43652300  1
  O  O17  1  0.79376200  0.00658100  0.60834400  1
  O  O18  1  0.06961600  0.27200200  0.91307100  1
  O  O19  1  0.21379000  0.43652300  0.58147500  1
  O  O20  1  0.43652300  0.58147500  0.21379000  1
  O  O21  1  0.39165600  0.20623800  0.99341900  1
  O  O22  1  0.72799800  0.08692900  0.93038400  1
  O  O23  1  0.00658100  0.60834400  0.79376200  1
  O  O24  1  0.99341900  0.39165600  0.20623800  1
  O  O25  1  0.27200200  0.91307100  0.06961600  1
  O  O26  1  0.60834400  0.79376200  0.00658100  1
  O  O27  1  0.56347700  0.41852500  0.78621000  1
  O  O28  1  0.78621000  0.56347700  0.41852500  1
  O  O29  1  0.93038400  0.72799800  0.08692900  1
  O  O30  1  0.20623800  0.99341900  0.39165600  1
  O  O31  1  0.41852500  0.78621000  0.56347700  1
  O  O32  1  0.87619900  0.48222400  0.72342100  1
  O  O33  1  0.08692900  0.93038400  0.72799800  1
  O  O34  1  0.48222400  0.72342100  0.87619900  1
  O  O35  1  0.72342100  0.87619900  0.48222400  1
