# generated using pymatgen
data_CuPO5
_symmetry_space_group_name_H-M   'P 1'
_cell_length_a   6.53239300
_cell_length_b   7.17713200
_cell_length_c   8.25980017
_cell_angle_alpha   80.38261919
_cell_angle_beta   90.00000000
_cell_angle_gamma   90.00000000
_symmetry_Int_Tables_number   1
_chemical_formula_structural   CuPO5
_chemical_formula_sum   'Cu4 P4 O20'
_cell_volume   381.80854609
_cell_formula_units_Z   4
loop_
 _symmetry_equiv_pos_site_id
 _symmetry_equiv_pos_as_xyz
  1  'x, y, z'
loop_
 _atom_site_type_symbol
 _atom_site_label
 _atom_site_symmetry_multiplicity
 _atom_site_fract_x
 _atom_site_fract_y
 _atom_site_fract_z
 _atom_site_occupancy
  Cu  Cu0  1  0.50000000  0.00000000  0.50000000  1
  Cu  Cu1  1  0.00000000  0.00000000  0.00000000  1
  Cu  Cu2  1  0.50000000  0.50000000  0.50000000  1
  Cu  Cu3  1  0.00000000  0.50000000  0.00000000  1
  P  P4  1  0.17775800  0.78088000  0.74034300  1
  P  P5  1  0.67775800  0.21912000  0.75965700  1
  P  P6  1  0.82224200  0.21912000  0.25965700  1
  P  P7  1  0.32224200  0.78088000  0.24034300  1
  O  O8  1  0.38359900  0.79772600  0.64252600  1
  O  O9  1  0.88359900  0.20227400  0.85747400  1
  O  O10  1  0.61640100  0.20227400  0.35747400  1
  O  O11  1  0.11640100  0.79772600  0.14252600  1
  O  O12  1  0.17664100  0.95256900  0.83505500  1
  O  O13  1  0.67664100  0.04743100  0.66494500  1
  O  O14  1  0.82335900  0.04743100  0.16494500  1
  O  O15  1  0.32335900  0.95256900  0.33505500  1
  O  O16  1  0.20616400  0.58202200  0.84996900  1
  O  O17  1  0.70616400  0.41797800  0.65003100  1
  O  O18  1  0.79383600  0.41797800  0.15003100  1
  O  O19  1  0.29383600  0.58202200  0.34996900  1
  O  O20  1  0.98277800  0.78545700  0.63489300  1
  O  O21  1  0.48277800  0.21454300  0.86510700  1
  O  O22  1  0.01722200  0.21454300  0.36510700  1
  O  O23  1  0.51722200  0.78545700  0.13489300  1
  O  O24  1  0.83588200  0.68003800  0.89592400  1
  O  O25  1  0.33588200  0.31996200  0.60407600  1
  O  O26  1  0.16411800  0.31996200  0.10407600  1
  O  O27  1  0.66411800  0.68003800  0.39592400  1
