# generated using pymatgen
data_Sr5La3Mn8(O5F)4
_symmetry_space_group_name_H-M   'P 1'
_cell_length_a   5.62855800
_cell_length_b   5.68952920
_cell_length_c   15.55925563
_cell_angle_alpha   89.88712299
_cell_angle_beta   89.93328182
_cell_angle_gamma   89.81643661
_symmetry_Int_Tables_number   1
_chemical_formula_structural   Sr5La3Mn8(O5F)4
_chemical_formula_sum   'Sr5 La3 Mn8 O20 F4'
_cell_volume   498.26333374
_cell_formula_units_Z   1
loop_
 _symmetry_equiv_pos_site_id
 _symmetry_equiv_pos_as_xyz
  1  'x, y, z'
loop_
 _atom_site_type_symbol
 _atom_site_label
 _atom_site_symmetry_multiplicity
 _atom_site_fract_x
 _atom_site_fract_y
 _atom_site_fract_z
 _atom_site_occupancy
  Sr  Sr0  1  0.00945800  0.49782200  0.87689600  1
  Sr  Sr1  1  0.00557900  0.49892400  0.37654400  1
  Sr  Sr2  1  0.49882700  0.99981400  0.62084200  1
  Sr  Sr3  1  0.48667800  0.99843700  0.12551100  1
  Sr  Sr4  1  0.50026500  0.99327200  0.87844500  1
  La  La5  1  0.52825100  0.00032000  0.38187900  1
  La  La6  1  0.97536900  0.50067200  0.61670700  1
  La  La7  1  0.00005000  0.50285300  0.12305700  1
  Mn  Mn8  1  0.01066800  0.98517400  0.99845200  1
  Mn  Mn9  1  0.50118900  0.49998800  0.75082200  1
  Mn  Mn10  1  0.50965300  0.48792200  0.24886900  1
  Mn  Mn11  1  0.48734400  0.51051000  0.99845900  1
  Mn  Mn12  1  0.49798500  0.50154100  0.49972200  1
  Mn  Mn13  1  0.00304100  0.99804400  0.75082900  1
  Mn  Mn14  1  0.00366900  0.00174600  0.50010400  1
  Mn  Mn15  1  0.98800000  0.01335300  0.24915900  1
  O  O16  1  0.99040200  0.92656600  0.62587700  1
  O  O17  1  0.01084600  0.92536100  0.12618300  1
  O  O18  1  0.23323500  0.26728300  0.51890000  1
  O  O19  1  0.23445600  0.26484400  0.23216600  1
  O  O20  1  0.22666200  0.26675800  0.01747300  1
  O  O21  1  0.25751400  0.75571800  0.98742400  1
  O  O22  1  0.25079500  0.74969400  0.76258000  1
  O  O23  1  0.26856600  0.76794700  0.48290700  1
  O  O24  1  0.49357100  0.43437400  0.87469900  1
  O  O25  1  0.49659400  0.42663100  0.37425400  1
  O  O26  1  0.49735100  0.55599700  0.12572100  1
  O  O27  1  0.52528300  0.56057000  0.62566700  1
  O  O28  1  0.76351500  0.26075900  0.73207200  1
  O  O29  1  0.74209000  0.24421300  0.51232100  1
  O  O30  1  0.74849500  0.25123400  0.22965200  1
  O  O31  1  0.76182700  0.73234600  0.98832600  1
  O  O32  1  0.75887000  0.74556900  0.48426600  1
  O  O33  1  0.74740600  0.75439000  0.26699500  1
  O  O34  1  0.00060700  0.05726000  0.87525000  1
  O  O35  1  0.99072800  0.05766200  0.37427400  1
  F  F36  1  0.24740400  0.25508300  0.72313500  1
  F  F37  1  0.25979400  0.76107300  0.27020800  1
  F  F38  1  0.73806100  0.23728700  0.01999300  1
  F  F39  1  0.74990300  0.75098900  0.77336100  1
