# generated using pymatgen
data_FeH12(NF2)3
_symmetry_space_group_name_H-M   'P 1'
_cell_length_a   9.13516900
_cell_length_b   9.14031100
_cell_length_c   9.14989000
_cell_angle_alpha   90.00000000
_cell_angle_beta   90.00000000
_cell_angle_gamma   90.00000000
_symmetry_Int_Tables_number   1
_chemical_formula_structural   FeH12(NF2)3
_chemical_formula_sum   'Fe4 H48 N12 F24'
_cell_volume   764.00012932
_cell_formula_units_Z   4
loop_
 _symmetry_equiv_pos_site_id
 _symmetry_equiv_pos_as_xyz
  1  'x, y, z'
loop_
 _atom_site_type_symbol
 _atom_site_label
 _atom_site_symmetry_multiplicity
 _atom_site_fract_x
 _atom_site_fract_y
 _atom_site_fract_z
 _atom_site_occupancy
  Fe  Fe0  1  0.25118500  0.25145500  0.74923500  1
  Fe  Fe1  1  0.75118500  0.24854500  0.25076500  1
  Fe  Fe2  1  0.24881500  0.74854500  0.24923500  1
  Fe  Fe3  1  0.74881500  0.75145500  0.75076500  1
  H  H4  1  0.42864800  0.05212300  0.92931000  1
  H  H5  1  0.92864800  0.44787700  0.07069000  1
  H  H6  1  0.07135200  0.94787700  0.42931000  1
  H  H7  1  0.57135200  0.55212300  0.57069000  1
  H  H8  1  0.56590100  0.93141300  0.93457000  1
  H  H9  1  0.06590100  0.56858700  0.06543000  1
  H  H10  1  0.93409900  0.06858700  0.43457000  1
  H  H11  1  0.43409900  0.43141300  0.56543000  1
  H  H12  1  0.44829000  0.93063700  0.07358900  1
  H  H13  1  0.94829000  0.56936300  0.92641100  1
  H  H14  1  0.05171000  0.06936300  0.57358900  1
  H  H15  1  0.55171000  0.43063700  0.42641100  1
  H  H16  1  0.57056900  0.07109400  0.05306700  1
  H  H17  1  0.07056900  0.42890600  0.94693300  1
  H  H18  1  0.92943100  0.92890600  0.55306700  1
  H  H19  1  0.42943100  0.57109400  0.44693300  1
  H  H20  1  0.93571900  0.05580300  0.92698000  1
  H  H21  1  0.43571900  0.44419700  0.07302000  1
  H  H22  1  0.56428100  0.94419700  0.42698000  1
  H  H23  1  0.06428100  0.55580300  0.57302000  1
  H  H24  1  0.07178400  0.93235200  0.94452500  1
  H  H25  1  0.57178400  0.56764800  0.05547500  1
  H  H26  1  0.42821600  0.06764800  0.44452500  1
  H  H27  1  0.92821600  0.43235200  0.55547500  1
  H  H28  1  0.93474400  0.93608700  0.06381900  1
  H  H29  1  0.43474400  0.56391300  0.93618100  1
  H  H30  1  0.56525600  0.06391300  0.56381900  1
  H  H31  1  0.06525600  0.43608700  0.43618100  1
  H  H32  1  0.05655100  0.07101000  0.06679200  1
  H  H33  1  0.55655100  0.42899000  0.93320800  1
  H  H34  1  0.44344900  0.92899000  0.56679200  1
  H  H35  1  0.94344900  0.57101000  0.43320800  1
  H  H36  1  0.81206400  0.81206100  0.31907000  1
  H  H37  1  0.31206400  0.68793900  0.68093000  1
  H  H38  1  0.68793600  0.18793900  0.81907000  1
  H  H39  1  0.18793600  0.31206100  0.18093000  1
  H  H40  1  0.68272500  0.81284100  0.18716600  1
  H  H41  1  0.18272500  0.68715900  0.81283400  1
  H  H42  1  0.81727500  0.18715900  0.68716600  1
  H  H43  1  0.31727500  0.31284100  0.31283400  1
  H  H44  1  0.81379200  0.68178300  0.18892600  1
  H  H45  1  0.31379200  0.81821700  0.81107400  1
  H  H46  1  0.68620800  0.31821700  0.68892600  1
  H  H47  1  0.18620800  0.18178300  0.31107400  1
  H  H48  1  0.68480000  0.68478400  0.31553500  1
  H  H49  1  0.18480000  0.81521600  0.68446500  1
  H  H50  1  0.81520000  0.31521600  0.81553500  1
  H  H51  1  0.31520000  0.18478400  0.18446500  1
  N  N52  1  0.50171500  0.99866300  0.99873400  1
  N  N53  1  0.00171500  0.50133700  0.00126600  1
  N  N54  1  0.99828500  0.00133700  0.49873400  1
  N  N55  1  0.49828500  0.49866300  0.50126600  1
  N  N56  1  0.00052300  0.99967100  0.99968400  1
  N  N57  1  0.50052300  0.50032900  0.00031600  1
  N  N58  1  0.49947700  0.00032900  0.49968400  1
  N  N59  1  0.99947700  0.49967100  0.50031600  1
  N  N60  1  0.74945900  0.74941400  0.25058700  1
  N  N61  1  0.24945900  0.75058600  0.74941300  1
  N  N62  1  0.75054100  0.25058600  0.75058700  1
  N  N63  1  0.25054100  0.24941400  0.24941300  1
  F  F64  1  0.29414200  0.04269900  0.78405300  1
  F  F65  1  0.79414200  0.45730100  0.21594700  1
  F  F66  1  0.20585800  0.95730100  0.28405300  1
  F  F67  1  0.70585800  0.54269900  0.71594700  1
  F  F68  1  0.21061900  0.46050400  0.72494000  1
  F  F69  1  0.71061900  0.03949600  0.27506000  1
  F  F70  1  0.28938100  0.53949600  0.22494000  1
  F  F71  1  0.78938100  0.96050400  0.77506000  1
  F  F72  1  0.28501000  0.23232700  0.53825700  1
  F  F73  1  0.78501000  0.26767300  0.46174300  1
  F  F74  1  0.21499000  0.76767300  0.03825700  1
  F  F75  1  0.71499000  0.73232700  0.96174300  1
  F  F76  1  0.21030500  0.27565300  0.95951600  1
  F  F77  1  0.71030500  0.22434700  0.04048400  1
  F  F78  1  0.28969500  0.72434700  0.45951600  1
  F  F79  1  0.78969500  0.77565300  0.54048400  1
  F  F80  1  0.45970000  0.29367000  0.77600100  1
  F  F81  1  0.95970000  0.20633000  0.22399900  1
  F  F82  1  0.04030000  0.70633000  0.27600100  1
  F  F83  1  0.54030000  0.79367000  0.72399900  1
  F  F84  1  0.04392400  0.20072800  0.71471400  1
  F  F85  1  0.54392400  0.29927200  0.28528600  1
  F  F86  1  0.45607600  0.79927200  0.21471400  1
  F  F87  1  0.95607600  0.70072800  0.78528600  1
