# generated using pymatgen
data_K2Cu3(MoO4)4
_symmetry_space_group_name_H-M   'P 1'
_cell_length_a   14.94075300
_cell_length_b   5.21501300
_cell_length_c   20.34645061
_cell_angle_alpha   85.10638808
_cell_angle_beta   90.00000000
_cell_angle_gamma   90.00000000
_symmetry_Int_Tables_number   1
_chemical_formula_structural   K2Cu3(MoO4)4
_chemical_formula_sum   'K8 Cu12 Mo16 O64'
_cell_volume   1579.53976285
_cell_formula_units_Z   4
loop_
 _symmetry_equiv_pos_site_id
 _symmetry_equiv_pos_as_xyz
  1  'x, y, z'
loop_
 _atom_site_type_symbol
 _atom_site_label
 _atom_site_symmetry_multiplicity
 _atom_site_fract_x
 _atom_site_fract_y
 _atom_site_fract_z
 _atom_site_occupancy
  K  K0  1  0.87353100  0.74845800  0.71703300  1
  K  K1  1  0.52344400  0.69105800  0.40445100  1
  K  K2  1  0.37353100  0.25154200  0.78296700  1
  K  K3  1  0.47655600  0.30894200  0.59554900  1
  K  K4  1  0.62646900  0.74845800  0.21703300  1
  K  K5  1  0.12646900  0.25154200  0.28296700  1
  K  K6  1  0.02344400  0.30894200  0.09554900  1
  K  K7  1  0.97655600  0.69105800  0.90445100  1
  Cu  Cu8  1  0.17611100  0.31178200  0.56697800  1
  Cu  Cu9  1  0.32388900  0.31178200  0.06697800  1
  Cu  Cu10  1  0.56481200  0.20622400  0.89409000  1
  Cu  Cu11  1  0.67611100  0.68821800  0.93302200  1
  Cu  Cu12  1  0.43518800  0.79377600  0.10591000  1
  Cu  Cu13  1  0.82388900  0.68821800  0.43302200  1
  Cu  Cu14  1  0.93518800  0.20622400  0.39409000  1
  Cu  Cu15  1  0.29556600  0.75803100  0.32246900  1
  Cu  Cu16  1  0.79556600  0.24196900  0.17753100  1
  Cu  Cu17  1  0.70443400  0.24196900  0.67753100  1
  Cu  Cu18  1  0.06481200  0.79377600  0.60591000  1
  Cu  Cu19  1  0.20443400  0.75803100  0.82246900  1
  Mo  Mo20  1  0.32143700  0.19515500  0.43466500  1
  Mo  Mo21  1  0.58127600  0.30769700  0.07085100  1
  Mo  Mo22  1  0.91872400  0.30769700  0.57085100  1
  Mo  Mo23  1  0.60256700  0.71520300  0.77340500  1
  Mo  Mo24  1  0.77183400  0.21812800  0.83898500  1
  Mo  Mo25  1  0.08127600  0.69230300  0.42914900  1
  Mo  Mo26  1  0.39743300  0.28479700  0.22659500  1
  Mo  Mo27  1  0.67856300  0.80484500  0.56533500  1
  Mo  Mo28  1  0.27183400  0.78187200  0.66101500  1
  Mo  Mo29  1  0.72816600  0.21812800  0.33898500  1
  Mo  Mo30  1  0.10256700  0.28479700  0.72659500  1
  Mo  Mo31  1  0.41872400  0.69230300  0.92914900  1
  Mo  Mo32  1  0.82143700  0.80484500  0.06533500  1
  Mo  Mo33  1  0.17856300  0.19515500  0.93466500  1
  Mo  Mo34  1  0.89743300  0.71520300  0.27340500  1
  Mo  Mo35  1  0.22816600  0.78187200  0.16101500  1
  O  O36  1  0.84121500  0.13866500  0.62345000  1
  O  O37  1  0.36027800  0.99736000  0.66969500  1
  O  O38  1  0.63972200  0.00264000  0.33030500  1
  O  O39  1  0.92200700  0.68941800  0.03354100  1
  O  O40  1  0.31228400  0.55923800  0.60791900  1
  O  O41  1  0.18874100  0.07823200  0.76656600  1
  O  O42  1  0.13972200  0.99736000  0.16969500  1
  O  O43  1  0.24773700  0.61185900  0.24285100  1
  O  O44  1  0.12947000  0.60689800  0.51042900  1
  O  O45  1  0.27566400  0.42811900  0.37335500  1
  O  O46  1  0.86027800  0.00264000  0.83030500  1
  O  O47  1  0.45333600  0.39906300  0.89362500  1
  O  O48  1  0.98360300  0.89085600  0.43880600  1
  O  O49  1  0.35237900  0.89927000  0.39757600  1
  O  O50  1  0.87053000  0.39310200  0.48957100  1
  O  O51  1  0.01341400  0.08455300  0.70891900  1
  O  O52  1  0.82515300  0.01314700  0.37486300  1
  O  O53  1  0.64762100  0.10073000  0.60242400  1
  O  O54  1  0.74773700  0.38814100  0.25714900  1
  O  O55  1  0.85237900  0.10073000  0.10242400  1
  O  O56  1  0.74157200  0.85545900  0.99862900  1
  O  O57  1  0.75226300  0.38814100  0.75714900  1
  O  O58  1  0.67484700  0.01314700  0.87486300  1
  O  O59  1  0.68771600  0.44076200  0.39208100  1
  O  O60  1  0.37053000  0.60689800  0.01042900  1
  O  O61  1  0.54666400  0.60093700  0.10637500  1
  O  O62  1  0.98658600  0.91544700  0.29108100  1
  O  O63  1  0.13137400  0.48652800  0.64499900  1
  O  O64  1  0.62947000  0.39310200  0.98957100  1
  O  O65  1  0.63137400  0.51347200  0.85500100  1
  O  O66  1  0.48360300  0.10914400  0.06119400  1
  O  O67  1  0.72433600  0.57188100  0.62664500  1
  O  O68  1  0.34121500  0.86133500  0.87655000  1
  O  O69  1  0.65878500  0.13866500  0.12345000  1
  O  O70  1  0.25226300  0.61185900  0.74285100  1
  O  O71  1  0.86862600  0.51347200  0.35500100  1
  O  O72  1  0.14762100  0.89927000  0.89757600  1
  O  O73  1  0.51639700  0.89085600  0.93880600  1
  O  O74  1  0.04666400  0.39906300  0.39362500  1
  O  O75  1  0.48658600  0.08455300  0.20891900  1
  O  O76  1  0.77566400  0.57188100  0.12664500  1
  O  O77  1  0.68874100  0.92176800  0.73343400  1
  O  O78  1  0.05833400  0.49541000  0.78158500  1
  O  O79  1  0.95333600  0.60093700  0.60637500  1
  O  O80  1  0.31125900  0.07823200  0.26656600  1
  O  O81  1  0.81125900  0.92176800  0.23343400  1
  O  O82  1  0.18771600  0.55923800  0.10791900  1
  O  O83  1  0.57799300  0.68941800  0.53354100  1
  O  O84  1  0.15878500  0.86133500  0.37655000  1
  O  O85  1  0.44166600  0.49541000  0.28158500  1
  O  O86  1  0.17484700  0.98685300  0.62513700  1
  O  O87  1  0.22433600  0.42811900  0.87335500  1
  O  O88  1  0.55833400  0.50459000  0.71841500  1
  O  O89  1  0.25842800  0.14454100  0.00137100  1
  O  O90  1  0.24157200  0.14454100  0.50137100  1
  O  O91  1  0.81228400  0.44076200  0.89208100  1
  O  O92  1  0.32515300  0.98685300  0.12513700  1
  O  O93  1  0.42200700  0.31058200  0.46645900  1
  O  O94  1  0.75842800  0.85545900  0.49862900  1
  O  O95  1  0.07799300  0.31058200  0.96645900  1
  O  O96  1  0.94166600  0.50459000  0.21841500  1
  O  O97  1  0.51341400  0.91544700  0.79108100  1
  O  O98  1  0.36862600  0.48652800  0.14499900  1
  O  O99  1  0.01639700  0.10914400  0.56119400  1
