# generated using pymatgen
data_H5C2S2N3
_symmetry_space_group_name_H-M   'P 1'
_cell_length_a   4.92749686
_cell_length_b   10.49902300
_cell_length_c   16.90723571
_cell_angle_alpha   90.00000000
_cell_angle_beta   83.50529210
_cell_angle_gamma   90.00000000
_symmetry_Int_Tables_number   1
_chemical_formula_structural   H5C2S2N3
_chemical_formula_sum   'H20 C8 S8 N12'
_cell_volume   869.06388008
_cell_formula_units_Z   4
loop_
 _symmetry_equiv_pos_site_id
 _symmetry_equiv_pos_as_xyz
  1  'x, y, z'
loop_
 _atom_site_type_symbol
 _atom_site_label
 _atom_site_symmetry_multiplicity
 _atom_site_fract_x
 _atom_site_fract_y
 _atom_site_fract_z
 _atom_site_occupancy
  H  H0  1  0.25532800  0.96956800  0.16425700  1
  H  H1  1  0.74467200  0.46956800  0.83574300  1
  H  H2  1  0.07378100  0.68931900  0.93206500  1
  H  H3  1  0.92621900  0.18931900  0.06793500  1
  H  H4  1  0.13451400  0.43193700  0.30250800  1
  H  H5  1  0.86548600  0.93193700  0.69749200  1
  H  H6  1  0.37249600  0.35878800  0.05154000  1
  H  H7  1  0.62750400  0.85878800  0.94846000  1
  H  H8  1  0.88280600  0.98668300  0.22034100  1
  H  H9  1  0.11719400  0.48668300  0.77965900  1
  H  H10  1  0.04721500  0.75772000  0.55428800  1
  H  H11  1  0.95278500  0.25772000  0.44571200  1
  H  H12  1  0.53206000  0.12009900  0.51906400  1
  H  H13  1  0.46794000  0.62009900  0.48093600  1
  H  H14  1  0.45009000  0.20745800  0.28711900  1
  H  H15  1  0.54991000  0.70745800  0.71288100  1
  H  H16  1  0.69989500  0.35470300  0.42764100  1
  H  H17  1  0.30010500  0.85470300  0.57235900  1
  H  H18  1  0.56156100  0.66649900  0.45750900  1
  H  H19  1  0.43843900  0.16649900  0.54249100  1
  C  C20  1  0.46167300  0.68277800  0.11590800  1
  C  C21  1  0.53832700  0.18277800  0.88409200  1
  C  C22  1  0.80623800  0.74445600  0.27915000  1
  C  C23  1  0.19376200  0.24445600  0.72085000  1
  C  C24  1  0.46806000  0.03161600  0.35531400  1
  C  C25  1  0.53194000  0.53161600  0.64468600  1
  C  C26  1  0.02260000  0.16151600  0.12041400  1
  C  C27  1  0.97739900  0.66151600  0.87958600  1
  S  S28  1  0.98992300  0.78275300  0.34615000  1
  S  S29  1  0.01007700  0.28275300  0.65385000  1
  S  S30  1  0.11741500  0.43848600  0.38320700  1
  S  S31  1  0.88258500  0.93848600  0.61679300  1
  S  S32  1  0.00177900  0.00160900  0.14317700  1
  S  S33  1  0.99822100  0.50160900  0.85682300  1
  S  S34  1  0.25423800  0.24969500  0.16103500  1
  S  S35  1  0.74576200  0.74969500  0.83896500  1
  N  N36  1  0.49621200  0.74999300  0.17949600  1
  N  N37  1  0.50378800  0.24999300  0.82050400  1
  N  N38  1  0.68952800  0.70847200  0.22389100  1
  N  N39  1  0.31047200  0.20847200  0.77610900  1
  N  N40  1  0.40459900  0.63762600  0.05556600  1
  N  N41  1  0.59540100  0.13762600  0.94443400  1
  N  N42  1  0.88530500  0.31848900  0.40512700  1
  N  N43  1  0.11469500  0.81848900  0.59487300  1
  N  N44  1  0.40486900  0.35658000  0.11043400  1
  N  N45  1  0.59513100  0.85658000  0.88956600  1
  N  N46  1  0.46799600  0.12425600  0.31601400  1
  N  N47  1  0.53200400  0.62425600  0.68398600  1
