# generated using pymatgen
data_Tl2Mo7O22
_symmetry_space_group_name_H-M   'P 1'
_cell_length_a   10.87674855
_cell_length_b   10.87674855
_cell_length_c   19.02044244
_cell_angle_alpha   60.39468299
_cell_angle_beta   60.39468299
_cell_angle_gamma   30.12963244
_symmetry_Int_Tables_number   1
_chemical_formula_structural   Tl2Mo7O22
_chemical_formula_sum   'Tl4 Mo14 O44'
_cell_volume   970.48980589
_cell_formula_units_Z   2
loop_
 _symmetry_equiv_pos_site_id
 _symmetry_equiv_pos_as_xyz
  1  'x, y, z'
loop_
 _atom_site_type_symbol
 _atom_site_label
 _atom_site_symmetry_multiplicity
 _atom_site_fract_x
 _atom_site_fract_y
 _atom_site_fract_z
 _atom_site_occupancy
  Tl  Tl0  1  0.56349100  0.14748500  0.66719000  1
  Tl  Tl1  1  0.43650900  0.85251500  0.33281000  1
  Tl  Tl2  1  0.85251500  0.43650900  0.83281000  1
  Tl  Tl3  1  0.14748500  0.56349100  0.16719000  1
  Mo  Mo4  1  0.78300500  0.28041200  0.09271500  1
  Mo  Mo5  1  0.69280100  0.97481400  0.36237900  1
  Mo  Mo6  1  0.61068400  0.38931600  0.75000000  1
  Mo  Mo7  1  0.38931600  0.61068400  0.25000000  1
  Mo  Mo8  1  0.37739500  0.98997400  0.97437500  1
  Mo  Mo9  1  0.71958800  0.21699500  0.40728500  1
  Mo  Mo10  1  0.62260500  0.01002600  0.02562500  1
  Mo  Mo11  1  0.98997400  0.37739400  0.47437500  1
  Mo  Mo12  1  0.01002600  0.62260500  0.52562500  1
  Mo  Mo13  1  0.97481400  0.69280100  0.86237900  1
  Mo  Mo14  1  0.30719900  0.02518600  0.63762100  1
  Mo  Mo15  1  0.21699500  0.71958800  0.90728500  1
  Mo  Mo16  1  0.02518600  0.30719900  0.13762100  1
  Mo  Mo17  1  0.28041200  0.78300500  0.59271500  1
  O  O18  1  0.19762700  0.05748800  0.54542000  1
  O  O19  1  0.80237300  0.94251200  0.45458000  1
  O  O20  1  0.91311400  0.72764700  0.78090500  1
  O  O21  1  0.99257200  0.94497000  0.64088400  1
  O  O22  1  0.08688600  0.27235300  0.21909500  1
  O  O23  1  0.62761600  0.22134800  0.32102500  1
  O  O24  1  0.33675300  0.01499600  0.88862500  1
  O  O25  1  0.72576300  0.12246800  0.80237300  1
  O  O26  1  0.59974900  0.85954100  0.58420100  1
  O  O27  1  0.27423700  0.87753200  0.19762700  1
  O  O28  1  0.74428100  0.31408400  0.00373700  1
  O  O29  1  0.31408400  0.74428100  0.50373700  1
  O  O30  1  0.94497000  0.99257200  0.14088400  1
  O  O31  1  0.37238400  0.77865200  0.67897500  1
  O  O32  1  0.69732500  0.54914900  0.52654900  1
  O  O33  1  0.05748800  0.19762700  0.04542000  1
  O  O34  1  0.12246800  0.72576300  0.30237300  1
  O  O35  1  0.85954100  0.59974900  0.08420100  1
  O  O36  1  0.35874100  0.08667600  0.06677700  1
  O  O37  1  0.66324700  0.98500400  0.11137500  1
  O  O38  1  0.91332400  0.64125900  0.43322300  1
  O  O39  1  0.48999400  0.46646400  0.66542600  1
  O  O40  1  0.45085100  0.30267500  0.97345100  1
  O  O41  1  0.53353600  0.51000600  0.83457400  1
  O  O42  1  0.22134800  0.62761600  0.82102500  1
  O  O43  1  0.87753200  0.27423700  0.69762700  1
  O  O44  1  0.30267500  0.45085100  0.47345100  1
  O  O45  1  0.46646400  0.48999400  0.16542600  1
  O  O46  1  0.08667600  0.35874100  0.56677700  1
  O  O47  1  0.72764700  0.91311400  0.28090500  1
  O  O48  1  0.51000600  0.53353600  0.33457400  1
  O  O49  1  0.05503000  0.00742800  0.85911600  1
  O  O50  1  0.68591600  0.25571900  0.49626300  1
  O  O51  1  0.94251200  0.80237300  0.95458000  1
  O  O52  1  0.40025100  0.14045900  0.41579900  1
  O  O53  1  0.27235300  0.08688600  0.71909500  1
  O  O54  1  0.98500400  0.66324700  0.61137500  1
  O  O55  1  0.25571900  0.68591600  0.99626300  1
  O  O56  1  0.00742800  0.05503000  0.35911600  1
  O  O57  1  0.54914900  0.69732500  0.02654900  1
  O  O58  1  0.01499600  0.33675300  0.38862500  1
  O  O59  1  0.77865200  0.37238400  0.17897500  1
  O  O60  1  0.64125900  0.91332400  0.93322300  1
  O  O61  1  0.14045900  0.40025100  0.91579900  1
