# generated using pymatgen
data_Ni7(PO4)6
_symmetry_space_group_name_H-M   'P 1'
_cell_length_a   8.79966693
_cell_length_b   8.79966602
_cell_length_c   6.57155880
_cell_angle_alpha   80.75019876
_cell_angle_beta   99.24979964
_cell_angle_gamma   71.96214012
_symmetry_Int_Tables_number   1
_chemical_formula_structural   Ni7(PO4)6
_chemical_formula_sum   'Ni7 P6 O24'
_cell_volume   465.39263482
_cell_formula_units_Z   1
loop_
 _symmetry_equiv_pos_site_id
 _symmetry_equiv_pos_as_xyz
  1  'x, y, z'
loop_
 _atom_site_type_symbol
 _atom_site_label
 _atom_site_symmetry_multiplicity
 _atom_site_fract_x
 _atom_site_fract_y
 _atom_site_fract_z
 _atom_site_occupancy
  Ni  Ni0  1  0.00721100  0.35562500  0.19196400  1
  Ni  Ni1  1  0.00301700  0.99698300  0.00135400  1
  Ni  Ni2  1  0.64437500  0.99278900  0.19196400  1
  Ni  Ni3  1  0.36347700  0.99701100  0.81389700  1
  Ni  Ni4  1  0.67480000  0.66590300  0.00349700  1
  Ni  Ni5  1  0.33409700  0.32520000  0.00349700  1
  Ni  Ni6  1  0.00298900  0.63652300  0.81389700  1
  P  P7  1  0.72552000  0.90678600  0.70818300  1
  P  P8  1  0.91735500  0.71771700  0.29725200  1
  P  P9  1  0.32899500  0.67100500  0.07083300  1
  P  P10  1  0.28228300  0.08264500  0.29725200  1
  P  P11  1  0.09321400  0.27448000  0.70818300  1
  P  P12  1  0.67874300  0.32125700  0.93855800  1
  O  O13  1  0.24720700  0.57219900  0.93672700  1
  O  O14  1  0.65793100  0.01814100  0.49136600  1
  O  O15  1  0.39388200  0.03146600  0.13720500  1
  O  O16  1  0.09562200  0.10791200  0.20882000  1
  O  O17  1  0.42780100  0.75279300  0.93672700  1
  O  O18  1  0.26052200  0.27093200  0.28141100  1
  O  O19  1  0.75020700  0.71789500  0.72501300  1
  O  O20  1  0.02900700  0.65325500  0.51415100  1
  O  O21  1  0.96853400  0.60611800  0.13720500  1
  O  O22  1  0.72906800  0.73947800  0.28141100  1
  O  O23  1  0.98185900  0.34206900  0.49136600  1
  O  O24  1  0.55204100  0.44795800  0.75034200  1
  O  O25  1  0.61422600  0.95632600  0.86936200  1
  O  O26  1  0.19968300  0.80031700  0.14025100  1
  O  O27  1  0.91136000  0.88500300  0.79469300  1
  O  O28  1  0.80630500  0.19369500  0.86394600  1
  O  O29  1  0.76273500  0.41836400  0.07343600  1
  O  O30  1  0.11499700  0.08864000  0.79469300  1
  O  O31  1  0.89208800  0.90437800  0.20882000  1
  O  O32  1  0.04367400  0.38577400  0.86936200  1
  O  O33  1  0.34674500  0.97099300  0.51415100  1
  O  O34  1  0.28210500  0.24979300  0.72501300  1
  O  O35  1  0.45382800  0.54617200  0.26331000  1
  O  O36  1  0.58163600  0.23726500  0.07343600  1
