# generated using pymatgen
data_Sr6Co4Bi2O15
_symmetry_space_group_name_H-M   'P 1'
_cell_length_a   16.69490432
_cell_length_b   16.69490432
_cell_length_c   5.58319600
_cell_angle_alpha   90.00000000
_cell_angle_beta   90.00000000
_cell_angle_gamma   90.12962205
_symmetry_Int_Tables_number   1
_chemical_formula_structural   Sr6Co4Bi2O15
_chemical_formula_sum   'Sr24 Co16 Bi8 O60'
_cell_volume   1556.14345820
_cell_formula_units_Z   4
loop_
 _symmetry_equiv_pos_site_id
 _symmetry_equiv_pos_as_xyz
  1  'x, y, z'
loop_
 _atom_site_type_symbol
 _atom_site_label
 _atom_site_symmetry_multiplicity
 _atom_site_fract_x
 _atom_site_fract_y
 _atom_site_fract_z
 _atom_site_occupancy
  Sr  Sr0  1  0.87762300  0.77144100  0.25128900  1
  Sr  Sr1  1  0.22855900  0.12237700  0.74871100  1
  Sr  Sr2  1  0.38809800  0.27776900  0.75186600  1
  Sr  Sr3  1  0.37663200  0.73084900  0.75048700  1
  Sr  Sr4  1  0.88736800  0.22433400  0.25349000  1
  Sr  Sr5  1  0.61190200  0.72223100  0.75186600  1
  Sr  Sr6  1  0.84025200  0.49278300  0.75923900  1
  Sr  Sr7  1  0.77144100  0.87762300  0.74871100  1
  Sr  Sr8  1  0.27776900  0.38809800  0.24813400  1
  Sr  Sr9  1  0.26915100  0.62336800  0.24951300  1
  Sr  Sr10  1  0.22433400  0.88736800  0.74651000  1
  Sr  Sr11  1  0.12237700  0.22855900  0.25128900  1
  Sr  Sr12  1  0.72223100  0.61190200  0.24813400  1
  Sr  Sr13  1  0.77566600  0.11263200  0.74651000  1
  Sr  Sr14  1  0.33998900  0.00380400  0.24828300  1
  Sr  Sr15  1  0.66001100  0.99619600  0.24828300  1
  Sr  Sr16  1  0.11263200  0.77566600  0.25349000  1
  Sr  Sr17  1  0.73084900  0.37663200  0.24951300  1
  Sr  Sr18  1  0.00380400  0.33998900  0.75171700  1
  Sr  Sr19  1  0.62336800  0.26915100  0.75048700  1
  Sr  Sr20  1  0.99619600  0.66001100  0.75171700  1
  Sr  Sr21  1  0.49278300  0.84025200  0.24076100  1
  Sr  Sr22  1  0.50721700  0.15974800  0.24076100  1
  Sr  Sr23  1  0.15974800  0.50721700  0.75923900  1
  Co  Co24  1  0.41318600  0.91799400  0.74718600  1
  Co  Co25  1  0.68481500  0.79736500  0.24708200  1
  Co  Co26  1  0.79736500  0.68481500  0.75291800  1
  Co  Co27  1  0.09045300  0.41492700  0.26026500  1
  Co  Co28  1  0.41492700  0.09045300  0.73973500  1
  Co  Co29  1  0.29783200  0.81524400  0.24907000  1
  Co  Co30  1  0.90954700  0.58507300  0.26026500  1
  Co  Co31  1  0.58681400  0.08200600  0.74718600  1
  Co  Co32  1  0.81524400  0.29783200  0.75093000  1
  Co  Co33  1  0.91799400  0.41318600  0.25281400  1
  Co  Co34  1  0.70216800  0.18475600  0.24907000  1
  Co  Co35  1  0.20263500  0.31518500  0.75291800  1
  Co  Co36  1  0.08200600  0.58681400  0.25281400  1
  Co  Co37  1  0.58507300  0.90954700  0.73973500  1
  Co  Co38  1  0.18475600  0.70216800  0.75093000  1
  Co  Co39  1  0.31518500  0.20263500  0.24708200  1
  Bi  Bi40  1  0.11785400  0.00495200  0.22955000  1
  Bi  Bi41  1  0.49390300  0.61763400  0.26969200  1
  Bi  Bi42  1  0.00495200  0.11785400  0.77045000  1
  Bi  Bi43  1  0.61763400  0.49390300  0.73030800  1
  Bi  Bi44  1  0.88214600  0.99504800  0.22955000  1
  Bi  Bi45  1  0.50609700  0.38236600  0.26969200  1
  Bi  Bi46  1  0.99504800  0.88214600  0.77045000  1
  Bi  Bi47  1  0.38236600  0.50609700  0.73030800  1
  O  O48  1  0.74283800  0.74283800  0.50000000  1
  O  O49  1  0.99376800  0.87064300  0.15113800  1
  O  O50  1  0.29341500  0.59661600  0.77602900  1
  O  O51  1  0.16337700  0.50513800  0.24005200  1
  O  O52  1  0.63966000  0.12921400  0.00649900  1
  O  O53  1  0.86773000  0.36462300  0.51620200  1
  O  O54  1  0.75721700  0.24278300  0.00000000  1
  O  O55  1  0.86383600  0.63300400  0.98915300  1
  O  O56  1  0.40338400  0.70658500  0.22397100  1
  O  O57  1  0.70374200  0.59296000  0.77277200  1
  O  O58  1  0.63537700  0.13227000  0.48379800  1
  O  O59  1  0.90765200  0.20381700  0.72757600  1
  O  O60  1  0.70658500  0.40338400  0.77602900  1
  O  O61  1  0.66340700  0.99641900  0.74456300  1
  O  O62  1  0.50513800  0.16337700  0.75994800  1
  O  O63  1  0.75232200  0.24767800  0.50000000  1
  O  O64  1  0.36034000  0.87078600  0.00649900  1
  O  O65  1  0.12921400  0.63966000  0.99350100  1
  O  O66  1  0.74851800  0.74851800  0.00000000  1
  O  O67  1  0.59661600  0.29341500  0.22397100  1
  O  O68  1  0.62717400  0.86203900  0.48233200  1
  O  O69  1  0.36462300  0.86773000  0.48379800  1
  O  O70  1  0.50651900  0.37062300  0.65050300  1
  O  O71  1  0.59296000  0.70374200  0.22722800  1
  O  O72  1  0.24278300  0.75721700  0.00000000  1
  O  O73  1  0.00623200  0.12935700  0.15113800  1
  O  O74  1  0.49348100  0.62937700  0.65050300  1
  O  O75  1  0.63300400  0.86383600  0.01084700  1
  O  O76  1  0.49486200  0.83662300  0.75994800  1
  O  O77  1  0.50000000  0.00000000  0.74243100  1
  O  O78  1  0.20381700  0.90765200  0.27242400  1
  O  O79  1  0.25148200  0.25148200  0.00000000  1
  O  O80  1  0.83662300  0.49486200  0.24005200  1
  O  O81  1  0.37282600  0.13796100  0.48233200  1
  O  O82  1  0.12935700  0.00623200  0.84886200  1
  O  O83  1  0.09234800  0.79618300  0.72757600  1
  O  O84  1  0.79618300  0.09234800  0.27242400  1
  O  O85  1  0.99641900  0.66340700  0.25543700  1
  O  O86  1  0.13227000  0.63537700  0.51620200  1
  O  O87  1  0.09699700  0.20679200  0.72487100  1
  O  O88  1  0.87064300  0.99376800  0.84886200  1
  O  O89  1  0.40704000  0.29625800  0.22722800  1
  O  O90  1  0.50000000  0.00000000  0.24271700  1
  O  O91  1  0.00000000  0.50000000  0.75728300  1
  O  O92  1  0.79320800  0.90300300  0.27512900  1
  O  O93  1  0.25716200  0.25716200  0.50000000  1
  O  O94  1  0.29625800  0.40704000  0.77277200  1
  O  O95  1  0.13796100  0.37282600  0.51766800  1
  O  O96  1  0.24767800  0.75232200  0.50000000  1
  O  O97  1  0.00358100  0.33659300  0.25543700  1
  O  O98  1  0.87078600  0.36034000  0.99350100  1
  O  O99  1  0.90300300  0.79320800  0.72487100  1
  O  O100  1  0.86203900  0.62717400  0.51766800  1
  O  O101  1  0.36699600  0.13616400  0.01084700  1
  O  O102  1  0.00000000  0.50000000  0.25756900  1
  O  O103  1  0.13616400  0.36699600  0.98915300  1
  O  O104  1  0.33659300  0.00358100  0.74456300  1
  O  O105  1  0.37062300  0.50651900  0.34949700  1
  O  O106  1  0.20679200  0.09699700  0.27512900  1
  O  O107  1  0.62937700  0.49348100  0.34949700  1
