# generated using pymatgen
data_Zr(MoO4)2
_symmetry_space_group_name_H-M   'P 1'
_cell_length_a   10.35935200
_cell_length_b   10.35935200
_cell_length_c   12.07560600
_cell_angle_alpha   90.00000000
_cell_angle_beta   90.00000000
_cell_angle_gamma   120.00000001
_symmetry_Int_Tables_number   1
_chemical_formula_structural   Zr(MoO4)2
_chemical_formula_sum   'Zr6 Mo12 O48'
_cell_volume   1122.28910446
_cell_formula_units_Z   6
loop_
 _symmetry_equiv_pos_site_id
 _symmetry_equiv_pos_as_xyz
  1  'x, y, z'
loop_
 _atom_site_type_symbol
 _atom_site_label
 _atom_site_symmetry_multiplicity
 _atom_site_fract_x
 _atom_site_fract_y
 _atom_site_fract_z
 _atom_site_occupancy
  Zr  Zr0  1  0.33333300  0.66666700  0.98532400  1
  Zr  Zr1  1  0.33333300  0.66666700  0.51467600  1
  Zr  Zr2  1  0.66666700  0.33333300  0.01467600  1
  Zr  Zr3  1  0.00000000  0.00000000  0.00000000  1
  Zr  Zr4  1  0.00000000  0.00000000  0.50000000  1
  Zr  Zr5  1  0.66666700  0.33333300  0.48532400  1
  Mo  Mo6  1  0.33755700  0.00821700  0.85352300  1
  Mo  Mo7  1  0.66244300  0.67066000  0.35352300  1
  Mo  Mo8  1  0.00821700  0.67066000  0.14647700  1
  Mo  Mo9  1  0.67066000  0.66244300  0.85352300  1
  Mo  Mo10  1  0.32934000  0.99178300  0.35352300  1
  Mo  Mo11  1  0.99178300  0.66244300  0.64647700  1
  Mo  Mo12  1  0.67066000  0.00821700  0.64647700  1
  Mo  Mo13  1  0.33755700  0.32934000  0.64647700  1
  Mo  Mo14  1  0.99178300  0.32934000  0.85352300  1
  Mo  Mo15  1  0.66244300  0.99178300  0.14647700  1
  Mo  Mo16  1  0.00821700  0.33755700  0.35352300  1
  Mo  Mo17  1  0.32934000  0.33755700  0.14647700  1
  O  O18  1  0.65410500  0.97370300  0.28940500  1
  O  O19  1  0.16164700  0.98615800  0.90281600  1
  O  O20  1  0.82451100  0.83835300  0.90281600  1
  O  O21  1  0.15920000  0.65573000  0.61169100  1
  O  O22  1  0.65410500  0.68040100  0.21059500  1
  O  O23  1  0.34427000  0.50347000  0.61169100  1
  O  O24  1  0.31959900  0.34589500  0.28940500  1
  O  O25  1  0.97370300  0.31959900  0.71059500  1
  O  O26  1  0.84080000  0.49653000  0.11169100  1
  O  O27  1  0.32467700  0.49526700  0.08489500  1
  O  O28  1  0.49526700  0.32467700  0.58489500  1
  O  O29  1  0.49526700  0.17059000  0.91510500  1
  O  O30  1  0.02629700  0.34589500  0.21059500  1
  O  O31  1  0.65573000  0.49653000  0.38830900  1
  O  O32  1  0.02629700  0.68040100  0.28940500  1
  O  O33  1  0.17548900  0.16164700  0.09718400  1
  O  O34  1  0.17059000  0.67532300  0.08489500  1
  O  O35  1  0.15920000  0.50347000  0.88830900  1
  O  O36  1  0.34589500  0.31959900  0.78940500  1
  O  O37  1  0.67532300  0.17059000  0.58489500  1
  O  O38  1  0.17059000  0.49526700  0.41510500  1
  O  O39  1  0.16164700  0.17548900  0.59718400  1
  O  O40  1  0.65573000  0.15920000  0.11169100  1
  O  O41  1  0.31959900  0.97370300  0.21059500  1
  O  O42  1  0.82451100  0.98615800  0.59718400  1
  O  O43  1  0.49653000  0.84080000  0.61169100  1
  O  O44  1  0.98615800  0.82451100  0.09718400  1
  O  O45  1  0.50473300  0.82941000  0.08489500  1
  O  O46  1  0.83835300  0.01384200  0.09718400  1
  O  O47  1  0.01384200  0.17548900  0.90281600  1
  O  O48  1  0.84080000  0.34427000  0.38830900  1
  O  O49  1  0.67532300  0.50473300  0.91510500  1
  O  O50  1  0.50473300  0.67532300  0.41510500  1
  O  O51  1  0.01384200  0.83835300  0.59718400  1
  O  O52  1  0.49653000  0.65573000  0.88830900  1
  O  O53  1  0.32467700  0.82941000  0.41510500  1
  O  O54  1  0.50347000  0.34427000  0.11169100  1
  O  O55  1  0.83835300  0.82451100  0.40281600  1
  O  O56  1  0.50347000  0.15920000  0.38830900  1
  O  O57  1  0.82941000  0.50473300  0.58489500  1
  O  O58  1  0.82941000  0.32467700  0.91510500  1
  O  O59  1  0.98615800  0.16164700  0.40281600  1
  O  O60  1  0.17548900  0.01384200  0.40281600  1
  O  O61  1  0.68040100  0.02629700  0.78940500  1
  O  O62  1  0.34427000  0.84080000  0.88830900  1
  O  O63  1  0.97370300  0.65410500  0.78940500  1
  O  O64  1  0.34589500  0.02629700  0.71059500  1
  O  O65  1  0.68040100  0.65410500  0.71059500  1
