# generated using pymatgen
data_Mn5Ge2
_symmetry_space_group_name_H-M   'P 1'
_cell_length_a   6.95676903
_cell_length_b   6.95676903
_cell_length_c   12.58841700
_cell_angle_alpha   90.00000000
_cell_angle_beta   90.00000000
_cell_angle_gamma   120.00000975
_symmetry_Int_Tables_number   1
_chemical_formula_structural   Mn5Ge2
_chemical_formula_sum   'Mn30 Ge12'
_cell_volume   527.61468976
_cell_formula_units_Z   6
loop_
 _symmetry_equiv_pos_site_id
 _symmetry_equiv_pos_as_xyz
  1  'x, y, z'
loop_
 _atom_site_type_symbol
 _atom_site_label
 _atom_site_symmetry_multiplicity
 _atom_site_fract_x
 _atom_site_fract_y
 _atom_site_fract_z
 _atom_site_occupancy
  Mn  Mn0  1  0.30298400  0.30298400  0.88975300  1
  Mn  Mn1  1  0.00000000  0.36653400  0.99998800  1
  Mn  Mn2  1  0.00000000  0.00000000  0.76911300  1
  Mn  Mn3  1  0.36653400  0.36653400  0.49998800  1
  Mn  Mn4  1  0.29810600  0.00000000  0.59635000  1
  Mn  Mn5  1  0.70189400  0.00000000  0.09635000  1
  Mn  Mn6  1  0.00000000  0.29810600  0.59635000  1
  Mn  Mn7  1  0.00000000  0.35796100  0.79367700  1
  Mn  Mn8  1  0.00000000  0.00000000  0.26911300  1
  Mn  Mn9  1  0.35796100  0.00000000  0.79367700  1
  Mn  Mn10  1  0.00000000  0.64203900  0.29367700  1
  Mn  Mn11  1  0.35796100  0.35796100  0.29367700  1
  Mn  Mn12  1  0.63346600  0.00000000  0.49998800  1
  Mn  Mn13  1  0.30298400  0.00000000  0.38975300  1
  Mn  Mn14  1  0.00000000  0.70189400  0.09635000  1
  Mn  Mn15  1  0.33333300  0.66666700  0.11806900  1
  Mn  Mn16  1  0.36653400  0.00000000  0.99998800  1
  Mn  Mn17  1  0.66666700  0.33333300  0.11806900  1
  Mn  Mn18  1  0.64203900  0.00000000  0.29367700  1
  Mn  Mn19  1  0.00000000  0.63346600  0.49998800  1
  Mn  Mn20  1  0.00000000  0.30298400  0.38975300  1
  Mn  Mn21  1  0.64203900  0.64203900  0.79367700  1
  Mn  Mn22  1  0.70189400  0.70189400  0.59635000  1
  Mn  Mn23  1  0.63346600  0.63346600  0.99998800  1
  Mn  Mn24  1  0.29810600  0.29810600  0.09635000  1
  Mn  Mn25  1  0.66666700  0.33333300  0.61806900  1
  Mn  Mn26  1  0.00000000  0.69701600  0.88975300  1
  Mn  Mn27  1  0.69701600  0.00000000  0.88975300  1
  Mn  Mn28  1  0.33333300  0.66666700  0.61806900  1
  Mn  Mn29  1  0.69701600  0.69701600  0.38975300  1
  Ge  Ge30  1  0.33333300  0.66666700  0.40856300  1
  Ge  Ge31  1  0.00000000  0.00000000  0.98212600  1
  Ge  Ge32  1  0.66666700  0.33333300  0.90856300  1
  Ge  Ge33  1  0.33199000  0.33199000  0.69546900  1
  Ge  Ge34  1  0.00000000  0.66801000  0.69546900  1
  Ge  Ge35  1  0.66801000  0.00000000  0.69546900  1
  Ge  Ge36  1  0.66801000  0.66801000  0.19546900  1
  Ge  Ge37  1  0.00000000  0.33199000  0.19546900  1
  Ge  Ge38  1  0.33199000  0.00000000  0.19546900  1
  Ge  Ge39  1  0.00000000  0.00000000  0.48212600  1
  Ge  Ge40  1  0.66666700  0.33333300  0.40856300  1
  Ge  Ge41  1  0.33333300  0.66666700  0.90856300  1
