# generated using pymatgen
data_VP2O7
_symmetry_space_group_name_H-M   'P 1'
_cell_length_a   6.36737800
_cell_length_b   9.48059272
_cell_length_c   10.59635347
_cell_angle_alpha   115.32051201
_cell_angle_beta   85.42210027
_cell_angle_gamma   106.45833627
_symmetry_Int_Tables_number   1
_chemical_formula_structural   VP2O7
_chemical_formula_sum   'V4 P8 O28'
_cell_volume   553.88901835
_cell_formula_units_Z   4
loop_
 _symmetry_equiv_pos_site_id
 _symmetry_equiv_pos_as_xyz
  1  'x, y, z'
loop_
 _atom_site_type_symbol
 _atom_site_label
 _atom_site_symmetry_multiplicity
 _atom_site_fract_x
 _atom_site_fract_y
 _atom_site_fract_z
 _atom_site_occupancy
  V  V0  1  0.62733300  0.50185800  0.24248700  1
  V  V1  1  0.36964000  0.48769800  0.75111900  1
  V  V2  1  0.73064700  0.09447900  0.22156300  1
  V  V3  1  0.27145100  0.89589300  0.77591800  1
  P  P4  1  0.94457000  0.81663400  0.21990600  1
  P  P5  1  0.30960100  0.79772500  0.03385900  1
  P  P6  1  0.89131500  0.55014800  0.69886400  1
  P  P7  1  0.10632100  0.44074500  0.29609000  1
  P  P8  1  0.05571400  0.17223400  0.77573000  1
  P  P9  1  0.40794300  0.67861600  0.53898400  1
  P  P10  1  0.69238700  0.19143600  0.96231500  1
  P  P11  1  0.58958200  0.31440800  0.45589300  1
  O  O12  1  0.19063300  0.54395800  0.45871800  1
  O  O13  1  0.92530300  0.26248200  0.91377100  1
  O  O14  1  0.06544200  0.88271300  0.35431800  1
  O  O15  1  0.42673100  0.67159100  0.68204200  1
  O  O16  1  0.12545800  0.05360400  0.81728700  1
  O  O17  1  0.72767900  0.67193500  0.19561600  1
  O  O18  1  0.73093900  0.10561400  0.05147900  1
  O  O19  1  0.94141600  0.51184600  0.26578000  1
  O  O20  1  0.64142100  0.14849400  0.40813700  1
  O  O21  1  0.59745400  0.65086100  0.44477600  1
  O  O22  1  0.68299600  0.52980000  0.78032200  1
  O  O23  1  0.45351400  0.91953200  0.16241700  1
  O  O24  1  0.31392200  0.45888100  0.21350100  1
  O  O25  1  0.98982700  0.72538500  0.71859000  1
  O  O26  1  0.27043400  0.31775900  0.79761800  1
  O  O27  1  0.80553300  0.45102900  0.53592700  1
  O  O28  1  0.93293300  0.10300000  0.64148500  1
  O  O29  1  0.27139000  0.88488600  0.94579700  1
  O  O30  1  0.35665200  0.84470200  0.58846000  1
  O  O31  1  0.07626500  0.72739000  0.08230500  1
  O  O32  1  0.00948100  0.26683700  0.28059300  1
  O  O33  1  0.39355700  0.65275100  0.94216500  1
  O  O34  1  0.60524800  0.33561100  0.05204300  1
  O  O35  1  0.88104400  0.93925400  0.18041500  1
  O  O36  1  0.05508100  0.47572700  0.72571000  1
  O  O37  1  0.39872800  0.34098500  0.54905400  1
  O  O38  1  0.57042400  0.31987900  0.31251500  1
  O  O39  1  0.55109300  0.06761200  0.83322400  1
