# generated using pymatgen
data_Mg(IO8)2
_symmetry_space_group_name_H-M   'P 1'
_cell_length_a   6.61832100
_cell_length_b   11.28714400
_cell_length_c   13.72827305
_cell_angle_alpha   53.90170184
_cell_angle_beta   90.00000000
_cell_angle_gamma   90.00000000
_symmetry_Int_Tables_number   1
_chemical_formula_structural   Mg(IO8)2
_chemical_formula_sum   'Mg2 I4 O32'
_cell_volume   828.63472976
_cell_formula_units_Z   2
loop_
 _symmetry_equiv_pos_site_id
 _symmetry_equiv_pos_as_xyz
  1  'x, y, z'
loop_
 _atom_site_type_symbol
 _atom_site_label
 _atom_site_symmetry_multiplicity
 _atom_site_fract_x
 _atom_site_fract_y
 _atom_site_fract_z
 _atom_site_occupancy
  Mg  Mg0  1  0.50000000  0.50000000  0.50000000  1
  Mg  Mg1  1  0.00000000  0.50000000  0.00000000  1
  I  I2  1  0.51000000  0.16793300  0.53237300  1
  I  I3  1  0.01000000  0.83206700  0.96762700  1
  I  I4  1  0.49000000  0.83206700  0.46762700  1
  I  I5  1  0.99000000  0.16793300  0.03237300  1
  O  O6  1  0.70872700  0.47758600  0.29512400  1
  O  O7  1  0.20872700  0.52241400  0.20487600  1
  O  O8  1  0.29127300  0.52241400  0.70487600  1
  O  O9  1  0.79127300  0.47758600  0.79512400  1
  O  O10  1  0.35735400  0.24881800  0.40021700  1
  O  O11  1  0.85735400  0.75118200  0.09978300  1
  O  O12  1  0.64264600  0.75118200  0.59978300  1
  O  O13  1  0.14264600  0.24881800  0.90021700  1
  O  O14  1  0.77289700  0.17147000  0.50125700  1
  O  O15  1  0.27289700  0.82853000  0.99874300  1
  O  O16  1  0.22710300  0.82853000  0.49874300  1
  O  O17  1  0.72710300  0.17147000  0.00125700  1
  O  O18  1  0.51755600  0.70380800  0.42577700  1
  O  O19  1  0.01755600  0.29619200  0.07422300  1
  O  O20  1  0.48244400  0.29619200  0.57422300  1
  O  O21  1  0.98244400  0.70380800  0.92577700  1
  O  O22  1  0.41932300  0.99517900  0.65699100  1
  O  O23  1  0.91932300  0.00482100  0.84300900  1
  O  O24  1  0.58067700  0.00482100  0.34300900  1
  O  O25  1  0.08067700  0.99517900  0.15699100  1
  O  O26  1  0.11336800  0.64365100  0.35694500  1
  O  O27  1  0.61336800  0.35634900  0.14305500  1
  O  O28  1  0.88663200  0.35634900  0.64305500  1
  O  O29  1  0.38663200  0.64365100  0.85694500  1
  O  O30  1  0.36571300  0.44711200  0.67584500  1
  O  O31  1  0.86571300  0.55288800  0.82415500  1
  O  O32  1  0.63428700  0.55288800  0.32415500  1
  O  O33  1  0.13428700  0.44711200  0.17584500  1
  O  O34  1  0.98345500  0.67331500  0.40374400  1
  O  O35  1  0.48345500  0.32668500  0.09625600  1
  O  O36  1  0.01654500  0.32668500  0.59625600  1
  O  O37  1  0.51654500  0.67331500  0.90374400  1
