# generated using pymatgen
data_Mn4C15S4O15
_symmetry_space_group_name_H-M   'P 1'
_cell_length_a   15.69328400
_cell_length_b   9.42196100
_cell_length_c   18.42402356
_cell_angle_alpha   84.08362091
_cell_angle_beta   90.00000000
_cell_angle_gamma   90.00000000
_symmetry_Int_Tables_number   1
_chemical_formula_structural   Mn4C15S4O15
_chemical_formula_sum   'Mn16 C60 S16 O60'
_cell_volume   2709.69317256
_cell_formula_units_Z   4
loop_
 _symmetry_equiv_pos_site_id
 _symmetry_equiv_pos_as_xyz
  1  'x, y, z'
loop_
 _atom_site_type_symbol
 _atom_site_label
 _atom_site_symmetry_multiplicity
 _atom_site_fract_x
 _atom_site_fract_y
 _atom_site_fract_z
 _atom_site_occupancy
  Mn  Mn0  1  0.61211200  0.77241800  0.88273800  1
  Mn  Mn1  1  0.38788800  0.22758200  0.11726200  1
  Mn  Mn2  1  0.11211200  0.22758200  0.61726200  1
  Mn  Mn3  1  0.55503300  0.95559300  0.25806800  1
  Mn  Mn4  1  0.52864100  0.26939000  0.39108500  1
  Mn  Mn5  1  0.14193900  0.70375700  0.30956400  1
  Mn  Mn6  1  0.05503300  0.04440700  0.24193200  1
  Mn  Mn7  1  0.88788800  0.77241800  0.38273800  1
  Mn  Mn8  1  0.35806100  0.70375700  0.80956400  1
  Mn  Mn9  1  0.97135900  0.26939000  0.89108500  1
  Mn  Mn10  1  0.44496700  0.04440700  0.74193200  1
  Mn  Mn11  1  0.47135900  0.73061000  0.60891500  1
  Mn  Mn12  1  0.94496700  0.95559300  0.75806800  1
  Mn  Mn13  1  0.64193900  0.29624300  0.19043600  1
  Mn  Mn14  1  0.85806100  0.29624300  0.69043600  1
  Mn  Mn15  1  0.02864100  0.73061000  0.10891500  1
  C  C16  1  0.88307700  0.44167400  0.62088700  1
  C  C17  1  0.20012600  0.78832200  0.37969500  1
  C  C18  1  0.05267200  0.88673200  0.77369400  1
  C  C19  1  0.02818400  0.43137000  0.91084500  1
  C  C20  1  0.02860500  0.22829400  0.54341900  1
  C  C21  1  0.59860000  0.57202100  0.88119200  1
  C  C22  1  0.26578700  0.60467400  0.78157400  1
  C  C23  1  0.31832000  0.22453400  0.20115400  1
  C  C24  1  0.11692300  0.55832600  0.37911300  1
  C  C25  1  0.13709500  0.64722400  0.10260400  1
  C  C26  1  0.90699100  0.78331300  0.79899800  1
  C  C27  1  0.09300900  0.21668700  0.20100200  1
  C  C28  1  0.09860000  0.42797900  0.61880800  1
  C  C29  1  0.86290500  0.35277600  0.89739600  1
  C  C30  1  0.70275300  0.73968600  0.94697200  1
  C  C31  1  0.47139500  0.22829400  0.04341900  1
  C  C32  1  0.87200500  0.97116100  0.38665400  1
  C  C33  1  0.40699100  0.21668700  0.70100200  1
  C  C34  1  0.03592100  0.79928300  0.01223500  1
  C  C35  1  0.97139500  0.77170600  0.45658100  1
  C  C36  1  0.70012600  0.21167800  0.12030500  1
  C  C37  1  0.62799500  0.97116100  0.88665400  1
  C  C38  1  0.53592100  0.20071700  0.48776500  1
  C  C39  1  0.44732800  0.88673200  0.27369400  1
  C  C40  1  0.07368400  0.09790400  0.33280800  1
  C  C41  1  0.07606500  0.17462100  0.88523000  1
  C  C42  1  0.79987400  0.21167800  0.62030500  1
  C  C43  1  0.52818400  0.56863000  0.58915500  1
  C  C44  1  0.52860500  0.77170600  0.95658100  1
  C  C45  1  0.61692300  0.44167400  0.12088700  1
  C  C46  1  0.76578700  0.39532600  0.71842600  1
  C  C47  1  0.20275300  0.26031400  0.55302800  1
  C  C48  1  0.37200500  0.02883900  0.11334600  1
  C  C49  1  0.29987400  0.78832200  0.87969500  1
  C  C50  1  0.40140000  0.42797900  0.11880800  1
  C  C51  1  0.79724700  0.73968600  0.44697200  1
  C  C52  1  0.42393500  0.17462100  0.38523000  1
  C  C53  1  0.97181600  0.56863000  0.08915500  1
  C  C54  1  0.96407900  0.20071700  0.98776500  1
  C  C55  1  0.92631600  0.90209600  0.66719200  1
  C  C56  1  0.18168000  0.22453400  0.70115400  1
  C  C57  1  0.73421300  0.39532600  0.21842600  1
  C  C58  1  0.42631600  0.09790400  0.83280800  1
  C  C59  1  0.68168000  0.77546600  0.79884600  1
  C  C60  1  0.12799500  0.02883900  0.61334600  1
  C  C61  1  0.47181600  0.43137000  0.41084500  1
  C  C62  1  0.63709500  0.35277600  0.39739600  1
  C  C63  1  0.29724700  0.26031400  0.05302800  1
  C  C64  1  0.38307700  0.55832600  0.87911300  1
  C  C65  1  0.92393500  0.82537900  0.11477000  1
  C  C66  1  0.94732800  0.11326800  0.22630600  1
  C  C67  1  0.36290500  0.64722400  0.60260400  1
  C  C68  1  0.57368400  0.90209600  0.16719200  1
  C  C69  1  0.81832000  0.77546600  0.29884600  1
  C  C70  1  0.59300900  0.78331300  0.29899800  1
  C  C71  1  0.90140000  0.57202100  0.38119200  1
  C  C72  1  0.57606500  0.82537900  0.61477000  1
  C  C73  1  0.23421300  0.60467400  0.28157400  1
  C  C74  1  0.55267200  0.11326800  0.72630600  1
  C  C75  1  0.46407900  0.79928300  0.51223500  1
  S  S76  1  0.47473900  0.64653600  0.73554300  1
  S  S77  1  0.00746500  0.81670900  0.29907000  1
  S  S78  1  0.02526100  0.64653600  0.23554300  1
  S  S79  1  0.81939900  0.09207700  0.77380600  1
  S  S80  1  0.50746500  0.18329100  0.20093000  1
  S  S81  1  0.18060100  0.90792300  0.22619400  1
  S  S82  1  0.49253500  0.81670900  0.79907000  1
  S  S83  1  0.52526100  0.35346400  0.26445700  1
  S  S84  1  0.97473900  0.35346400  0.76445700  1
  S  S85  1  0.99253500  0.18329100  0.70093000  1
  S  S86  1  0.31939900  0.90792300  0.72619400  1
  S  S87  1  0.68060100  0.09207700  0.27380600  1
  S  S88  1  0.40169200  0.94326000  0.63737200  1
  S  S89  1  0.90169200  0.05674000  0.86262800  1
  S  S90  1  0.09830800  0.94326000  0.13737200  1
  S  S91  1  0.59830800  0.05674000  0.36262800  1
  O  O92  1  0.95953200  0.15475200  0.04853800  1
  O  O93  1  0.79602000  0.40150900  0.90426200  1
  O  O94  1  0.61301400  0.67054300  0.32559600  1
  O  O95  1  0.40992000  0.13232300  0.89029100  1
  O  O96  1  0.52591800  0.22747300  0.00152100  1
  O  O97  1  0.90992000  0.86767700  0.60970900  1
  O  O98  1  0.90670900  0.44992100  0.38198900  1
  O  O99  1  0.64109900  0.88333300  0.61445400  1
  O  O100  1  0.26448300  0.83735500  0.92674400  1
  O  O101  1  0.56658000  0.46915300  0.57582900  1
  O  O102  1  0.35890100  0.11666700  0.38554600  1
  O  O103  1  0.37935000  0.84009500  0.28523500  1
  O  O104  1  0.27789700  0.22536200  0.25330500  1
  O  O105  1  0.22210300  0.22536200  0.75330500  1
  O  O106  1  0.75993800  0.71965000  0.98621700  1
  O  O107  1  0.97408200  0.22747300  0.50152100  1
  O  O108  1  0.29602000  0.59849100  0.59573800  1
  O  O109  1  0.38698600  0.32945700  0.67440400  1
  O  O110  1  0.72210300  0.77463800  0.74669500  1
  O  O111  1  0.76448300  0.16264500  0.57325600  1
  O  O112  1  0.04046800  0.84524800  0.95146200  1
  O  O113  1  0.45953200  0.84524800  0.45146200  1
  O  O114  1  0.70713800  0.46058900  0.73485800  1
  O  O115  1  0.62065000  0.15990500  0.71476500  1
  O  O116  1  0.79286200  0.46058900  0.23485800  1
  O  O117  1  0.09329100  0.55007900  0.61801100  1
  O  O118  1  0.10509000  0.46742300  0.42608300  1
  O  O119  1  0.40670900  0.55007900  0.11801100  1
  O  O120  1  0.29286200  0.53941100  0.26514200  1
  O  O121  1  0.89491000  0.53257700  0.57391700  1
  O  O122  1  0.35989500  0.91001900  0.10706900  1
  O  O123  1  0.77789700  0.77463800  0.24669500  1
  O  O124  1  0.14109900  0.11666700  0.88554600  1
  O  O125  1  0.59008000  0.86767700  0.10970900  1
  O  O126  1  0.06658000  0.53084700  0.92417100  1
  O  O127  1  0.64010500  0.08998100  0.89293100  1
  O  O128  1  0.25993800  0.28035000  0.51378300  1
  O  O129  1  0.47408200  0.77252700  0.99847900  1
  O  O130  1  0.43342000  0.53084700  0.42417100  1
  O  O131  1  0.11301400  0.32945700  0.17440400  1
  O  O132  1  0.87935000  0.15990500  0.21476500  1
  O  O133  1  0.24006200  0.28035000  0.01378300  1
  O  O134  1  0.20398000  0.59849100  0.09573800  1
  O  O135  1  0.88698600  0.67054300  0.82559600  1
  O  O136  1  0.85989500  0.08998100  0.39293100  1
  O  O137  1  0.93342000  0.46915300  0.07582900  1
  O  O138  1  0.09008000  0.13232300  0.39029100  1
  O  O139  1  0.70398000  0.40150900  0.40426200  1
  O  O140  1  0.54046800  0.15475200  0.54853800  1
  O  O141  1  0.73551700  0.16264500  0.07325600  1
  O  O142  1  0.39491000  0.46742300  0.92608300  1
  O  O143  1  0.14010500  0.91001900  0.60706900  1
  O  O144  1  0.20713800  0.53941100  0.76514200  1
  O  O145  1  0.23551700  0.83735500  0.42674400  1
  O  O146  1  0.02591800  0.77252700  0.49847900  1
  O  O147  1  0.59329100  0.44992100  0.88198900  1
  O  O148  1  0.74006200  0.71965000  0.48621700  1
  O  O149  1  0.12065000  0.84009500  0.78523500  1
  O  O150  1  0.60509000  0.53257700  0.07391700  1
  O  O151  1  0.85890100  0.88333300  0.11445400  1
