# generated using pymatgen
data_SrFeSn(PO4)3
_symmetry_space_group_name_H-M   'P 1'
_cell_length_a   9.19380454
_cell_length_b   9.19380454
_cell_length_c   9.19380485
_cell_angle_alpha   55.76947392
_cell_angle_beta   55.76947392
_cell_angle_gamma   55.76947914
_symmetry_Int_Tables_number   1
_chemical_formula_structural   SrFeSn(PO4)3
_chemical_formula_sum   'Sr2 Fe2 Sn2 P6 O24'
_cell_volume   495.59221639
_cell_formula_units_Z   2
loop_
 _symmetry_equiv_pos_site_id
 _symmetry_equiv_pos_as_xyz
  1  'x, y, z'
loop_
 _atom_site_type_symbol
 _atom_site_label
 _atom_site_symmetry_multiplicity
 _atom_site_fract_x
 _atom_site_fract_y
 _atom_site_fract_z
 _atom_site_occupancy
  Sr  Sr0  1  0.00000000  0.00000000  0.00000000  1
  Sr  Sr1  1  0.50000000  0.50000000  0.50000000  1
  Fe  Fe2  1  0.84842000  0.84842000  0.84842000  1
  Fe  Fe3  1  0.15158000  0.15158000  0.15158000  1
  Sn  Sn4  1  0.64937200  0.64937200  0.64937200  1
  Sn  Sn5  1  0.35062800  0.35062800  0.35062800  1
  P  P6  1  0.75456200  0.45936400  0.03945900  1
  P  P7  1  0.54063600  0.96054100  0.24543800  1
  P  P8  1  0.45936400  0.03945900  0.75456200  1
  P  P9  1  0.96054100  0.24543800  0.54063600  1
  P  P10  1  0.24543800  0.54063600  0.96054100  1
  P  P11  1  0.03945900  0.75456200  0.45936400  1
  O  O12  1  0.40642600  0.59344500  0.76760400  1
  O  O13  1  0.76760400  0.40642600  0.59344500  1
  O  O14  1  0.59344500  0.76760400  0.40642600  1
  O  O15  1  0.29216200  0.04469100  0.94209300  1
  O  O16  1  0.71993500  0.47569300  0.88256100  1
  O  O17  1  0.11743900  0.28006500  0.52430700  1
  O  O18  1  0.01667700  0.74688800  0.64106100  1
  O  O19  1  0.23239600  0.59357400  0.40655500  1
  O  O20  1  0.04469100  0.94209300  0.29216200  1
  O  O21  1  0.74688800  0.64106100  0.01667700  1
  O  O22  1  0.28006500  0.52430700  0.11743900  1
  O  O23  1  0.40655500  0.23239600  0.59357400  1
  O  O24  1  0.25311200  0.35893900  0.98332300  1
  O  O25  1  0.59357400  0.40655500  0.23239600  1
  O  O26  1  0.05790700  0.70783800  0.95530900  1
  O  O27  1  0.98332300  0.25311200  0.35893900  1
  O  O28  1  0.95530900  0.05790700  0.70783800  1
  O  O29  1  0.47569300  0.88256100  0.71993500  1
  O  O30  1  0.64106100  0.01667700  0.74688800  1
  O  O31  1  0.35893900  0.98332300  0.25311200  1
  O  O32  1  0.88256100  0.71993500  0.47569300  1
  O  O33  1  0.70783800  0.95530900  0.05790700  1
  O  O34  1  0.52430700  0.11743900  0.28006500  1
  O  O35  1  0.94209300  0.29216200  0.04469100  1
