# generated using pymatgen
data_Cr(PO3)4
_symmetry_space_group_name_H-M   'P 1'
_cell_length_a   8.39695100
_cell_length_b   9.16489100
_cell_length_c   12.65641500
_cell_angle_alpha   90.00000000
_cell_angle_beta   90.00000000
_cell_angle_gamma   90.00000000
_symmetry_Int_Tables_number   1
_chemical_formula_structural   Cr(PO3)4
_chemical_formula_sum   'Cr4 P16 O48'
_cell_volume   974.00150925
_cell_formula_units_Z   4
loop_
 _symmetry_equiv_pos_site_id
 _symmetry_equiv_pos_as_xyz
  1  'x, y, z'
loop_
 _atom_site_type_symbol
 _atom_site_label
 _atom_site_symmetry_multiplicity
 _atom_site_fract_x
 _atom_site_fract_y
 _atom_site_fract_z
 _atom_site_occupancy
  Cr  Cr0  1  0.86042600  0.75000000  0.50000000  1
  Cr  Cr1  1  0.63957400  0.25000000  0.00000000  1
  Cr  Cr2  1  0.13957400  0.25000000  0.50000000  1
  Cr  Cr3  1  0.36042600  0.75000000  0.00000000  1
  P  P4  1  0.53343500  0.98680100  0.84995200  1
  P  P5  1  0.18132000  0.99527000  0.86078800  1
  P  P6  1  0.18132000  0.50473000  0.13921200  1
  P  P7  1  0.68132000  0.99527000  0.63921200  1
  P  P8  1  0.96656500  0.01319900  0.34995200  1
  P  P9  1  0.31868000  0.49527000  0.63921200  1
  P  P10  1  0.31868000  0.00473000  0.36078800  1
  P  P11  1  0.81868000  0.49527000  0.86078800  1
  P  P12  1  0.68132000  0.50473000  0.36078800  1
  P  P13  1  0.96656500  0.48680100  0.65004800  1
  P  P14  1  0.03343500  0.51319900  0.34995200  1
  P  P15  1  0.03343500  0.98680100  0.65004800  1
  P  P16  1  0.46656500  0.01319900  0.15004800  1
  P  P17  1  0.81868000  0.00473000  0.13921200  1
  P  P18  1  0.46656500  0.48680100  0.84995200  1
  P  P19  1  0.53343500  0.51319900  0.15004800  1
  O  O20  1  0.39193900  0.08032600  0.25430400  1
  O  O21  1  0.60806100  0.91967400  0.74569600  1
  O  O22  1  0.47195400  0.13273600  0.06766500  1
  O  O23  1  0.39193900  0.41967400  0.74569600  1
  O  O24  1  0.89193900  0.41967400  0.75430400  1
  O  O25  1  0.79947700  0.13557200  0.06594700  1
  O  O26  1  0.29947700  0.13557200  0.43405300  1
  O  O27  1  0.63173300  0.11956500  0.87875300  1
  O  O28  1  0.36826700  0.61956500  0.87875300  1
  O  O29  1  0.59222200  0.37575400  0.39572100  1
  O  O30  1  0.89193900  0.08032600  0.24569600  1
  O  O31  1  0.97195400  0.13273600  0.43233500  1
  O  O32  1  0.79947700  0.36442800  0.93405300  1
  O  O33  1  0.20052300  0.86442800  0.93405300  1
  O  O34  1  0.10806100  0.91967400  0.75430400  1
  O  O35  1  0.59222200  0.12424600  0.60427900  1
  O  O36  1  0.70052300  0.63557200  0.43405300  1
  O  O37  1  0.64071900  0.53802000  0.81787400  1
  O  O38  1  0.10806100  0.58032600  0.24569600  1
  O  O39  1  0.63173300  0.38043500  0.12124700  1
  O  O40  1  0.09222200  0.37575400  0.10427900  1
  O  O41  1  0.90777800  0.62424600  0.89572100  1
  O  O42  1  0.14071900  0.96198000  0.31787400  1
  O  O43  1  0.35928100  0.46198000  0.18212600  1
  O  O44  1  0.36826700  0.88043500  0.12124700  1
  O  O45  1  0.40777800  0.62424600  0.60427900  1
  O  O46  1  0.14071900  0.53802000  0.68212600  1
  O  O47  1  0.13173300  0.38043500  0.37875300  1
  O  O48  1  0.85928100  0.03802000  0.68212600  1
  O  O49  1  0.86826700  0.88043500  0.37875300  1
  O  O50  1  0.35928100  0.03802000  0.81787400  1
  O  O51  1  0.02804600  0.86726400  0.56766500  1
  O  O52  1  0.20052300  0.63557200  0.06594700  1
  O  O53  1  0.09222200  0.12424600  0.89572100  1
  O  O54  1  0.60806100  0.58032600  0.25430400  1
  O  O55  1  0.64071900  0.96198000  0.18212600  1
  O  O56  1  0.40777800  0.87575400  0.39572100  1
  O  O57  1  0.52804600  0.63273600  0.06766500  1
  O  O58  1  0.70052300  0.86442800  0.56594700  1
  O  O59  1  0.29947700  0.36442800  0.56594700  1
  O  O60  1  0.85928100  0.46198000  0.31787400  1
  O  O61  1  0.02804600  0.63273600  0.43233500  1
  O  O62  1  0.47195400  0.36726400  0.93233500  1
  O  O63  1  0.86826700  0.61956500  0.62124700  1
  O  O64  1  0.90777800  0.87575400  0.10427900  1
  O  O65  1  0.97195400  0.36726400  0.56766500  1
  O  O66  1  0.52804600  0.86726400  0.93233500  1
  O  O67  1  0.13173300  0.11956500  0.62124700  1
