# generated using pymatgen
data_Gd4Mo7O27
_symmetry_space_group_name_H-M   'P 1'
_cell_length_a   13.82538484
_cell_length_b   13.82538484
_cell_length_c   14.56225245
_cell_angle_alpha   77.41160467
_cell_angle_beta   77.41160467
_cell_angle_gamma   65.23684473
_symmetry_Int_Tables_number   1
_chemical_formula_structural   Gd4Mo7O27
_chemical_formula_sum   'Gd16 Mo28 O108'
_cell_volume   2441.42063724
_cell_formula_units_Z   4
loop_
 _symmetry_equiv_pos_site_id
 _symmetry_equiv_pos_as_xyz
  1  'x, y, z'
loop_
 _atom_site_type_symbol
 _atom_site_label
 _atom_site_symmetry_multiplicity
 _atom_site_fract_x
 _atom_site_fract_y
 _atom_site_fract_z
 _atom_site_occupancy
  Gd  Gd0  1  0.18459800  0.57097000  0.43670400  1
  Gd  Gd1  1  0.55182800  0.67026900  0.85459100  1
  Gd  Gd2  1  0.07566000  0.68522700  0.93469800  1
  Gd  Gd3  1  0.82773500  0.94347100  0.64455100  1
  Gd  Gd4  1  0.17226500  0.05652900  0.35544900  1
  Gd  Gd5  1  0.92434000  0.31477300  0.06530200  1
  Gd  Gd6  1  0.44817200  0.32973100  0.14540900  1
  Gd  Gd7  1  0.05652900  0.17226500  0.85544900  1
  Gd  Gd8  1  0.67026900  0.55182800  0.35459100  1
  Gd  Gd9  1  0.42903000  0.81540200  0.06329600  1
  Gd  Gd10  1  0.94347100  0.82773500  0.14455100  1
  Gd  Gd11  1  0.81540200  0.42903000  0.56329600  1
  Gd  Gd12  1  0.31477300  0.92434000  0.56530200  1
  Gd  Gd13  1  0.57097000  0.18459800  0.93670400  1
  Gd  Gd14  1  0.32973100  0.44817200  0.64540900  1
  Gd  Gd15  1  0.68522700  0.07566000  0.43469800  1
  Mo  Mo16  1  0.83199600  0.63806300  0.70166500  1
  Mo  Mo17  1  0.11016300  0.35010500  0.61306400  1
  Mo  Mo18  1  0.74384200  0.13212800  0.14583000  1
  Mo  Mo19  1  0.05686000  0.45430500  0.83432500  1
  Mo  Mo20  1  0.75700200  0.36556400  0.85520600  1
  Mo  Mo21  1  0.98106900  0.88091400  0.39871100  1
  Mo  Mo22  1  0.35010500  0.11016300  0.11306400  1
  Mo  Mo23  1  0.48452500  0.37546500  0.39995700  1
  Mo  Mo24  1  0.86787200  0.25615800  0.35417000  1
  Mo  Mo25  1  0.36193700  0.16800400  0.79833500  1
  Mo  Mo26  1  0.45430500  0.05686000  0.33432500  1
  Mo  Mo27  1  0.25615800  0.86787200  0.85417000  1
  Mo  Mo28  1  0.16800400  0.36193700  0.29833500  1
  Mo  Mo29  1  0.13212800  0.74384200  0.64583000  1
  Mo  Mo30  1  0.24299800  0.63443600  0.14479400  1
  Mo  Mo31  1  0.63443600  0.24299800  0.64479400  1
  Mo  Mo32  1  0.01893100  0.11908600  0.60128900  1
  Mo  Mo33  1  0.88983700  0.64989500  0.38693600  1
  Mo  Mo34  1  0.54569500  0.94314000  0.66567500  1
  Mo  Mo35  1  0.88091400  0.98106900  0.89871100  1
  Mo  Mo36  1  0.51547500  0.62453500  0.60004300  1
  Mo  Mo37  1  0.37546500  0.48452500  0.89995700  1
  Mo  Mo38  1  0.11908600  0.01893100  0.10128900  1
  Mo  Mo39  1  0.63806300  0.83199600  0.20166500  1
  Mo  Mo40  1  0.36556400  0.75700200  0.35520600  1
  Mo  Mo41  1  0.62453500  0.51547500  0.10004300  1
  Mo  Mo42  1  0.94314000  0.54569500  0.16567500  1
  Mo  Mo43  1  0.64989500  0.88983700  0.88693600  1
  O  O44  1  0.39477300  0.44650500  0.78601600  1
  O  O45  1  0.28136700  0.68516900  0.37224000  1
  O  O46  1  0.34273100  0.26690500  0.69613900  1
  O  O47  1  0.19004700  0.43706400  0.78524300  1
  O  O48  1  0.40231200  0.20874400  0.88526600  1
  O  O49  1  0.85645700  0.95702300  0.47596100  1
  O  O50  1  0.41235300  0.57599400  0.61238700  1
  O  O51  1  0.90166200  0.29873300  0.23082100  1
  O  O52  1  0.95702300  0.85645700  0.97596100  1
  O  O53  1  0.92210900  0.68040700  0.25621500  1
  O  O54  1  0.80995300  0.56293600  0.21475700  1
  O  O55  1  0.09833800  0.70126700  0.76917900  1
  O  O56  1  0.56174100  0.81513100  0.91865300  1
  O  O57  1  0.18126200  0.22873300  0.56877700  1
  O  O58  1  0.43975000  0.98701500  0.59743300  1
  O  O59  1  0.01362300  0.58023900  0.43412400  1
  O  O60  1  0.58764700  0.42400600  0.38761300  1
  O  O61  1  0.31483100  0.71863300  0.12776000  1
  O  O62  1  0.39368800  0.80694500  0.23301200  1
  O  O63  1  0.36382900  0.45592200  0.47489400  1
  O  O64  1  0.48914600  0.66501000  0.39725100  1
  O  O65  1  0.94590500  0.25556800  0.55867500  1
  O  O66  1  0.56293600  0.80995300  0.71475700  1
  O  O67  1  0.56025000  0.01298500  0.40256700  1
  O  O68  1  0.19305500  0.60631200  0.26698800  1
  O  O69  1  0.19579600  0.62365600  0.58622900  1
  O  O70  1  0.05890900  0.11504300  0.71143500  1
  O  O71  1  0.16140000  0.98839900  0.89765000  1
  O  O72  1  0.77687900  0.19094500  0.37204600  1
  O  O73  1  0.18486900  0.43825900  0.58134700  1
  O  O74  1  0.65532600  0.95560200  0.57704100  1
  O  O75  1  0.11504300  0.05890900  0.21143500  1
  O  O76  1  0.44650500  0.39477300  0.28601600  1
  O  O77  1  0.01298500  0.56025000  0.90256700  1
  O  O78  1  0.70092100  0.12496600  0.58163500  1
  O  O79  1  0.66501000  0.48914600  0.89725100  1
  O  O80  1  0.20874400  0.40231200  0.38526600  1
  O  O81  1  0.81873800  0.77126700  0.43122300  1
  O  O82  1  0.94109100  0.88495700  0.28856500  1
  O  O83  1  0.80905500  0.22312100  0.12795400  1
  O  O84  1  0.57599400  0.41235300  0.11238700  1
  O  O85  1  0.68040700  0.92210900  0.75621500  1
  O  O86  1  0.46353600  0.76725400  0.55967700  1
  O  O87  1  0.74443200  0.05409500  0.94132500  1
  O  O88  1  0.03845500  0.46943900  0.26097000  1
  O  O89  1  0.51085400  0.33499000  0.60274900  1
  O  O90  1  0.14953500  0.24035700  0.34358500  1
  O  O91  1  0.55349500  0.60522700  0.71398400  1
  O  O92  1  0.29873300  0.90166200  0.73082100  1
  O  O93  1  0.88495700  0.94109100  0.78856500  1
  O  O94  1  0.70126700  0.09833800  0.26917900  1
  O  O95  1  0.94263900  0.07464400  0.87902600  1
  O  O96  1  0.04297700  0.14354300  0.02403900  1
  O  O97  1  0.01160100  0.83860000  0.60235000  1
  O  O98  1  0.60631200  0.19305500  0.76698800  1
  O  O99  1  0.63617100  0.54407800  0.52510600  1
  O  O100  1  0.12496600  0.70092100  0.08163500  1
  O  O101  1  0.98701500  0.43975000  0.09743300  1
  O  O102  1  0.41976100  0.98637700  0.06587600  1
  O  O103  1  0.87503400  0.29907900  0.91836500  1
  O  O104  1  0.46943900  0.03845500  0.76097000  1
  O  O105  1  0.33499000  0.51085400  0.10274900  1
  O  O106  1  0.05409500  0.74443200  0.44132500  1
  O  O107  1  0.79125600  0.59768800  0.61473400  1
  O  O108  1  0.80694500  0.39368800  0.73301200  1
  O  O109  1  0.85046500  0.75964300  0.65641500  1
  O  O110  1  0.26690500  0.34273100  0.19613900  1
  O  O111  1  0.92535600  0.05736100  0.62097400  1
  O  O112  1  0.37634400  0.80420400  0.91377100  1
  O  O113  1  0.43706400  0.19004700  0.28524300  1
  O  O114  1  0.07789100  0.31959300  0.74378500  1
  O  O115  1  0.96154500  0.53056100  0.73903000  1
  O  O116  1  0.43825900  0.18486900  0.08134700  1
  O  O117  1  0.05736100  0.92535600  0.12097400  1
  O  O118  1  0.53056100  0.96154500  0.23903000  1
  O  O119  1  0.73309500  0.65726900  0.80386100  1
  O  O120  1  0.34467400  0.04439800  0.42295900  1
  O  O121  1  0.71863300  0.31483100  0.62776000  1
  O  O122  1  0.80420400  0.37634400  0.41377100  1
  O  O123  1  0.24035700  0.14953500  0.84358500  1
  O  O124  1  0.53646400  0.23274600  0.44032300  1
  O  O125  1  0.65726900  0.73309500  0.30386100  1
  O  O126  1  0.54407800  0.63617100  0.02510600  1
  O  O127  1  0.22873300  0.18126200  0.06877700  1
  O  O128  1  0.83860000  0.01160100  0.10235000  1
  O  O129  1  0.23274600  0.53646400  0.94032300  1
  O  O130  1  0.75964300  0.85046500  0.15641500  1
  O  O131  1  0.45592200  0.36382900  0.97489400  1
  O  O132  1  0.25556800  0.94590500  0.05867500  1
  O  O133  1  0.60522700  0.55349500  0.21398400  1
  O  O134  1  0.14354300  0.04297700  0.52403900  1
  O  O135  1  0.77126700  0.81873800  0.93122300  1
  O  O136  1  0.58023900  0.01362300  0.93412400  1
  O  O137  1  0.81513100  0.56174100  0.41865300  1
  O  O138  1  0.62365600  0.19579600  0.08622900  1
  O  O139  1  0.22312100  0.80905500  0.62795400  1
  O  O140  1  0.98637700  0.41976100  0.56587600  1
  O  O141  1  0.98839900  0.16140000  0.39765000  1
  O  O142  1  0.07464400  0.94263900  0.37902600  1
  O  O143  1  0.31959300  0.07789100  0.24378500  1
  O  O144  1  0.29907900  0.87503400  0.41836500  1
  O  O145  1  0.68516900  0.28136700  0.87224000  1
  O  O146  1  0.76725400  0.46353600  0.05967700  1
  O  O147  1  0.95560200  0.65532600  0.07704100  1
  O  O148  1  0.42400600  0.58764700  0.88761300  1
  O  O149  1  0.04439800  0.34467400  0.92295900  1
  O  O150  1  0.59768800  0.79125600  0.11473400  1
  O  O151  1  0.19094500  0.77687900  0.87204600  1
