# generated using pymatgen
data_Nd7V(Se2O)4
_symmetry_space_group_name_H-M   'P 1'
_cell_length_a   4.04792500
_cell_length_b   14.48293300
_cell_length_c   15.84763100
_cell_angle_alpha   90.00000000
_cell_angle_beta   90.00000000
_cell_angle_gamma   90.00000000
_symmetry_Int_Tables_number   1
_chemical_formula_structural   Nd7V(Se2O)4
_chemical_formula_sum   'Nd14 V2 Se16 O8'
_cell_volume   929.08046646
_cell_formula_units_Z   2
loop_
 _symmetry_equiv_pos_site_id
 _symmetry_equiv_pos_as_xyz
  1  'x, y, z'
loop_
 _atom_site_type_symbol
 _atom_site_label
 _atom_site_symmetry_multiplicity
 _atom_site_fract_x
 _atom_site_fract_y
 _atom_site_fract_z
 _atom_site_occupancy
  Nd  Nd0  1  0.00000000  0.79075200  0.88155100  1
  Nd  Nd1  1  0.50000000  0.99322400  0.81103500  1
  Nd  Nd2  1  0.00000000  0.29075200  0.61844900  1
  Nd  Nd3  1  0.00000000  0.00000000  0.50000000  1
  Nd  Nd4  1  0.50000000  0.49322400  0.68896500  1
  Nd  Nd5  1  0.50000000  0.21967800  0.33617100  1
  Nd  Nd6  1  0.50000000  0.50677600  0.31103500  1
  Nd  Nd7  1  0.00000000  0.20924800  0.11844900  1
  Nd  Nd8  1  0.50000000  0.78032200  0.66382900  1
  Nd  Nd9  1  0.50000000  0.00677600  0.18896500  1
  Nd  Nd10  1  0.00000000  0.50000000  0.00000000  1
  Nd  Nd11  1  0.00000000  0.70924800  0.38155100  1
  Nd  Nd12  1  0.50000000  0.71967800  0.16382900  1
  Nd  Nd13  1  0.50000000  0.28032200  0.83617100  1
  V  V14  1  0.00000000  0.50000000  0.50000000  1
  V  V15  1  0.00000000  0.00000000  0.00000000  1
  Se  Se16  1  0.50000000  0.38181000  0.46851400  1
  Se  Se17  1  0.50000000  0.11819000  0.96851400  1
  Se  Se18  1  0.00000000  0.65601400  0.73557900  1
  Se  Se19  1  0.50000000  0.88181000  0.03148600  1
  Se  Se20  1  0.50000000  0.85418900  0.47183600  1
  Se  Se21  1  0.00000000  0.15601400  0.76442100  1
  Se  Se22  1  0.00000000  0.84398600  0.23557900  1
  Se  Se23  1  0.00000000  0.34398600  0.26442100  1
  Se  Se24  1  0.00000000  0.56979700  0.17259700  1
  Se  Se25  1  0.50000000  0.35418900  0.02816400  1
  Se  Se26  1  0.00000000  0.06979700  0.32740300  1
  Se  Se27  1  0.50000000  0.64581100  0.97183600  1
  Se  Se28  1  0.00000000  0.43020300  0.82740300  1
  Se  Se29  1  0.00000000  0.93020300  0.67259700  1
  Se  Se30  1  0.50000000  0.14581100  0.52816400  1
  Se  Se31  1  0.50000000  0.61819000  0.53148600  1
  O  O32  1  0.00000000  0.54473100  0.38205400  1
  O  O33  1  0.00000000  0.45526900  0.61794600  1
  O  O34  1  0.50000000  0.82753200  0.81195100  1
  O  O35  1  0.00000000  0.04473100  0.11794600  1
  O  O36  1  0.00000000  0.95526900  0.88205400  1
  O  O37  1  0.50000000  0.17246800  0.18804900  1
  O  O38  1  0.50000000  0.32753200  0.68804900  1
  O  O39  1  0.50000000  0.67246800  0.31195100  1
