# generated using pymatgen
data_K2BiBr5O2
_symmetry_space_group_name_H-M   'P 1'
_cell_length_a   9.13872300
_cell_length_b   13.52786300
_cell_length_c   19.44994300
_cell_angle_alpha   90.00000000
_cell_angle_beta   90.00000000
_cell_angle_gamma   90.00000000
_symmetry_Int_Tables_number   1
_chemical_formula_structural   K2BiBr5O2
_chemical_formula_sum   'K16 Bi8 Br40 O16'
_cell_volume   2404.54574201
_cell_formula_units_Z   8
loop_
 _symmetry_equiv_pos_site_id
 _symmetry_equiv_pos_as_xyz
  1  'x, y, z'
loop_
 _atom_site_type_symbol
 _atom_site_label
 _atom_site_symmetry_multiplicity
 _atom_site_fract_x
 _atom_site_fract_y
 _atom_site_fract_z
 _atom_site_occupancy
  K  K0  1  0.97191400  0.38512700  0.25000000  1
  K  K1  1  0.47191400  0.11487300  0.25000000  1
  K  K2  1  0.02808600  0.61487300  0.75000000  1
  K  K3  1  0.52808600  0.88512700  0.75000000  1
  K  K4  1  0.84962700  0.66221600  0.25000000  1
  K  K5  1  0.34962700  0.83778400  0.25000000  1
  K  K6  1  0.15037300  0.33778400  0.75000000  1
  K  K7  1  0.65037300  0.16221600  0.75000000  1
  K  K8  1  0.02396700  0.28577400  0.01671000  1
  K  K9  1  0.52396700  0.21422600  0.48329000  1
  K  K10  1  0.97603300  0.71422600  0.51671000  1
  K  K11  1  0.47603300  0.78577400  0.98329000  1
  K  K12  1  0.97603300  0.71422600  0.98329000  1
  K  K13  1  0.47603300  0.78577400  0.51671000  1
  K  K14  1  0.02396700  0.28577400  0.48329000  1
  K  K15  1  0.52396700  0.21422600  0.01671000  1
  Bi  Bi16  1  0.90289500  0.00333400  0.11805100  1
  Bi  Bi17  1  0.40289500  0.49666600  0.38194900  1
  Bi  Bi18  1  0.09710500  0.99666600  0.61805100  1
  Bi  Bi19  1  0.59710500  0.50333400  0.88194900  1
  Bi  Bi20  1  0.09710500  0.99666600  0.88194900  1
  Bi  Bi21  1  0.59710500  0.50333400  0.61805100  1
  Bi  Bi22  1  0.90289500  0.00333400  0.38194900  1
  Bi  Bi23  1  0.40289500  0.49666600  0.11805100  1
  Br  Br24  1  0.57400700  0.97312900  0.09039400  1
  Br  Br25  1  0.07400700  0.52687100  0.40960600  1
  Br  Br26  1  0.42599300  0.02687100  0.59039400  1
  Br  Br27  1  0.92599300  0.47312900  0.90960600  1
  Br  Br28  1  0.42599300  0.02687100  0.90960600  1
  Br  Br29  1  0.92599300  0.47312900  0.59039400  1
  Br  Br30  1  0.57400700  0.97312900  0.40960600  1
  Br  Br31  1  0.07400700  0.52687100  0.09039400  1
  Br  Br32  1  0.17529800  0.05787000  0.02225800  1
  Br  Br33  1  0.67529800  0.44213000  0.47774200  1
  Br  Br34  1  0.82470200  0.94213000  0.52225800  1
  Br  Br35  1  0.32470200  0.55787000  0.97774200  1
  Br  Br36  1  0.82470200  0.94213000  0.97774200  1
  Br  Br37  1  0.32470200  0.55787000  0.52225800  1
  Br  Br38  1  0.17529800  0.05787000  0.47774200  1
  Br  Br39  1  0.67529800  0.44213000  0.02225800  1
  Br  Br40  1  0.74174600  0.24050600  0.15505700  1
  Br  Br41  1  0.24174600  0.25949400  0.34494300  1
  Br  Br42  1  0.25825400  0.75949400  0.65505700  1
  Br  Br43  1  0.75825400  0.74050600  0.84494300  1
  Br  Br44  1  0.25825400  0.75949400  0.84494300  1
  Br  Br45  1  0.75825400  0.74050600  0.65505700  1
  Br  Br46  1  0.74174600  0.24050600  0.34494300  1
  Br  Br47  1  0.24174600  0.25949400  0.15505700  1
  Br  Br48  1  0.04628700  0.81070500  0.13404300  1
  Br  Br49  1  0.54628700  0.68929500  0.36595700  1
  Br  Br50  1  0.95371300  0.18929500  0.63404300  1
  Br  Br51  1  0.45371300  0.31070500  0.86595700  1
  Br  Br52  1  0.95371300  0.18929500  0.86595700  1
  Br  Br53  1  0.45371300  0.31070500  0.63404300  1
  Br  Br54  1  0.04628700  0.81070500  0.36595700  1
  Br  Br55  1  0.54628700  0.68929500  0.13404300  1
  Br  Br56  1  0.76403800  0.95418400  0.25000000  1
  Br  Br57  1  0.26403800  0.54581600  0.25000000  1
  Br  Br58  1  0.23596200  0.04581600  0.75000000  1
  Br  Br59  1  0.73596200  0.45418400  0.75000000  1
  Br  Br60  1  0.08843500  0.10959700  0.25000000  1
  Br  Br61  1  0.58843500  0.39040300  0.25000000  1
  Br  Br62  1  0.91156500  0.89040300  0.75000000  1
  Br  Br63  1  0.41156500  0.60959700  0.75000000  1
  O  O64  1  0.94509200  0.52469800  0.15904700  1
  O  O65  1  0.44509200  0.97530200  0.34095300  1
  O  O66  1  0.05490800  0.47530200  0.65904700  1
  O  O67  1  0.55490800  0.02469800  0.84095300  1
  O  O68  1  0.05490800  0.47530200  0.84095300  1
  O  O69  1  0.55490800  0.02469800  0.65904700  1
  O  O70  1  0.94509200  0.52469800  0.34095300  1
  O  O71  1  0.44509200  0.97530200  0.15904700  1
  O  O72  1  0.65806200  0.66192600  0.90918700  1
  O  O73  1  0.15806200  0.83807400  0.59081300  1
  O  O74  1  0.34193800  0.33807400  0.40918700  1
  O  O75  1  0.84193800  0.16192600  0.09081300  1
  O  O76  1  0.34193800  0.33807400  0.09081300  1
  O  O77  1  0.84193800  0.16192600  0.40918700  1
  O  O78  1  0.65806200  0.66192600  0.59081300  1
  O  O79  1  0.15806200  0.83807400  0.90918700  1
