# generated using pymatgen
data_NaCa8SmTi10(SiO5)10
_symmetry_space_group_name_H-M   'P 1'
_cell_length_a   5.50110900
_cell_length_b   7.51922486
_cell_length_c   24.29356077
_cell_angle_alpha   81.89364673
_cell_angle_beta   87.52270816
_cell_angle_gamma   72.46126602
_symmetry_Int_Tables_number   1
_chemical_formula_structural   NaCa8SmTi10(SiO5)10
_chemical_formula_sum   'Na1 Ca8 Sm1 Ti10 Si10 O50'
_cell_volume   948.59297806
_cell_formula_units_Z   1
loop_
 _symmetry_equiv_pos_site_id
 _symmetry_equiv_pos_as_xyz
  1  'x, y, z'
loop_
 _atom_site_type_symbol
 _atom_site_label
 _atom_site_symmetry_multiplicity
 _atom_site_fract_x
 _atom_site_fract_y
 _atom_site_fract_z
 _atom_site_occupancy
  Na  Na0  1  0.61185400  0.21620500  0.01705100  1
  Ca  Ca1  1  0.78743500  0.38311200  0.18349500  1
  Ca  Ca2  1  0.18820000  0.98191800  0.38385000  1
  Ca  Ca3  1  0.58846500  0.58192900  0.58387900  1
  Ca  Ca4  1  0.98860300  0.18216600  0.78356100  1
  Ca  Ca5  1  0.01305500  0.81737900  0.21577400  1
  Ca  Ca6  1  0.41262400  0.41774600  0.41585600  1
  Ca  Ca7  1  0.81227900  0.01787800  0.61578600  1
  Ca  Ca8  1  0.21142500  0.61959700  0.81534900  1
  Sm  Sm9  1  0.38523700  0.78252600  0.98533200  1
  Ti  Ti10  1  0.39905000  0.10194300  0.19985800  1
  Ti  Ti11  1  0.70425800  0.80373100  0.09987900  1
  Ti  Ti12  1  0.80016400  0.70006200  0.39992700  1
  Ti  Ti13  1  0.09957200  0.40027300  0.29999600  1
  Ti  Ti14  1  0.20012400  0.30016400  0.59987900  1
  Ti  Ti15  1  0.49982600  0.00000000  0.49987800  1
  Ti  Ti16  1  0.59826800  0.90247900  0.79968600  1
  Ti  Ti17  1  0.89947000  0.60050500  0.69996200  1
  Ti  Ti18  1  0.00055500  0.48554400  0.00230400  1
  Ti  Ti19  1  0.30334600  0.20493800  0.89973000  1
  Si  Si20  1  0.10618400  0.07270600  0.08635800  1
  Si  Si21  1  0.50445400  0.67770600  0.28635900  1
  Si  Si22  1  0.29508100  0.52387000  0.11426000  1
  Si  Si23  1  0.90442500  0.27755800  0.48639900  1
  Si  Si24  1  0.69526100  0.12278300  0.31352500  1
  Si  Si25  1  0.30426300  0.87766100  0.68621500  1
  Si  Si26  1  0.09533300  0.72285400  0.51359700  1
  Si  Si27  1  0.70422100  0.48060700  0.88681200  1
  Si  Si28  1  0.49506000  0.32340900  0.71346300  1
  Si  Si29  1  0.89655900  0.92085900  0.91309100  1
  O  O30  1  0.47596100  0.64453800  0.13215900  1
  O  O31  1  0.75206300  0.67691600  0.03583800  1
  O  O32  1  0.87256400  0.24636200  0.33197600  1
  O  O33  1  0.96681900  0.29195700  0.05956500  1
  O  O34  1  0.11550400  0.07004300  0.15449200  1
  O  O35  1  0.00473100  0.60361000  0.14001500  1
  O  O36  1  0.15067600  0.27714000  0.23629400  1
  O  O37  1  0.27275800  0.84634600  0.53190400  1
  O  O38  1  0.35744300  0.89335400  0.25803200  1
  O  O39  1  0.39196700  0.98493000  0.05928800  1
  O  O40  1  0.51293500  0.67300900  0.35464900  1
  O  O41  1  0.27871000  0.53718500  0.04576400  1
  O  O42  1  0.40500900  0.20353600  0.33927300  1
  O  O43  1  0.43918100  0.30729100  0.14252500  1
  O  O44  1  0.55187700  0.87792100  0.43611200  1
  O  O45  1  0.67258100  0.44624100  0.73196700  1
  O  O46  1  0.64811600  0.92395800  0.16329700  1
  O  O47  1  0.75679800  0.49374300  0.45819300  1
  O  O48  1  0.79504500  0.59662100  0.26089100  1
  O  O49  1  0.91281400  0.27303600  0.55462700  1
  O  O50  1  0.68670400  0.12737900  0.24537800  1
  O  O51  1  0.80517200  0.80362000  0.53925000  1
  O  O52  1  0.84259800  0.90653500  0.34191400  1
  O  O53  1  0.95196600  0.47778700  0.63617600  1
  O  O54  1  0.07518700  0.04422600  0.93151900  1
  O  O55  1  0.93407200  0.94683000  0.06790900  1
  O  O56  1  0.04771100  0.52179700  0.36409900  1
  O  O57  1  0.15661000  0.09389500  0.65815100  1
  O  O58  1  0.19472300  0.19667500  0.46078000  1
  O  O59  1  0.31223100  0.87357600  0.75451500  1
  O  O60  1  0.08696300  0.72735300  0.44536700  1
  O  O61  1  0.20534700  0.40393000  0.73929000  1
  O  O62  1  0.24265300  0.50653900  0.54187400  1
  O  O63  1  0.35146200  0.08040300  0.83537600  1
  O  O64  1  0.32714700  0.55337700  0.26836300  1
  O  O65  1  0.44755300  0.12202400  0.56403300  1
  O  O66  1  0.55295100  0.69581800  0.85810800  1
  O  O67  1  0.59446600  0.79674500  0.66074000  1
  O  O68  1  0.70616700  0.48690000  0.95445900  1
  O  O69  1  0.48690200  0.32765800  0.64530600  1
  O  O70  1  0.60252500  0.99434600  0.93718500  1
  O  O71  1  0.64279800  0.10656500  0.74154100  1
  O  O72  1  0.72701200  0.15379700  0.46824200  1
  O  O73  1  0.84623300  0.72182300  0.76411800  1
  O  O74  1  0.99425000  0.39826700  0.86123700  1
  O  O75  1  0.88843000  0.92742700  0.84476900  1
  O  O76  1  0.05083000  0.70704500  0.94204700  1
  O  O77  1  0.12686000  0.75394400  0.66824900  1
  O  O78  1  0.24427600  0.32209800  0.96339900  1
  O  O79  1  0.52998500  0.35378800  0.86863100  1
