# generated using pymatgen
data_La2Mg3H48(NO5)12
_symmetry_space_group_name_H-M   'P 1'
_cell_length_a   13.28748412
_cell_length_b   13.28748412
_cell_length_c   13.28748399
_cell_angle_alpha   49.46804269
_cell_angle_beta   49.46804269
_cell_angle_gamma   49.46804109
_symmetry_Int_Tables_number   1
_chemical_formula_structural   La2Mg3H48(NO5)12
_chemical_formula_sum   'La2 Mg3 H48 N12 O60'
_cell_volume   1245.64640398
_cell_formula_units_Z   1
loop_
 _symmetry_equiv_pos_site_id
 _symmetry_equiv_pos_as_xyz
  1  'x, y, z'
loop_
 _atom_site_type_symbol
 _atom_site_label
 _atom_site_symmetry_multiplicity
 _atom_site_fract_x
 _atom_site_fract_y
 _atom_site_fract_z
 _atom_site_occupancy
  La  La0  1  0.75007700  0.75007700  0.75007700  1
  La  La1  1  0.24992300  0.24992300  0.24992300  1
  Mg  Mg2  1  0.00000000  0.00000000  0.00000000  1
  Mg  Mg3  1  0.57206000  0.57206000  0.57206000  1
  Mg  Mg4  1  0.42794000  0.42794000  0.42794000  1
  H  H5  1  0.13031600  0.81910500  0.87349100  1
  H  H6  1  0.87349100  0.13031600  0.81910500  1
  H  H7  1  0.81910500  0.87349100  0.13031600  1
  H  H8  1  0.86968400  0.18089500  0.12650900  1
  H  H9  1  0.12650900  0.86968400  0.18089500  1
  H  H10  1  0.18089500  0.12650900  0.86968400  1
  H  H11  1  0.20354800  0.74195500  0.97946400  1
  H  H12  1  0.97946400  0.20354800  0.74195500  1
  H  H13  1  0.74195500  0.97946400  0.20354800  1
  H  H14  1  0.79645200  0.25804500  0.02053600  1
  H  H15  1  0.02053600  0.79645200  0.25804500  1
  H  H16  1  0.25804500  0.02053600  0.79645200  1
  H  H17  1  0.54207500  0.84392500  0.43860300  1
  H  H18  1  0.43860300  0.54207500  0.84392500  1
  H  H19  1  0.84392500  0.43860300  0.54207500  1
  H  H20  1  0.45792500  0.15607500  0.56139700  1
  H  H21  1  0.56139700  0.45792500  0.15607500  1
  H  H22  1  0.15607500  0.56139700  0.45792500  1
  H  H23  1  0.69396900  0.75008300  0.45109000  1
  H  H24  1  0.45109000  0.69396900  0.75008300  1
  H  H25  1  0.75008300  0.45109000  0.69396900  1
  H  H26  1  0.30603100  0.24991700  0.54891000  1
  H  H27  1  0.54891000  0.30603100  0.24991700  1
  H  H28  1  0.24991700  0.54891000  0.30603100  1
  H  H29  1  0.36766100  0.73440900  0.45790000  1
  H  H30  1  0.45790000  0.36766100  0.73440900  1
  H  H31  1  0.73440900  0.45790000  0.36766100  1
  H  H32  1  0.63233900  0.26559100  0.54210000  1
  H  H33  1  0.54210000  0.63233900  0.26559100  1
  H  H34  1  0.26559100  0.54210000  0.63233900  1
  H  H35  1  0.29418900  0.74999900  0.60335500  1
  H  H36  1  0.60335500  0.29418900  0.74999900  1
  H  H37  1  0.74999900  0.60335500  0.29418900  1
  H  H38  1  0.70581100  0.25000100  0.39664500  1
  H  H39  1  0.39664500  0.70581100  0.25000100  1
  H  H40  1  0.25000100  0.39664500  0.70581100  1
  H  H41  1  0.08992300  0.93634600  0.65946900  1
  H  H42  1  0.65946900  0.08992300  0.93634600  1
  H  H43  1  0.93634600  0.65946900  0.08992300  1
  H  H44  1  0.91007700  0.06365400  0.34053100  1
  H  H45  1  0.34053100  0.91007700  0.06365400  1
  H  H46  1  0.06365400  0.34053100  0.91007700  1
  H  H47  1  0.07281300  0.78785300  0.75380000  1
  H  H48  1  0.75380000  0.07281300  0.78785300  1
  H  H49  1  0.78785300  0.75380000  0.07281300  1
  H  H50  1  0.92718700  0.21214700  0.24620000  1
  H  H51  1  0.24620000  0.92718700  0.21214700  1
  H  H52  1  0.21214700  0.24620000  0.92718700  1
  N  N53  1  0.94594800  0.48519200  0.66712300  1
  N  N54  1  0.66712300  0.94594800  0.48519200  1
  N  N55  1  0.48519200  0.66712300  0.94594800  1
  N  N56  1  0.05405200  0.51480800  0.33287700  1
  N  N57  1  0.33287700  0.05405200  0.51480800  1
  N  N58  1  0.51480800  0.33287700  0.05405200  1
  N  N59  1  0.01333100  0.83490200  0.54654800  1
  N  N60  1  0.54654800  0.01333100  0.83490200  1
  N  N61  1  0.83490200  0.54654800  0.01333100  1
  N  N62  1  0.98666900  0.16509800  0.45345200  1
  N  N63  1  0.45345200  0.98666900  0.16509800  1
  N  N64  1  0.16509800  0.45345200  0.98666900  1
  O  O65  1  0.81240400  0.51315100  0.74667000  1
  O  O66  1  0.74667000  0.81240400  0.51315100  1
  O  O67  1  0.51315100  0.74667000  0.81240400  1
  O  O68  1  0.18759600  0.48684900  0.25333000  1
  O  O69  1  0.25333000  0.18759600  0.48684900  1
  O  O70  1  0.48684900  0.25333000  0.18759600  1
  O  O71  1  0.02790700  0.37795100  0.63622000  1
  O  O72  1  0.63622000  0.02790700  0.37795100  1
  O  O73  1  0.37795100  0.63622000  0.02790700  1
  O  O74  1  0.97209300  0.62204900  0.36378000  1
  O  O75  1  0.36378000  0.97209300  0.62204900  1
  O  O76  1  0.62204900  0.36378000  0.97209300  1
  O  O77  1  0.99377500  0.57377000  0.61839700  1
  O  O78  1  0.61839700  0.99377500  0.57377000  1
  O  O79  1  0.57377000  0.61839700  0.99377500  1
  O  O80  1  0.00622500  0.42623000  0.38160300  1
  O  O81  1  0.38160300  0.00622500  0.42623000  1
  O  O82  1  0.42623000  0.38160300  0.00622500  1
  O  O83  1  0.98632100  0.75634900  0.68093900  1
  O  O84  1  0.68093900  0.98632100  0.75634900  1
  O  O85  1  0.75634900  0.68093900  0.98632100  1
  O  O86  1  0.01367900  0.24365100  0.31906100  1
  O  O87  1  0.31906100  0.01367900  0.24365100  1
  O  O88  1  0.24365100  0.31906100  0.01367900  1
  O  O89  1  0.12243800  0.86265100  0.46270400  1
  O  O90  1  0.46270400  0.12243800  0.86265100  1
  O  O91  1  0.86265100  0.46270400  0.12243800  1
  O  O92  1  0.87756200  0.13734900  0.53729600  1
  O  O93  1  0.53729600  0.87756200  0.13734900  1
  O  O94  1  0.13734900  0.53729600  0.87756200  1
  O  O95  1  0.92212300  0.88355300  0.50211100  1
  O  O96  1  0.50211100  0.92212300  0.88355300  1
  O  O97  1  0.88355300  0.50211100  0.92212300  1
  O  O98  1  0.07787700  0.11644700  0.49788900  1
  O  O99  1  0.49788900  0.07787700  0.11644700  1
  O  O100  1  0.11644700  0.49788900  0.07787700  1
  O  O101  1  0.12201900  0.82134800  0.95155300  1
  O  O102  1  0.95155300  0.12201900  0.82134800  1
  O  O103  1  0.82134800  0.95155300  0.12201900  1
  O  O104  1  0.87798100  0.17865200  0.04844700  1
  O  O105  1  0.04844700  0.87798100  0.17865200  1
  O  O106  1  0.17865200  0.04844700  0.87798100  1
  O  O107  1  0.62467400  0.74962100  0.44491300  1
  O  O108  1  0.44491300  0.62467400  0.74962100  1
  O  O109  1  0.74962100  0.44491300  0.62467400  1
  O  O110  1  0.37532600  0.25037900  0.55508700  1
  O  O111  1  0.55508700  0.37532600  0.25037900  1
  O  O112  1  0.25037900  0.55508700  0.37532600  1
  O  O113  1  0.69395000  0.54266400  0.38136000  1
  O  O114  1  0.38136000  0.69395000  0.54266400  1
  O  O115  1  0.54266400  0.38136000  0.69395000  1
  O  O116  1  0.30605000  0.45733600  0.61864000  1
  O  O117  1  0.61864000  0.30605000  0.45733600  1
  O  O118  1  0.45733600  0.61864000  0.30605000  1
  O  O119  1  0.12474700  0.83589800  0.72651000  1
  O  O120  1  0.72651000  0.12474700  0.83589800  1
  O  O121  1  0.83589800  0.72651000  0.12474700  1
  O  O122  1  0.87525300  0.16410200  0.27349000  1
  O  O123  1  0.27349000  0.87525300  0.16410200  1
  O  O124  1  0.16410200  0.27349000  0.87525300  1
