# generated using pymatgen
data_Sr6Te6O17
_symmetry_space_group_name_H-M   'P 1'
_cell_length_a   14.46197454
_cell_length_b   14.46197454
_cell_length_c   28.91983176
_cell_angle_alpha   67.09600996
_cell_angle_beta   67.09600996
_cell_angle_gamma   23.72371977
_symmetry_Int_Tables_number   1
_chemical_formula_structural   Sr6Te6O17
_chemical_formula_sum   'Sr24 Te24 O68'
_cell_volume   2232.78761186
_cell_formula_units_Z   4
loop_
 _symmetry_equiv_pos_site_id
 _symmetry_equiv_pos_as_xyz
  1  'x, y, z'
loop_
 _atom_site_type_symbol
 _atom_site_label
 _atom_site_symmetry_multiplicity
 _atom_site_fract_x
 _atom_site_fract_y
 _atom_site_fract_z
 _atom_site_occupancy
  Sr  Sr0  1  0.00000000  0.50000000  0.50000000  1
  Sr  Sr1  1  0.50000000  0.00000000  0.00000000  1
  Sr  Sr2  1  0.76167300  0.23832700  0.25000000  1
  Sr  Sr3  1  0.23832700  0.76167300  0.75000000  1
  Sr  Sr4  1  0.14522200  0.73932800  0.05499500  1
  Sr  Sr5  1  0.26067200  0.85477800  0.44500500  1
  Sr  Sr6  1  0.85477800  0.26067200  0.94500500  1
  Sr  Sr7  1  0.73932800  0.14522200  0.55499500  1
  Sr  Sr8  1  0.05223800  0.54550100  0.07606600  1
  Sr  Sr9  1  0.45449900  0.94776200  0.42393400  1
  Sr  Sr10  1  0.94776200  0.45449900  0.92393400  1
  Sr  Sr11  1  0.54550100  0.05223800  0.57606600  1
  Sr  Sr12  1  0.17690400  0.68461200  0.19875300  1
  Sr  Sr13  1  0.31538800  0.82309600  0.30124700  1
  Sr  Sr14  1  0.82309600  0.31538800  0.80124700  1
  Sr  Sr15  1  0.68461200  0.17690400  0.69875300  1
  Sr  Sr16  1  0.11446800  0.59409500  0.63797900  1
  Sr  Sr17  1  0.40590500  0.88553200  0.86202100  1
  Sr  Sr18  1  0.88553200  0.40590500  0.36202100  1
  Sr  Sr19  1  0.59409500  0.11446800  0.13797900  1
  Sr  Sr20  1  0.08743100  0.58085100  0.78946200  1
  Sr  Sr21  1  0.41914900  0.91256900  0.71053800  1
  Sr  Sr22  1  0.91256900  0.41914900  0.21053800  1
  Sr  Sr23  1  0.58085100  0.08743100  0.28946200  1
  Te  Te24  1  0.04910000  0.55969200  0.20560600  1
  Te  Te25  1  0.44030800  0.95090000  0.29439400  1
  Te  Te26  1  0.95090000  0.44030800  0.79439400  1
  Te  Te27  1  0.55969200  0.04910000  0.70560600  1
  Te  Te28  1  0.98775200  0.45920900  0.63877300  1
  Te  Te29  1  0.54079100  0.01224800  0.86122700  1
  Te  Te30  1  0.01224800  0.54079100  0.36122700  1
  Te  Te31  1  0.45920900  0.98775200  0.13877300  1
  Te  Te32  1  0.28399900  0.69109200  0.61024300  1
  Te  Te33  1  0.30890800  0.71600100  0.88975700  1
  Te  Te34  1  0.71600100  0.30890800  0.38975700  1
  Te  Te35  1  0.69109200  0.28399900  0.11024300  1
  Te  Te36  1  0.91095700  0.39776400  0.07411400  1
  Te  Te37  1  0.60223600  0.08904300  0.42588600  1
  Te  Te38  1  0.08904300  0.60223600  0.92588600  1
  Te  Te39  1  0.39776400  0.91095700  0.57411400  1
  Te  Te40  1  0.14097500  0.65289800  0.50030800  1
  Te  Te41  1  0.34710200  0.85902500  0.99969200  1
  Te  Te42  1  0.85902500  0.34710200  0.49969200  1
  Te  Te43  1  0.65289800  0.14097500  0.00030800  1
  Te  Te44  1  0.86383400  0.30390400  0.67405200  1
  Te  Te45  1  0.69609700  0.13616600  0.82594800  1
  Te  Te46  1  0.13616600  0.69609700  0.32594800  1
  Te  Te47  1  0.30390300  0.86383400  0.17405200  1
  O  O48  1  0.14063200  0.55407300  0.13629200  1
  O  O49  1  0.44592700  0.85936800  0.36370800  1
  O  O50  1  0.85936800  0.44592700  0.86370800  1
  O  O51  1  0.55407300  0.14063200  0.63629200  1
  O  O52  1  0.30226000  0.38462800  0.22481100  1
  O  O53  1  0.61537200  0.69774000  0.27518900  1
  O  O54  1  0.69774000  0.61537200  0.77518900  1
  O  O55  1  0.38462800  0.30226000  0.72481100  1
  O  O56  1  0.81871600  0.85712600  0.21369200  1
  O  O57  1  0.14287400  0.18128400  0.28630800  1
  O  O58  1  0.18128400  0.14287400  0.78630800  1
  O  O59  1  0.85712600  0.81871600  0.71369200  1
  O  O60  1  0.09242300  0.45558800  0.57378300  1
  O  O61  1  0.54441200  0.90757700  0.92621700  1
  O  O62  1  0.90757700  0.54441200  0.42621700  1
  O  O63  1  0.45558800  0.09242300  0.07378300  1
  O  O64  1  0.76084800  0.74743000  0.65480500  1
  O  O65  1  0.25257000  0.23915200  0.84519500  1
  O  O66  1  0.23915200  0.25257000  0.34519500  1
  O  O67  1  0.74743000  0.76084800  0.15480400  1
  O  O68  1  0.22239500  0.26993300  0.67425200  1
  O  O69  1  0.73006700  0.77760500  0.82574800  1
  O  O70  1  0.77760500  0.73006700  0.32574800  1
  O  O71  1  0.26993300  0.22239500  0.17425200  1
  O  O72  1  0.35767100  0.59516700  0.67802900  1
  O  O73  1  0.40483300  0.64232900  0.82197100  1
  O  O74  1  0.64232900  0.40483300  0.32197100  1
  O  O75  1  0.59516700  0.35767100  0.17802900  1
  O  O76  1  0.98467200  0.89243600  0.62498700  1
  O  O77  1  0.10756400  0.01532800  0.87501300  1
  O  O78  1  0.01532800  0.10756400  0.37501300  1
  O  O79  1  0.89243600  0.98467200  0.12498700  1
  O  O80  1  0.00992600  0.37961000  0.11196400  1
  O  O81  1  0.62039000  0.99007400  0.38803600  1
  O  O82  1  0.99007400  0.62039000  0.88803600  1
  O  O83  1  0.37961000  0.00992600  0.61196400  1
  O  O84  1  0.09115600  0.29515900  0.01186400  1
  O  O85  1  0.70484100  0.90884400  0.48813600  1
  O  O86  1  0.90884400  0.70484100  0.98813600  1
  O  O87  1  0.29515900  0.09115600  0.51186400  1
  O  O88  1  0.62763100  0.71612200  0.05731200  1
  O  O89  1  0.28387800  0.37236900  0.44268800  1
  O  O90  1  0.37236900  0.28387800  0.94268800  1
  O  O91  1  0.71612200  0.62763100  0.55731200  1
  O  O92  1  0.14773100  0.78315100  0.49136500  1
  O  O93  1  0.21684900  0.85226900  0.00863500  1
  O  O94  1  0.85226900  0.21684900  0.50863500  1
  O  O95  1  0.78315100  0.14773100  0.99136500  1
  O  O96  1  0.91894200  0.82101300  0.55672300  1
  O  O97  1  0.17898700  0.08105800  0.94327700  1
  O  O98  1  0.08105800  0.17898700  0.44327700  1
  O  O99  1  0.82101300  0.91894200  0.05672300  1
  O  O100  1  0.40388500  0.36892900  0.53629500  1
  O  O101  1  0.63107100  0.59611500  0.96370500  1
  O  O102  1  0.59611500  0.63107100  0.46370500  1
  O  O103  1  0.36892900  0.40388500  0.03629500  1
  O  O104  1  0.88833100  0.14377100  0.69065000  1
  O  O105  1  0.85622900  0.11166900  0.80935000  1
  O  O106  1  0.11166900  0.85622900  0.30935000  1
  O  O107  1  0.14377100  0.88833100  0.19065000  1
  O  O108  1  0.59659500  0.56415800  0.71251300  1
  O  O109  1  0.43584200  0.40340500  0.78748700  1
  O  O110  1  0.40340500  0.43584200  0.28748700  1
  O  O111  1  0.56415800  0.59659500  0.21251300  1
  O  O112  1  0.07887900  0.11239900  0.71932100  1
  O  O113  1  0.88760100  0.92112100  0.78067900  1
  O  O114  1  0.92112100  0.88760100  0.28067900  1
  O  O115  1  0.11239900  0.07887900  0.21932100  1
