# generated using pymatgen
data_Te2As2SI6(OF6)2
_symmetry_space_group_name_H-M   'P 1'
_cell_length_a   13.38032500
_cell_length_b   13.56390674
_cell_length_c   13.57482827
_cell_angle_alpha   91.18301091
_cell_angle_beta   91.11943177
_cell_angle_gamma   91.28228845
_symmetry_Int_Tables_number   1
_chemical_formula_structural   Te2As2SI6(OF6)2
_chemical_formula_sum   'Te8 As8 S4 I24 O8 F48'
_cell_volume   2462.05361097
_cell_formula_units_Z   4
loop_
 _symmetry_equiv_pos_site_id
 _symmetry_equiv_pos_as_xyz
  1  'x, y, z'
loop_
 _atom_site_type_symbol
 _atom_site_label
 _atom_site_symmetry_multiplicity
 _atom_site_fract_x
 _atom_site_fract_y
 _atom_site_fract_z
 _atom_site_occupancy
  Te  Te0  1  0.64701000  0.20005800  0.70259600  1
  Te  Te1  1  0.58360700  0.80040500  0.74510800  1
  Te  Te2  1  0.10150000  0.62377000  0.76691900  1
  Te  Te3  1  0.07332500  0.39535000  0.76298300  1
  Te  Te4  1  0.84900600  0.36104700  0.21487400  1
  Te  Te5  1  0.90120500  0.55205000  0.29347500  1
  Te  Te6  1  0.44218800  0.12585600  0.29734500  1
  Te  Te7  1  0.42821800  0.91415800  0.25481600  1
  As  As8  1  0.47797200  0.00104000  0.95468600  1
  As  As9  1  0.35195200  0.47763500  0.71992200  1
  As  As10  1  0.80969700  0.00932200  0.86212300  1
  As  As11  1  0.05419600  0.42345300  0.48553300  1
  As  As12  1  0.35431100  0.00185600  0.52710900  1
  As  As13  1  0.14761300  0.94581700  0.23759500  1
  As  As14  1  0.64140900  0.52110300  0.30881500  1
  As  As15  1  0.95334800  0.54803100  0.02786700  1
  S  S16  1  0.28590200  0.11275000  0.87024800  1
  S  S17  1  0.73508600  0.49887200  0.71019400  1
  S  S18  1  0.25356600  0.50878700  0.20941700  1
  S  S19  1  0.73680700  0.96782900  0.34629200  1
  I  I20  1  0.13156300  0.15105100  0.94961400  1
  I  I21  1  0.11942000  0.81793600  0.87958100  1
  I  I22  1  0.74253000  0.66125100  0.88021900  1
  I  I23  1  0.69556100  0.37771900  0.84677200  1
  I  I24  1  0.40588800  0.24768900  0.87607600  1
  I  I25  1  0.36941700  0.69002500  0.85000000  1
  I  I26  1  0.92443600  0.75171600  0.63653700  1
  I  I27  1  0.86939500  0.16774800  0.59704900  1
  I  I28  1  0.15835800  0.20246700  0.61113900  1
  I  I29  1  0.17260500  0.90188800  0.60681600  1
  I  I30  1  0.56354500  0.30003900  0.55438700  1
  I  I31  1  0.59912200  0.68143900  0.59024500  1
  I  I32  1  0.39518400  0.32545900  0.39455800  1
  I  I33  1  0.33198600  0.67146700  0.39328300  1
  I  I34  1  0.79001900  0.13196600  0.39335800  1
  I  I35  1  0.85390600  0.85260300  0.40431700  1
  I  I36  1  0.09003400  0.77802300  0.34440100  1
  I  I37  1  0.06664700  0.16989000  0.31242500  1
  I  I38  1  0.59489700  0.31132200  0.09437400  1
  I  I39  1  0.58323900  0.64450100  0.07906200  1
  I  I40  1  0.27598100  0.35128600  0.13855400  1
  I  I41  1  0.30502500  0.62067400  0.08619600  1
  I  I42  1  0.90546000  0.16386500  0.04861000  1
  I  I43  1  0.96274300  0.88629200  0.01324300  1
  O  O44  1  0.23076400  0.73036400  0.78604600  1
  O  O45  1  0.75899100  0.44600400  0.61711800  1
  O  O46  1  0.11242700  0.28286600  0.37535600  1
  O  O47  1  0.22572700  0.71617400  0.29878700  1
  O  O48  1  0.69253300  0.31711800  0.20457800  1
  O  O49  1  0.63208100  0.66649200  0.20513500  1
  O  O50  1  0.83476200  0.90578600  0.94481900  1
  O  O51  1  0.80479600  0.11398200  0.94317100  1
  F  F52  1  0.60793700  0.16873100  0.06583800  1
  F  F53  1  0.59051700  0.78189800  0.04793100  1
  F  F54  1  0.47767300  0.47339600  0.76241700  1
  F  F55  1  0.97427400  0.60436600  0.83336300  1
  F  F56  1  0.98820900  0.40459900  0.87504100  1
  F  F57  1  0.50811200  0.63580600  0.91255000  1
  F  F58  1  0.18799700  0.38320700  0.85797200  1
  F  F59  1  0.15451600  0.58328300  0.89358100  1
  F  F60  1  0.45346600  0.97697000  0.82654300  1
  F  F61  1  0.91582700  0.21793100  0.73261100  1
  F  F62  1  0.90002300  0.80431100  0.77366500  1
  F  F63  1  0.59979100  0.95050500  0.94000200  1
  F  F64  1  0.08556900  0.53238800  0.55809200  1
  F  F65  1  0.35977100  0.36737400  0.64878400  1
  F  F66  1  0.37496300  0.55567300  0.61940300  1
  F  F67  1  0.95426000  0.43205600  0.67962200  1
  F  F68  1  0.62270800  0.08101000  0.61738100  1
  F  F69  1  0.68374100  0.89278600  0.69719500  1
  F  F70  1  0.13539500  0.06075900  0.65896400  1
  F  F71  1  0.38374400  0.06524100  0.63988400  1
  F  F72  1  0.42738300  0.90009000  0.55727600  1
  F  F73  1  0.93579900  0.02245400  0.82390000  1
  F  F74  1  0.16466000  0.36436700  0.56991200  1
  F  F75  1  0.20669700  0.76752600  0.56606300  1
  F  F76  1  0.94463700  0.71027900  0.48141100  1
  F  F77  1  0.86631300  0.32667700  0.35919000  1
  F  F78  1  0.01456000  0.98258000  0.22653700  1
  F  F79  1  0.46824400  0.07772000  0.44419500  1
  F  F80  1  0.52870800  0.89137400  0.35739500  1
  F  F81  1  0.09676800  0.06713100  0.41541000  1
  F  F82  1  0.30428100  0.11400000  0.33517100  1
  F  F83  1  0.32388700  0.91026000  0.36724900  1
  F  F84  1  0.11969000  0.47599900  0.38725500  1
  F  F85  1  0.65290700  0.41452000  0.38529100  1
  F  F86  1  0.67442500  0.60359700  0.40926200  1
  F  F87  1  0.92169900  0.50644600  0.43258600  1
  F  F88  1  0.28992700  0.95394400  0.17104800  1
  F  F89  1  0.01949700  0.23746100  0.17244000  1
  F  F90  1  0.12542200  0.87535700  0.12358100  1
  F  F91  1  0.53593500  0.96307500  0.16373700  1
  F  F92  1  0.82361400  0.42511700  0.08280100  1
  F  F93  1  0.88017900  0.60095400  0.13301400  1
  F  F94  1  0.56947000  0.46305200  0.11139800  1
  F  F95  1  0.04508700  0.63988100  0.05712900  1
  F  F96  1  0.02204200  0.45870900  0.09350500  1
  F  F97  1  0.51072100  0.53269100  0.32722700  1
  F  F98  1  0.38567800  0.15230600  0.16603500  1
  F  F99  1  0.41512200  0.89185400  0.99039800  1
