# generated using pymatgen
data_CaAl2Si4(H2O7)2
_symmetry_space_group_name_H-M   'P 1'
_cell_length_a   9.95837777
_cell_length_b   9.95837777
_cell_length_c   7.58697395
_cell_angle_alpha   75.12677837
_cell_angle_beta   75.12677837
_cell_angle_gamma   82.69147499
_symmetry_Int_Tables_number   1
_chemical_formula_structural   CaAl2Si4(H2O7)2
_chemical_formula_sum   'Ca2 Al4 Si8 H8 O28'
_cell_volume   701.30681894
_cell_formula_units_Z   2
loop_
 _symmetry_equiv_pos_site_id
 _symmetry_equiv_pos_as_xyz
  1  'x, y, z'
loop_
 _atom_site_type_symbol
 _atom_site_label
 _atom_site_symmetry_multiplicity
 _atom_site_fract_x
 _atom_site_fract_y
 _atom_site_fract_z
 _atom_site_occupancy
  Ca  Ca0  1  0.75819100  0.75819100  0.26749300  1
  Ca  Ca1  1  0.24180900  0.24180900  0.73250700  1
  Al  Al2  1  0.43586200  0.81723900  0.26011800  1
  Al  Al3  1  0.18276100  0.56413800  0.73988200  1
  Al  Al4  1  0.56413800  0.18276100  0.73988200  1
  Al  Al5  1  0.81723900  0.43586200  0.26011800  1
  Si  Si6  1  0.62274900  0.85812700  0.84409300  1
  Si  Si7  1  0.14187300  0.37725100  0.15590700  1
  Si  Si8  1  0.37725100  0.14187300  0.15590700  1
  Si  Si9  1  0.85812700  0.62274900  0.84409300  1
  Si  Si10  1  0.46434800  0.69781300  0.67287500  1
  Si  Si11  1  0.30218700  0.53565200  0.32712500  1
  Si  Si12  1  0.53565200  0.30218700  0.32712500  1
  Si  Si13  1  0.69781300  0.46434800  0.67287500  1
  H  H14  1  0.72647400  0.09452400  0.27652300  1
  H  H15  1  0.90547600  0.27352600  0.72347700  1
  H  H16  1  0.27352600  0.90547600  0.72347700  1
  H  H17  1  0.09452400  0.72647400  0.27652300  1
  H  H18  1  0.95336900  0.01087800  0.32091000  1
  H  H19  1  0.98912200  0.04663100  0.67909000  1
  H  H20  1  0.04663100  0.98912200  0.67909000  1
  H  H21  1  0.01087800  0.95336900  0.32091000  1
  O  O22  1  0.76228800  0.76228800  0.76876500  1
  O  O23  1  0.23771200  0.23771200  0.23123500  1
  O  O24  1  0.58945800  0.82464700  0.07403600  1
  O  O25  1  0.17535300  0.41054200  0.92596400  1
  O  O26  1  0.41054200  0.17535300  0.92596400  1
  O  O27  1  0.82464700  0.58945800  0.07403600  1
  O  O28  1  0.52405000  0.75319200  0.44617700  1
  O  O29  1  0.24680800  0.47595000  0.55382300  1
  O  O30  1  0.47595000  0.24680800  0.55382300  1
  O  O31  1  0.75319200  0.52405000  0.44617700  1
  O  O32  1  0.49135300  0.80991000  0.78430400  1
  O  O33  1  0.19009000  0.50864700  0.21569600  1
  O  O34  1  0.50864700  0.19009000  0.21569600  1
  O  O35  1  0.80991000  0.49135300  0.78430400  1
  O  O36  1  0.35231400  0.98136000  0.25072400  1
  O  O37  1  0.01864000  0.64768600  0.74927600  1
  O  O38  1  0.64768600  0.01864000  0.74927600  1
  O  O39  1  0.98136000  0.35231400  0.25072400  1
  O  O40  1  0.54822500  0.54822500  0.74277900  1
  O  O41  1  0.45177500  0.45177500  0.25722100  1
  O  O42  1  0.29833900  0.68688900  0.72465100  1
  O  O43  1  0.31311100  0.70166100  0.27534900  1
  O  O44  1  0.70166100  0.31311100  0.27534900  1
  O  O45  1  0.68688900  0.29833900  0.72465100  1
  O  O46  1  0.72576300  0.99270100  0.30002300  1
  O  O47  1  0.00729900  0.27423700  0.69997700  1
  O  O48  1  0.27423700  0.00729900  0.69997700  1
  O  O49  1  0.99270100  0.72576300  0.30002300  1
