# generated using pymatgen
data_As4S11(N6Cl7)2
_symmetry_space_group_name_H-M   'P 1'
_cell_length_a   16.72524900
_cell_length_b   16.72524900
_cell_length_c   16.37425700
_cell_angle_alpha   90.00000000
_cell_angle_beta   90.00000000
_cell_angle_gamma   90.00000000
_symmetry_Int_Tables_number   1
_chemical_formula_structural   As4S11(N6Cl7)2
_chemical_formula_sum   'As16 S44 N48 Cl56'
_cell_volume   4580.43565626
_cell_formula_units_Z   4
loop_
 _symmetry_equiv_pos_site_id
 _symmetry_equiv_pos_as_xyz
  1  'x, y, z'
loop_
 _atom_site_type_symbol
 _atom_site_label
 _atom_site_symmetry_multiplicity
 _atom_site_fract_x
 _atom_site_fract_y
 _atom_site_fract_z
 _atom_site_occupancy
  As  As0  1  0.51964400  0.62043900  0.10045100  1
  As  As1  1  0.01964400  0.87956100  0.39954900  1
  As  As2  1  0.48035600  0.37956100  0.10045100  1
  As  As3  1  0.98035600  0.12043900  0.39954900  1
  As  As4  1  0.62043900  0.48035600  0.89954900  1
  As  As5  1  0.87956100  0.98035600  0.60045100  1
  As  As6  1  0.37956100  0.51964400  0.89954900  1
  As  As7  1  0.12043900  0.01964400  0.60045100  1
  As  As8  1  0.39506600  0.78099100  0.91642400  1
  As  As9  1  0.89506600  0.71900900  0.58357600  1
  As  As10  1  0.60493400  0.21900900  0.91642400  1
  As  As11  1  0.10493400  0.28099100  0.58357600  1
  As  As12  1  0.78099100  0.60493400  0.08357600  1
  As  As13  1  0.71900900  0.10493400  0.41642400  1
  As  As14  1  0.21900900  0.39506600  0.08357600  1
  As  As15  1  0.28099100  0.89506600  0.41642400  1
  S  S16  1  0.50000000  0.50000000  0.59088200  1
  S  S17  1  0.00000000  0.00000000  0.90911800  1
  S  S18  1  0.50000000  0.50000000  0.40911800  1
  S  S19  1  0.00000000  0.00000000  0.09088200  1
  S  S20  1  0.19648700  0.55187900  0.65133200  1
  S  S21  1  0.69648700  0.94812100  0.84866800  1
  S  S22  1  0.80351300  0.44812100  0.65133200  1
  S  S23  1  0.30351300  0.05187900  0.84866800  1
  S  S24  1  0.55187900  0.80351300  0.34866800  1
  S  S25  1  0.94812100  0.30351300  0.15133200  1
  S  S26  1  0.44812100  0.19648700  0.34866800  1
  S  S27  1  0.05187900  0.69648700  0.15133200  1
  S  S28  1  0.19264500  0.72585000  0.62786100  1
  S  S29  1  0.69264500  0.77415000  0.87213900  1
  S  S30  1  0.80735500  0.27415000  0.62786100  1
  S  S31  1  0.30735500  0.22585000  0.87213900  1
  S  S32  1  0.72585000  0.80735500  0.37213900  1
  S  S33  1  0.77415000  0.30735500  0.12786100  1
  S  S34  1  0.27415000  0.19264500  0.37213900  1
  S  S35  1  0.22585000  0.69264500  0.12786100  1
  S  S36  1  0.11411900  0.80293000  0.76449100  1
  S  S37  1  0.61411900  0.69707000  0.73550900  1
  S  S38  1  0.88588100  0.19707000  0.76449100  1
  S  S39  1  0.38588100  0.30293000  0.73550900  1
  S  S40  1  0.80293000  0.88588100  0.23550900  1
  S  S41  1  0.69707000  0.38588100  0.26449100  1
  S  S42  1  0.19707000  0.11411900  0.23550900  1
  S  S43  1  0.30293000  0.61411900  0.26449100  1
  S  S44  1  0.04563700  0.69314300  0.89184300  1
  S  S45  1  0.54563700  0.80685700  0.60815700  1
  S  S46  1  0.95436300  0.30685700  0.89184300  1
  S  S47  1  0.45436300  0.19314300  0.60815700  1
  S  S48  1  0.69314300  0.95436300  0.10815700  1
  S  S49  1  0.80685700  0.45436300  0.39184300  1
  S  S50  1  0.30685700  0.04563700  0.10815700  1
  S  S51  1  0.19314300  0.54563700  0.39184300  1
  S  S52  1  0.10507700  0.53572200  0.81279200  1
  S  S53  1  0.60507700  0.96427800  0.68720800  1
  S  S54  1  0.89492300  0.46427800  0.81279200  1
  S  S55  1  0.39492300  0.03572200  0.68720800  1
  S  S56  1  0.53572200  0.89492300  0.18720800  1
  S  S57  1  0.96427800  0.39492300  0.31279200  1
  S  S58  1  0.46427800  0.10507700  0.18720800  1
  S  S59  1  0.03572200  0.60507700  0.31279200  1
  N  N60  1  0.21108400  0.63526000  0.60810100  1
  N  N61  1  0.71108400  0.86474000  0.89189900  1
  N  N62  1  0.78891600  0.36474000  0.60810100  1
  N  N63  1  0.28891600  0.13526000  0.89189900  1
  N  N64  1  0.63526000  0.78891600  0.39189900  1
  N  N65  1  0.86474000  0.28891600  0.10810100  1
  N  N66  1  0.36474000  0.21108400  0.39189900  1
  N  N67  1  0.13526000  0.71108400  0.10810100  1
  N  N68  1  0.14790200  0.73007200  0.71334100  1
  N  N69  1  0.64790200  0.76992800  0.78665900  1
  N  N70  1  0.85209800  0.26992800  0.71334100  1
  N  N71  1  0.35209800  0.23007200  0.78665900  1
  N  N72  1  0.73007200  0.85209800  0.28665900  1
  N  N73  1  0.76992800  0.35209800  0.21334100  1
  N  N74  1  0.26992800  0.14790200  0.28665900  1
  N  N75  1  0.23007200  0.64790200  0.21334100  1
  N  N76  1  0.07173100  0.77009600  0.84336600  1
  N  N77  1  0.57173100  0.72990400  0.65663400  1
  N  N78  1  0.92826900  0.22990400  0.84336600  1
  N  N79  1  0.42826900  0.27009600  0.65663400  1
  N  N80  1  0.77009600  0.92826900  0.15663400  1
  N  N81  1  0.72990400  0.42826900  0.34336600  1
  N  N82  1  0.22990400  0.07173100  0.15663400  1
  N  N83  1  0.27009600  0.57173100  0.34336600  1
  N  N84  1  0.06722800  0.60704800  0.86141100  1
  N  N85  1  0.56722800  0.89295200  0.63858900  1
  N  N86  1  0.93277200  0.39295200  0.86141100  1
  N  N87  1  0.43277200  0.10704800  0.63858900  1
  N  N88  1  0.60704800  0.93277200  0.13858900  1
  N  N89  1  0.89295200  0.43277200  0.36141100  1
  N  N90  1  0.39295200  0.06722800  0.13858900  1
  N  N91  1  0.10704800  0.56722800  0.36141100  1
  N  N92  1  0.14919500  0.55571700  0.73278500  1
  N  N93  1  0.64919500  0.94428300  0.76721500  1
  N  N94  1  0.85080500  0.44428300  0.73278500  1
  N  N95  1  0.35080500  0.05571700  0.76721500  1
  N  N96  1  0.55571700  0.85080500  0.26721500  1
  N  N97  1  0.94428300  0.35080500  0.23278500  1
  N  N98  1  0.44428300  0.14919500  0.26721500  1
  N  N99  1  0.05571700  0.64919500  0.23278500  1
  N  N100  1  0.44552900  0.56905000  0.58886200  1
  N  N101  1  0.94552900  0.93095000  0.91113800  1
  N  N102  1  0.55447100  0.43095000  0.58886200  1
  N  N103  1  0.05447100  0.06905000  0.91113800  1
  N  N104  1  0.56905000  0.55447100  0.41113800  1
  N  N105  1  0.93095000  0.05447100  0.08886200  1
  N  N106  1  0.43095000  0.44552900  0.41113800  1
  N  N107  1  0.06905000  0.94552900  0.08886200  1
  Cl  Cl108  1  0.42416600  0.72740500  0.10548300  1
  Cl  Cl109  1  0.92416600  0.77259500  0.39451700  1
  Cl  Cl110  1  0.57583400  0.27259500  0.10548300  1
  Cl  Cl111  1  0.07583400  0.22740500  0.39451700  1
  Cl  Cl112  1  0.72740500  0.57583400  0.89451700  1
  Cl  Cl113  1  0.77259500  0.07583400  0.60548300  1
  Cl  Cl114  1  0.27259500  0.42416600  0.89451700  1
  Cl  Cl115  1  0.22740500  0.92416600  0.60548300  1
  Cl  Cl116  1  0.62691500  0.70750200  0.08582900  1
  Cl  Cl117  1  0.12691500  0.79249800  0.41417100  1
  Cl  Cl118  1  0.37308500  0.29249800  0.08582900  1
  Cl  Cl119  1  0.87308500  0.20750200  0.41417100  1
  Cl  Cl120  1  0.70750200  0.37308500  0.91417100  1
  Cl  Cl121  1  0.79249800  0.87308500  0.58582900  1
  Cl  Cl122  1  0.29249800  0.62691500  0.91417100  1
  Cl  Cl123  1  0.20750200  0.12691500  0.58582900  1
  Cl  Cl124  1  0.52981500  0.61274700  0.23791900  1
  Cl  Cl125  1  0.02981500  0.88725300  0.26208100  1
  Cl  Cl126  1  0.47018500  0.38725300  0.23791900  1
  Cl  Cl127  1  0.97018500  0.11274700  0.26208100  1
  Cl  Cl128  1  0.61274700  0.47018500  0.76208100  1
  Cl  Cl129  1  0.88725300  0.97018500  0.73791900  1
  Cl  Cl130  1  0.38725300  0.52981500  0.76208100  1
  Cl  Cl131  1  0.11274700  0.02981500  0.73791900  1
  Cl  Cl132  1  0.38056200  0.79957800  0.78035800  1
  Cl  Cl133  1  0.88056200  0.70042200  0.71964200  1
  Cl  Cl134  1  0.61943800  0.20042200  0.78035800  1
  Cl  Cl135  1  0.11943800  0.29957800  0.71964200  1
  Cl  Cl136  1  0.79957800  0.61943800  0.21964200  1
  Cl  Cl137  1  0.70042200  0.11943800  0.28035800  1
  Cl  Cl138  1  0.20042200  0.38056200  0.21964200  1
  Cl  Cl139  1  0.29957800  0.88056200  0.28035800  1
  Cl  Cl140  1  0.47680900  0.88609200  0.93695100  1
  Cl  Cl141  1  0.97680900  0.61390800  0.56304900  1
  Cl  Cl142  1  0.52319100  0.11390800  0.93695100  1
  Cl  Cl143  1  0.02319100  0.38609200  0.56304900  1
  Cl  Cl144  1  0.88609200  0.52319100  0.06304900  1
  Cl  Cl145  1  0.61390800  0.02319100  0.43695100  1
  Cl  Cl146  1  0.11390800  0.47680900  0.06304900  1
  Cl  Cl147  1  0.38609200  0.97680900  0.43695100  1
  Cl  Cl148  1  0.28236800  0.84252700  0.95549000  1
  Cl  Cl149  1  0.78236800  0.65747300  0.54451000  1
  Cl  Cl150  1  0.71763200  0.15747300  0.95549000  1
  Cl  Cl151  1  0.21763200  0.34252700  0.54451000  1
  Cl  Cl152  1  0.84252700  0.71763200  0.04451000  1
  Cl  Cl153  1  0.65747300  0.21763200  0.45549000  1
  Cl  Cl154  1  0.15747300  0.28236800  0.04451000  1
  Cl  Cl155  1  0.34252700  0.78236800  0.45549000  1
  Cl  Cl156  1  0.61468000  0.49181100  0.08649300  1
  Cl  Cl157  1  0.11468000  0.00818900  0.41350700  1
  Cl  Cl158  1  0.38532000  0.50818900  0.08649300  1
  Cl  Cl159  1  0.88532000  0.99181100  0.41350700  1
  Cl  Cl160  1  0.49181100  0.38532000  0.91350700  1
  Cl  Cl161  1  0.00818900  0.88532000  0.58649300  1
  Cl  Cl162  1  0.50818900  0.61468000  0.91350700  1
  Cl  Cl163  1  0.99181100  0.11468000  0.58649300  1
