# generated using pymatgen
data_Ca2VFe4BiO12
_symmetry_space_group_name_H-M   'P 1'
_cell_length_a   10.94159315
_cell_length_b   10.96047229
_cell_length_c   10.92554340
_cell_angle_alpha   109.56931967
_cell_angle_beta   109.33630599
_cell_angle_gamma   109.41723823
_symmetry_Int_Tables_number   1
_chemical_formula_structural   Ca2VFe4BiO12
_chemical_formula_sum   'Ca8 V4 Fe16 Bi4 O48'
_cell_volume   1009.75334538
_cell_formula_units_Z   4
loop_
 _symmetry_equiv_pos_site_id
 _symmetry_equiv_pos_as_xyz
  1  'x, y, z'
loop_
 _atom_site_type_symbol
 _atom_site_label
 _atom_site_symmetry_multiplicity
 _atom_site_fract_x
 _atom_site_fract_y
 _atom_site_fract_z
 _atom_site_occupancy
  Ca  Ca0  1  0.25127700  0.87576200  0.62477000  1
  Ca  Ca1  1  0.12847700  0.37406000  0.75240000  1
  Ca  Ca2  1  0.12289500  0.24739600  0.37175100  1
  Ca  Ca3  1  0.24820900  0.37264400  0.12255000  1
  Ca  Ca4  1  0.75179100  0.62735600  0.87745000  1
  Ca  Ca5  1  0.87710500  0.75260400  0.62824900  1
  Ca  Ca6  1  0.87152300  0.62594000  0.24760000  1
  Ca  Ca7  1  0.74872300  0.12423800  0.37523000  1
  V  V8  1  0.00000000  0.00000000  0.50000000  1
  V  V9  1  0.00000000  0.50000000  0.50000000  1
  V  V10  1  0.00000000  0.50000000  0.00000000  1
  V  V11  1  0.50000000  0.50000000  0.50000000  1
  Fe  Fe12  1  0.11955200  0.74780700  0.87296900  1
  Fe  Fe13  1  0.12170500  0.87195100  0.24903600  1
  Fe  Fe14  1  0.25082600  0.62499400  0.37616000  1
  Fe  Fe15  1  0.37186600  0.62304300  0.74801800  1
  Fe  Fe16  1  0.25165300  0.12861500  0.87477700  1
  Fe  Fe17  1  0.50000000  0.00000000  0.50000000  1
  Fe  Fe18  1  0.00000000  0.00000000  0.00000000  1
  Fe  Fe19  1  0.37144100  0.24919900  0.62155300  1
  Fe  Fe20  1  0.62855900  0.75080100  0.37844700  1
  Fe  Fe21  1  0.50000000  0.50000000  0.00000000  1
  Fe  Fe22  1  0.74917400  0.37500600  0.62384000  1
  Fe  Fe23  1  0.62813400  0.37695700  0.25198200  1
  Fe  Fe24  1  0.74834700  0.87138500  0.12522300  1
  Fe  Fe25  1  0.50000000  0.00000000  0.00000000  1
  Fe  Fe26  1  0.87829500  0.12804900  0.75096400  1
  Fe  Fe27  1  0.88044800  0.25219300  0.12703100  1
  Bi  Bi28  1  0.63087400  0.88183400  0.75939300  1
  Bi  Bi29  1  0.38716500  0.75246100  0.12506500  1
  Bi  Bi30  1  0.61283500  0.24753900  0.87493500  1
  Bi  Bi31  1  0.36912600  0.11816600  0.24060700  1
  O  O32  1  0.09508300  0.98412000  0.67087900  1
  O  O33  1  0.10943000  0.59352300  0.92138300  1
  O  O34  1  0.01779000  0.33017800  0.90455100  1
  O  O35  1  0.07707300  0.68913900  0.67089800  1
  O  O36  1  0.07589000  0.88561200  0.40505400  1
  O  O37  1  0.09413400  0.61019200  0.42217600  1
  O  O38  1  0.16999300  0.48054000  0.59366000  1
  O  O39  1  0.41954100  0.82104800  0.79955700  1
  O  O40  1  0.29611400  0.32350600  0.91865600  1
  O  O41  1  0.37643100  0.58284000  0.90359200  1
  O  O42  1  0.02808900  0.20514700  0.12501500  1
  O  O43  1  0.32079600  0.92031800  0.29785200  1
  O  O44  1  0.16978100  0.18937800  0.57400200  1
  O  O45  1  0.18842300  0.57644400  0.17264400  1
  O  O46  1  0.40029300  0.82096200  0.52237800  1
  O  O47  1  0.31369800  0.48527500  0.38928400  1
  O  O48  1  0.31863300  0.90542400  0.02372000  1
  O  O49  1  0.12059900  0.02276600  0.20319600  1
  O  O50  1  0.40719900  0.08466700  0.87682900  1
  O  O51  1  0.51533200  0.60917400  0.68846600  1
  O  O52  1  0.52225200  0.40139600  0.81917700  1
  O  O53  1  0.38489000  0.31076600  0.48045700  1
  O  O54  1  0.20658200  0.12066600  0.02656600  1
  O  O55  1  0.58050700  0.90072100  0.37743100  1
  O  O56  1  0.41949300  0.09927900  0.62256900  1
  O  O57  1  0.79341800  0.87933400  0.97343400  1
  O  O58  1  0.61511000  0.68923400  0.51954300  1
  O  O59  1  0.47774800  0.59860400  0.18082300  1
  O  O60  1  0.48466700  0.39082600  0.31153400  1
  O  O61  1  0.59280100  0.91533300  0.12317100  1
  O  O62  1  0.87940100  0.97723400  0.79680400  1
  O  O63  1  0.68136700  0.09457600  0.97628000  1
  O  O64  1  0.68630200  0.51472500  0.61071600  1
  O  O65  1  0.59970700  0.17903800  0.47762200  1
  O  O66  1  0.81157700  0.42355600  0.82735600  1
  O  O67  1  0.83021900  0.81062200  0.42599800  1
  O  O68  1  0.67920400  0.07968200  0.70214800  1
  O  O69  1  0.97191100  0.79485300  0.87498500  1
  O  O70  1  0.62356900  0.41716000  0.09640800  1
  O  O71  1  0.70388600  0.67649400  0.08134400  1
  O  O72  1  0.58045900  0.17895200  0.20044300  1
  O  O73  1  0.83000700  0.51946000  0.40634000  1
  O  O74  1  0.90586600  0.38980800  0.57782400  1
  O  O75  1  0.92411000  0.11438800  0.59494600  1
  O  O76  1  0.92292700  0.31086100  0.32910200  1
  O  O77  1  0.98221000  0.66982200  0.09544900  1
  O  O78  1  0.89057000  0.40647700  0.07861700  1
  O  O79  1  0.90491700  0.01588000  0.32912100  1
