# generated using pymatgen
data_K6H6S6N2O23
_symmetry_space_group_name_H-M   'P 1'
_cell_length_a   14.88197023
_cell_length_b   14.88197023
_cell_length_c   14.10597368
_cell_angle_alpha   63.78137827
_cell_angle_beta   63.78137827
_cell_angle_gamma   26.56305647
_symmetry_Int_Tables_number   1
_chemical_formula_structural   K6H6S6N2O23
_chemical_formula_sum   'K12 H12 S12 N4 O46'
_cell_volume   1244.80800517
_cell_formula_units_Z   2
loop_
 _symmetry_equiv_pos_site_id
 _symmetry_equiv_pos_as_xyz
  1  'x, y, z'
loop_
 _atom_site_type_symbol
 _atom_site_label
 _atom_site_symmetry_multiplicity
 _atom_site_fract_x
 _atom_site_fract_y
 _atom_site_fract_z
 _atom_site_occupancy
  K  K0  1  0.55678400  0.28103500  0.59371200  1
  K  K1  1  0.28103500  0.55678400  0.09371200  1
  K  K2  1  0.44321600  0.71896500  0.40628800  1
  K  K3  1  0.71896500  0.44321600  0.90628800  1
  K  K4  1  0.78050000  0.07652500  0.26256800  1
  K  K5  1  0.07652500  0.78050000  0.76256800  1
  K  K6  1  0.21950000  0.92347500  0.73743200  1
  K  K7  1  0.92347500  0.21950000  0.23743200  1
  K  K8  1  0.73631700  0.79680600  0.88530900  1
  K  K9  1  0.79680600  0.73631700  0.38530900  1
  K  K10  1  0.26368300  0.20319400  0.11469100  1
  K  K11  1  0.20319400  0.26368300  0.61469100  1
  H  H12  1  0.46811200  0.48953500  0.30915500  1
  H  H13  1  0.48953500  0.46811200  0.80915500  1
  H  H14  1  0.53188800  0.51046500  0.69084500  1
  H  H15  1  0.51046500  0.53188800  0.19084500  1
  H  H16  1  0.11866300  0.54117700  0.70644100  1
  H  H17  1  0.54117700  0.11866300  0.20644100  1
  H  H18  1  0.88133700  0.45882300  0.29355900  1
  H  H19  1  0.45882300  0.88133700  0.79355900  1
  H  H20  1  0.23554100  0.40081000  0.80634400  1
  H  H21  1  0.40081000  0.23554100  0.30634400  1
  H  H22  1  0.76445900  0.59919000  0.19365600  1
  H  H23  1  0.59919000  0.76445900  0.69365600  1
  S  S24  1  0.21979600  0.52804300  0.40357400  1
  S  S25  1  0.52804300  0.21979600  0.90357400  1
  S  S26  1  0.78020400  0.47195700  0.59642600  1
  S  S27  1  0.47195700  0.78020400  0.09642600  1
  S  S28  1  0.07480700  0.81402600  0.47655700  1
  S  S29  1  0.81402600  0.07480700  0.97655700  1
  S  S30  1  0.92519300  0.18597400  0.52344300  1
  S  S31  1  0.18597400  0.92519300  0.02344300  1
  S  S32  1  0.75613200  0.85246100  0.60918300  1
  S  S33  1  0.85246100  0.75613200  0.10918300  1
  S  S34  1  0.24386800  0.14753900  0.39081700  1
  S  S35  1  0.14753900  0.24386800  0.89081700  1
  N  N36  1  0.07200100  0.68935000  0.49723600  1
  N  N37  1  0.68935000  0.07200100  0.99723600  1
  N  N38  1  0.92799900  0.31065000  0.50276400  1
  N  N39  1  0.31065000  0.92799900  0.00276400  1
  O  O40  1  0.15440600  0.48160700  0.43707900  1
  O  O41  1  0.48160700  0.15440600  0.93707900  1
  O  O42  1  0.84559400  0.51839300  0.56292100  1
  O  O43  1  0.51839300  0.84559400  0.06292100  1
  O  O44  1  0.42531900  0.35857700  0.42338600  1
  O  O45  1  0.35857700  0.42531900  0.92338600  1
  O  O46  1  0.57468100  0.64142300  0.57661400  1
  O  O47  1  0.64142300  0.57468100  0.07661400  1
  O  O48  1  0.16783500  0.64266700  0.29790700  1
  O  O49  1  0.64266700  0.16783500  0.79790700  1
  O  O50  1  0.83216500  0.35733300  0.70209300  1
  O  O51  1  0.35733300  0.83216500  0.20209300  1
  O  O52  1  0.96444100  0.90121000  0.57673600  1
  O  O53  1  0.90121000  0.96444100  0.07673600  1
  O  O54  1  0.03555900  0.09879000  0.42326400  1
  O  O55  1  0.09879000  0.03555900  0.92326400  1
  O  O56  1  0.97054000  0.96492600  0.38390000  1
  O  O57  1  0.96492600  0.97054000  0.88390000  1
  O  O58  1  0.02946000  0.03507400  0.61610000  1
  O  O59  1  0.03507400  0.02946000  0.11610000  1
  O  O60  1  0.29077800  0.64698900  0.46413800  1
  O  O61  1  0.64698900  0.29077800  0.96413800  1
  O  O62  1  0.70922200  0.35301100  0.53586200  1
  O  O63  1  0.35301100  0.70922200  0.03586200  1
  O  O64  1  0.92106500  0.64489900  0.66307000  1
  O  O65  1  0.64489900  0.92106500  0.16307000  1
  O  O66  1  0.07893500  0.35510100  0.33693000  1
  O  O67  1  0.35510100  0.07893500  0.83693000  1
  O  O68  1  0.62550000  0.92032200  0.56690100  1
  O  O69  1  0.92032200  0.62550000  0.06690100  1
  O  O70  1  0.37450000  0.07967800  0.43309900  1
  O  O71  1  0.07967800  0.37450000  0.93309900  1
  O  O72  1  0.65122200  0.99651200  0.66644000  1
  O  O73  1  0.99651200  0.65122200  0.16644000  1
  O  O74  1  0.34877800  0.00348800  0.33356000  1
  O  O75  1  0.00348800  0.34877800  0.83356000  1
  O  O76  1  0.86573800  0.84791800  0.49218500  1
  O  O77  1  0.84791800  0.86573800  0.99218500  1
  O  O78  1  0.13426200  0.15208200  0.50781500  1
  O  O79  1  0.15208200  0.13426200  0.00781500  1
  O  O80  1  0.57580600  0.42419400  0.25000000  1
  O  O81  1  0.42419400  0.57580600  0.75000000  1
  O  O82  1  0.18943800  0.50212200  0.74922600  1
  O  O83  1  0.50212200  0.18943800  0.24922600  1
  O  O84  1  0.81056200  0.49787800  0.25077400  1
  O  O85  1  0.49787800  0.81056200  0.75077400  1
