# generated using pymatgen
data_MoH17C5(NO)4
_symmetry_space_group_name_H-M   'P 1'
_cell_length_a   10.99458300
_cell_length_b   11.02256820
_cell_length_c   11.02943834
_cell_angle_alpha   90.02801490
_cell_angle_beta   90.00352208
_cell_angle_gamma   90.01104584
_symmetry_Int_Tables_number   1
_chemical_formula_structural   MoH17C5(NO)4
_chemical_formula_sum   'Mo4 H68 C20 N16 O16'
_cell_volume   1336.64135326
_cell_formula_units_Z   4
loop_
 _symmetry_equiv_pos_site_id
 _symmetry_equiv_pos_as_xyz
  1  'x, y, z'
loop_
 _atom_site_type_symbol
 _atom_site_label
 _atom_site_symmetry_multiplicity
 _atom_site_fract_x
 _atom_site_fract_y
 _atom_site_fract_z
 _atom_site_occupancy
  Mo  Mo0  1  0.50159100  0.49811000  0.99831600  1
  Mo  Mo1  1  0.00163400  0.00181200  0.00146800  1
  Mo  Mo2  1  0.99832400  0.50208000  0.49833500  1
  Mo  Mo3  1  0.49760100  0.99856700  0.50171000  1
  H  H4  1  0.94822800  0.45515800  0.89406500  1
  H  H5  1  0.90096100  0.30359400  0.92905400  1
  H  H6  1  0.79291400  0.42942800  0.93702600  1
  H  H7  1  0.85481300  0.36781000  0.25391700  1
  H  H8  1  0.55172500  0.54485900  0.39395300  1
  H  H9  1  0.59890700  0.69633800  0.42908200  1
  H  H10  1  0.70699700  0.57057200  0.43698200  1
  H  H11  1  0.54472500  0.39381300  0.55190100  1
  H  H12  1  0.69657800  0.42892300  0.59910600  1
  H  H13  1  0.63225600  0.75407800  0.64529000  1
  H  H14  1  0.99731400  0.27021700  0.64485600  1
  H  H15  1  0.57041300  0.43694100  0.70676800  1
  H  H16  1  0.14475900  0.50289600  0.73037100  1
  H  H17  1  0.64514200  0.63231000  0.75408400  1
  H  H18  1  0.99866800  0.16366200  0.76409300  1
  H  H19  1  0.57103700  0.09948200  0.80333100  1
  H  H20  1  0.26412100  0.50058900  0.83671300  1
  H  H21  1  0.24454100  0.15818300  0.87370600  1
  H  H22  1  0.56235400  0.20785600  0.92883400  1
  H  H23  1  0.60564700  0.05283000  0.95478700  1
  H  H24  1  0.26998800  0.64433000  0.99777000  1
  H  H25  1  0.16314800  0.76322700  0.99974300  1
  H  H26  1  0.66339500  0.73581000  0.00135400  1
  H  H27  1  0.76983900  0.85532800  0.00285600  1
  H  H28  1  0.10645900  0.44815700  0.04490700  1
  H  H29  1  0.95530500  0.60622500  0.05201300  1
  H  H30  1  0.06318500  0.29316300  0.07064600  1
  H  H31  1  0.80333400  0.57113000  0.09901100  1
  H  H32  1  0.74551700  0.35483000  0.13233200  1
  H  H33  1  0.86766800  0.24592600  0.14508600  1
  H  H34  1  0.50218400  0.72988600  0.14450700  1
  H  H35  1  0.76384300  0.99902600  0.16314200  1
  H  H36  1  0.07120200  0.40111600  0.19628600  1
  H  H37  1  0.92952500  0.56319000  0.20672000  1
  H  H38  1  0.35549000  0.49762800  0.23016300  1
  H  H39  1  0.50014100  0.83666900  0.26317400  1
  H  H40  1  0.49886900  0.33660000  0.23590300  1
  H  H41  1  0.64438700  0.99736300  0.26970700  1
  H  H42  1  0.07110400  0.06236300  0.29171900  1
  H  H43  1  0.93005800  0.89985400  0.30114700  1
  H  H44  1  0.23657400  0.50013800  0.33683800  1
  H  H45  1  0.49722800  0.23036600  0.35525100  1
  H  H46  1  0.19807800  0.07288900  0.39984200  1
  H  H47  1  0.93752100  0.79001700  0.42825400  1
  H  H48  1  0.04572300  0.10581300  0.44777100  1
  H  H49  1  0.89768600  0.94641700  0.45395800  1
  H  H50  1  0.23010100  0.35585100  0.49748200  1
  H  H51  1  0.33699700  0.23684200  0.49885000  1
  H  H52  1  0.83650200  0.26409500  0.50156700  1
  H  H53  1  0.72981700  0.14478300  0.50296400  1
  H  H54  1  0.39354500  0.55193700  0.54480000  1
  H  H55  1  0.43660200  0.70682100  0.57059500  1
  H  H56  1  0.75436500  0.64513200  0.63243300  1
  H  H57  1  0.73584700  0.00135100  0.66350900  1
  H  H58  1  0.42879400  0.59901200  0.69635800  1
  H  H59  1  0.00110000  0.66327800  0.73652100  1
  H  H60  1  0.36175500  0.14355900  0.74362000  1
  H  H61  1  0.85530400  0.00287100  0.76996200  1
  H  H62  1  0.42987300  0.93605300  0.79366400  1
  H  H63  1  0.00256700  0.76990400  0.85558700  1
  H  H64  1  0.30397700  0.92763100  0.90157100  1
  H  H65  1  0.45656900  0.89193100  0.94910300  1
  H  H66  1  0.29266000  0.07057400  0.06356400  1
  H  H67  1  0.40079900  0.19684500  0.07062800  1
  H  H68  1  0.44801300  0.04518100  0.10589700  1
  H  H69  1  0.20843100  0.92873900  0.56526600  1
  H  H70  1  0.09956900  0.80302400  0.57210200  1
  H  H71  1  0.05239100  0.95574300  0.60804700  1
  C  C72  1  0.88723000  0.39987100  0.94979900  1
  C  C73  1  0.61267300  0.60009800  0.44983600  1
  C  C74  1  0.60008800  0.44968600  0.61273200  1
  C  C75  1  0.86205400  0.13819100  0.63807400  1
  C  C76  1  0.65919900  0.65914000  0.65921600  1
  C  C77  1  0.13869400  0.63850300  0.86194200  1
  C  C78  1  0.54981900  0.11367600  0.89930000  1
  C  C79  1  0.05050000  0.38734000  0.10009900  1
  C  C80  1  0.89982200  0.55038700  0.11269500  1
  C  C81  1  0.63808600  0.86141500  0.13846600  1
  C  C82  1  0.84071900  0.34088200  0.15907000  1
  C  C83  1  0.15000100  0.84130800  0.34168900  1
  C  C84  1  0.36138600  0.36200100  0.36131900  1
  C  C85  1  0.10167500  0.05184300  0.38583000  1
  C  C86  1  0.95071700  0.88364100  0.39711900  1
  C  C87  1  0.44942200  0.61273100  0.60014800  1
  C  C88  1  0.33709000  0.14654300  0.83952500  1
  C  C89  1  0.40071400  0.94718600  0.88806100  1
  C  C90  1  0.38677400  0.10044900  0.05040500  1
  C  C91  1  0.11392200  0.89952500  0.55334000  1
  N  N92  1  0.58030600  0.58032500  0.58035700  1
  N  N93  1  0.96264300  0.19138600  0.68177600  1
  N  N94  1  0.18218100  0.53769700  0.80827300  1
  N  N95  1  0.19214400  0.68226800  0.96186700  1
  N  N96  1  0.69161400  0.81805300  0.03766700  1
  N  N97  1  0.91962200  0.41971200  0.08031600  1
  N  N98  1  0.53789600  0.80791800  0.18225900  1
  N  N99  1  0.68233100  0.96179100  0.19200100  1
  N  N100  1  0.31770000  0.46200900  0.30792200  1
  N  N101  1  0.46226600  0.30828800  0.31776700  1
  N  N102  1  0.08285300  0.92074900  0.42146700  1
  N  N103  1  0.30779700  0.31782600  0.46156700  1
  N  N104  1  0.80875400  0.18149400  0.53736200  1
  N  N105  1  0.81829200  0.03739400  0.69133700  1
  N  N106  1  0.03812100  0.69199100  0.81775500  1
  N  N107  1  0.41888200  0.07924100  0.91964600  1
  O  O108  1  0.41785600  0.45631200  0.86538300  1
  O  O109  1  0.90622000  0.90687200  0.90645300  1
  O  O110  1  0.04496900  0.13467100  0.91723100  1
  O  O111  1  0.63470900  0.58263100  0.95548300  1
  O  O112  1  0.13481000  0.91857000  0.04235000  1
  O  O113  1  0.54474700  0.36515000  0.08255900  1
  O  O114  1  0.40666300  0.59317300  0.09319400  1
  O  O115  1  0.91821700  0.04411800  0.13556700  1
  O  O116  1  0.08122300  0.54460500  0.36543900  1
  O  O117  1  0.59331200  0.09303600  0.40693500  1
  O  O118  1  0.45398300  0.86609700  0.41784900  1
  O  O119  1  0.86544700  0.41716400  0.45581600  1
  O  O120  1  0.36460200  0.08285600  0.54546800  1
  O  O121  1  0.95503200  0.63575400  0.58177900  1
  O  O122  1  0.09331700  0.40658500  0.59305000  1
  O  O123  1  0.58242600  0.95552600  0.63410000  1
