# generated using pymatgen
data_BaAlSi5N7O2
_symmetry_space_group_name_H-M   'P 1'
_cell_length_a   6.79151300
_cell_length_b   6.44768400
_cell_length_c   9.49384018
_cell_angle_alpha   75.37155508
_cell_angle_beta   90.00000000
_cell_angle_gamma   90.00000000
_symmetry_Int_Tables_number   1
_chemical_formula_structural   BaAlSi5N7O2
_chemical_formula_sum   'Ba2 Al2 Si10 N14 O4'
_cell_volume   402.25442957
_cell_formula_units_Z   2
loop_
 _symmetry_equiv_pos_site_id
 _symmetry_equiv_pos_as_xyz
  1  'x, y, z'
loop_
 _atom_site_type_symbol
 _atom_site_label
 _atom_site_symmetry_multiplicity
 _atom_site_fract_x
 _atom_site_fract_y
 _atom_site_fract_z
 _atom_site_occupancy
  Ba  Ba0  1  0.16777700  0.19703500  0.07720000  1
  Ba  Ba1  1  0.83222300  0.19703500  0.57720000  1
  Al  Al2  1  0.46344400  0.38295200  0.75761900  1
  Al  Al3  1  0.53655600  0.38295200  0.25761900  1
  Si  Si4  1  0.33376600  0.86133800  0.81021300  1
  Si  Si5  1  0.66623400  0.86133800  0.31021300  1
  Si  Si6  1  0.31338000  0.92195300  0.44542700  1
  Si  Si7  1  0.68662000  0.92195300  0.94542700  1
  Si  Si8  1  0.04698900  0.80813300  0.94355200  1
  Si  Si9  1  0.00746800  0.53427900  0.24151200  1
  Si  Si10  1  0.95301100  0.80813300  0.44355200  1
  Si  Si11  1  0.99253200  0.53427900  0.74151200  1
  Si  Si12  1  0.71235000  0.57102100  0.91953500  1
  Si  Si13  1  0.28765000  0.57102100  0.41953500  1
  N  N14  1  0.23639100  0.89794500  0.63105400  1
  N  N15  1  0.96825100  0.79708500  0.12578300  1
  N  N16  1  0.76360900  0.89794500  0.13105400  1
  N  N17  1  0.32849400  0.40234500  0.59082300  1
  N  N18  1  0.98950400  0.56213700  0.91953000  1
  N  N19  1  0.03174900  0.79708500  0.62578300  1
  N  N20  1  0.73495600  0.48176400  0.75225300  1
  N  N21  1  0.67150600  0.40234500  0.09082300  1
  N  N22  1  0.50583000  0.06060500  0.34388400  1
  N  N23  1  0.01049600  0.56213700  0.41953000  1
  N  N24  1  0.26504400  0.48176400  0.25225300  1
  N  N25  1  0.49417000  0.06060500  0.84388400  1
  N  N26  1  0.16955600  0.35563300  0.71109700  1
  N  N27  1  0.83044400  0.35563300  0.21109700  1
  O  O28  1  0.57200400  0.60018400  0.36266900  1
  O  O29  1  0.42799600  0.60018400  0.86266900  1
  O  O30  1  0.09651100  0.02395200  0.36784700  1
  O  O31  1  0.90348900  0.02395200  0.86784700  1
