# generated using pymatgen
data_ZnH6C2(NO)4
_symmetry_space_group_name_H-M   'P 1'
_cell_length_a   5.20365200
_cell_length_b   6.95075100
_cell_length_c   9.35014566
_cell_angle_alpha   67.62748004
_cell_angle_beta   90.00000000
_cell_angle_gamma   90.00000000
_symmetry_Int_Tables_number   1
_chemical_formula_structural   ZnH6C2(NO)4
_chemical_formula_sum   'Zn2 H12 C4 N8 O8'
_cell_volume   312.73226257
_cell_formula_units_Z   2
loop_
 _symmetry_equiv_pos_site_id
 _symmetry_equiv_pos_as_xyz
  1  'x, y, z'
loop_
 _atom_site_type_symbol
 _atom_site_label
 _atom_site_symmetry_multiplicity
 _atom_site_fract_x
 _atom_site_fract_y
 _atom_site_fract_z
 _atom_site_occupancy
  Zn  Zn0  1  0.20410900  0.00373600  0.74963600  1
  Zn  Zn1  1  0.79589100  0.00373600  0.24963600  1
  H  H2  1  0.05844300  0.50085700  0.09392500  1
  H  H3  1  0.94155700  0.50085700  0.59392500  1
  H  H4  1  0.96478200  0.64848000  0.80456800  1
  H  H5  1  0.03521800  0.64848000  0.30456800  1
  H  H6  1  0.82239700  0.76723800  0.90903600  1
  H  H7  1  0.17760300  0.76723800  0.40903600  1
  H  H8  1  0.41752800  0.37135200  0.34363300  1
  H  H9  1  0.58247200  0.37135200  0.84363300  1
  H  H10  1  0.60720200  0.07701300  0.55626000  1
  H  H11  1  0.39279800  0.07701300  0.05626000  1
  H  H12  1  0.56643000  0.28099900  0.60641300  1
  H  H13  1  0.43357000  0.28099900  0.10641300  1
  C  C14  1  0.37989800  0.68894400  0.02880900  1
  C  C15  1  0.62010200  0.68894400  0.52880900  1
  C  C16  1  0.10609400  0.17222900  0.42558900  1
  C  C17  1  0.89390600  0.17222900  0.92558900  1
  N  N18  1  0.14862200  0.61011000  0.00127300  1
  N  N19  1  0.85137800  0.61011000  0.50127300  1
  N  N20  1  0.99775300  0.73047900  0.87344600  1
  N  N21  1  0.00224700  0.73047900  0.37344600  1
  N  N22  1  0.32550500  0.27215500  0.44180500  1
  N  N23  1  0.67449500  0.27215500  0.94180500  1
  N  N24  1  0.47120500  0.17103200  0.57792700  1
  N  N25  1  0.52879500  0.17103200  0.07792700  1
  O  O26  1  0.46814800  0.85656400  0.92130200  1
  O  O27  1  0.53185200  0.85656400  0.42130200  1
  O  O28  1  0.49584400  0.58797400  0.15310400  1
  O  O29  1  0.50415600  0.58797400  0.65310400  1
  O  O30  1  0.00884400  0.03100000  0.54445100  1
  O  O31  1  0.99115600  0.03100000  0.04445100  1
  O  O32  1  0.00721600  0.23123600  0.28882200  1
  O  O33  1  0.99278400  0.23123600  0.78882200  1
