# generated using pymatgen
data_H9OsN7Cl2
_symmetry_space_group_name_H-M   'P 1'
_cell_length_a   6.93211300
_cell_length_b   9.66534600
_cell_length_c   13.72943400
_cell_angle_alpha   90.00000000
_cell_angle_beta   90.00000000
_cell_angle_gamma   90.00000000
_symmetry_Int_Tables_number   1
_chemical_formula_structural   H9OsN7Cl2
_chemical_formula_sum   'H36 Os4 N28 Cl8'
_cell_volume   919.88952339
_cell_formula_units_Z   4
loop_
 _symmetry_equiv_pos_site_id
 _symmetry_equiv_pos_as_xyz
  1  'x, y, z'
loop_
 _atom_site_type_symbol
 _atom_site_label
 _atom_site_symmetry_multiplicity
 _atom_site_fract_x
 _atom_site_fract_y
 _atom_site_fract_z
 _atom_site_occupancy
  H  H0  1  0.94224500  0.25000000  0.54342800  1
  H  H1  1  0.55775500  0.25000000  0.04342800  1
  H  H2  1  0.05775500  0.75000000  0.45657200  1
  H  H3  1  0.44224500  0.75000000  0.95657200  1
  H  H4  1  0.07804600  0.33734600  0.46352700  1
  H  H5  1  0.42195400  0.16265400  0.96352700  1
  H  H6  1  0.92195400  0.83734600  0.53647300  1
  H  H7  1  0.57804600  0.66265400  0.03647300  1
  H  H8  1  0.92195400  0.66265400  0.53647300  1
  H  H9  1  0.57804600  0.83734600  0.03647300  1
  H  H10  1  0.07804600  0.16265400  0.46352700  1
  H  H11  1  0.42195400  0.33734600  0.96352700  1
  H  H12  1  0.16672900  0.25000000  0.79035200  1
  H  H13  1  0.33327100  0.25000000  0.29035200  1
  H  H14  1  0.83327100  0.75000000  0.20964800  1
  H  H15  1  0.66672900  0.75000000  0.70964800  1
  H  H16  1  0.01688700  0.33776100  0.71790500  1
  H  H17  1  0.48311300  0.16223900  0.21790500  1
  H  H18  1  0.98311300  0.83776100  0.28209500  1
  H  H19  1  0.51688700  0.66223900  0.78209500  1
  H  H20  1  0.98311300  0.66223900  0.28209500  1
  H  H21  1  0.51688700  0.83776100  0.78209500  1
  H  H22  1  0.01688700  0.16223900  0.71790500  1
  H  H23  1  0.48311300  0.33776100  0.21790500  1
  H  H24  1  0.48803400  0.25000000  0.78424200  1
  H  H25  1  0.01196600  0.25000000  0.28424200  1
  H  H26  1  0.51196600  0.75000000  0.21575800  1
  H  H27  1  0.98803400  0.75000000  0.71575800  1
  H  H28  1  0.62560000  0.33730300  0.70523300  1
  H  H29  1  0.87440000  0.16269700  0.20523300  1
  H  H30  1  0.37440000  0.83730300  0.29476700  1
  H  H31  1  0.12560000  0.66269700  0.79476700  1
  H  H32  1  0.37440000  0.66269700  0.29476700  1
  H  H33  1  0.12560000  0.83730300  0.79476700  1
  H  H34  1  0.62560000  0.16269700  0.70523300  1
  H  H35  1  0.87440000  0.33730300  0.20523300  1
  Os  Os36  1  0.30838600  0.25000000  0.60961200  1
  Os  Os37  1  0.19161400  0.25000000  0.10961200  1
  Os  Os38  1  0.69161400  0.75000000  0.39038800  1
  Os  Os39  1  0.80838600  0.75000000  0.89038800  1
  N  N40  1  0.50573200  0.25000000  0.49907300  1
  N  N41  1  0.99426800  0.25000000  0.99907300  1
  N  N42  1  0.49426800  0.75000000  0.50092700  1
  N  N43  1  0.00573200  0.75000000  0.00092700  1
  N  N44  1  0.61493200  0.25000000  0.43925500  1
  N  N45  1  0.88506800  0.25000000  0.93925500  1
  N  N46  1  0.38506800  0.75000000  0.56074500  1
  N  N47  1  0.11493200  0.75000000  0.06074500  1
  N  N48  1  0.07121900  0.25000000  0.50738200  1
  N  N49  1  0.42878100  0.25000000  0.00738200  1
  N  N50  1  0.92878100  0.75000000  0.49261800  1
  N  N51  1  0.57121900  0.75000000  0.99261800  1
  N  N52  1  0.10232200  0.25000000  0.72329400  1
  N  N53  1  0.39767800  0.25000000  0.22329400  1
  N  N54  1  0.89767800  0.75000000  0.27670600  1
  N  N55  1  0.60232200  0.75000000  0.77670600  1
  N  N56  1  0.54029700  0.25000000  0.71479200  1
  N  N57  1  0.95970300  0.25000000  0.21479200  1
  N  N58  1  0.45970300  0.75000000  0.28520800  1
  N  N59  1  0.04029700  0.75000000  0.78520800  1
  N  N60  1  0.31090200  0.06358700  0.60866600  1
  N  N61  1  0.18909800  0.43641300  0.10866600  1
  N  N62  1  0.68909800  0.56358700  0.39133400  1
  N  N63  1  0.81090200  0.93641300  0.89133400  1
  N  N64  1  0.68909800  0.93641300  0.39133400  1
  N  N65  1  0.81090200  0.56358700  0.89133400  1
  N  N66  1  0.31090200  0.43641300  0.60866600  1
  N  N67  1  0.18909800  0.06358700  0.10866600  1
  Cl  Cl68  1  0.81875900  0.00068400  0.64141400  1
  Cl  Cl69  1  0.68124100  0.49931600  0.14141400  1
  Cl  Cl70  1  0.18124100  0.50068400  0.35858600  1
  Cl  Cl71  1  0.31875900  0.99931600  0.85858600  1
  Cl  Cl72  1  0.18124100  0.99931600  0.35858600  1
  Cl  Cl73  1  0.31875900  0.50068400  0.85858600  1
  Cl  Cl74  1  0.81875900  0.49931600  0.64141400  1
  Cl  Cl75  1  0.68124100  0.00068400  0.14141400  1
