# generated using pymatgen
data_Co(IO3)2
_symmetry_space_group_name_H-M   'P 1'
_cell_length_a   5.50524746
_cell_length_b   5.50524746
_cell_length_c   4.53985600
_cell_angle_alpha   90.00000000
_cell_angle_beta   90.00000000
_cell_angle_gamma   119.99999353
_symmetry_Int_Tables_number   1
_chemical_formula_structural   Co(IO3)2
_chemical_formula_sum   'Co1 I2 O6'
_cell_volume   119.15888433
_cell_formula_units_Z   1
loop_
 _symmetry_equiv_pos_site_id
 _symmetry_equiv_pos_as_xyz
  1  'x, y, z'
loop_
 _atom_site_type_symbol
 _atom_site_label
 _atom_site_symmetry_multiplicity
 _atom_site_fract_x
 _atom_site_fract_y
 _atom_site_fract_z
 _atom_site_occupancy
  Co  Co0  1  0.00000000  0.00000000  0.00000000  1
  I  I1  1  0.66666700  0.33333300  0.50000000  1
  I  I2  1  0.33333300  0.66666700  0.50000000  1
  O  O3  1  0.65688700  0.00000000  0.74363600  1
  O  O4  1  0.34311300  0.34311300  0.74363600  1
  O  O5  1  0.00000000  0.65688700  0.74363600  1
  O  O6  1  0.34311300  0.00000000  0.25636400  1
  O  O7  1  0.65688700  0.65688700  0.25636400  1
  O  O8  1  0.00000000  0.34311300  0.25636400  1
