# generated using pymatgen
data_SnH12Pt(N2Cl3)2
_symmetry_space_group_name_H-M   'P 1'
_cell_length_a   8.24033232
_cell_length_b   8.24033232
_cell_length_c   10.60993100
_cell_angle_alpha   90.00000000
_cell_angle_beta   90.00000000
_cell_angle_gamma   94.20566035
_symmetry_Int_Tables_number   1
_chemical_formula_structural   SnH12Pt(N2Cl3)2
_chemical_formula_sum   'Sn2 H24 Pt2 N8 Cl12'
_cell_volume   718.50696675
_cell_formula_units_Z   2
loop_
 _symmetry_equiv_pos_site_id
 _symmetry_equiv_pos_as_xyz
  1  'x, y, z'
loop_
 _atom_site_type_symbol
 _atom_site_label
 _atom_site_symmetry_multiplicity
 _atom_site_fract_x
 _atom_site_fract_y
 _atom_site_fract_z
 _atom_site_occupancy
  Sn  Sn0  1  0.00000000  0.00000000  0.50000000  1
  Sn  Sn1  1  0.50000000  0.50000000  0.00000000  1
  H  H2  1  0.57522500  0.28682300  0.33112100  1
  H  H3  1  0.71317700  0.42477500  0.66887900  1
  H  H4  1  0.21317700  0.92477500  0.83112100  1
  H  H5  1  0.07522500  0.78682300  0.16887900  1
  H  H6  1  0.42477500  0.71317700  0.66887900  1
  H  H7  1  0.28682300  0.57522500  0.33112100  1
  H  H8  1  0.78682300  0.07522500  0.16887900  1
  H  H9  1  0.92477500  0.21317700  0.83112100  1
  H  H10  1  0.59246400  0.20440900  0.47283900  1
  H  H11  1  0.79559100  0.40753600  0.52716100  1
  H  H12  1  0.29559100  0.90753600  0.97283900  1
  H  H13  1  0.09246400  0.70440900  0.02716100  1
  H  H14  1  0.40753600  0.79559100  0.52716100  1
  H  H15  1  0.20440900  0.59246400  0.47283900  1
  H  H16  1  0.70440900  0.09246400  0.02716100  1
  H  H17  1  0.90753600  0.29559100  0.97283900  1
  H  H18  1  0.41275100  0.20678000  0.40663100  1
  H  H19  1  0.79322000  0.58724900  0.59336900  1
  H  H20  1  0.29322000  0.08724900  0.90663100  1
  H  H21  1  0.91275100  0.70678000  0.09336900  1
  H  H22  1  0.58724900  0.79322000  0.59336900  1
  H  H23  1  0.20678000  0.41275100  0.40663100  1
  H  H24  1  0.70678000  0.91275100  0.09336900  1
  H  H25  1  0.08724900  0.29322000  0.90663100  1
  Pt  Pt26  1  0.50000000  0.50000000  0.50000000  1
  Pt  Pt27  1  0.00000000  0.00000000  0.00000000  1
  N  N28  1  0.52120900  0.27455600  0.41851500  1
  N  N29  1  0.72544400  0.47879100  0.58148500  1
  N  N30  1  0.22544400  0.97879100  0.91851500  1
  N  N31  1  0.02120900  0.77455600  0.08148500  1
  N  N32  1  0.47879100  0.72544400  0.58148500  1
  N  N33  1  0.27455600  0.52120900  0.41851500  1
  N  N34  1  0.77455600  0.02120900  0.08148500  1
  N  N35  1  0.97879100  0.22544400  0.91851500  1
  Cl  Cl36  1  0.76420100  0.05927500  0.63561100  1
  Cl  Cl37  1  0.94072500  0.23579900  0.36438900  1
  Cl  Cl38  1  0.44072500  0.73579900  0.13561100  1
  Cl  Cl39  1  0.26420100  0.55927500  0.86438900  1
  Cl  Cl40  1  0.23579900  0.94072500  0.36438900  1
  Cl  Cl41  1  0.05927500  0.76420100  0.63561100  1
  Cl  Cl42  1  0.55927500  0.26420100  0.86438900  1
  Cl  Cl43  1  0.73579900  0.44072500  0.13561100  1
  Cl  Cl44  1  0.81802800  0.81802800  0.37284400  1
  Cl  Cl45  1  0.18197200  0.18197200  0.62715600  1
  Cl  Cl46  1  0.68197200  0.68197200  0.87284400  1
  Cl  Cl47  1  0.31802800  0.31802800  0.12715600  1
