# generated using pymatgen
data_H2S2O7
_symmetry_space_group_name_H-M   'P 1'
_cell_length_a   10.25415928
_cell_length_b   10.25415928
_cell_length_c   13.04641305
_cell_angle_alpha   77.31415889
_cell_angle_beta   77.31415889
_cell_angle_gamma   101.01069331
_symmetry_Int_Tables_number   1
_chemical_formula_structural   H2S2O7
_chemical_formula_sum   'H16 S16 O56'
_cell_volume   1263.73173258
_cell_formula_units_Z   8
loop_
 _symmetry_equiv_pos_site_id
 _symmetry_equiv_pos_as_xyz
  1  'x, y, z'
loop_
 _atom_site_type_symbol
 _atom_site_label
 _atom_site_symmetry_multiplicity
 _atom_site_fract_x
 _atom_site_fract_y
 _atom_site_fract_z
 _atom_site_occupancy
  H  H0  1  0.19129800  0.03181700  0.39336500  1
  H  H1  1  0.96818300  0.80870200  0.10663500  1
  H  H2  1  0.80870200  0.96818300  0.60663500  1
  H  H3  1  0.03181700  0.19129800  0.89336500  1
  H  H4  1  0.03754400  0.37664700  0.10230500  1
  H  H5  1  0.62335300  0.96245600  0.39769500  1
  H  H6  1  0.96245600  0.62335300  0.89769500  1
  H  H7  1  0.37664700  0.03754400  0.60230500  1
  H  H8  1  0.16565700  0.54766300  0.40754600  1
  H  H9  1  0.45233700  0.83434300  0.09245400  1
  H  H10  1  0.83434300  0.45233700  0.59245400  1
  H  H11  1  0.54766300  0.16565700  0.90754600  1
  H  H12  1  0.42774800  0.54754700  0.93987600  1
  H  H13  1  0.45245300  0.57225200  0.56012400  1
  H  H14  1  0.57225200  0.45245300  0.06012400  1
  H  H15  1  0.54754700  0.42774800  0.43987600  1
  S  S16  1  0.18860700  0.35927400  0.36105200  1
  S  S17  1  0.64072600  0.81139300  0.13894800  1
  S  S18  1  0.81139300  0.64072600  0.63894800  1
  S  S19  1  0.35927400  0.18860700  0.86105200  1
  S  S20  1  0.36088800  0.36086900  0.15317800  1
  S  S21  1  0.63913100  0.63911200  0.34682200  1
  S  S22  1  0.63911200  0.63913100  0.84682200  1
  S  S23  1  0.36086900  0.36088800  0.65317800  1
  S  S24  1  0.83436700  0.18520400  0.85652300  1
  S  S25  1  0.81479600  0.16563300  0.64347700  1
  S  S26  1  0.16563300  0.81479600  0.14347700  1
  S  S27  1  0.18520400  0.83436700  0.35652300  1
  S  S28  1  0.81390100  0.34708300  0.13292200  1
  S  S29  1  0.65291700  0.18609900  0.36707800  1
  S  S30  1  0.18609900  0.65291700  0.86707800  1
  S  S31  1  0.34708300  0.81390100  0.63292200  1
  O  O32  1  0.32931000  0.43296000  0.25257500  1
  O  O33  1  0.56704000  0.67069000  0.24742500  1
  O  O34  1  0.67069000  0.56704000  0.74742500  1
  O  O35  1  0.43296000  0.32931000  0.75257500  1
  O  O36  1  0.87610500  0.12389500  0.75000000  1
  O  O37  1  0.12389500  0.87610500  0.25000000  1
  O  O38  1  0.78172000  0.21828000  0.25000000  1
  O  O39  1  0.21828000  0.78172000  0.75000000  1
  O  O40  1  0.06900300  0.35782000  0.32185100  1
  O  O41  1  0.64218000  0.93099700  0.17814900  1
  O  O42  1  0.93099700  0.64218000  0.67814900  1
  O  O43  1  0.35782000  0.06900300  0.82185100  1
  O  O44  1  0.21503900  0.23823600  0.42194400  1
  O  O45  1  0.76176400  0.78496100  0.07805600  1
  O  O46  1  0.78496100  0.76176400  0.57805600  1
  O  O47  1  0.23823600  0.21503900  0.92194400  1
  O  O48  1  0.21613700  0.47349500  0.42083000  1
  O  O49  1  0.52650500  0.78386300  0.07917000  1
  O  O50  1  0.78386300  0.52650500  0.57917000  1
  O  O51  1  0.47349500  0.21613700  0.92083000  1
  O  O52  1  0.33080000  0.44729600  0.06177600  1
  O  O53  1  0.55270400  0.66920000  0.43822400  1
  O  O54  1  0.66920000  0.55270400  0.93822400  1
  O  O55  1  0.44729600  0.33080000  0.56177600  1
  O  O56  1  0.51946500  0.38427400  0.13292200  1
  O  O57  1  0.61572600  0.48053500  0.36707800  1
  O  O58  1  0.48053500  0.61572600  0.86707800  1
  O  O59  1  0.38427400  0.51946500  0.63292200  1
  O  O60  1  0.29443100  0.21735200  0.19215600  1
  O  O61  1  0.78264800  0.70556900  0.30784400  1
  O  O62  1  0.70556900  0.78264800  0.80784400  1
  O  O63  1  0.21735200  0.29443100  0.69215600  1
  O  O64  1  0.69851700  0.10396000  0.92023100  1
  O  O65  1  0.89604000  0.30148300  0.57976900  1
  O  O66  1  0.30148300  0.89604000  0.07976900  1
  O  O67  1  0.10396000  0.69851700  0.42023100  1
  O  O68  1  0.86273500  0.33199800  0.81942700  1
  O  O69  1  0.66800200  0.13726500  0.68057300  1
  O  O70  1  0.13726500  0.66800200  0.18057300  1
  O  O71  1  0.33199800  0.86273500  0.31942700  1
  O  O72  1  0.93614300  0.13169400  0.91735800  1
  O  O73  1  0.86830600  0.06385700  0.58264200  1
  O  O74  1  0.06385700  0.86830600  0.08264200  1
  O  O75  1  0.13169400  0.93614300  0.41735800  1
  O  O76  1  0.95707800  0.05271000  0.20142800  1
  O  O77  1  0.94729000  0.04292200  0.29857200  1
  O  O78  1  0.04292200  0.94729000  0.79857200  1
  O  O79  1  0.05271000  0.95707800  0.70142800  1
  O  O80  1  0.96390000  0.32637100  0.07762700  1
  O  O81  1  0.67362900  0.03610000  0.42237300  1
  O  O82  1  0.03610000  0.67362900  0.92237300  1
  O  O83  1  0.32637100  0.96390000  0.57762700  1
  O  O84  1  0.83405300  0.47734400  0.16152100  1
  O  O85  1  0.52265600  0.16594700  0.33847900  1
  O  O86  1  0.16594700  0.52265600  0.83847900  1
  O  O87  1  0.47734400  0.83405300  0.66152100  1
