# generated using pymatgen
data_Er(Al2Mo)2
_symmetry_space_group_name_H-M   'P 1'
_cell_length_a   5.45453647
_cell_length_b   5.45453647
_cell_length_c   5.45453647
_cell_angle_alpha   103.90276404
_cell_angle_beta   103.90276404
_cell_angle_gamma   121.29538310
_symmetry_Int_Tables_number   1
_chemical_formula_structural   Er(Al2Mo)2
_chemical_formula_sum   'Er1 Al4 Mo2'
_cell_volume   120.86880076
_cell_formula_units_Z   1
loop_
 _symmetry_equiv_pos_site_id
 _symmetry_equiv_pos_as_xyz
  1  'x, y, z'
loop_
 _atom_site_type_symbol
 _atom_site_label
 _atom_site_symmetry_multiplicity
 _atom_site_fract_x
 _atom_site_fract_y
 _atom_site_fract_z
 _atom_site_occupancy
  Er  Er0  1  0.00000000  0.00000000  0.00000000  1
  Al  Al1  1  0.30552700  0.30552700  0.61105500  1
  Al  Al2  1  0.69447300  0.69447300  0.38894500  1
  Al  Al3  1  0.69447300  0.30552700  0.00000000  1
  Al  Al4  1  0.30552700  0.69447300  0.00000000  1
  Mo  Mo5  1  0.25000000  0.75000000  0.50000000  1
  Mo  Mo6  1  0.75000000  0.25000000  0.50000000  1
