# generated using pymatgen
data_As2PHO6
_symmetry_space_group_name_H-M   'P 1'
_cell_length_a   11.22291700
_cell_length_b   4.94662700
_cell_length_c   11.85549504
_cell_angle_alpha   72.22489608
_cell_angle_beta   90.00000000
_cell_angle_gamma   90.00000000
_symmetry_Int_Tables_number   1
_chemical_formula_structural   As2PHO6
_chemical_formula_sum   'As8 P4 H4 O24'
_cell_volume   626.74535351
_cell_formula_units_Z   4
loop_
 _symmetry_equiv_pos_site_id
 _symmetry_equiv_pos_as_xyz
  1  'x, y, z'
loop_
 _atom_site_type_symbol
 _atom_site_label
 _atom_site_symmetry_multiplicity
 _atom_site_fract_x
 _atom_site_fract_y
 _atom_site_fract_z
 _atom_site_occupancy
  As  As0  1  0.60370200  0.59077300  0.65691800  1
  As  As1  1  0.89629800  0.59077300  0.15691800  1
  As  As2  1  0.39629800  0.40922700  0.34308200  1
  As  As3  1  0.10370200  0.40922700  0.84308200  1
  As  As4  1  0.64000900  0.83707900  0.87659200  1
  As  As5  1  0.85999100  0.83707900  0.37659200  1
  As  As6  1  0.35999100  0.16292100  0.12340800  1
  As  As7  1  0.14000900  0.16292100  0.62340800  1
  P  P8  1  0.82020600  0.36159700  0.85086900  1
  P  P9  1  0.67979400  0.36159700  0.35086900  1
  P  P10  1  0.17979400  0.63840300  0.14913100  1
  P  P11  1  0.32020600  0.63840300  0.64913100  1
  H  H12  1  0.46434600  0.35557400  0.80339300  1
  H  H13  1  0.03565400  0.35557400  0.30339300  1
  H  H14  1  0.53565400  0.64442600  0.19660700  1
  H  H15  1  0.96434600  0.64442600  0.69660700  1
  O  O16  1  0.55339600  0.33363200  0.79721600  1
  O  O17  1  0.94660400  0.33363200  0.29721600  1
  O  O18  1  0.44660400  0.66636800  0.20278400  1
  O  O19  1  0.05339600  0.66636800  0.70278400  1
  O  O20  1  0.62004900  0.88382800  0.72035200  1
  O  O21  1  0.87995100  0.88382800  0.22035200  1
  O  O22  1  0.37995100  0.11617200  0.27964800  1
  O  O23  1  0.12004900  0.11617200  0.77964800  1
  O  O24  1  0.77722600  0.04500300  0.87453900  1
  O  O25  1  0.72277400  0.04500300  0.37453900  1
  O  O26  1  0.22277400  0.95499700  0.12546100  1
  O  O27  1  0.27722600  0.95499700  0.62546100  1
  O  O28  1  0.94667900  0.32311800  0.90912400  1
  O  O29  1  0.55332100  0.32311800  0.40912400  1
  O  O30  1  0.05332100  0.67688200  0.09087600  1
  O  O31  1  0.44667900  0.67688200  0.59087600  1
  O  O32  1  0.23834200  0.49585300  0.57574300  1
  O  O33  1  0.26165800  0.49585300  0.07574300  1
  O  O34  1  0.76165800  0.50414700  0.42425700  1
  O  O35  1  0.73834200  0.50414700  0.92425700  1
  O  O36  1  0.82299000  0.52511700  0.72043100  1
  O  O37  1  0.67701000  0.52511700  0.22043100  1
  O  O38  1  0.17701000  0.47488300  0.27956900  1
  O  O39  1  0.32299000  0.47488300  0.77956900  1
