# generated using pymatgen
data_K3HPtS2(ClO3)2
_symmetry_space_group_name_H-M   'P 1'
_cell_length_a   9.32406716
_cell_length_b   9.32406716
_cell_length_c   7.14976800
_cell_angle_alpha   90.00000000
_cell_angle_beta   90.00000000
_cell_angle_gamma   110.30669581
_symmetry_Int_Tables_number   1
_chemical_formula_structural   K3HPtS2(ClO3)2
_chemical_formula_sum   'K6 H2 Pt2 S4 Cl4 O12'
_cell_volume   582.95545421
_cell_formula_units_Z   2
loop_
 _symmetry_equiv_pos_site_id
 _symmetry_equiv_pos_as_xyz
  1  'x, y, z'
loop_
 _atom_site_type_symbol
 _atom_site_label
 _atom_site_symmetry_multiplicity
 _atom_site_fract_x
 _atom_site_fract_y
 _atom_site_fract_z
 _atom_site_occupancy
  K  K0  1  0.42009000  0.85993900  0.10100200  1
  K  K1  1  0.85993900  0.42009000  0.10100200  1
  K  K2  1  0.57991000  0.14006100  0.60100200  1
  K  K3  1  0.14006100  0.57991000  0.60100200  1
  K  K4  1  0.87652800  0.87652800  0.28258200  1
  K  K5  1  0.12347200  0.12347200  0.78258200  1
  H  H6  1  0.51516400  0.51516400  0.53346500  1
  H  H7  1  0.48483600  0.48483600  0.03346500  1
  Pt  Pt8  1  0.75491500  0.75491500  0.74946700  1
  Pt  Pt9  1  0.24508500  0.24508500  0.24946700  1
  S  S10  1  0.54305500  0.76144900  0.59806900  1
  S  S11  1  0.76144900  0.54305500  0.59806800  1
  S  S12  1  0.45694500  0.23855100  0.09806900  1
  S  S13  1  0.23855100  0.45694500  0.09806900  1
  Cl  Cl14  1  0.77095800  0.98975800  0.90410100  1
  Cl  Cl15  1  0.98975800  0.77095800  0.90410100  1
  Cl  Cl16  1  0.22904200  0.01024200  0.40410100  1
  Cl  Cl17  1  0.01024200  0.22904200  0.40410100  1
  O  O18  1  0.44276400  0.82013100  0.71152200  1
  O  O19  1  0.82013100  0.44276400  0.71152200  1
  O  O20  1  0.55723600  0.17986900  0.21152100  1
  O  O21  1  0.17986900  0.55723600  0.21152100  1
  O  O22  1  0.59629100  0.85821600  0.42757800  1
  O  O23  1  0.85821600  0.59629100  0.42757800  1
  O  O24  1  0.40370900  0.14178400  0.92757800  1
  O  O25  1  0.14178400  0.40370900  0.92757800  1
  O  O26  1  0.44228500  0.59919200  0.53612200  1
  O  O27  1  0.59919200  0.44228500  0.53612200  1
  O  O28  1  0.55771500  0.40080800  0.03612200  1
  O  O29  1  0.40080800  0.55771500  0.03612200  1
