# generated using pymatgen
data_FeBiC6(N3O2)2
_symmetry_space_group_name_H-M   'P 1'
_cell_length_a   8.05454236
_cell_length_b   8.05454236
_cell_length_c   13.92450400
_cell_angle_alpha   90.00000000
_cell_angle_beta   90.00000000
_cell_angle_gamma   122.53417870
_symmetry_Int_Tables_number   1
_chemical_formula_structural   FeBiC6(N3O2)2
_chemical_formula_sum   'Fe2 Bi2 C12 N12 O8'
_cell_volume   761.59750248
_cell_formula_units_Z   2
loop_
 _symmetry_equiv_pos_site_id
 _symmetry_equiv_pos_as_xyz
  1  'x, y, z'
loop_
 _atom_site_type_symbol
 _atom_site_label
 _atom_site_symmetry_multiplicity
 _atom_site_fract_x
 _atom_site_fract_y
 _atom_site_fract_z
 _atom_site_occupancy
  Fe  Fe0  1  0.00000000  0.00000000  0.50000000  1
  Fe  Fe1  1  0.00000000  0.00000000  0.00000000  1
  Bi  Bi2  1  0.66576000  0.33424000  0.25000000  1
  Bi  Bi3  1  0.33424000  0.66576000  0.75000000  1
  C  C4  1  0.74994500  0.85131200  0.90271000  1
  C  C5  1  0.85131200  0.74994500  0.09729000  1
  C  C6  1  0.74994500  0.85131200  0.59729000  1
  C  C7  1  0.85131200  0.74994500  0.40271000  1
  C  C8  1  0.25005500  0.14868800  0.09729000  1
  C  C9  1  0.14868800  0.25005500  0.90271000  1
  C  C10  1  0.25005500  0.14868800  0.40271000  1
  C  C11  1  0.14868800  0.25005500  0.59729000  1
  C  C12  1  0.86191600  0.13808400  0.43158100  1
  C  C13  1  0.13808400  0.86191600  0.56841900  1
  C  C14  1  0.86191600  0.13808400  0.06841900  1
  C  C15  1  0.13808400  0.86191600  0.93158100  1
  N  N16  1  0.38867000  0.22343600  0.35294700  1
  N  N17  1  0.22343600  0.38867000  0.64705300  1
  N  N18  1  0.38867000  0.22343600  0.14705300  1
  N  N19  1  0.22343600  0.38867000  0.85294700  1
  N  N20  1  0.61133000  0.77656400  0.64705300  1
  N  N21  1  0.77656400  0.61133000  0.35294700  1
  N  N22  1  0.61133000  0.77656400  0.85294700  1
  N  N23  1  0.77656400  0.61133000  0.14705300  1
  N  N24  1  0.78927100  0.21072900  0.39092300  1
  N  N25  1  0.21072900  0.78927100  0.60907700  1
  N  N26  1  0.78927100  0.21072900  0.10907700  1
  N  N27  1  0.21072900  0.78927100  0.89092300  1
  O  O28  1  0.42960100  0.83297700  0.25000000  1
  O  O29  1  0.83297700  0.42960100  0.75000000  1
  O  O30  1  0.57039900  0.16702300  0.75000000  1
  O  O31  1  0.16702300  0.57039900  0.25000000  1
  O  O32  1  0.67607000  0.32393000  0.82321500  1
  O  O33  1  0.32393000  0.67607000  0.17678500  1
  O  O34  1  0.67607000  0.32393000  0.67678500  1
  O  O35  1  0.32393000  0.67607000  0.32321500  1
