# generated using pymatgen
data_CaAl2Si3H6O13
_symmetry_space_group_name_H-M   'P 1'
_cell_length_a   10.13741558
_cell_length_b   10.13741558
_cell_length_c   9.90454824
_cell_angle_alpha   83.88378729
_cell_angle_beta   83.88378729
_cell_angle_gamma   142.16123228
_symmetry_Int_Tables_number   1
_chemical_formula_structural   CaAl2Si3H6O13
_chemical_formula_sum   'Ca2 Al4 Si6 H12 O26'
_cell_volume   589.72516858
_cell_formula_units_Z   2
loop_
 _symmetry_equiv_pos_site_id
 _symmetry_equiv_pos_as_xyz
  1  'x, y, z'
loop_
 _atom_site_type_symbol
 _atom_site_label
 _atom_site_symmetry_multiplicity
 _atom_site_fract_x
 _atom_site_fract_y
 _atom_site_fract_z
 _atom_site_occupancy
  Ca  Ca0  1  0.15784500  0.37167200  0.94790600  1
  Ca  Ca1  1  0.37167200  0.15784500  0.44790600  1
  Al  Al2  1  0.41739100  0.48453900  0.56659500  1
  Al  Al3  1  0.48453900  0.41739100  0.06659500  1
  Al  Al4  1  0.32758200  0.75050200  0.39994800  1
  Al  Al5  1  0.75050200  0.32758200  0.89994800  1
  Si  Si6  1  0.75153300  0.99323600  0.50260500  1
  Si  Si7  1  0.99323600  0.75153300  0.00260500  1
  Si  Si8  1  0.42639200  0.26314900  0.80077000  1
  Si  Si9  1  0.26314900  0.42639200  0.30077000  1
  Si  Si10  1  0.33272500  0.99723900  0.16866800  1
  Si  Si11  1  0.99723900  0.33272500  0.66866800  1
  H  H12  1  0.87019200  0.81162500  0.55092100  1
  H  H13  1  0.81162500  0.87019200  0.05092100  1
  H  H14  1  0.89536400  0.68824900  0.62539100  1
  H  H15  1  0.68824900  0.89536400  0.12539100  1
  H  H16  1  0.88083700  0.56534500  0.30884700  1
  H  H17  1  0.56534500  0.88083700  0.80884700  1
  H  H18  1  0.83561100  0.43750900  0.45470600  1
  H  H19  1  0.43750900  0.83561100  0.95470600  1
  H  H20  1  0.29635400  0.91523100  0.72439400  1
  H  H21  1  0.91523100  0.29635400  0.22439400  1
  H  H22  1  0.44517400  0.95675800  0.59230200  1
  H  H23  1  0.95675800  0.44517400  0.09230200  1
  O  O24  1  0.67854800  0.77790900  0.53093300  1
  O  O25  1  0.77790900  0.67854800  0.03093300  1
  O  O26  1  0.55295500  0.92740200  0.47328300  1
  O  O27  1  0.92740200  0.55295500  0.97328300  1
  O  O28  1  0.42472200  0.32690400  0.64341600  1
  O  O29  1  0.32690400  0.42472200  0.14341600  1
  O  O30  1  0.30844800  0.89807200  0.32411000  1
  O  O31  1  0.89807200  0.30844800  0.82411000  1
  O  O32  1  0.20756600  0.40684200  0.68438500  1
  O  O33  1  0.40684200  0.20756600  0.18438500  1
  O  O34  1  0.37444200  0.66318900  0.28377600  1
  O  O35  1  0.66318900  0.37444200  0.78377600  1
  O  O36  1  0.39649300  0.35447300  0.91112000  1
  O  O37  1  0.35447300  0.39649300  0.41112000  1
  O  O38  1  0.50546600  0.06850900  0.03618100  1
  O  O39  1  0.06850900  0.50546600  0.53618100  1
  O  O40  1  0.20585600  0.98349400  0.86638700  1
  O  O41  1  0.98349400  0.20585600  0.36638700  1
  O  O42  1  0.07682400  0.79902700  0.14713100  1
  O  O43  1  0.79902700  0.07682400  0.64713100  1
  O  O44  1  0.98122200  0.83068000  0.55924400  1
  O  O45  1  0.83068000  0.98122200  0.05924400  1
  O  O46  1  0.76081300  0.42190700  0.38885200  1
  O  O47  1  0.42190700  0.76081300  0.88885200  1
  O  O48  1  0.36807600  0.97876600  0.62115800  1
  O  O49  1  0.97876600  0.36807600  0.12115800  1
