# generated using pymatgen
data_H5C8NO2
_symmetry_space_group_name_H-M   'P 1'
_cell_length_a   7.72845700
_cell_length_b   3.85409200
_cell_length_c   23.34689646
_cell_angle_alpha   81.94968887
_cell_angle_beta   90.00000000
_cell_angle_gamma   90.00000000
_symmetry_Int_Tables_number   1
_chemical_formula_structural   H5C8NO2
_chemical_formula_sum   'H20 C32 N4 O8'
_cell_volume   688.56198000
_cell_formula_units_Z   4
loop_
 _symmetry_equiv_pos_site_id
 _symmetry_equiv_pos_as_xyz
  1  'x, y, z'
loop_
 _atom_site_type_symbol
 _atom_site_label
 _atom_site_symmetry_multiplicity
 _atom_site_fract_x
 _atom_site_fract_y
 _atom_site_fract_z
 _atom_site_occupancy
  H  H0  1  0.93296500  0.95752400  0.44937400  1
  H  H1  1  0.56703500  0.95752400  0.94937400  1
  H  H2  1  0.06703500  0.04247600  0.55062600  1
  H  H3  1  0.43296500  0.04247600  0.05062600  1
  H  H4  1  0.75027900  0.02060600  0.35994600  1
  H  H5  1  0.74972100  0.02060600  0.85994600  1
  H  H6  1  0.24972100  0.97939400  0.64005400  1
  H  H7  1  0.25027900  0.97939400  0.14005400  1
  H  H8  1  0.86566300  0.86184200  0.26817200  1
  H  H9  1  0.63433700  0.86184200  0.76817200  1
  H  H10  1  0.13433700  0.13815800  0.73182800  1
  H  H11  1  0.36566300  0.13815800  0.23182800  1
  H  H12  1  0.16158800  0.61028500  0.26351900  1
  H  H13  1  0.33841200  0.61028500  0.76351900  1
  H  H14  1  0.83841200  0.38971500  0.73648100  1
  H  H15  1  0.66158800  0.38971500  0.23648100  1
  H  H16  1  0.53981700  0.46045000  0.44486800  1
  H  H17  1  0.96018300  0.46045000  0.94486800  1
  H  H18  1  0.46018300  0.53955000  0.55513200  1
  H  H19  1  0.03981700  0.53955000  0.05513200  1
  C  C20  1  0.98304100  0.88160000  0.40926700  1
  C  C21  1  0.51695900  0.88160000  0.90926700  1
  C  C22  1  0.01695900  0.11840000  0.59073300  1
  C  C23  1  0.48304100  0.11840000  0.09073300  1
  C  C24  1  0.88147000  0.91711500  0.35893000  1
  C  C25  1  0.61853000  0.91711500  0.85893000  1
  C  C26  1  0.11853000  0.08288500  0.64107000  1
  C  C27  1  0.38147000  0.08288500  0.14107000  1
  C  C28  1  0.94623100  0.82637900  0.30692000  1
  C  C29  1  0.55376900  0.82637900  0.80692000  1
  C  C30  1  0.05376900  0.17362100  0.69308000  1
  C  C31  1  0.44623100  0.17362100  0.19308000  1
  C  C32  1  0.11361100  0.68939200  0.30364700  1
  C  C33  1  0.38638900  0.68939200  0.80364700  1
  C  C34  1  0.88638900  0.31060800  0.69635300  1
  C  C35  1  0.61361100  0.31060800  0.19635300  1
  C  C36  1  0.21336400  0.65426600  0.35359600  1
  C  C37  1  0.28663600  0.65426600  0.85359600  1
  C  C38  1  0.78663600  0.34573400  0.64640400  1
  C  C39  1  0.71336400  0.34573400  0.14640400  1
  C  C40  1  0.14913000  0.74944900  0.40545100  1
  C  C41  1  0.35087000  0.74944900  0.90545100  1
  C  C42  1  0.85087000  0.25055100  0.59454900  1
  C  C43  1  0.64913000  0.25055100  0.09454900  1
  C  C44  1  0.39257900  0.51757300  0.36461000  1
  C  C45  1  0.10742100  0.51757300  0.86461000  1
  C  C46  1  0.60742100  0.48242700  0.63539000  1
  C  C47  1  0.89257900  0.48242700  0.13539000  1
  C  C48  1  0.28640200  0.67265800  0.45023800  1
  C  C49  1  0.21359800  0.67265800  0.95023800  1
  C  C50  1  0.71359800  0.32734200  0.54976200  1
  C  C51  1  0.78640200  0.32734200  0.04976200  1
  N  N52  1  0.42646400  0.53993700  0.42306000  1
  N  N53  1  0.07353600  0.53993700  0.92306000  1
  N  N54  1  0.57353600  0.46006300  0.57694000  1
  N  N55  1  0.92646400  0.46006300  0.07694000  1
  O  O56  1  0.49329700  0.40349800  0.33130200  1
  O  O57  1  0.00670300  0.40349800  0.83130200  1
  O  O58  1  0.50670300  0.59650200  0.66869800  1
  O  O59  1  0.99329700  0.59650200  0.16869800  1
  O  O60  1  0.28187800  0.71207700  0.50178300  1
  O  O61  1  0.21812200  0.71207700  0.00178300  1
  O  O62  1  0.71812200  0.28792300  0.49821700  1
  O  O63  1  0.78187800  0.28792300  0.99821700  1
