# generated using pymatgen
data_Al13Si5H18ClO38
_symmetry_space_group_name_H-M   'P 1'
_cell_length_a   9.95476382
_cell_length_b   9.95476382
_cell_length_c   9.95476382
_cell_angle_alpha   60.00000000
_cell_angle_beta   60.00000000
_cell_angle_gamma   60.00000000
_symmetry_Int_Tables_number   1
_chemical_formula_structural   Al13Si5H18ClO38
_chemical_formula_sum   'Al13 Si5 H18 Cl1 O38'
_cell_volume   697.55408101
_cell_formula_units_Z   1
loop_
 _symmetry_equiv_pos_site_id
 _symmetry_equiv_pos_as_xyz
  1  'x, y, z'
loop_
 _atom_site_type_symbol
 _atom_site_label
 _atom_site_symmetry_multiplicity
 _atom_site_fract_x
 _atom_site_fract_y
 _atom_site_fract_z
 _atom_site_occupancy
  Al  Al0  1  0.76570000  0.40641800  0.06218200  1
  Al  Al1  1  0.40641800  0.76570000  0.06218200  1
  Al  Al2  1  0.76570000  0.76570000  0.06218200  1
  Al  Al3  1  0.76570000  0.76570000  0.40641800  1
  Al  Al4  1  0.76570000  0.40641800  0.76570000  1
  Al  Al5  1  0.76570000  0.06218200  0.40641800  1
  Al  Al6  1  0.75000000  0.75000000  0.75000000  1
  Al  Al7  1  0.40641800  0.76570000  0.76570000  1
  Al  Al8  1  0.40641800  0.06218200  0.76570000  1
  Al  Al9  1  0.76570000  0.06218200  0.76570000  1
  Al  Al10  1  0.06218200  0.76570000  0.40641800  1
  Al  Al11  1  0.06218200  0.40641800  0.76570000  1
  Al  Al12  1  0.06218200  0.76570000  0.76570000  1
  Si  Si13  1  0.11329500  0.11329500  0.11329500  1
  Si  Si14  1  0.66011600  0.11329500  0.11329500  1
  Si  Si15  1  0.25000000  0.25000000  0.25000000  1
  Si  Si16  1  0.11329500  0.11329500  0.66011600  1
  Si  Si17  1  0.11329500  0.66011600  0.11329500  1
  H  H18  1  0.48018400  0.48018400  0.13024600  1
  H  H19  1  0.90938600  0.48018400  0.13024600  1
  H  H20  1  0.65186900  0.34813100  0.34813100  1
  H  H21  1  0.48018400  0.90938600  0.13024600  1
  H  H22  1  0.65186900  0.34813100  0.65186900  1
  H  H23  1  0.34813100  0.65186900  0.34813100  1
  H  H24  1  0.65186900  0.65186900  0.34813100  1
  H  H25  1  0.90938600  0.48018400  0.48018400  1
  H  H26  1  0.34813100  0.65186900  0.65186900  1
  H  H27  1  0.48018400  0.48018400  0.90938600  1
  H  H28  1  0.48018400  0.90938600  0.48018400  1
  H  H29  1  0.48018400  0.13024600  0.48018400  1
  H  H30  1  0.90938600  0.13024600  0.48018400  1
  H  H31  1  0.48018400  0.13024600  0.90938600  1
  H  H32  1  0.34813100  0.34813100  0.65186900  1
  H  H33  1  0.13024600  0.48018400  0.48018400  1
  H  H34  1  0.13024600  0.90938600  0.48018400  1
  H  H35  1  0.13024600  0.48018400  0.90938600  1
  Cl  Cl36  1  0.50000000  0.50000000  0.50000000  1
  O  O37  1  0.72222100  0.27777900  0.27777900  1
  O  O38  1  0.54477300  0.54477300  0.09953800  1
  O  O39  1  0.81091500  0.54477300  0.09953800  1
  O  O40  1  0.54477300  0.81091500  0.09953800  1
  O  O41  1  0.27777900  0.72222100  0.27777900  1
  O  O42  1  0.72222100  0.72222100  0.27777900  1
  O  O43  1  0.72222100  0.27777900  0.72222100  1
  O  O44  1  0.27529600  0.00199300  0.00199300  1
  O  O45  1  0.72071800  0.00199300  0.00199300  1
  O  O46  1  0.81091500  0.54477300  0.54477300  1
  O  O47  1  0.00199300  0.00199300  0.27529600  1
  O  O48  1  0.00199300  0.27529600  0.00199300  1
  O  O49  1  0.72071800  0.00199300  0.27529600  1
  O  O50  1  0.72071800  0.27529600  0.00199300  1
  O  O51  1  0.82473200  0.82473200  0.52580500  1
  O  O52  1  0.82473200  0.52580500  0.82473200  1
  O  O53  1  0.54477300  0.54477300  0.81091500  1
  O  O54  1  0.54477300  0.81091500  0.54477300  1
  O  O55  1  0.18268100  0.18268100  0.18268100  1
  O  O56  1  0.45195800  0.18268100  0.18268100  1
  O  O57  1  0.27777900  0.72222100  0.72222100  1
  O  O58  1  0.18268100  0.45195800  0.18268100  1
  O  O59  1  0.18268100  0.18268100  0.45195800  1
  O  O60  1  0.54477300  0.09953800  0.54477300  1
  O  O61  1  0.81091500  0.09953800  0.54477300  1
  O  O62  1  0.52580500  0.82473200  0.82473200  1
  O  O63  1  0.82473200  0.82473200  0.82473200  1
  O  O64  1  0.27529600  0.72071800  0.00199300  1
  O  O65  1  0.00199300  0.00199300  0.72071800  1
  O  O66  1  0.27529600  0.00199300  0.72071800  1
  O  O67  1  0.00199300  0.72071800  0.00199300  1
  O  O68  1  0.54477300  0.09953800  0.81091500  1
  O  O69  1  0.00199300  0.27529600  0.72071800  1
  O  O70  1  0.00199300  0.72071800  0.27529600  1
  O  O71  1  0.27777900  0.27777900  0.72222100  1
  O  O72  1  0.09953800  0.54477300  0.54477300  1
  O  O73  1  0.09953800  0.81091500  0.54477300  1
  O  O74  1  0.09953800  0.54477300  0.81091500  1
