# generated using pymatgen
data_NaCo(N2O3)4
_symmetry_space_group_name_H-M   'P 1'
_cell_length_a   10.46276000
_cell_length_b   10.46276000
_cell_length_c   10.46276000
_cell_angle_alpha   90.00000000
_cell_angle_beta   90.00000000
_cell_angle_gamma   90.00000000
_symmetry_Int_Tables_number   1
_chemical_formula_structural   NaCo(N2O3)4
_chemical_formula_sum   'Na4 Co4 N32 O48'
_cell_volume   1145.35150311
_cell_formula_units_Z   4
loop_
 _symmetry_equiv_pos_site_id
 _symmetry_equiv_pos_as_xyz
  1  'x, y, z'
loop_
 _atom_site_type_symbol
 _atom_site_label
 _atom_site_symmetry_multiplicity
 _atom_site_fract_x
 _atom_site_fract_y
 _atom_site_fract_z
 _atom_site_occupancy
  Na  Na0  1  0.50000000  0.50000000  0.50000000  1
  Na  Na1  1  0.00000000  0.50000000  0.00000000  1
  Na  Na2  1  0.00000000  0.00000000  0.50000000  1
  Na  Na3  1  0.50000000  0.00000000  0.00000000  1
  Co  Co4  1  0.00000000  0.00000000  0.00000000  1
  Co  Co5  1  0.50000000  0.00000000  0.50000000  1
  Co  Co6  1  0.50000000  0.50000000  0.00000000  1
  Co  Co7  1  0.00000000  0.50000000  0.50000000  1
  N  N8  1  0.89822600  0.89822600  0.10177400  1
  N  N9  1  0.89822600  0.10177400  0.89822600  1
  N  N10  1  0.10177400  0.89822600  0.89822600  1
  N  N11  1  0.10177400  0.10177400  0.10177400  1
  N  N12  1  0.66226600  0.66226600  0.33773400  1
  N  N13  1  0.66226600  0.33773400  0.66226600  1
  N  N14  1  0.33773400  0.66226600  0.66226600  1
  N  N15  1  0.33773400  0.33773400  0.33773400  1
  N  N16  1  0.00000000  0.81600700  0.00000000  1
  N  N17  1  0.00000000  0.00000000  0.18399300  1
  N  N18  1  0.81600700  0.00000000  0.00000000  1
  N  N19  1  0.00000000  0.18399300  0.00000000  1
  N  N20  1  0.00000000  0.00000000  0.81600700  1
  N  N21  1  0.18399300  0.00000000  0.00000000  1
  N  N22  1  0.50000000  0.29661800  0.00000000  1
  N  N23  1  0.00000000  0.50000000  0.70338200  1
  N  N24  1  0.29661800  0.00000000  0.50000000  1
  N  N25  1  0.50000000  0.70338200  0.00000000  1
  N  N26  1  0.00000000  0.50000000  0.29661800  1
  N  N27  1  0.70338200  0.00000000  0.50000000  1
  N  N28  1  0.00000000  0.31739600  0.50000000  1
  N  N29  1  0.50000000  0.00000000  0.68260400  1
  N  N30  1  0.31739600  0.50000000  0.00000000  1
  N  N31  1  0.00000000  0.68260400  0.50000000  1
  N  N32  1  0.50000000  0.00000000  0.31739600  1
  N  N33  1  0.68260400  0.50000000  0.00000000  1
  N  N34  1  0.50000000  0.82036300  0.50000000  1
  N  N35  1  0.50000000  0.50000000  0.17963700  1
  N  N36  1  0.82036300  0.50000000  0.50000000  1
  N  N37  1  0.50000000  0.17963700  0.50000000  1
  N  N38  1  0.50000000  0.50000000  0.82036300  1
  N  N39  1  0.17963700  0.50000000  0.50000000  1
  O  O40  1  0.58915600  0.04992300  0.23499200  1
  O  O41  1  0.76500800  0.58915600  0.95007700  1
  O  O42  1  0.04992300  0.76500800  0.41084400  1
  O  O43  1  0.58915600  0.95007700  0.76500800  1
  O  O44  1  0.76500800  0.41084400  0.04992300  1
  O  O45  1  0.04992300  0.23499200  0.58915600  1
  O  O46  1  0.41084400  0.04992300  0.76500800  1
  O  O47  1  0.23499200  0.58915600  0.04992300  1
  O  O48  1  0.95007700  0.76500800  0.58915600  1
  O  O49  1  0.41084400  0.95007700  0.23499200  1
  O  O50  1  0.23499200  0.41084400  0.95007700  1
  O  O51  1  0.95007700  0.23499200  0.41084400  1
  O  O52  1  0.67215300  0.42964900  0.74143800  1
  O  O53  1  0.25856200  0.67215300  0.57035100  1
  O  O54  1  0.42964900  0.25856200  0.32784700  1
  O  O55  1  0.67215300  0.57035100  0.25856200  1
  O  O56  1  0.25856200  0.32784700  0.42964900  1
  O  O57  1  0.42964900  0.74143800  0.67215300  1
  O  O58  1  0.32784700  0.42964900  0.25856200  1
  O  O59  1  0.74143800  0.67215300  0.42964900  1
  O  O60  1  0.57035100  0.25856200  0.67215300  1
  O  O61  1  0.32784700  0.57035100  0.74143800  1
  O  O62  1  0.74143800  0.32784700  0.57035100  1
  O  O63  1  0.57035100  0.74143800  0.32784700  1
  O  O64  1  0.07006700  0.42411500  0.23853200  1
  O  O65  1  0.76146800  0.07006700  0.57588500  1
  O  O66  1  0.42411500  0.76146800  0.92993300  1
  O  O67  1  0.07006700  0.57588500  0.76146800  1
  O  O68  1  0.76146800  0.92993300  0.42411500  1
  O  O69  1  0.42411500  0.23853200  0.07006700  1
  O  O70  1  0.92993300  0.42411500  0.76146800  1
  O  O71  1  0.23853200  0.07006700  0.42411500  1
  O  O72  1  0.57588500  0.76146800  0.07006700  1
  O  O73  1  0.92993300  0.57588500  0.23853200  1
  O  O74  1  0.23853200  0.92993300  0.57588500  1
  O  O75  1  0.57588500  0.23853200  0.92993300  1
  O  O76  1  0.32756700  0.12882300  0.71328600  1
  O  O77  1  0.28671400  0.32756700  0.87117700  1
  O  O78  1  0.12882300  0.28671400  0.67243300  1
  O  O79  1  0.32756700  0.87117700  0.28671400  1
  O  O80  1  0.28671400  0.67243300  0.12882300  1
  O  O81  1  0.12882300  0.71328600  0.32756700  1
  O  O82  1  0.67243300  0.12882300  0.28671400  1
  O  O83  1  0.71328600  0.32756700  0.12882300  1
  O  O84  1  0.87117700  0.28671400  0.32756700  1
  O  O85  1  0.67243300  0.87117700  0.71328600  1
  O  O86  1  0.71328600  0.67243300  0.87117700  1
  O  O87  1  0.87117700  0.71328600  0.67243300  1
