# generated using pymatgen
data_H6Os5Pt(CO)16
_symmetry_space_group_name_H-M   'P 1'
_cell_length_a   15.68952500
_cell_length_b   11.94416300
_cell_length_c   16.48673133
_cell_angle_alpha   70.24792165
_cell_angle_beta   90.00000000
_cell_angle_gamma   90.00000000
_symmetry_Int_Tables_number   1
_chemical_formula_structural   H6Os5Pt(CO)16
_chemical_formula_sum   'H24 Os20 Pt4 C64 O64'
_cell_volume   2907.80495614
_cell_formula_units_Z   4
loop_
 _symmetry_equiv_pos_site_id
 _symmetry_equiv_pos_as_xyz
  1  'x, y, z'
loop_
 _atom_site_type_symbol
 _atom_site_label
 _atom_site_symmetry_multiplicity
 _atom_site_fract_x
 _atom_site_fract_y
 _atom_site_fract_z
 _atom_site_occupancy
  H  H0  1  0.69983000  0.82378400  0.24906900  1
  H  H1  1  0.80017000  0.32378400  0.74906900  1
  H  H2  1  0.30017000  0.17621600  0.75093100  1
  H  H3  1  0.19983000  0.67621600  0.25093100  1
  H  H4  1  0.56050500  0.77715900  0.33560800  1
  H  H5  1  0.93949500  0.27715900  0.83560800  1
  H  H6  1  0.43949500  0.22284100  0.66439200  1
  H  H7  1  0.06050500  0.72284100  0.16439200  1
  H  H8  1  0.56174600  0.85930000  0.16377400  1
  H  H9  1  0.93825400  0.35930000  0.66377400  1
  H  H10  1  0.43825400  0.14070000  0.83622600  1
  H  H11  1  0.06174600  0.64070000  0.33622600  1
  H  H12  1  0.70494800  0.15388600  0.27709100  1
  H  H13  1  0.79505200  0.65388600  0.77709100  1
  H  H14  1  0.29505200  0.84611400  0.72290900  1
  H  H15  1  0.20494800  0.34611400  0.22290900  1
  H  H16  1  0.57575600  0.11529600  0.35349200  1
  H  H17  1  0.92424400  0.61529600  0.85349200  1
  H  H18  1  0.42424400  0.88470400  0.64650800  1
  H  H19  1  0.07575600  0.38470400  0.14650800  1
  H  H20  1  0.55136600  0.17356700  0.16555600  1
  H  H21  1  0.94863400  0.67356700  0.66555600  1
  H  H22  1  0.44863400  0.82643300  0.83444400  1
  H  H23  1  0.05136600  0.32643300  0.33444400  1
  Os  Os24  1  0.66134600  0.94553500  0.15555600  1
  Os  Os25  1  0.83865400  0.44553500  0.65555600  1
  Os  Os26  1  0.33865400  0.05446500  0.84444400  1
  Os  Os27  1  0.16134600  0.55446500  0.34444400  1
  Os  Os28  1  0.66095300  0.84573300  0.34609000  1
  Os  Os29  1  0.83904700  0.34573300  0.84609000  1
  Os  Os30  1  0.33904700  0.15426700  0.65391000  1
  Os  Os31  1  0.16095300  0.65426700  0.15391000  1
  Os  Os32  1  0.50290700  0.89449900  0.24827100  1
  Os  Os33  1  0.99709300  0.39449900  0.74827100  1
  Os  Os34  1  0.49709300  0.10550100  0.75172900  1
  Os  Os35  1  0.00290700  0.60550100  0.25172900  1
  Os  Os36  1  0.64872000  0.23662300  0.33377100  1
  Os  Os37  1  0.85128000  0.73662300  0.83377100  1
  Os  Os38  1  0.35128000  0.76337700  0.66622900  1
  Os  Os39  1  0.14872000  0.26337700  0.16622900  1
  Os  Os40  1  0.55022100  0.32060100  0.17356300  1
  Os  Os41  1  0.94977900  0.82060100  0.67356300  1
  Os  Os42  1  0.44977900  0.67939900  0.82643700  1
  Os  Os43  1  0.05022100  0.17939900  0.32643700  1
  Pt  Pt44  1  0.60861900  0.07294100  0.25709000  1
  Pt  Pt45  1  0.89138100  0.57294100  0.75709000  1
  Pt  Pt46  1  0.39138100  0.92705900  0.74291000  1
  Pt  Pt47  1  0.10861900  0.42705900  0.24291000  1
  C  C48  1  0.61928900  0.06426400  0.05446900  1
  C  C49  1  0.88071100  0.56426400  0.55446900  1
  C  C50  1  0.38071100  0.93573600  0.94553100  1
  C  C51  1  0.11928900  0.43573600  0.44553100  1
  C  C52  1  0.70609600  0.84656300  0.09482400  1
  C  C53  1  0.79390400  0.34656300  0.59482400  1
  C  C54  1  0.29390400  0.15343700  0.90517600  1
  C  C55  1  0.20609600  0.65343700  0.40517600  1
  C  C56  1  0.76751100  0.02776000  0.14593600  1
  C  C57  1  0.73248900  0.52776000  0.64593600  1
  C  C58  1  0.23248900  0.97224000  0.85406400  1
  C  C59  1  0.26751100  0.47224000  0.35406400  1
  C  C60  1  0.69326300  0.68183000  0.39689000  1
  C  C61  1  0.80673700  0.18183000  0.89689000  1
  C  C62  1  0.30673700  0.31817000  0.60311000  1
  C  C63  1  0.19326300  0.81817000  0.10311000  1
  C  C64  1  0.76869700  0.90957700  0.36194800  1
  C  C65  1  0.73130300  0.40957700  0.86194800  1
  C  C66  1  0.23130300  0.09042300  0.63805200  1
  C  C67  1  0.26869700  0.59042300  0.13805200  1
  C  C68  1  0.61540500  0.86301700  0.44904100  1
  C  C69  1  0.88459500  0.36301700  0.94904100  1
  C  C70  1  0.38459500  0.13698300  0.55095900  1
  C  C71  1  0.11540500  0.63698300  0.05095900  1
  C  C72  1  0.44121000  0.00559800  0.15720900  1
  C  C73  1  0.05879000  0.50559800  0.65720900  1
  C  C74  1  0.55879000  0.99440200  0.84279100  1
  C  C75  1  0.94121000  0.49440200  0.34279100  1
  C  C76  1  0.43870300  0.92671600  0.33699900  1
  C  C77  1  0.06129700  0.42671600  0.83699900  1
  C  C78  1  0.56129700  0.07328400  0.66300100  1
  C  C79  1  0.93870300  0.57328400  0.16300100  1
  C  C80  1  0.43491200  0.76154000  0.24891300  1
  C  C81  1  0.06508800  0.26154000  0.74891300  1
  C  C82  1  0.56508800  0.23846000  0.75108700  1
  C  C83  1  0.93491200  0.73846000  0.25108700  1
  C  C84  1  0.57812300  0.30974700  0.39671400  1
  C  C85  1  0.92187700  0.80974700  0.89671400  1
  C  C86  1  0.42187700  0.69025300  0.60328600  1
  C  C87  1  0.07812300  0.19025300  0.10328600  1
  C  C88  1  0.71495200  0.14806800  0.43064000  1
  C  C89  1  0.78504800  0.64806800  0.93064000  1
  C  C90  1  0.28504800  0.85193200  0.56936000  1
  C  C91  1  0.21495200  0.35193200  0.06936000  1
  C  C92  1  0.72168200  0.37283700  0.29378900  1
  C  C93  1  0.77831800  0.87283700  0.79378900  1
  C  C94  1  0.27831800  0.62716300  0.70621100  1
  C  C95  1  0.22168200  0.12716300  0.20621100  1
  C  C96  1  0.48756400  0.35290400  0.06795400  1
  C  C97  1  0.01243600  0.85290400  0.56795400  1
  C  C98  1  0.51243600  0.64709600  0.93204600  1
  C  C99  1  0.98756400  0.14709600  0.43204600  1
  C  C100  1  0.45110600  0.26687400  0.24878500  1
  C  C101  1  0.04889400  0.76687400  0.74878500  1
  C  C102  1  0.54889400  0.73312600  0.75121500  1
  C  C103  1  0.95110600  0.23312600  0.25121500  1
  C  C104  1  0.55331000  0.47510700  0.18700700  1
  C  C105  1  0.94669000  0.97510700  0.68700700  1
  C  C106  1  0.44669000  0.52489300  0.81299300  1
  C  C107  1  0.05331000  0.02489300  0.31299300  1
  C  C108  1  0.66231500  0.33527500  0.11912000  1
  C  C109  1  0.83768500  0.83527500  0.61912000  1
  C  C110  1  0.33768500  0.66472500  0.88088000  1
  C  C111  1  0.16231500  0.16472500  0.38088000  1
  O  O112  1  0.59350800  0.13727900  0.99308700  1
  O  O113  1  0.90649200  0.63727900  0.49308700  1
  O  O114  1  0.40649200  0.86272100  0.00691300  1
  O  O115  1  0.09350800  0.36272100  0.50691300  1
  O  O116  1  0.73765900  0.79024700  0.05792100  1
  O  O117  1  0.76234100  0.29024700  0.55792100  1
  O  O118  1  0.26234100  0.20975300  0.94207900  1
  O  O119  1  0.23765900  0.70975300  0.44207900  1
  O  O120  1  0.83118500  0.07942300  0.13804100  1
  O  O121  1  0.66881500  0.57942300  0.63804100  1
  O  O122  1  0.16881500  0.92057700  0.86195900  1
  O  O123  1  0.33118500  0.42057700  0.36195900  1
  O  O124  1  0.71337500  0.58276800  0.42760200  1
  O  O125  1  0.78662500  0.08276800  0.92760200  1
  O  O126  1  0.28662500  0.41723200  0.57239800  1
  O  O127  1  0.21337500  0.91723200  0.07239800  1
  O  O128  1  0.83413800  0.94757700  0.37273600  1
  O  O129  1  0.66586200  0.44757700  0.87273600  1
  O  O130  1  0.16586200  0.05242300  0.62726400  1
  O  O131  1  0.33413800  0.55242300  0.12726400  1
  O  O132  1  0.58570600  0.87488900  0.50992200  1
  O  O133  1  0.91429400  0.37488900  0.00992200  1
  O  O134  1  0.41429400  0.12511100  0.49007800  1
  O  O135  1  0.08570600  0.62511100  0.99007800  1
  O  O136  1  0.40556500  0.07388000  0.10004400  1
  O  O137  1  0.09443500  0.57388000  0.60004400  1
  O  O138  1  0.59443500  0.92612000  0.89995600  1
  O  O139  1  0.90556500  0.42612000  0.39995600  1
  O  O140  1  0.40088300  0.94559100  0.39123100  1
  O  O141  1  0.09911700  0.44559100  0.89123100  1
  O  O142  1  0.59911700  0.05440900  0.60876900  1
  O  O143  1  0.90088300  0.55440900  0.10876900  1
  O  O144  1  0.39198200  0.68177000  0.24987900  1
  O  O145  1  0.10801800  0.18177000  0.74987900  1
  O  O146  1  0.60801800  0.31823000  0.75012100  1
  O  O147  1  0.89198200  0.81823000  0.25012100  1
  O  O148  1  0.53624900  0.35225200  0.43697100  1
  O  O149  1  0.96375100  0.85225200  0.93697100  1
  O  O150  1  0.46375100  0.64774800  0.56302900  1
  O  O151  1  0.03624900  0.14774800  0.06302900  1
  O  O152  1  0.75687200  0.09495400  0.48898900  1
  O  O153  1  0.74312800  0.59495400  0.98898900  1
  O  O154  1  0.24312800  0.90504600  0.51101100  1
  O  O155  1  0.25687200  0.40504600  0.01101100  1
  O  O156  1  0.76332900  0.45874900  0.26851000  1
  O  O157  1  0.73667100  0.95874900  0.76851000  1
  O  O158  1  0.23667100  0.54125100  0.73149000  1
  O  O159  1  0.26332900  0.04125100  0.23149000  1
  O  O160  1  0.45051800  0.37054000  0.00380300  1
  O  O161  1  0.04948200  0.87054000  0.50380300  1
  O  O162  1  0.54948200  0.62946000  0.99619700  1
  O  O163  1  0.95051800  0.12946000  0.49619700  1
  O  O164  1  0.39174300  0.23197200  0.29137000  1
  O  O165  1  0.10825700  0.73197200  0.79137000  1
  O  O166  1  0.60825700  0.76802800  0.70863000  1
  O  O167  1  0.89174300  0.26802800  0.20863000  1
  O  O168  1  0.55515900  0.56826200  0.19459600  1
  O  O169  1  0.94484100  0.06826200  0.69459600  1
  O  O170  1  0.44484100  0.43173800  0.80540400  1
  O  O171  1  0.05515900  0.93173800  0.30540400  1
  O  O172  1  0.72770200  0.33844300  0.08593700  1
  O  O173  1  0.77229800  0.83844300  0.58593700  1
  O  O174  1  0.27229800  0.66155700  0.91406300  1
  O  O175  1  0.22770200  0.16155700  0.41406300  1
