# generated using pymatgen
data_Ca8Bi12O25
_symmetry_space_group_name_H-M   'P 1'
_cell_length_a   15.02449772
_cell_length_b   10.97799687
_cell_length_c   22.71856364
_cell_angle_alpha   100.92166337
_cell_angle_beta   105.16882598
_cell_angle_gamma   44.40063950
_symmetry_Int_Tables_number   1
_chemical_formula_structural   Ca8Bi12O25
_chemical_formula_sum   'Ca24 Bi36 O75'
_cell_volume   2530.42724503
_cell_formula_units_Z   3
loop_
 _symmetry_equiv_pos_site_id
 _symmetry_equiv_pos_as_xyz
  1  'x, y, z'
loop_
 _atom_site_type_symbol
 _atom_site_label
 _atom_site_symmetry_multiplicity
 _atom_site_fract_x
 _atom_site_fract_y
 _atom_site_fract_z
 _atom_site_occupancy
  Ca  Ca0  1  0.14237678  0.32325116  0.84135518  1
  Ca  Ca1  1  0.13225874  0.31248200  0.50240273  1
  Ca  Ca2  1  0.53429667  0.22278773  0.80446752  1
  Ca  Ca3  1  0.16834922  0.75024549  0.84406789  1
  Ca  Ca4  1  0.17176894  0.38168779  0.14567838  1
  Ca  Ca5  1  0.27028357  0.67789699  0.48782851  1
  Ca  Ca6  1  0.41954443  0.25375947  0.50630107  1
  Ca  Ca7  1  0.60199305  0.49745980  0.79093137  1
  Ca  Ca8  1  0.30529640  0.90039280  0.79891808  1
  Ca  Ca9  1  0.49027150  0.19410774  0.17848569  1
  Ca  Ca10  1  0.17042281  0.70178776  0.18379208  1
  Ca  Ca11  1  0.65545558  0.21482869  0.45259406  1
  Ca  Ca12  1  0.49372638  0.65781183  0.49240093  1
  Ca  Ca13  1  0.92679009  0.24438937  0.86230873  1
  Ca  Ca14  1  0.62327202  0.80276791  0.87511031  1
  Ca  Ca15  1  0.70725723  0.15091286  0.11306525  1
  Ca  Ca16  1  0.64316103  0.50862922  0.19021553  1
  Ca  Ca17  1  0.92493111  0.19502048  0.48719203  1
  Ca  Ca18  1  0.75648914  0.82247917  0.48905760  1
  Ca  Ca19  1  0.83318285  0.83722966  0.83487010  1
  Ca  Ca20  1  0.95356685  0.17244502  0.17636382  1
  Ca  Ca21  1  0.74833039  0.72730107  0.20435565  1
  Ca  Ca22  1  0.02510789  0.73317290  0.49584101  1
  Ca  Ca23  1  0.90820988  0.79398838  0.17360404  1
  Bi  Bi24  1  0.05040375  0.94834739  0.63116151  1
  Bi  Bi25  1  0.16969947  0.01875895  0.40306377  1
  Bi  Bi26  1  0.11707689  0.21339976  0.65645744  1
  Bi  Bi27  1  0.18348793  0.54815570  0.95134294  1
  Bi  Bi28  1  0.42145719  0.89912602  0.10483559  1
  Bi  Bi29  1  0.08586488  0.33158556  0.25788900  1
  Bi  Bi30  1  0.17032487  0.47412172  0.75332829  1
  Bi  Bi31  1  0.44277763  0.00502347  0.73155248  1
  Bi  Bi32  1  0.33715458  0.54472481  0.69918492  1
  Bi  Bi33  1  0.63719311  0.99142680  0.66240696  1
  Bi  Bi34  1  0.13390349  0.25590843  0.99261587  1
  Bi  Bi35  1  0.19239550  0.49357538  0.37054312  1
  Bi  Bi36  1  0.35300194  0.05211703  0.39868121  1
  Bi  Bi37  1  0.38993399  0.49856588  0.33028366  1
  Bi  Bi38  1  0.55217077  0.03224219  0.33389924  1
  Bi  Bi39  1  0.61537020  0.27515673  0.60406730  1
  Bi  Bi40  1  0.41688852  0.73178044  0.64110291  1
  Bi  Bi41  1  0.61820103  0.58105459  0.95327468  1
  Bi  Bi42  1  0.85086678  0.08790110  0.92853262  1
  Bi  Bi43  1  0.39485948  0.53702904  0.10184482  1
  Bi  Bi44  1  0.10643174  -0.01193433  0.03462228  1
  Bi  Bi45  1  0.68967901  0.21312173  0.26103400  1
  Bi  Bi46  1  0.32611649  0.83281236  0.25772418  1
  Bi  Bi47  1  0.75898203  0.51688763  0.59581326  1
  Bi  Bi48  1  0.86286828  0.02822710  0.74324112  1
  Bi  Bi49  1  0.86529036  0.47768075  0.76248075  1
  Bi  Bi50  1  0.56873104  0.23145236  0.96272306  1
  Bi  Bi51  1  0.32595898  0.78750213  0.96034825  1
  Bi  Bi52  1  0.63044861  0.57694596  0.36122370  1
  Bi  Bi53  1  0.03574179  0.91646629  0.30930091  1
  Bi  Bi54  1  0.89328228  0.51787765  0.37457163  1
  Bi  Bi55  1  0.92768525  0.66013140  0.62856540  1
  Bi  Bi56  1  0.87881191  0.47207984  0.08869133  1
  Bi  Bi57  1  0.57204923  0.95753202  0.02969499  1
  Bi  Bi58  1  0.86939961  0.86058364  0.35026748  1
  Bi  Bi59  1  0.87350115  0.78470189  0.01148244  1
  O  O60  1  0.21598796  0.91493735  0.87443634  1
  O  O61  1  0.03946702  0.23791703  0.80509275  1
  O  O62  1  0.18930283  0.33135515  0.94253322  1
  O  O63  1  0.26834803  0.88409843  0.48659512  1
  O  O64  1  0.01306363  0.25771072  0.44486635  1
  O  O65  1  0.07262411  0.38724534  0.59352689  1
  O  O66  1  0.30143189  0.11736750  0.78789397  1
  O  O67  1  0.21210389  0.49452815  0.85549229  1
  O  O68  1  0.12610909  0.70203150  0.74083154  1
  O  O69  1  0.35921292  0.30660719  0.73475853  1
  O  O70  1  0.27699234  0.77255116  0.16730232  1
  O  O71  1  0.60838636  0.00082505  0.94923099  1
  O  O72  1  0.20035490  0.73986032  0.95074152  1
  O  O73  1  0.03091385  0.19736119  0.10549816  1
  O  O74  1  0.25279012  0.21999670  0.23109365  1
  O  O75  1  0.34441848  0.13169435  0.49093659  1
  O  O76  1  0.22257115  0.50854830  0.46777925  1
  O  O77  1  0.13691239  0.76092502  0.38895851  1
  O  O78  1  0.14289453  0.33245510  0.36205857  1
  O  O79  1  0.69946043  0.09901617  0.88590975  1
  O  O80  1  0.42724022  0.51551846  0.79068118  1
  O  O81  1  0.00724369  0.49410420  0.04327147  1
  O  O82  1  0.49242018  0.24981961  0.62003332  1
  O  O83  1  0.14419418  0.78618376  0.56048664  1
  O  O84  1  0.70303639  0.05968936  0.75156536  1
  O  O85  1  0.22811136  0.83816561  0.69631601  1
  O  O86  1  0.73274547  0.34537164  0.88986915  1
  O  O87  1  0.51098305  0.72494056  0.87140090  1
  O  O88  1  0.55499133  0.92548913  0.14033913  1
  O  O89  1  0.28969635  0.43719601  0.15462602  1
  O  O90  1  0.00583927  0.77179719  0.09606285  1
  O  O91  1  0.27138731  0.16708783  0.07661651  1
  O  O92  1  0.62773389  0.12454061  0.52126288  1
  O  O93  1  0.46806014  0.50935861  0.55274427  1
  O  O94  1  0.53362884  0.21351638  0.28896029  1
  O  O95  1  0.22163073  0.78134781  0.28306825  1
  O  O96  1  0.50647605  0.49199826  0.68364751  1
  O  O97  1  0.42420147  0.22772122  0.39602283  1
  O  O98  1  0.46584770  0.49266530  0.42363336  1
  O  O99  1  0.55791663  0.69169265  0.60116267  1
  O  O100  1  0.72532698  0.44134038  0.50708463  1
  O  O101  1  0.94099090  0.95401927  0.83920513  1
  O  O102  1  0.79362042  0.53820964  0.84376502  1
  O  O103  1  0.80206847  0.26775836  0.76446901  1
  O  O104  1  0.48467775  0.76110994  0.73757026  1
  O  O105  1  0.71916608  0.01294555  0.20107562  1
  O  O106  1  0.54322058  0.35936302  0.17414552  1
  O  O107  1  0.49028758  0.53928121  0.29891533  1
  O  O108  1  0.98280552  0.18400845  0.96762549  1
  O  O109  1  0.69316534  0.70084940  0.97894043  1
  O  O110  1  0.51349329  0.26264692  0.04936998  1
  O  O111  1  0.51316698  0.57419654  0.09652542  1
  O  O112  1  0.79717672  0.21737438  0.20830941  1
  O  O113  1  0.57340817  0.68282608  0.27383232  1
  O  O114  1  0.87814813  0.03494655  0.47741175  1
  O  O115  1  0.70318619  0.70505340  0.40246124  1
  O  O116  1  0.83670921  0.10184866  0.41333426  1
  O  O117  1  0.47084484  0.76628453  0.40634254  1
  O  O118  1  0.95152133  0.57801409  0.79116280  1
  O  O119  1  -0.00293328  0.16871767  0.59642945  1
  O  O120  1  0.76555632  0.69749107  0.57216952  1
  O  O121  1  0.59447961  0.95178139  0.80238484  1
  O  O122  1  0.97869595  0.74723186  0.93205207  1
  O  O123  1  0.94326917  0.93790888  0.13374285  1
  O  O124  1  0.79711962  0.47774192  0.16322621  1
  O  O125  1  0.75759796  0.09918843  0.01477511  1
  O  O126  1  0.46287430  0.84422183  0.01586876  1
  O  O127  1  0.95754027  0.58686513  0.45452888  1
  O  O128  1  0.81912385  0.71246198  0.30449843  1
  O  O129  1  0.11201902  0.10934854  0.25289225  1
  O  O130  1  0.71271885  0.97330481  0.39940000  1
  O  O131  1  0.92587251  0.77503189  0.56542233  1
  O  O132  1  0.95060903  0.54869773  0.16476192  1
  O  O133  1  0.75424755  0.87738951  0.08024310  1
  O  O134  1  0.06551033  0.71140143  0.25333854  1
