# generated using pymatgen
data_FeBiO3
_symmetry_space_group_name_H-M   'P 1'
_cell_length_a   13.32757846
_cell_length_b   5.90164352
_cell_length_c   9.52814479
_cell_angle_alpha   100.29265817
_cell_angle_beta   134.37723936
_cell_angle_gamma   75.19808407
_symmetry_Int_Tables_number   1
_chemical_formula_structural   FeBiO3
_chemical_formula_sum   'Fe2 Bi2 O6'
_cell_volume   517.88148597
_cell_formula_units_Z   2
loop_
 _symmetry_equiv_pos_site_id
 _symmetry_equiv_pos_as_xyz
  1  'x, y, z'
loop_
 _atom_site_type_symbol
 _atom_site_label
 _atom_site_symmetry_multiplicity
 _atom_site_fract_x
 _atom_site_fract_y
 _atom_site_fract_z
 _atom_site_occupancy
  Fe  Fe0  1  0.42199100  0.72995100  0.99933500  1
  Fe  Fe1  1  0.42265600  0.22995100  0.00066500  1
  Bi  Bi2  1  0.00644900  0.49506100  0.00068900  1
  Bi  Bi3  1  0.00575900  0.99506100  0.99931100  1
  O  O4  1  0.92226500  0.62921100  0.58013900  1
  O  O5  1  0.34212600  0.12921100  0.41986100  1
  O  O6  1  0.43768700  0.24714300  0.51643200  1
  O  O7  1  0.49986300  0.97963400  0.15591500  1
  O  O8  1  0.34394800  0.47963400  0.84408500  1
  O  O9  1  0.92125600  0.74714300  0.48356800  1
