# generated using pymatgen
data_H4N2O3
_symmetry_space_group_name_H-M   'P 1'
_cell_length_a   8.04126100
_cell_length_b   8.04126100
_cell_length_c   9.95019900
_cell_angle_alpha   90.00000000
_cell_angle_beta   90.00000000
_cell_angle_gamma   90.00000000
_symmetry_Int_Tables_number   1
_chemical_formula_structural   H4N2O3
_chemical_formula_sum   'H32 N16 O24'
_cell_volume   643.39855849
_cell_formula_units_Z   8
loop_
 _symmetry_equiv_pos_site_id
 _symmetry_equiv_pos_as_xyz
  1  'x, y, z'
loop_
 _atom_site_type_symbol
 _atom_site_label
 _atom_site_symmetry_multiplicity
 _atom_site_fract_x
 _atom_site_fract_y
 _atom_site_fract_z
 _atom_site_occupancy
  H  H0  1  0.07765100  0.92645300  0.69111300  1
  H  H1  1  0.92234900  0.07354700  0.69111300  1
  H  H2  1  0.92645300  0.92234900  0.19111300  1
  H  H3  1  0.07354700  0.07765100  0.19111300  1
  H  H4  1  0.92957300  0.92381500  0.81130000  1
  H  H5  1  0.07042700  0.07618500  0.81130000  1
  H  H6  1  0.92381500  0.07042700  0.31130000  1
  H  H7  1  0.07618500  0.92957300  0.31130000  1
  H  H8  1  0.07412100  0.42238000  0.69142200  1
  H  H9  1  0.92587900  0.57762000  0.69142200  1
  H  H10  1  0.42238000  0.92587900  0.19142200  1
  H  H11  1  0.57762000  0.07412100  0.19142200  1
  H  H12  1  0.07588300  0.57066500  0.81140500  1
  H  H13  1  0.92411700  0.42933500  0.81140500  1
  H  H14  1  0.57066500  0.92411700  0.31140500  1
  H  H15  1  0.42933500  0.07588300  0.31140500  1
  H  H16  1  0.42342100  0.56973100  0.81090600  1
  H  H17  1  0.57657900  0.43026900  0.81090600  1
  H  H18  1  0.56973100  0.57657900  0.31090600  1
  H  H19  1  0.43026900  0.42342100  0.31090600  1
  H  H20  1  0.57385400  0.57813000  0.69184600  1
  H  H21  1  0.42614600  0.42187000  0.69184600  1
  H  H22  1  0.57813000  0.42614600  0.19184600  1
  H  H23  1  0.42187000  0.57385400  0.19184600  1
  H  H24  1  0.43030000  0.07658600  0.81092600  1
  H  H25  1  0.56970000  0.92341400  0.81092600  1
  H  H26  1  0.07658600  0.56970000  0.31092600  1
  H  H27  1  0.92341400  0.43030000  0.31092600  1
  H  H28  1  0.57800100  0.07384200  0.69164900  1
  H  H29  1  0.42199900  0.92615800  0.69164900  1
  H  H30  1  0.07384200  0.42199900  0.19164900  1
  H  H31  1  0.92615800  0.57800100  0.19164900  1
  N  N32  1  0.00000000  0.00000000  0.74913600  1
  N  N33  1  0.00000000  0.00000000  0.24913600  1
  N  N34  1  0.00000000  0.50000000  0.74946000  1
  N  N35  1  0.50000000  0.00000000  0.24946000  1
  N  N36  1  0.50000000  0.50000000  0.74976800  1
  N  N37  1  0.50000000  0.50000000  0.24976800  1
  N  N38  1  0.50000000  0.00000000  0.74948200  1
  N  N39  1  0.00000000  0.50000000  0.24948200  1
  N  N40  1  0.25301400  0.75118000  0.01524600  1
  N  N41  1  0.74698600  0.24882000  0.01524600  1
  N  N42  1  0.75118000  0.74698600  0.51524600  1
  N  N43  1  0.24882000  0.25301400  0.51524600  1
  N  N44  1  0.24778600  0.75101700  0.51535600  1
  N  N45  1  0.75221400  0.24898300  0.51535600  1
  N  N46  1  0.75101700  0.75221400  0.01535600  1
  N  N47  1  0.24898300  0.24778600  0.01535600  1
  O  O48  1  0.26541100  0.88615600  0.95451500  1
  O  O49  1  0.73458900  0.11384400  0.95451500  1
  O  O50  1  0.88615600  0.73458900  0.45451500  1
  O  O51  1  0.11384400  0.26541100  0.45451500  1
  O  O52  1  0.23244000  0.61435000  0.95317000  1
  O  O53  1  0.76756000  0.38565000  0.95317000  1
  O  O54  1  0.61435000  0.76756000  0.45317000  1
  O  O55  1  0.38565000  0.23244000  0.45317000  1
  O  O56  1  0.26302100  0.74776000  0.14426200  1
  O  O57  1  0.73697900  0.25224000  0.14426200  1
  O  O58  1  0.74776000  0.73697900  0.64426200  1
  O  O59  1  0.25224000  0.26302100  0.64426200  1
  O  O60  1  0.22737500  0.88582400  0.45213400  1
  O  O61  1  0.77262500  0.11417600  0.45213400  1
  O  O62  1  0.88582400  0.77262500  0.95213400  1
  O  O63  1  0.11417600  0.22737500  0.95213400  1
  O  O64  1  0.26081300  0.61407800  0.45550500  1
  O  O65  1  0.73918700  0.38592200  0.45550500  1
  O  O66  1  0.61407800  0.73918700  0.95550500  1
  O  O67  1  0.38592200  0.26081300  0.95550500  1
  O  O68  1  0.25476800  0.75604000  0.64432000  1
  O  O69  1  0.74523200  0.24396000  0.64432000  1
  O  O70  1  0.75604000  0.74523200  0.14432000  1
  O  O71  1  0.24396000  0.25476800  0.14432000  1
