# generated using pymatgen
data_FeC4S2N3O5
_symmetry_space_group_name_H-M   'P 1'
_cell_length_a   8.56053945
_cell_length_b   12.38041750
_cell_length_c   6.90710939
_cell_angle_alpha   88.48632801
_cell_angle_beta   94.20529822
_cell_angle_gamma   68.86506204
_symmetry_Int_Tables_number   1
_chemical_formula_structural   FeC4S2N3O5
_chemical_formula_sum   'Fe2 C8 S4 N6 O10'
_cell_volume   679.85680614
_cell_formula_units_Z   2
loop_
 _symmetry_equiv_pos_site_id
 _symmetry_equiv_pos_as_xyz
  1  'x, y, z'
loop_
 _atom_site_type_symbol
 _atom_site_label
 _atom_site_symmetry_multiplicity
 _atom_site_fract_x
 _atom_site_fract_y
 _atom_site_fract_z
 _atom_site_occupancy
  Fe  Fe0  1  0.35336300  0.97163100  0.91339800  1
  Fe  Fe1  1  0.64663700  0.02836900  0.08660200  1
  C  C2  1  0.19371800  0.65599300  0.65591900  1
  C  C3  1  0.80628200  0.34400700  0.34408100  1
  C  C4  1  0.31220400  0.64767000  0.52863700  1
  C  C5  1  0.68779600  0.35233000  0.47136300  1
  C  C6  1  0.23464000  0.75340200  0.60450000  1
  C  C7  1  0.76536000  0.24659800  0.39550000  1
  C  C8  1  0.99538900  0.59031600  0.83244000  1
  C  C9  1  0.00461100  0.40968400  0.16756000  1
  S  S10  1  0.63533000  0.85969500  0.96389400  1
  S  S11  1  0.36467000  0.14030500  0.03610600  1
  S  S12  1  0.65769600  0.72813700  0.23635100  1
  S  S13  1  0.34230400  0.27186300  0.76364900  1
  N  N14  1  0.27782900  0.99536400  0.65209500  1
  N  N15  1  0.72217100  0.00463600  0.34790500  1
  N  N16  1  0.21291700  0.91478200  0.03503400  1
  N  N17  1  0.78708300  0.08521800  0.96496600  1
  N  N18  1  0.09865700  0.61684600  0.75571300  1
  N  N19  1  0.90134300  0.38315400  0.24428700  1
  O  O20  1  0.59597100  0.64924000  0.13387300  1
  O  O21  1  0.40402900  0.35076000  0.86612700  1
  O  O22  1  0.83681200  0.69334100  0.28735000  1
  O  O23  1  0.16318800  0.30665900  0.71265000  1
  O  O24  1  0.54715500  0.80398000  0.36650700  1
  O  O25  1  0.45284500  0.19602000  0.63349300  1
  O  O26  1  0.25129700  0.02734200  0.48957400  1
  O  O27  1  0.74870300  0.97265800  0.51042600  1
  O  O28  1  0.13586000  0.88082500  0.13696900  1
  O  O29  1  0.86414000  0.11917500  0.86303100  1
