# generated using pymatgen
data_CuH5Pb4SO11
_symmetry_space_group_name_H-M   'P 1'
_cell_length_a   11.73524500
_cell_length_b   14.21864900
_cell_length_c   14.75473511
_cell_angle_alpha   79.91418980
_cell_angle_beta   90.00000000
_cell_angle_gamma   90.00000000
_symmetry_Int_Tables_number   1
_chemical_formula_structural   CuH5Pb4SO11
_chemical_formula_sum   'Cu8 H40 Pb32 S8 O88'
_cell_volume   2423.91942769
_cell_formula_units_Z   8
loop_
 _symmetry_equiv_pos_site_id
 _symmetry_equiv_pos_as_xyz
  1  'x, y, z'
loop_
 _atom_site_type_symbol
 _atom_site_label
 _atom_site_symmetry_multiplicity
 _atom_site_fract_x
 _atom_site_fract_y
 _atom_site_fract_z
 _atom_site_occupancy
  Cu  Cu0  1  0.50642500  0.76187100  0.20774200  1
  Cu  Cu1  1  0.00642500  0.23812900  0.29225800  1
  Cu  Cu2  1  0.49357500  0.23812900  0.79225800  1
  Cu  Cu3  1  0.99357500  0.76187100  0.70774200  1
  Cu  Cu4  1  0.25328300  0.49458500  0.02066600  1
  Cu  Cu5  1  0.75328300  0.50541500  0.47933400  1
  Cu  Cu6  1  0.74671700  0.50541500  0.97933400  1
  Cu  Cu7  1  0.24671700  0.49458500  0.52066600  1
  H  H8  1  0.43000600  0.60660200  0.27787200  1
  H  H9  1  0.93000600  0.39339800  0.22212800  1
  H  H10  1  0.56999400  0.39339800  0.72212800  1
  H  H11  1  0.06999400  0.60660200  0.77787200  1
  H  H12  1  0.57775100  0.60561000  0.18894600  1
  H  H13  1  0.07775100  0.39439000  0.31105400  1
  H  H14  1  0.42224900  0.39439000  0.81105400  1
  H  H15  1  0.92224900  0.60561000  0.68894600  1
  H  H16  1  0.59129000  0.91134500  0.14543900  1
  H  H17  1  0.09129000  0.08865500  0.35456100  1
  H  H18  1  0.40871000  0.08865500  0.85456100  1
  H  H19  1  0.90871000  0.91134500  0.64543900  1
  H  H20  1  0.40955800  0.90744900  0.21593200  1
  H  H21  1  0.90955800  0.09255100  0.28406800  1
  H  H22  1  0.59044200  0.09255100  0.78406800  1
  H  H23  1  0.09044200  0.90744900  0.71593200  1
  H  H24  1  0.32845000  0.53747200  0.15868700  1
  H  H25  1  0.82845000  0.46252800  0.34131300  1
  H  H26  1  0.67155000  0.46252800  0.84131300  1
  H  H27  1  0.17155000  0.53747200  0.65868700  1
  H  H28  1  0.17542500  0.44602000  0.88400800  1
  H  H29  1  0.67542500  0.55398000  0.61599200  1
  H  H30  1  0.82457500  0.55398000  0.11599200  1
  H  H31  1  0.32457500  0.44602000  0.38400800  1
  H  H32  1  0.32257500  0.55137600  0.86668300  1
  H  H33  1  0.82257500  0.44862400  0.63331700  1
  H  H34  1  0.67742500  0.44862400  0.13331700  1
  H  H35  1  0.17742500  0.55137600  0.36668300  1
  H  H36  1  0.18126600  0.44826500  0.17159000  1
  H  H37  1  0.68126600  0.55173500  0.32841000  1
  H  H38  1  0.81873400  0.55173500  0.82841000  1
  H  H39  1  0.31873400  0.44826500  0.67159000  1
  H  H40  1  0.73569200  0.03219000  0.10460500  1
  H  H41  1  0.23569200  0.96781000  0.39539500  1
  H  H42  1  0.26430800  0.96781000  0.89539500  1
  H  H43  1  0.76430800  0.03219000  0.60460500  1
  H  H44  1  0.00891200  0.88389700  0.24027000  1
  H  H45  1  0.50891200  0.11610300  0.25973000  1
  H  H46  1  0.99108800  0.11610300  0.75973000  1
  H  H47  1  0.49108800  0.88389700  0.74027000  1
  Pb  Pb48  1  0.77688000  0.78029300  0.31990000  1
  Pb  Pb49  1  0.27688000  0.21970700  0.18010000  1
  Pb  Pb50  1  0.22312000  0.21970700  0.68010000  1
  Pb  Pb51  1  0.72312000  0.78029300  0.81990000  1
  Pb  Pb52  1  0.47764100  0.89157100  0.41803900  1
  Pb  Pb53  1  0.97764100  0.10842900  0.08196100  1
  Pb  Pb54  1  0.52235900  0.10842900  0.58196100  1
  Pb  Pb55  1  0.02235900  0.89157100  0.91803900  1
  Pb  Pb56  1  0.49448900  0.90004600  0.93492700  1
  Pb  Pb57  1  0.99448900  0.09995400  0.56507300  1
  Pb  Pb58  1  0.50551100  0.09995400  0.06507300  1
  Pb  Pb59  1  0.00551100  0.90004600  0.43492700  1
  Pb  Pb60  1  0.24749100  0.74582900  0.09286100  1
  Pb  Pb61  1  0.74749100  0.25417100  0.40713900  1
  Pb  Pb62  1  0.75250900  0.25417100  0.90713900  1
  Pb  Pb63  1  0.25250900  0.74582900  0.59286100  1
  Pb  Pb64  1  0.73240600  0.76509700  0.56630300  1
  Pb  Pb65  1  0.23240600  0.23490300  0.93369700  1
  Pb  Pb66  1  0.26759400  0.23490300  0.43369700  1
  Pb  Pb67  1  0.76759400  0.76509700  0.06630300  1
  Pb  Pb68  1  0.27833200  0.77082400  0.84552100  1
  Pb  Pb69  1  0.77833200  0.22917600  0.65447900  1
  Pb  Pb70  1  0.72166800  0.22917600  0.15447900  1
  Pb  Pb71  1  0.22166800  0.77082400  0.34552100  1
  Pb  Pb72  1  0.50910700  0.63438500  0.99393400  1
  Pb  Pb73  1  0.00910700  0.36561500  0.50606600  1
  Pb  Pb74  1  0.49089300  0.36561500  0.00606600  1
  Pb  Pb75  1  0.99089300  0.63438500  0.49393400  1
  Pb  Pb76  1  0.50089200  0.63714600  0.45768500  1
  Pb  Pb77  1  0.00089200  0.36285400  0.04231500  1
  Pb  Pb78  1  0.49910800  0.36285400  0.54231500  1
  Pb  Pb79  1  0.99910800  0.63714600  0.95768500  1
  S  S80  1  0.49679800  0.58115400  0.73525100  1
  S  S81  1  0.99679800  0.41884600  0.76474900  1
  S  S82  1  0.50320200  0.41884600  0.26474900  1
  S  S83  1  0.00320200  0.58115400  0.23525100  1
  S  S84  1  0.71789300  0.01190300  0.41491400  1
  S  S85  1  0.21789300  0.98809700  0.08508600  1
  S  S86  1  0.28210700  0.98809700  0.58508600  1
  S  S87  1  0.78210700  0.01190300  0.91491400  1
  O  O88  1  0.59735600  0.51742000  0.72284800  1
  O  O89  1  0.09735600  0.48258000  0.77715200  1
  O  O90  1  0.40264400  0.48258000  0.27715200  1
  O  O91  1  0.90264400  0.51742000  0.22284800  1
  O  O92  1  0.52462300  0.63791200  0.80769600  1
  O  O93  1  0.02462300  0.36208800  0.69230400  1
  O  O94  1  0.47537700  0.36208800  0.19230400  1
  O  O95  1  0.97537700  0.63791200  0.30769600  1
  O  O96  1  0.39490200  0.51771300  0.76465900  1
  O  O97  1  0.89490200  0.48228700  0.73534100  1
  O  O98  1  0.60509800  0.48228700  0.23534100  1
  O  O99  1  0.10509800  0.51771300  0.26465900  1
  O  O100  1  0.47132500  0.64493500  0.64617500  1
  O  O101  1  0.97132500  0.35506500  0.85382500  1
  O  O102  1  0.52867500  0.35506500  0.35382500  1
  O  O103  1  0.02867500  0.64493500  0.14617500  1
  O  O104  1  0.82743400  0.06659300  0.41172300  1
  O  O105  1  0.32743400  0.93340700  0.08827700  1
  O  O106  1  0.17256600  0.93340700  0.58827700  1
  O  O107  1  0.67256600  0.06659300  0.91172300  1
  O  O108  1  0.62157600  0.08236000  0.39710000  1
  O  O109  1  0.12157600  0.91764000  0.10290000  1
  O  O110  1  0.37842400  0.91764000  0.60290000  1
  O  O111  1  0.87842400  0.08236000  0.89710000  1
  O  O112  1  0.71840400  0.94881500  0.34443400  1
  O  O113  1  0.21840400  0.05118500  0.15556600  1
  O  O114  1  0.28159600  0.05118500  0.65556600  1
  O  O115  1  0.78159600  0.94881500  0.84443400  1
  O  O116  1  0.70120600  0.95239400  0.50940300  1
  O  O117  1  0.20120600  0.04760600  0.99059700  1
  O  O118  1  0.29879400  0.04760600  0.49059700  1
  O  O119  1  0.79879400  0.95239400  0.00940300  1
  O  O120  1  0.86075500  0.76235800  0.45472800  1
  O  O121  1  0.36075500  0.23764200  0.04527200  1
  O  O122  1  0.13924500  0.23764200  0.54527200  1
  O  O123  1  0.63924500  0.76235800  0.95472800  1
  O  O124  1  0.60475800  0.77095000  0.43650300  1
  O  O125  1  0.10475800  0.22905000  0.06349700  1
  O  O126  1  0.39524200  0.22905000  0.56349700  1
  O  O127  1  0.89524200  0.77095000  0.93650300  1
  O  O128  1  0.35640800  0.76154500  0.46247100  1
  O  O129  1  0.85640800  0.23845500  0.03752900  1
  O  O130  1  0.64359200  0.23845500  0.53752900  1
  O  O131  1  0.14359200  0.76154500  0.96247100  1
  O  O132  1  0.39135400  0.75878500  0.98102200  1
  O  O133  1  0.89135400  0.24121500  0.51897800  1
  O  O134  1  0.60864600  0.24121500  0.01897800  1
  O  O135  1  0.10864600  0.75878500  0.48102200  1
  O  O136  1  0.43522400  0.67122100  0.29496500  1
  O  O137  1  0.93522400  0.32877900  0.20503500  1
  O  O138  1  0.56477600  0.32877900  0.70503500  1
  O  O139  1  0.06477600  0.67122100  0.79496500  1
  O  O140  1  0.57075700  0.66938400  0.14875300  1
  O  O141  1  0.07075700  0.33061600  0.35124700  1
  O  O142  1  0.42924300  0.33061600  0.85124700  1
  O  O143  1  0.92924300  0.66938400  0.64875300  1
  O  O144  1  0.57715000  0.85271500  0.12056600  1
  O  O145  1  0.07715000  0.14728500  0.37943400  1
  O  O146  1  0.42285000  0.14728500  0.87943400  1
  O  O147  1  0.92285000  0.85271500  0.62056600  1
  O  O148  1  0.44104100  0.85740300  0.26407700  1
  O  O149  1  0.94104100  0.14259700  0.23592300  1
  O  O150  1  0.55895900  0.14259700  0.73592300  1
  O  O151  1  0.05895900  0.85740300  0.76407700  1
  O  O152  1  0.31278900  0.57428500  0.09651600  1
  O  O153  1  0.81278900  0.42571500  0.40348400  1
  O  O154  1  0.68721100  0.42571500  0.90348400  1
  O  O155  1  0.18721100  0.57428500  0.59651600  1
  O  O156  1  0.19959000  0.41177300  0.94569400  1
  O  O157  1  0.69959000  0.58822700  0.55430600  1
  O  O158  1  0.80041000  0.58822700  0.05430600  1
  O  O159  1  0.30041000  0.41177300  0.44569400  1
  O  O160  1  0.30213800  0.58251500  0.91978200  1
  O  O161  1  0.80213800  0.41748500  0.58021800  1
  O  O162  1  0.69786200  0.41748500  0.08021800  1
  O  O163  1  0.19786200  0.58251500  0.41978200  1
  O  O164  1  0.19629200  0.41083200  0.12233700  1
  O  O165  1  0.69629200  0.58916800  0.37766300  1
  O  O166  1  0.80370800  0.58916800  0.87766300  1
  O  O167  1  0.30370800  0.41083200  0.62233700  1
  O  O168  1  0.68586200  0.06628600  0.14206400  1
  O  O169  1  0.18586200  0.93371400  0.35793600  1
  O  O170  1  0.31413800  0.93371400  0.85793600  1
  O  O171  1  0.81413800  0.06628600  0.64206400  1
  O  O172  1  0.96933500  0.85156100  0.29560000  1
  O  O173  1  0.46933500  0.14843900  0.20440000  1
  O  O174  1  0.03066500  0.14843900  0.70440000  1
  O  O175  1  0.53066500  0.85156100  0.79560000  1
