# generated using pymatgen
data_GdH18C3S3(O2F)9
_symmetry_space_group_name_H-M   'P 1'
_cell_length_a   13.89352337
_cell_length_b   13.89352337
_cell_length_c   7.53934200
_cell_angle_alpha   90.00000000
_cell_angle_beta   90.00000000
_cell_angle_gamma   119.99999698
_symmetry_Int_Tables_number   1
_chemical_formula_structural   GdH18C3S3(O2F)9
_chemical_formula_sum   'Gd2 H36 C6 S6 O36 F18'
_cell_volume   1260.34336890
_cell_formula_units_Z   2
loop_
 _symmetry_equiv_pos_site_id
 _symmetry_equiv_pos_as_xyz
  1  'x, y, z'
loop_
 _atom_site_type_symbol
 _atom_site_label
 _atom_site_symmetry_multiplicity
 _atom_site_fract_x
 _atom_site_fract_y
 _atom_site_fract_z
 _atom_site_occupancy
  Gd  Gd0  1  0.33333300  0.66666700  0.25000000  1
  Gd  Gd1  1  0.66666700  0.33333300  0.75000000  1
  H  H2  1  0.09982300  0.64774800  0.35520900  1
  H  H3  1  0.54792500  0.90017700  0.35520900  1
  H  H4  1  0.35225200  0.45207500  0.35520900  1
  H  H5  1  0.90017700  0.35225200  0.85520900  1
  H  H6  1  0.45207500  0.09982300  0.85520900  1
  H  H7  1  0.64774800  0.54792500  0.85520900  1
  H  H8  1  0.90017700  0.35225200  0.64479100  1
  H  H9  1  0.45207500  0.09982300  0.64479100  1
  H  H10  1  0.64774800  0.54792500  0.64479100  1
  H  H11  1  0.09982300  0.64774800  0.14479100  1
  H  H12  1  0.54792500  0.90017700  0.14479100  1
  H  H13  1  0.35225200  0.45207500  0.14479100  1
  H  H14  1  0.36733500  0.87130600  0.04078700  1
  H  H15  1  0.50397100  0.63266500  0.04078700  1
  H  H16  1  0.12869400  0.49602900  0.04078700  1
  H  H17  1  0.63266500  0.12869400  0.54078700  1
  H  H18  1  0.49602900  0.36733500  0.54078700  1
  H  H19  1  0.87130600  0.50397100  0.54078700  1
  H  H20  1  0.63266500  0.12869400  0.95921300  1
  H  H21  1  0.49602900  0.36733500  0.95921300  1
  H  H22  1  0.87130600  0.50397100  0.95921300  1
  H  H23  1  0.36733500  0.87130600  0.45921300  1
  H  H24  1  0.50397100  0.63266500  0.45921300  1
  H  H25  1  0.12869400  0.49602900  0.45921300  1
  H  H26  1  0.28028500  0.76763200  0.93050000  1
  H  H27  1  0.48734700  0.71971500  0.93050000  1
  H  H28  1  0.23236800  0.51265300  0.93050000  1
  H  H29  1  0.71971500  0.23236800  0.43050000  1
  H  H30  1  0.51265300  0.28028500  0.43050000  1
  H  H31  1  0.76763200  0.48734700  0.43050000  1
  H  H32  1  0.71971500  0.23236800  0.06950000  1
  H  H33  1  0.51265300  0.28028500  0.06950000  1
  H  H34  1  0.76763200  0.48734700  0.06950000  1
  H  H35  1  0.28028500  0.76763200  0.56950000  1
  H  H36  1  0.48734700  0.71971500  0.56950000  1
  H  H37  1  0.23236800  0.51265300  0.56950000  1
  C  C38  1  0.01906600  0.78673100  0.75000000  1
  C  C39  1  0.76766400  0.98093400  0.75000000  1
  C  C40  1  0.21326900  0.23233600  0.75000000  1
  C  C41  1  0.98093400  0.21326900  0.25000000  1
  C  C42  1  0.23233600  0.01906600  0.25000000  1
  C  C43  1  0.78673100  0.76766400  0.25000000  1
  S  S44  1  0.06504800  0.68051200  0.75000000  1
  S  S45  1  0.61546400  0.93495200  0.75000000  1
  S  S46  1  0.31948800  0.38453600  0.75000000  1
  S  S47  1  0.93495200  0.31948800  0.25000000  1
  S  S48  1  0.38453600  0.06504800  0.25000000  1
  S  S49  1  0.68051200  0.61546400  0.25000000  1
  O  O50  1  0.14518500  0.65662900  0.25000000  1
  O  O51  1  0.51144400  0.85481500  0.25000000  1
  O  O52  1  0.34337100  0.48855600  0.25000000  1
  O  O53  1  0.85481500  0.34337100  0.75000000  1
  O  O54  1  0.48855600  0.14518500  0.75000000  1
  O  O55  1  0.65662900  0.51144400  0.75000000  1
  O  O56  1  0.34159800  0.79250100  0.01653800  1
  O  O57  1  0.45090300  0.65840200  0.01653800  1
  O  O58  1  0.20749900  0.54909700  0.01653800  1
  O  O59  1  0.65840200  0.20749900  0.51653800  1
  O  O60  1  0.54909700  0.34159800  0.51653800  1
  O  O61  1  0.79250100  0.45090300  0.51653800  1
  O  O62  1  0.65840200  0.20749900  0.98346200  1
  O  O63  1  0.54909700  0.34159800  0.98346200  1
  O  O64  1  0.79250100  0.45090300  0.98346200  1
  O  O65  1  0.34159800  0.79250100  0.48346200  1
  O  O66  1  0.45090300  0.65840200  0.48346200  1
  O  O67  1  0.20749900  0.54909700  0.48346200  1
  O  O68  1  0.18673200  0.74655300  0.75000000  1
  O  O69  1  0.55982000  0.81326800  0.75000000  1
  O  O70  1  0.25344700  0.44018000  0.75000000  1
  O  O71  1  0.81326800  0.25344700  0.25000000  1
  O  O72  1  0.44018000  0.18673200  0.25000000  1
  O  O73  1  0.74655300  0.55982000  0.25000000  1
  O  O74  1  0.01822300  0.61760100  0.91412700  1
  O  O75  1  0.59937800  0.98177700  0.91412700  1
  O  O76  1  0.38239900  0.40062200  0.91412700  1
  O  O77  1  0.98177700  0.38239900  0.41412700  1
  O  O78  1  0.40062200  0.01822300  0.41412700  1
  O  O79  1  0.61760100  0.59937800  0.41412700  1
  O  O80  1  0.98177700  0.38239900  0.08587300  1
  O  O81  1  0.40062200  0.01822300  0.08587300  1
  O  O82  1  0.61760100  0.59937800  0.08587300  1
  O  O83  1  0.01822300  0.61760100  0.58587300  1
  O  O84  1  0.59937800  0.98177700  0.58587300  1
  O  O85  1  0.38239900  0.40062200  0.58587300  1
  F  F86  1  0.90672800  0.73459100  0.75000000  1
  F  F87  1  0.82786200  0.09327200  0.75000000  1
  F  F88  1  0.26540900  0.17213800  0.75000000  1
  F  F89  1  0.09327200  0.26540900  0.25000000  1
  F  F90  1  0.17213800  0.90672800  0.25000000  1
  F  F91  1  0.73459100  0.82786200  0.25000000  1
  F  F92  1  0.05748200  0.85159700  0.89570700  1
  F  F93  1  0.79411500  0.94251800  0.89570700  1
  F  F94  1  0.14840300  0.20588500  0.89570700  1
  F  F95  1  0.94251800  0.14840300  0.39570700  1
  F  F96  1  0.20588500  0.05748200  0.39570700  1
  F  F97  1  0.85159700  0.79411500  0.39570700  1
  F  F98  1  0.94251800  0.14840300  0.10429300  1
  F  F99  1  0.20588500  0.05748200  0.10429300  1
  F  F100  1  0.85159700  0.79411500  0.10429300  1
  F  F101  1  0.05748200  0.85159700  0.60429300  1
  F  F102  1  0.79411500  0.94251800  0.60429300  1
  F  F103  1  0.14840300  0.20588500  0.60429300  1
