# generated using pymatgen
data_Al2P2H8C2NO8F
_symmetry_space_group_name_H-M   'P 1'
_cell_length_a   12.89089900
_cell_length_b   8.68955800
_cell_length_c   9.54393823
_cell_angle_alpha   67.04503711
_cell_angle_beta   90.00000000
_cell_angle_gamma   90.00000000
_symmetry_Int_Tables_number   1
_chemical_formula_structural   Al2P2H8C2NO8F
_chemical_formula_sum   'Al8 P8 H32 C8 N4 O32 F4'
_cell_volume   984.41753607
_cell_formula_units_Z   4
loop_
 _symmetry_equiv_pos_site_id
 _symmetry_equiv_pos_as_xyz
  1  'x, y, z'
loop_
 _atom_site_type_symbol
 _atom_site_label
 _atom_site_symmetry_multiplicity
 _atom_site_fract_x
 _atom_site_fract_y
 _atom_site_fract_z
 _atom_site_occupancy
  Al  Al0  1  0.59842500  0.09050800  0.43481200  1
  Al  Al1  1  0.09842500  0.40949200  0.56518800  1
  Al  Al2  1  0.40157500  0.90949200  0.56518800  1
  Al  Al3  1  0.90157500  0.59050800  0.43481200  1
  Al  Al4  1  0.88265300  0.31925200  0.12827900  1
  Al  Al5  1  0.38265300  0.18074800  0.87172100  1
  Al  Al6  1  0.11734700  0.68074800  0.87172100  1
  Al  Al7  1  0.61734700  0.81925200  0.12827900  1
  P  P8  1  0.45045300  0.01887500  0.21710000  1
  P  P9  1  0.95045300  0.48112500  0.78290000  1
  P  P10  1  0.54954700  0.98112500  0.78290000  1
  P  P11  1  0.04954700  0.51887500  0.21710000  1
  P  P12  1  0.71256100  0.45476700  0.29361600  1
  P  P13  1  0.21256100  0.04523300  0.70638400  1
  P  P14  1  0.28743900  0.54523300  0.70638400  1
  P  P15  1  0.78743900  0.95476700  0.29361600  1
  H  H16  1  0.25821900  0.41029600  0.30943800  1
  H  H17  1  0.75821900  0.08970400  0.69056200  1
  H  H18  1  0.74178100  0.58970400  0.69056200  1
  H  H19  1  0.24178100  0.91029600  0.30943800  1
  H  H20  1  0.35690100  0.27279200  0.33698800  1
  H  H21  1  0.85690100  0.22720800  0.66301200  1
  H  H22  1  0.64309900  0.72720800  0.66301200  1
  H  H23  1  0.14309900  0.77279200  0.33698800  1
  H  H24  1  0.35775500  0.59198500  0.37269000  1
  H  H25  1  0.85775500  0.90801500  0.62731000  1
  H  H26  1  0.64224500  0.40801500  0.62731000  1
  H  H27  1  0.14224500  0.09198500  0.37269000  1
  H  H28  1  0.31152600  0.43765600  0.05970800  1
  H  H29  1  0.81152600  0.06234400  0.94029200  1
  H  H30  1  0.68847400  0.56234400  0.94029200  1
  H  H31  1  0.18847400  0.93765600  0.05970800  1
  H  H32  1  0.47440700  0.51051200  0.32509400  1
  H  H33  1  0.97440700  0.98948800  0.67490600  1
  H  H34  1  0.52559300  0.48948800  0.67490600  1
  H  H35  1  0.02559300  0.01051200  0.32509400  1
  H  H36  1  0.36555800  0.61083600  0.09228800  1
  H  H37  1  0.86555800  0.88916400  0.90771200  1
  H  H38  1  0.63444200  0.38916400  0.90771200  1
  H  H39  1  0.13444200  0.11083600  0.09228800  1
  H  H40  1  0.40681400  0.39192500  0.49648400  1
  H  H41  1  0.90681400  0.10807500  0.50351600  1
  H  H42  1  0.59318600  0.60807500  0.50351600  1
  H  H43  1  0.09318600  0.89192500  0.49648400  1
  H  H44  1  0.44432200  0.43212800  0.11703500  1
  H  H45  1  0.94432200  0.06787200  0.88296500  1
  H  H46  1  0.55567800  0.56787200  0.88296500  1
  H  H47  1  0.05567800  0.93212800  0.11703500  1
  C  C48  1  0.36596200  0.47477000  0.12814200  1
  C  C49  1  0.86596200  0.02523000  0.87185800  1
  C  C50  1  0.63403800  0.52523000  0.87185800  1
  C  C51  1  0.13403800  0.97477000  0.12814200  1
  C  C52  1  0.39821100  0.47931900  0.37866700  1
  C  C53  1  0.89821100  0.02068100  0.62133300  1
  C  C54  1  0.60178900  0.52068100  0.62133300  1
  C  C55  1  0.10178900  0.97931900  0.37866700  1
  N  N56  1  0.33802900  0.39850900  0.29252100  1
  N  N57  1  0.83802900  0.10149100  0.70747900  1
  N  N58  1  0.66197100  0.60149100  0.70747900  1
  N  N59  1  0.16197100  0.89850900  0.29252100  1
  O  O60  1  0.64415900  0.30404000  0.38004400  1
  O  O61  1  0.14415900  0.19596000  0.61995600  1
  O  O62  1  0.35584100  0.69596000  0.61995600  1
  O  O63  1  0.85584100  0.80404000  0.38004400  1
  O  O64  1  0.78023600  0.49693600  0.40568400  1
  O  O65  1  0.28023600  0.00306400  0.59431600  1
  O  O66  1  0.21976400  0.50306400  0.59431600  1
  O  O67  1  0.71976400  0.99693600  0.40568400  1
  O  O68  1  0.77946000  0.42409700  0.17198700  1
  O  O69  1  0.27946000  0.07590300  0.82801300  1
  O  O70  1  0.22054000  0.57590300  0.82801300  1
  O  O71  1  0.72054000  0.92409700  0.17198700  1
  O  O72  1  0.53695000  0.12734800  0.24247100  1
  O  O73  1  0.03695000  0.37265200  0.75752900  1
  O  O74  1  0.46305000  0.87265200  0.75752900  1
  O  O75  1  0.96305000  0.62734800  0.24247100  1
  O  O76  1  0.37008300  0.96117200  0.34933700  1
  O  O77  1  0.87008300  0.53882800  0.65066300  1
  O  O78  1  0.62991700  0.03882800  0.65066300  1
  O  O79  1  0.12991700  0.46117200  0.34933700  1
  O  O80  1  0.38803000  0.12004100  0.07058800  1
  O  O81  1  0.88803000  0.37995900  0.92941200  1
  O  O82  1  0.61197000  0.87995900  0.92941200  1
  O  O83  1  0.11197000  0.62004100  0.07058800  1
  O  O84  1  0.49798600  0.86409500  0.19548200  1
  O  O85  1  0.99798600  0.63590500  0.80451800  1
  O  O86  1  0.50201400  0.13590500  0.80451800  1
  O  O87  1  0.00201400  0.36409500  0.19548200  1
  O  O88  1  0.63886600  0.60274500  0.20554500  1
  O  O89  1  0.13886600  0.89725500  0.79445500  1
  O  O90  1  0.36113400  0.39725500  0.79445500  1
  O  O91  1  0.86113400  0.10274500  0.20554500  1
  F  F92  1  0.46234800  0.13040800  0.49042100  1
  F  F93  1  0.96234800  0.36959200  0.50957900  1
  F  F94  1  0.53765200  0.86959200  0.50957900  1
  F  F95  1  0.03765200  0.63040800  0.49042100  1
