# generated using pymatgen
data_ZrH11C4NOF5
_symmetry_space_group_name_H-M   'P 1'
_cell_length_a   9.86683400
_cell_length_b   10.16048500
_cell_length_c   19.31917100
_cell_angle_alpha   90.00000000
_cell_angle_beta   90.00000000
_cell_angle_gamma   90.00000000
_symmetry_Int_Tables_number   1
_chemical_formula_structural   ZrH11C4NOF5
_chemical_formula_sum   'Zr8 H88 C32 N8 O8 F40'
_cell_volume   1936.78203151
_cell_formula_units_Z   8
loop_
 _symmetry_equiv_pos_site_id
 _symmetry_equiv_pos_as_xyz
  1  'x, y, z'
loop_
 _atom_site_type_symbol
 _atom_site_label
 _atom_site_symmetry_multiplicity
 _atom_site_fract_x
 _atom_site_fract_y
 _atom_site_fract_z
 _atom_site_occupancy
  Zr  Zr0  1  0.09120300  0.53151600  0.41957300  1
  Zr  Zr1  1  0.59120300  0.46848400  0.08042700  1
  Zr  Zr2  1  0.90879700  0.96848400  0.91957300  1
  Zr  Zr3  1  0.40879700  0.03151600  0.58042700  1
  Zr  Zr4  1  0.90879700  0.46848400  0.58042700  1
  Zr  Zr5  1  0.40879700  0.53151600  0.91957300  1
  Zr  Zr6  1  0.09120300  0.03151600  0.08042700  1
  Zr  Zr7  1  0.59120300  0.96848400  0.41957300  1
  H  H8  1  0.14382900  0.01148000  0.44445200  1
  H  H9  1  0.64382900  0.98852000  0.05554800  1
  H  H10  1  0.85617100  0.48852000  0.94445200  1
  H  H11  1  0.35617100  0.51148000  0.55554800  1
  H  H12  1  0.85617100  0.98852000  0.55554800  1
  H  H13  1  0.35617100  0.01148000  0.94445200  1
  H  H14  1  0.14382900  0.51148000  0.05554800  1
  H  H15  1  0.64382900  0.48852000  0.44445200  1
  H  H16  1  0.96798600  0.97165900  0.42515900  1
  H  H17  1  0.46798600  0.02834100  0.07484100  1
  H  H18  1  0.03201400  0.52834100  0.92515900  1
  H  H19  1  0.53201400  0.47165900  0.57484100  1
  H  H20  1  0.03201400  0.02834100  0.57484100  1
  H  H21  1  0.53201400  0.97165900  0.92515900  1
  H  H22  1  0.96798600  0.47165900  0.07484100  1
  H  H23  1  0.46798600  0.52834100  0.42515900  1
  H  H24  1  0.01915800  0.14053000  0.43500500  1
  H  H25  1  0.51915800  0.85947000  0.06499500  1
  H  H26  1  0.98084200  0.35947000  0.93500500  1
  H  H27  1  0.48084200  0.64053000  0.56499500  1
  H  H28  1  0.98084200  0.85947000  0.56499500  1
  H  H29  1  0.48084200  0.14053000  0.93500500  1
  H  H30  1  0.01915800  0.64053000  0.06499500  1
  H  H31  1  0.51915800  0.35947000  0.43500500  1
  H  H32  1  0.22315500  0.14072700  0.27375200  1
  H  H33  1  0.72315500  0.85927300  0.22624800  1
  H  H34  1  0.77684500  0.35927300  0.77375200  1
  H  H35  1  0.27684500  0.64072700  0.72624800  1
  H  H36  1  0.77684500  0.85927300  0.72624800  1
  H  H37  1  0.27684500  0.14072700  0.77375200  1
  H  H38  1  0.22315500  0.64072700  0.22624800  1
  H  H39  1  0.72315500  0.35927300  0.27375200  1
  H  H40  1  0.29264400  0.09362700  0.35637500  1
  H  H41  1  0.79264400  0.90637300  0.14362500  1
  H  H42  1  0.70735600  0.40637300  0.85637500  1
  H  H43  1  0.20735600  0.59362700  0.64362500  1
  H  H44  1  0.70735600  0.90637300  0.64362500  1
  H  H45  1  0.20735600  0.09362700  0.85637500  1
  H  H46  1  0.29264400  0.59362700  0.14362500  1
  H  H47  1  0.79264400  0.40637300  0.35637500  1
  H  H48  1  0.18095500  0.23338700  0.35053800  1
  H  H49  1  0.68095500  0.76661300  0.14946200  1
  H  H50  1  0.81904500  0.26661300  0.85053800  1
  H  H51  1  0.31904500  0.73338700  0.64946200  1
  H  H52  1  0.81904500  0.76661300  0.64946200  1
  H  H53  1  0.31904500  0.23338700  0.85053800  1
  H  H54  1  0.18095500  0.73338700  0.14946200  1
  H  H55  1  0.68095500  0.26661300  0.35053800  1
  H  H56  1  0.13734200  0.91751500  0.26008700  1
  H  H57  1  0.63734200  0.08248500  0.23991300  1
  H  H58  1  0.86265800  0.58248500  0.76008700  1
  H  H59  1  0.36265800  0.41751500  0.73991300  1
  H  H60  1  0.86265800  0.08248500  0.73991300  1
  H  H61  1  0.36265800  0.91751500  0.76008700  1
  H  H62  1  0.13734200  0.41751500  0.23991300  1
  H  H63  1  0.63734200  0.58248500  0.26008700  1
  H  H64  1  0.02655700  0.84854600  0.32521500  1
  H  H65  1  0.52655700  0.15145400  0.17478500  1
  H  H66  1  0.97344300  0.65145400  0.82521500  1
  H  H67  1  0.47344300  0.34854600  0.67478500  1
  H  H68  1  0.97344300  0.15145400  0.67478500  1
  H  H69  1  0.47344300  0.84854600  0.82521500  1
  H  H70  1  0.02655700  0.34854600  0.17478500  1
  H  H71  1  0.52655700  0.65145400  0.32521500  1
  H  H72  1  0.20187600  0.87325400  0.34490600  1
  H  H73  1  0.70187600  0.12674600  0.15509400  1
  H  H74  1  0.79812400  0.62674600  0.84490600  1
  H  H75  1  0.29812400  0.37325400  0.65509400  1
  H  H76  1  0.79812400  0.12674600  0.65509400  1
  H  H77  1  0.29812400  0.87325400  0.84490600  1
  H  H78  1  0.20187600  0.37325400  0.15509400  1
  H  H79  1  0.70187600  0.62674600  0.34490600  1
  H  H80  1  0.96431900  0.20909200  0.30347800  1
  H  H81  1  0.46431900  0.79090800  0.19652200  1
  H  H82  1  0.03568100  0.29090800  0.80347800  1
  H  H83  1  0.53568100  0.70909200  0.69652200  1
  H  H84  1  0.03568100  0.79090800  0.69652200  1
  H  H85  1  0.53568100  0.20909200  0.80347800  1
  H  H86  1  0.96431900  0.70909200  0.19652200  1
  H  H87  1  0.46431900  0.29090800  0.30347800  1
  H  H88  1  0.87942300  0.03712800  0.30135700  1
  H  H89  1  0.37942300  0.96287200  0.19864300  1
  H  H90  1  0.12057700  0.46287200  0.80135700  1
  H  H91  1  0.62057700  0.53712800  0.69864300  1
  H  H92  1  0.12057700  0.96287200  0.69864300  1
  H  H93  1  0.62057700  0.03712800  0.80135700  1
  H  H94  1  0.87942300  0.53712800  0.19864300  1
  H  H95  1  0.37942300  0.46287200  0.30135700  1
  C  C96  1  0.05062000  0.04257200  0.41802200  1
  C  C97  1  0.55062000  0.95742800  0.08197800  1
  C  C98  1  0.94938000  0.45742800  0.91802200  1
  C  C99  1  0.44938000  0.54257200  0.58197800  1
  C  C100  1  0.94938000  0.95742800  0.58197800  1
  C  C101  1  0.44938000  0.04257200  0.91802200  1
  C  C102  1  0.05062000  0.54257200  0.08197800  1
  C  C103  1  0.55062000  0.45742800  0.41802200  1
  C  C104  1  0.20511000  0.13571700  0.32963700  1
  C  C105  1  0.70511000  0.86428300  0.17036300  1
  C  C106  1  0.79489000  0.36428300  0.82963700  1
  C  C107  1  0.29489000  0.63571700  0.67036300  1
  C  C108  1  0.79489000  0.86428300  0.67036300  1
  C  C109  1  0.29489000  0.13571700  0.82963700  1
  C  C110  1  0.20511000  0.63571700  0.17036300  1
  C  C111  1  0.70511000  0.36428300  0.32963700  1
  C  C112  1  0.11500700  0.91078700  0.31576300  1
  C  C113  1  0.61500700  0.08921300  0.18423700  1
  C  C114  1  0.88499300  0.58921300  0.81576300  1
  C  C115  1  0.38499300  0.41078700  0.68423700  1
  C  C116  1  0.88499300  0.08921300  0.68423700  1
  C  C117  1  0.38499300  0.91078700  0.81576300  1
  C  C118  1  0.11500700  0.41078700  0.18423700  1
  C  C119  1  0.61500700  0.58921300  0.31576300  1
  C  C120  1  0.96620200  0.10227300  0.30754700  1
  C  C121  1  0.46620200  0.89772700  0.19245300  1
  C  C122  1  0.03379800  0.39772700  0.80754700  1
  C  C123  1  0.53379800  0.60227300  0.69245300  1
  C  C124  1  0.03379800  0.89772700  0.69245300  1
  C  C125  1  0.53379800  0.10227300  0.80754700  1
  C  C126  1  0.96620200  0.60227300  0.19245300  1
  C  C127  1  0.46620200  0.39772700  0.30754700  1
  N  N128  1  0.08437700  0.04802800  0.34120800  1
  N  N129  1  0.58437700  0.95197200  0.15879200  1
  N  N130  1  0.91562300  0.45197200  0.84120800  1
  N  N131  1  0.41562300  0.54802800  0.65879200  1
  N  N132  1  0.91562300  0.95197200  0.65879200  1
  N  N133  1  0.41562300  0.04802800  0.84120800  1
  N  N134  1  0.08437700  0.54802800  0.15879200  1
  N  N135  1  0.58437700  0.45197200  0.34120800  1
  O  O136  1  0.24091700  0.68940800  0.45014400  1
  O  O137  1  0.74091700  0.31059200  0.04985600  1
  O  O138  1  0.75908300  0.81059200  0.95014400  1
  O  O139  1  0.25908300  0.18940800  0.54985600  1
  O  O140  1  0.75908300  0.31059200  0.54985600  1
  O  O141  1  0.25908300  0.68940800  0.95014400  1
  O  O142  1  0.24091700  0.18940800  0.04985600  1
  O  O143  1  0.74091700  0.81059200  0.45014400  1
  F  F144  1  0.93786500  0.41222300  0.47132800  1
  F  F145  1  0.43786500  0.58777700  0.02867200  1
  F  F146  1  0.06213500  0.08777700  0.97132800  1
  F  F147  1  0.56213500  0.91222300  0.52867200  1
  F  F148  1  0.06213500  0.58777700  0.52867200  1
  F  F149  1  0.56213500  0.41222300  0.97132800  1
  F  F150  1  0.93786500  0.91222300  0.02867200  1
  F  F151  1  0.43786500  0.08777700  0.47132800  1
  F  F152  1  0.22206200  0.59451400  0.34069700  1
  F  F153  1  0.72206200  0.40548600  0.15930300  1
  F  F154  1  0.77793800  0.90548600  0.84069700  1
  F  F155  1  0.27793800  0.09451400  0.65930300  1
  F  F156  1  0.77793800  0.40548600  0.65930300  1
  F  F157  1  0.27793800  0.59451400  0.84069700  1
  F  F158  1  0.22206200  0.09451400  0.15930300  1
  F  F159  1  0.72206200  0.90548600  0.34069700  1
  F  F160  1  0.96055700  0.67235900  0.39171600  1
  F  F161  1  0.46055700  0.32764100  0.10828400  1
  F  F162  1  0.03944300  0.82764100  0.89171600  1
  F  F163  1  0.53944300  0.17235900  0.60828400  1
  F  F164  1  0.03944300  0.32764100  0.60828400  1
  F  F165  1  0.53944300  0.67235900  0.89171600  1
  F  F166  1  0.96055700  0.17235900  0.10828400  1
  F  F167  1  0.46055700  0.82764100  0.39171600  1
  F  F168  1  0.24761300  0.42189000  0.45535700  1
  F  F169  1  0.74761300  0.57811000  0.04464300  1
  F  F170  1  0.75238700  0.07811000  0.95535700  1
  F  F171  1  0.25238700  0.92189000  0.54464300  1
  F  F172  1  0.75238700  0.57811000  0.54464300  1
  F  F173  1  0.25238700  0.42189000  0.95535700  1
  F  F174  1  0.24761300  0.92189000  0.04464300  1
  F  F175  1  0.74761300  0.07811000  0.45535700  1
  F  F176  1  0.03451500  0.40245900  0.34424200  1
  F  F177  1  0.53451500  0.59754100  0.15575800  1
  F  F178  1  0.96548500  0.09754100  0.84424200  1
  F  F179  1  0.46548500  0.90245900  0.65575800  1
  F  F180  1  0.96548500  0.59754100  0.65575800  1
  F  F181  1  0.46548500  0.40245900  0.84424200  1
  F  F182  1  0.03451500  0.90245900  0.15575800  1
  F  F183  1  0.53451500  0.09754100  0.34424200  1
