# generated using pymatgen
data_Sb6H3CCl13O10
_symmetry_space_group_name_H-M   'P 1'
_cell_length_a   14.98061500
_cell_length_b   13.77816500
_cell_length_c   18.40544388
_cell_angle_alpha   50.00422319
_cell_angle_beta   90.00000000
_cell_angle_gamma   90.00000000
_symmetry_Int_Tables_number   1
_chemical_formula_structural   Sb6H3CCl13O10
_chemical_formula_sum   'Sb24 H12 C4 Cl52 O40'
_cell_volume   2910.36959773
_cell_formula_units_Z   4
loop_
 _symmetry_equiv_pos_site_id
 _symmetry_equiv_pos_as_xyz
  1  'x, y, z'
loop_
 _atom_site_type_symbol
 _atom_site_label
 _atom_site_symmetry_multiplicity
 _atom_site_fract_x
 _atom_site_fract_y
 _atom_site_fract_z
 _atom_site_occupancy
  Sb  Sb0  1  0.84459400  0.99012700  0.91043100  1
  Sb  Sb1  1  0.65540600  0.99012700  0.41043100  1
  Sb  Sb2  1  0.15540600  0.00987300  0.08956900  1
  Sb  Sb3  1  0.34459400  0.00987300  0.58956900  1
  Sb  Sb4  1  0.95711700  0.73584600  0.10255900  1
  Sb  Sb5  1  0.54288300  0.73584600  0.60255900  1
  Sb  Sb6  1  0.04288300  0.26415400  0.89744100  1
  Sb  Sb7  1  0.45711700  0.26415400  0.39744100  1
  Sb  Sb8  1  0.76966300  0.22366500  0.94083400  1
  Sb  Sb9  1  0.73033700  0.22366500  0.44083400  1
  Sb  Sb10  1  0.23033700  0.77633500  0.05916600  1
  Sb  Sb11  1  0.26966300  0.77633500  0.55916600  1
  Sb  Sb12  1  0.90874500  0.00967800  0.10281800  1
  Sb  Sb13  1  0.59125500  0.00967800  0.60281800  1
  Sb  Sb14  1  0.09125500  0.99032200  0.89718200  1
  Sb  Sb15  1  0.40874500  0.99032200  0.39718200  1
  Sb  Sb16  1  0.98170700  0.74749500  0.30069800  1
  Sb  Sb17  1  0.51829300  0.74749500  0.80069800  1
  Sb  Sb18  1  0.01829300  0.25250500  0.69930200  1
  Sb  Sb19  1  0.48170700  0.25250500  0.19930200  1
  Sb  Sb20  1  0.15701500  0.64030000  0.27016600  1
  Sb  Sb21  1  0.34298500  0.64030000  0.77016600  1
  Sb  Sb22  1  0.84298500  0.35970000  0.72983400  1
  Sb  Sb23  1  0.65701500  0.35970000  0.22983400  1
  H  H24  1  0.88696400  0.76044500  0.95181000  1
  H  H25  1  0.61303600  0.76044500  0.45181000  1
  H  H26  1  0.11303600  0.23955500  0.04819000  1
  H  H27  1  0.38696400  0.23955500  0.54819000  1
  H  H28  1  0.82287000  0.65876300  0.77974200  1
  H  H29  1  0.67713000  0.65876300  0.27974200  1
  H  H30  1  0.17713000  0.34123700  0.22025800  1
  H  H31  1  0.32287000  0.34123700  0.72025800  1
  H  H32  1  0.79348000  0.80025300  0.76273200  1
  H  H33  1  0.70652000  0.80025300  0.26273200  1
  H  H34  1  0.20652000  0.19974700  0.23726800  1
  H  H35  1  0.29348000  0.19974700  0.73726800  1
  C  C36  1  0.84517400  0.73121100  0.78314500  1
  C  C37  1  0.65482600  0.73121100  0.28314500  1
  C  C38  1  0.15482600  0.26878900  0.21685500  1
  C  C39  1  0.34517400  0.26878900  0.71685500  1
  Cl  Cl40  1  0.79931700  0.01479100  0.77794000  1
  Cl  Cl41  1  0.70068300  0.01479100  0.27794000  1
  Cl  Cl42  1  0.20068300  0.98520900  0.22206000  1
  Cl  Cl43  1  0.29931700  0.98520900  0.72206000  1
  Cl  Cl44  1  0.70656500  0.90743800  0.98563200  1
  Cl  Cl45  1  0.79343500  0.90743800  0.48563200  1
  Cl  Cl46  1  0.29343500  0.09256200  0.01436800  1
  Cl  Cl47  1  0.20656500  0.09256200  0.51436800  1
  Cl  Cl48  1  0.00003000  0.55656300  0.12317400  1
  Cl  Cl49  1  0.49997000  0.55656300  0.62317400  1
  Cl  Cl50  1  0.99997000  0.44343700  0.87682600  1
  Cl  Cl51  1  0.50003000  0.44343700  0.37682600  1
  Cl  Cl52  1  0.82441400  0.64111300  0.18689800  1
  Cl  Cl53  1  0.67558600  0.64111300  0.68689800  1
  Cl  Cl54  1  0.17558600  0.35888700  0.81310200  1
  Cl  Cl55  1  0.32441400  0.35888700  0.31310200  1
  Cl  Cl56  1  0.75861600  0.32427000  0.00459500  1
  Cl  Cl57  1  0.74138400  0.32427000  0.50459500  1
  Cl  Cl58  1  0.24138400  0.67573000  0.99540500  1
  Cl  Cl59  1  0.25861600  0.67573000  0.49540500  1
  Cl  Cl60  1  0.61908800  0.21700800  0.91608800  1
  Cl  Cl61  1  0.88091200  0.21700800  0.41608800  1
  Cl  Cl62  1  0.38091200  0.78299200  0.08391200  1
  Cl  Cl63  1  0.11908800  0.78299200  0.58391200  1
  Cl  Cl64  1  0.91719300  0.10974300  0.16809200  1
  Cl  Cl65  1  0.58280700  0.10974300  0.66809200  1
  Cl  Cl66  1  0.08280700  0.89025700  0.83190800  1
  Cl  Cl67  1  0.41719300  0.89025700  0.33190800  1
  Cl  Cl68  1  0.98288000  0.82403100  0.38247300  1
  Cl  Cl69  1  0.51712000  0.82403100  0.88247300  1
  Cl  Cl70  1  0.01712000  0.17596900  0.61752700  1
  Cl  Cl71  1  0.48288000  0.17596900  0.11752700  1
  Cl  Cl72  1  0.90755800  0.55852300  0.41155600  1
  Cl  Cl73  1  0.59244200  0.55852300  0.91155600  1
  Cl  Cl74  1  0.09244200  0.44147700  0.58844400  1
  Cl  Cl75  1  0.40755800  0.44147700  0.08844400  1
  Cl  Cl76  1  0.29893500  0.62289100  0.32967100  1
  Cl  Cl77  1  0.20106500  0.62289100  0.82967100  1
  Cl  Cl78  1  0.70106500  0.37710900  0.67032900  1
  Cl  Cl79  1  0.79893500  0.37710900  0.17032900  1
  Cl  Cl80  1  0.11341400  0.42900600  0.38217500  1
  Cl  Cl81  1  0.38658600  0.42900600  0.88217500  1
  Cl  Cl82  1  0.88658600  0.57099400  0.61782500  1
  Cl  Cl83  1  0.61341400  0.57099400  0.11782500  1
  Cl  Cl84  1  0.87130200  0.64661900  0.90585400  1
  Cl  Cl85  1  0.62869800  0.64661900  0.40585400  1
  Cl  Cl86  1  0.12869800  0.35338100  0.09414600  1
  Cl  Cl87  1  0.37130200  0.35338100  0.59414600  1
  Cl  Cl88  1  0.93846600  0.80942300  0.70853500  1
  Cl  Cl89  1  0.56153400  0.80942300  0.20853500  1
  Cl  Cl90  1  0.06153400  0.19057700  0.29146500  1
  Cl  Cl91  1  0.43846600  0.19057700  0.79146500  1
  O  O92  1  0.89571900  0.80872500  0.97443400  1
  O  O93  1  0.60428100  0.80872500  0.47443400  1
  O  O94  1  0.10428100  0.19127500  0.02556600  1
  O  O95  1  0.39571900  0.19127500  0.52556600  1
  O  O96  1  0.81096100  0.38376800  0.82094700  1
  O  O97  1  0.68903900  0.38376800  0.32094700  1
  O  O98  1  0.18903900  0.61623200  0.17905300  1
  O  O99  1  0.31096100  0.61623200  0.67905300  1
  O  O100  1  0.78254800  0.05114300  0.06154700  1
  O  O101  1  0.71745200  0.05114300  0.56154700  1
  O  O102  1  0.21745200  0.94885700  0.93845300  1
  O  O103  1  0.28254800  0.94885700  0.43845300  1
  O  O104  1  0.87643100  0.83984500  0.22157300  1
  O  O105  1  0.62356900  0.83984500  0.72157300  1
  O  O106  1  0.12356900  0.16015500  0.77842700  1
  O  O107  1  0.37643100  0.16015500  0.27842700  1
  O  O108  1  0.10859600  0.70460000  0.33140400  1
  O  O109  1  0.39140400  0.70460000  0.83140400  1
  O  O110  1  0.89140400  0.29540000  0.66859600  1
  O  O111  1  0.60859600  0.29540000  0.16859600  1
  O  O112  1  0.90914500  0.92055400  0.03877700  1
  O  O113  1  0.59085500  0.92055400  0.53877700  1
  O  O114  1  0.09085500  0.07944600  0.96122300  1
  O  O115  1  0.40914500  0.07944600  0.46122300  1
  O  O116  1  0.80900800  0.16651500  0.86121100  1
  O  O117  1  0.69099200  0.16651500  0.36121100  1
  O  O118  1  0.19099200  0.83348500  0.13878900  1
  O  O119  1  0.30900800  0.83348500  0.63878900  1
  O  O120  1  0.07057700  0.82424800  0.02880500  1
  O  O121  1  0.42942300  0.82424800  0.52880500  1
  O  O122  1  0.92942300  0.17575200  0.97119500  1
  O  O123  1  0.57057700  0.17575200  0.47119500  1
  O  O124  1  0.96618100  0.06131600  0.84968200  1
  O  O125  1  0.53381900  0.06131600  0.34968200  1
  O  O126  1  0.03381900  0.93868400  0.15031800  1
  O  O127  1  0.46618100  0.93868400  0.65031800  1
  O  O128  1  0.01843300  0.69207000  0.21896900  1
  O  O129  1  0.48156700  0.69207000  0.71896900  1
  O  O130  1  0.98156700  0.30793000  0.78103100  1
  O  O131  1  0.51843300  0.30793000  0.28103100  1
