# generated using pymatgen
data_Cs2K2B10O17
_symmetry_space_group_name_H-M   'P 1'
_cell_length_a   6.67636500
_cell_length_b   11.43838953
_cell_length_c   11.96361141
_cell_angle_alpha   102.67629303
_cell_angle_beta   106.04981192
_cell_angle_gamma   89.91518627
_symmetry_Int_Tables_number   1
_chemical_formula_structural   Cs2K2B10O17
_chemical_formula_sum   'Cs4 K4 B20 O34'
_cell_volume   854.90219773
_cell_formula_units_Z   2
loop_
 _symmetry_equiv_pos_site_id
 _symmetry_equiv_pos_as_xyz
  1  'x, y, z'
loop_
 _atom_site_type_symbol
 _atom_site_label
 _atom_site_symmetry_multiplicity
 _atom_site_fract_x
 _atom_site_fract_y
 _atom_site_fract_z
 _atom_site_occupancy
  Cs  Cs0  1  0.36647200  0.59633500  0.11165700  1
  Cs  Cs1  1  0.63449700  0.40502400  0.88972100  1
  Cs  Cs2  1  0.25503500  0.90454400  0.88896500  1
  Cs  Cs3  1  0.75115200  0.09258300  0.10923900  1
  K  K4  1  0.65106300  0.67221100  0.45753300  1
  K  K5  1  0.19219600  0.82678300  0.54044400  1
  K  K6  1  0.80866600  0.17456300  0.45676100  1
  K  K7  1  0.35637800  0.32428000  0.54331600  1
  B  B8  1  0.20224600  0.16336700  0.71178300  1
  B  B9  1  0.79903300  0.83737100  0.28853600  1
  B  B10  1  0.13956200  0.57463200  0.69691100  1
  B  B11  1  0.22458100  0.23521800  0.10213500  1
  B  B12  1  0.89115900  0.01531900  0.66616800  1
  B  B13  1  0.22619900  0.48517100  0.33359900  1
  B  B14  1  0.77223500  0.76544000  0.89581200  1
  B  B15  1  0.50612700  0.66373200  0.71005500  1
  B  B16  1  0.49249400  0.33693200  0.28716000  1
  B  B17  1  0.31688500  0.12924200  0.26906200  1
  B  B18  1  0.55902200  0.07515200  0.70064800  1
  B  B19  1  0.68293300  0.87106600  0.72861800  1
  B  B20  1  0.44359500  0.92649300  0.30095700  1
  B  B21  1  0.86008300  0.42577400  0.29983400  1
  B  B22  1  0.12264500  0.26789800  0.89751900  1
  B  B23  1  0.95503600  0.62916500  0.27031100  1
  B  B24  1  0.11162000  0.98615500  0.33520600  1
  B  B25  1  0.77421800  0.51536500  0.66572000  1
  B  B26  1  0.04691000  0.37195100  0.72953900  1
  B  B27  1  0.87738500  0.73292100  0.10178400  1
  O  O28  1  0.20098200  0.13562500  0.14397300  1
  O  O29  1  0.60726500  0.68215900  0.84228300  1
  O  O30  1  0.38811200  0.31968200  0.15562400  1
  O  O31  1  0.09771100  0.26036600  0.66340500  1
  O  O32  1  0.07452300  0.25214300  0.00024800  1
  O  O33  1  0.08131800  0.04452200  0.65294800  1
  O  O34  1  0.06050700  0.36812300  0.85602500  1
  O  O35  1  0.82644000  0.40071800  0.67449600  1
  O  O36  1  0.84466400  0.89972600  0.67100300  1
  O  O37  1  0.72385200  0.34195200  0.30882900  1
  O  O38  1  0.41254600  0.15836600  0.69044800  1
  O  O39  1  0.92147900  0.74786100  0.99791900  1
  O  O40  1  0.17438100  0.60034800  0.32716800  1
  O  O41  1  0.53741600  0.97118500  0.73608100  1
  O  O42  1  0.80287000  0.52984600  0.26502300  1
  O  O43  1  0.92085100  0.95616500  0.34694200  1
  O  O44  1  0.43666100  0.23956800  0.33505900  1
  O  O45  1  0.42924000  0.45561300  0.34650400  1
  O  O46  1  0.22937800  0.18143200  0.84334700  1
  O  O47  1  0.57122100  0.54494700  0.65217100  1
  O  O48  1  0.26342600  0.90137100  0.33358900  1
  O  O49  1  0.56327800  0.76091900  0.66244200  1
  O  O50  1  0.27460200  0.65799300  0.68662300  1
  O  O51  1  0.77051200  0.81911600  0.15663100  1
  O  O52  1  0.92714600  0.60024200  0.66780300  1
  O  O53  1  0.59017000  0.84316900  0.31126100  1
  O  O54  1  0.15526000  0.10082900  0.32711100  1
  O  O55  1  0.19761900  0.47108300  0.73320400  1
  O  O56  1  0.90302400  0.74030600  0.33629600  1
  O  O57  1  0.07230800  0.39950600  0.32881400  1
  O  O58  1  0.46102100  0.02811300  0.26142800  1
  O  O59  1  0.79881600  0.86469100  0.85392100  1
  O  O60  1  0.74297500  0.10164500  0.67253100  1
  O  O61  1  0.94409800  0.63392400  0.14426800  1
