# generated using pymatgen
data_HRu6C16NO16
_symmetry_space_group_name_H-M   'P 1'
_cell_length_a   10.35504900
_cell_length_b   15.48417800
_cell_length_c   16.45099853
_cell_angle_alpha   81.54726755
_cell_angle_beta   90.00000000
_cell_angle_gamma   90.00000000
_symmetry_Int_Tables_number   1
_chemical_formula_structural   HRu6C16NO16
_chemical_formula_sum   'H4 Ru24 C64 N4 O64'
_cell_volume   2609.09101488
_cell_formula_units_Z   4
loop_
 _symmetry_equiv_pos_site_id
 _symmetry_equiv_pos_as_xyz
  1  'x, y, z'
loop_
 _atom_site_type_symbol
 _atom_site_label
 _atom_site_symmetry_multiplicity
 _atom_site_fract_x
 _atom_site_fract_y
 _atom_site_fract_z
 _atom_site_occupancy
  H  H0  1  0.30086100  0.22128500  0.64039200  1
  H  H1  1  0.19913900  0.72128500  0.14039200  1
  H  H2  1  0.69913900  0.77871500  0.35960800  1
  H  H3  1  0.80086100  0.27871500  0.85960800  1
  Ru  Ru4  1  0.30097600  0.13684400  0.57430500  1
  Ru  Ru5  1  0.19902400  0.63684400  0.07430500  1
  Ru  Ru6  1  0.69902400  0.86315600  0.42569500  1
  Ru  Ru7  1  0.80097600  0.36315600  0.92569500  1
  Ru  Ru8  1  0.47339000  0.28610400  0.50584900  1
  Ru  Ru9  1  0.02661000  0.78610400  0.00584900  1
  Ru  Ru10  1  0.52661000  0.71389600  0.49415100  1
  Ru  Ru11  1  0.97339000  0.21389600  0.99415100  1
  Ru  Ru12  1  0.22892700  0.32108400  0.58822000  1
  Ru  Ru13  1  0.27107300  0.82108400  0.08822000  1
  Ru  Ru14  1  0.77107300  0.67891600  0.41178000  1
  Ru  Ru15  1  0.72892700  0.17891600  0.91178000  1
  Ru  Ru16  1  0.33049800  0.18920000  0.38975900  1
  Ru  Ru17  1  0.16950200  0.68920000  0.88975900  1
  Ru  Ru18  1  0.66950200  0.81080000  0.61024100  1
  Ru  Ru19  1  0.83049800  0.31080000  0.11024100  1
  Ru  Ru20  1  0.08861300  0.22066100  0.47902200  1
  Ru  Ru21  1  0.41138700  0.72066100  0.97902200  1
  Ru  Ru22  1  0.91138700  0.77933900  0.52097800  1
  Ru  Ru23  1  0.58861300  0.27933900  0.02097800  1
  Ru  Ru24  1  0.27186900  0.36436800  0.40549900  1
  Ru  Ru25  1  0.22813100  0.86436800  0.90549900  1
  Ru  Ru26  1  0.72813100  0.63563200  0.59450100  1
  Ru  Ru27  1  0.77186900  0.13563200  0.09450100  1
  C  C28  1  0.28231100  0.25122600  0.48953800  1
  C  C29  1  0.21768900  0.75122600  0.98953800  1
  C  C30  1  0.71768900  0.74877400  0.51046200  1
  C  C31  1  0.78231100  0.24877400  0.01046200  1
  C  C32  1  0.19161500  0.06988600  0.65684600  1
  C  C33  1  0.30838500  0.56988600  0.15684600  1
  C  C34  1  0.80838500  0.93011400  0.34315400  1
  C  C35  1  0.69161500  0.43011400  0.84315400  1
  C  C36  1  0.31575000  0.03843200  0.51437900  1
  C  C37  1  0.18425000  0.53843200  0.01437900  1
  C  C38  1  0.68425000  0.96156800  0.48562100  1
  C  C39  1  0.81575000  0.46156800  0.98562100  1
  C  C40  1  0.46576900  0.11318400  0.62733900  1
  C  C41  1  0.03423100  0.61318400  0.12733900  1
  C  C42  1  0.53423100  0.88681600  0.37266100  1
  C  C43  1  0.96576900  0.38681600  0.87266100  1
  C  C44  1  0.62427300  0.24978900  0.45696900  1
  C  C45  1  0.87572700  0.74978900  0.95696900  1
  C  C46  1  0.37572700  0.75021100  0.54303100  1
  C  C47  1  0.12427300  0.25021100  0.04303100  1
  C  C48  1  0.58030700  0.32403300  0.58745200  1
  C  C49  1  0.91969300  0.82403300  0.08745200  1
  C  C50  1  0.41969300  0.67596700  0.41254800  1
  C  C51  1  0.08030700  0.17596700  0.91254800  1
  C  C52  1  0.46062700  0.40262000  0.43005400  1
  C  C53  1  0.03937300  0.90262000  0.93005400  1
  C  C54  1  0.53937300  0.59738000  0.56994600  1
  C  C55  1  0.96062700  0.09738000  0.06994600  1
  C  C56  1  0.07775900  0.30930900  0.65720500  1
  C  C57  1  0.42224100  0.80930900  0.15720500  1
  C  C58  1  0.92224100  0.69069100  0.34279500  1
  C  C59  1  0.57775900  0.19069100  0.84279500  1
  C  C60  1  0.18226200  0.43913500  0.54213000  1
  C  C61  1  0.31773800  0.93913500  0.04213000  1
  C  C62  1  0.81773800  0.56086500  0.45787000  1
  C  C63  1  0.68226200  0.06086500  0.95787000  1
  C  C64  1  0.33473900  0.36453500  0.67013300  1
  C  C65  1  0.16526100  0.86453500  0.17013300  1
  C  C66  1  0.66526100  0.63546500  0.32986700  1
  C  C67  1  0.83473900  0.13546500  0.82986700  1
  C  C68  1  0.24147300  0.13115800  0.31318000  1
  C  C69  1  0.25852700  0.63115800  0.81318000  1
  C  C70  1  0.75852700  0.86884200  0.68682000  1
  C  C71  1  0.74147300  0.36884200  0.18682000  1
  C  C72  1  0.48292300  0.14271700  0.35078100  1
  C  C73  1  0.01707700  0.64271700  0.85078100  1
  C  C74  1  0.51707700  0.85728300  0.64921900  1
  C  C75  1  0.98292300  0.35728300  0.14921900  1
  C  C76  1  0.33666600  0.30325000  0.30910300  1
  C  C77  1  0.16333400  0.80325000  0.80910300  1
  C  C78  1  0.66333400  0.69675000  0.69089700  1
  C  C79  1  0.83666600  0.19675000  0.19089700  1
  C  C80  1  0.03691100  0.12002400  0.43422900  1
  C  C81  1  0.46308900  0.62002400  0.93422900  1
  C  C82  1  0.96308900  0.87997600  0.56577100  1
  C  C83  1  0.53691100  0.37997600  0.06577100  1
  C  C84  1  0.94936200  0.19825000  0.55537100  1
  C  C85  1  0.55063800  0.69825000  0.05537100  1
  C  C86  1  0.05063800  0.80175000  0.44462900  1
  C  C87  1  0.44936200  0.30175000  0.94462900  1
  C  C88  1  0.99784900  0.30445300  0.40217200  1
  C  C89  1  0.50215100  0.80445300  0.90217200  1
  C  C90  1  0.00215100  0.69554700  0.59782800  1
  C  C91  1  0.49784900  0.19554700  0.09782800  1
  N  N92  1  0.19859800  0.45995900  0.35019000  1
  N  N93  1  0.30140200  0.95995900  0.85019000  1
  N  N94  1  0.80140200  0.54004100  0.64981000  1
  N  N95  1  0.69859800  0.04004100  0.14981000  1
  O  O96  1  0.12755000  0.03207000  0.70741000  1
  O  O97  1  0.37245000  0.53207000  0.20741000  1
  O  O98  1  0.87245000  0.96793000  0.29259000  1
  O  O99  1  0.62755000  0.46793000  0.79259000  1
  O  O100  1  0.32564400  0.97067900  0.49210200  1
  O  O101  1  0.17435600  0.47067900  0.99210200  1
  O  O102  1  0.67435600  0.02932100  0.50789800  1
  O  O103  1  0.82564400  0.52932100  0.00789800  1
  O  O104  1  0.55897800  0.09135100  0.66364800  1
  O  O105  1  0.94102200  0.59135100  0.16364800  1
  O  O106  1  0.44102200  0.90864900  0.33635200  1
  O  O107  1  0.05897800  0.40864900  0.83635200  1
  O  O108  1  0.71979300  0.23002100  0.42733600  1
  O  O109  1  0.78020700  0.73002100  0.92733600  1
  O  O110  1  0.28020700  0.76997900  0.57266400  1
  O  O111  1  0.21979300  0.26997900  0.07266400  1
  O  O112  1  0.64808200  0.34551200  0.63706000  1
  O  O113  1  0.85191800  0.84551200  0.13706000  1
  O  O114  1  0.35191800  0.65448800  0.36294000  1
  O  O115  1  0.14808200  0.15448800  0.86294000  1
  O  O116  1  0.52452000  0.46514000  0.40856100  1
  O  O117  1  0.97548000  0.96514000  0.90856100  1
  O  O118  1  0.47548000  0.53486000  0.59143900  1
  O  O119  1  0.02452000  0.03486000  0.09143900  1
  O  O120  1  0.99000200  0.30448600  0.70120300  1
  O  O121  1  0.50999800  0.80448600  0.20120300  1
  O  O122  1  0.00999800  0.69551400  0.29879700  1
  O  O123  1  0.49000200  0.19551400  0.79879700  1
  O  O124  1  0.15088200  0.51203300  0.52818700  1
  O  O125  1  0.34911800  0.01203300  0.02818700  1
  O  O126  1  0.84911800  0.48796700  0.47181300  1
  O  O127  1  0.65088200  0.98796700  0.97181300  1
  O  O128  1  0.39095500  0.38850600  0.72313100  1
  O  O129  1  0.10904500  0.88850600  0.22313100  1
  O  O130  1  0.60904500  0.61149400  0.27686900  1
  O  O131  1  0.89095500  0.11149400  0.77686900  1
  O  O132  1  0.18813400  0.09859600  0.26360800  1
  O  O133  1  0.31186600  0.59859600  0.76360800  1
  O  O134  1  0.81186600  0.90140400  0.73639200  1
  O  O135  1  0.68813400  0.40140400  0.23639200  1
  O  O136  1  0.57401200  0.11234100  0.32464600  1
  O  O137  1  0.92598800  0.61234100  0.82464600  1
  O  O138  1  0.42598800  0.88765900  0.67535400  1
  O  O139  1  0.07401200  0.38765900  0.17535400  1
  O  O140  1  0.36370900  0.32639000  0.23943600  1
  O  O141  1  0.13629100  0.82639000  0.73943600  1
  O  O142  1  0.63629100  0.67361000  0.76056400  1
  O  O143  1  0.86370900  0.17361000  0.26056400  1
  O  O144  1  0.99816800  0.05642700  0.41338500  1
  O  O145  1  0.50183200  0.55642700  0.91338500  1
  O  O146  1  0.00183200  0.94357300  0.58661500  1
  O  O147  1  0.49816800  0.44357300  0.08661500  1
  O  O148  1  0.86123300  0.18102100  0.59809700  1
  O  O149  1  0.63876700  0.68102100  0.09809700  1
  O  O150  1  0.13876700  0.81897900  0.40190300  1
  O  O151  1  0.36123300  0.31897900  0.90190300  1
  O  O152  1  0.93315800  0.34885100  0.35587200  1
  O  O153  1  0.56684200  0.84885100  0.85587200  1
  O  O154  1  0.06684200  0.65114900  0.64412800  1
  O  O155  1  0.43315800  0.15114900  0.14412800  1
  O  O156  1  0.12894900  0.51678400  0.32240800  1
  O  O157  1  0.37105100  0.01678400  0.82240800  1
  O  O158  1  0.87105100  0.48321600  0.67759200  1
  O  O159  1  0.62894900  0.98321600  0.17759200  1
