# generated using pymatgen
data_H21OsC9NO7
_symmetry_space_group_name_H-M   'P 1'
_cell_length_a   12.75175300
_cell_length_b   9.37846800
_cell_length_c   14.88062235
_cell_angle_alpha   58.59004629
_cell_angle_beta   90.00000000
_cell_angle_gamma   90.00000000
_symmetry_Int_Tables_number   1
_chemical_formula_structural   H21OsC9NO7
_chemical_formula_sum   'H84 Os4 C36 N4 O28'
_cell_volume   1518.81961651
_cell_formula_units_Z   4
loop_
 _symmetry_equiv_pos_site_id
 _symmetry_equiv_pos_as_xyz
  1  'x, y, z'
loop_
 _atom_site_type_symbol
 _atom_site_label
 _atom_site_symmetry_multiplicity
 _atom_site_fract_x
 _atom_site_fract_y
 _atom_site_fract_z
 _atom_site_occupancy
  H  H0  1  0.71608900  0.77039500  0.92004200  1
  H  H1  1  0.78391100  0.77039500  0.42004200  1
  H  H2  1  0.28391100  0.22960500  0.07995800  1
  H  H3  1  0.21608900  0.22960500  0.57995800  1
  H  H4  1  0.64224700  0.92499200  0.92913000  1
  H  H5  1  0.85775300  0.92499200  0.42913000  1
  H  H6  1  0.35775300  0.07500800  0.07087000  1
  H  H7  1  0.14224700  0.07500800  0.57087000  1
  H  H8  1  0.57719600  0.74478000  0.94136700  1
  H  H9  1  0.92280400  0.74478000  0.44136700  1
  H  H10  1  0.42280400  0.25522000  0.05863300  1
  H  H11  1  0.07719600  0.25522000  0.55863300  1
  H  H12  1  0.81512000  0.43676100  0.57216000  1
  H  H13  1  0.68488000  0.43676100  0.07216000  1
  H  H14  1  0.18488000  0.56323900  0.42784000  1
  H  H15  1  0.31512000  0.56323900  0.92784000  1
  H  H16  1  0.90579300  0.28487100  0.57892700  1
  H  H17  1  0.59420700  0.28487100  0.07892700  1
  H  H18  1  0.09420700  0.71512900  0.42107300  1
  H  H19  1  0.40579300  0.71512900  0.92107300  1
  H  H20  1  0.84574200  0.43301300  0.45554100  1
  H  H21  1  0.65425800  0.43301300  0.95554100  1
  H  H22  1  0.15425800  0.56698700  0.54445900  1
  H  H23  1  0.34574200  0.56698700  0.04445900  1
  H  H24  1  0.58248800  0.18007000  0.25906400  1
  H  H25  1  0.91751200  0.18007000  0.75906400  1
  H  H26  1  0.41751200  0.81993000  0.74093600  1
  H  H27  1  0.08248800  0.81993000  0.24093600  1
  H  H28  1  0.69330800  0.18386200  0.33282500  1
  H  H29  1  0.80669200  0.18386200  0.83282500  1
  H  H30  1  0.30669200  0.81613800  0.66717500  1
  H  H31  1  0.19330800  0.81613800  0.16717500  1
  H  H32  1  0.63916400  0.98987200  0.36082500  1
  H  H33  1  0.86083600  0.98987200  0.86082500  1
  H  H34  1  0.36083600  0.01012800  0.63917500  1
  H  H35  1  0.13916400  0.01012800  0.13917500  1
  H  H36  1  0.55176800  0.41723700  0.41763100  1
  H  H37  1  0.94823200  0.41723700  0.91763100  1
  H  H38  1  0.44823200  0.58276300  0.58236900  1
  H  H39  1  0.05176800  0.58276300  0.08236900  1
  H  H40  1  0.55271400  0.61589200  0.40932300  1
  H  H41  1  0.94728600  0.61589200  0.90932300  1
  H  H42  1  0.44728600  0.38410800  0.59067700  1
  H  H43  1  0.05271400  0.38410800  0.09067700  1
  H  H44  1  0.65983200  0.56219300  0.35475400  1
  H  H45  1  0.84016800  0.56219300  0.85475400  1
  H  H46  1  0.34016800  0.43780700  0.64524600  1
  H  H47  1  0.15983200  0.43780700  0.14524600  1
  H  H48  1  0.38163100  0.48449800  0.33650700  1
  H  H49  1  0.11836900  0.48449800  0.83650700  1
  H  H50  1  0.61836900  0.51550200  0.66349300  1
  H  H51  1  0.88163100  0.51550200  0.16349300  1
  H  H52  1  0.36205700  0.67617700  0.21154300  1
  H  H53  1  0.13794300  0.67617700  0.71154300  1
  H  H54  1  0.63794300  0.32382300  0.78845700  1
  H  H55  1  0.86205700  0.32382300  0.28845700  1
  H  H56  1  0.38428400  0.68475400  0.32740100  1
  H  H57  1  0.11571600  0.68475400  0.82740100  1
  H  H58  1  0.61571600  0.31524600  0.67259900  1
  H  H59  1  0.88428400  0.31524600  0.17259900  1
  H  H60  1  0.63222200  0.82103100  0.18736000  1
  H  H61  1  0.86777800  0.82103100  0.68736000  1
  H  H62  1  0.36777800  0.17896900  0.81264000  1
  H  H63  1  0.13222200  0.17896900  0.31264000  1
  H  H64  1  0.52584000  0.86977600  0.24818900  1
  H  H65  1  0.97416000  0.86977600  0.74818900  1
  H  H66  1  0.47416000  0.13022400  0.75181100  1
  H  H67  1  0.02584000  0.13022400  0.25181100  1
  H  H68  1  0.50422000  0.86833800  0.12972700  1
  H  H69  1  0.99578000  0.86833800  0.62972700  1
  H  H70  1  0.49578000  0.13166200  0.87027300  1
  H  H71  1  0.00422000  0.13166200  0.37027300  1
  H  H72  1  0.63246500  0.55400400  0.19857600  1
  H  H73  1  0.86753500  0.55400400  0.69857600  1
  H  H74  1  0.36753500  0.44599600  0.80142400  1
  H  H75  1  0.13246500  0.44599600  0.30142400  1
  H  H76  1  0.51476300  0.42790600  0.23826000  1
  H  H77  1  0.98523700  0.42790600  0.73826000  1
  H  H78  1  0.48523700  0.57209400  0.76174000  1
  H  H79  1  0.01476300  0.57209400  0.26174000  1
  H  H80  1  0.51426500  0.63599700  0.12451400  1
  H  H81  1  0.98573500  0.63599700  0.62451400  1
  H  H82  1  0.48573500  0.36400300  0.87548600  1
  H  H83  1  0.01426500  0.36400300  0.37548600  1
  Os  Os84  1  0.60640100  0.99681900  0.57475200  1
  Os  Os85  1  0.89359900  0.99681900  0.07475200  1
  Os  Os86  1  0.39359900  0.00318100  0.42524800  1
  Os  Os87  1  0.10640100  0.00318100  0.92524800  1
  C  C88  1  0.64183900  0.85466800  0.73582300  1
  C  C89  1  0.85816100  0.85466800  0.23582300  1
  C  C90  1  0.35816100  0.14533200  0.26417700  1
  C  C91  1  0.14183900  0.14533200  0.76417700  1
  C  C92  1  0.74806700  0.12840900  0.54122000  1
  C  C93  1  0.75193300  0.12840900  0.04122000  1
  C  C94  1  0.25193300  0.87159100  0.45878000  1
  C  C95  1  0.24806700  0.87159100  0.95878000  1
  C  C96  1  0.64088900  0.83605700  0.90244600  1
  C  C97  1  0.85911100  0.83605700  0.40244600  1
  C  C98  1  0.35911100  0.16394300  0.09755400  1
  C  C99  1  0.14088900  0.16394300  0.59755400  1
  C  C100  1  0.83425700  0.35643100  0.54119200  1
  C  C101  1  0.66574300  0.35643100  0.04119200  1
  C  C102  1  0.16574300  0.64356900  0.45880800  1
  C  C103  1  0.33425700  0.64356900  0.95880800  1
  C  C104  1  0.61948700  0.11919700  0.33745400  1
  C  C105  1  0.88051300  0.11919700  0.83745400  1
  C  C106  1  0.38051300  0.88080300  0.66254600  1
  C  C107  1  0.11948700  0.88080300  0.16254600  1
  C  C108  1  0.57537700  0.54848100  0.37038100  1
  C  C109  1  0.92462300  0.54848100  0.87038100  1
  C  C110  1  0.42462300  0.45151900  0.62961900  1
  C  C111  1  0.07537700  0.45151900  0.12961900  1
  C  C112  1  0.40247700  0.61695700  0.28756900  1
  C  C113  1  0.09752300  0.61695700  0.78756900  1
  C  C114  1  0.59752300  0.38304300  0.71243100  1
  C  C115  1  0.90247700  0.38304300  0.21243100  1
  C  C116  1  0.54805400  0.81132000  0.20370700  1
  C  C117  1  0.95194600  0.81132000  0.70370700  1
  C  C118  1  0.45194600  0.18868000  0.79629300  1
  C  C119  1  0.04805400  0.18868000  0.29629300  1
  C  C120  1  0.54681500  0.55404400  0.20333100  1
  C  C121  1  0.95318500  0.55404400  0.70333100  1
  C  C122  1  0.45318500  0.44595600  0.79666900  1
  C  C123  1  0.04681500  0.44595600  0.29666900  1
  N  N124  1  0.51829600  0.63019800  0.26706600  1
  N  N125  1  0.98170400  0.63019800  0.76706600  1
  N  N126  1  0.48170400  0.36980200  0.73293400  1
  N  N127  1  0.01829600  0.36980200  0.23293400  1
  O  O128  1  0.53893100  0.15012400  0.58662100  1
  O  O129  1  0.96106900  0.15012400  0.08662100  1
  O  O130  1  0.46106900  0.84987600  0.41337900  1
  O  O131  1  0.03893100  0.84987600  0.91337900  1
  O  O132  1  0.66209900  0.84086700  0.55873100  1
  O  O133  1  0.83790100  0.84086700  0.05873100  1
  O  O134  1  0.33790100  0.15913300  0.44126900  1
  O  O135  1  0.16209900  0.15913300  0.94126900  1
  O  O136  1  0.54971700  0.12226100  0.41066800  1
  O  O137  1  0.95028300  0.12226100  0.91066800  1
  O  O138  1  0.45028300  0.87773900  0.58933200  1
  O  O139  1  0.04971700  0.87773900  0.08933200  1
  O  O140  1  0.62244100  0.93439600  0.78965100  1
  O  O141  1  0.87755900  0.93439600  0.28965100  1
  O  O142  1  0.37755900  0.06560400  0.21034900  1
  O  O143  1  0.12244100  0.06560400  0.71034900  1
  O  O144  1  0.67254200  0.70885900  0.78273200  1
  O  O145  1  0.82745800  0.70885900  0.28273200  1
  O  O146  1  0.32745800  0.29114100  0.21726800  1
  O  O147  1  0.17254200  0.29114100  0.71726800  1
  O  O148  1  0.82594700  0.11270000  0.49839300  1
  O  O149  1  0.67405300  0.11270000  0.99839300  1
  O  O150  1  0.17405300  0.88730000  0.50160700  1
  O  O151  1  0.32594700  0.88730000  0.00160700  1
  O  O152  1  0.74463700  0.24732600  0.56856500  1
  O  O153  1  0.75536300  0.24732600  0.06856500  1
  O  O154  1  0.25536300  0.75267400  0.43143500  1
  O  O155  1  0.24463700  0.75267400  0.93143500  1
