# generated using pymatgen
data_Na6TeP6(H2O5)6
_symmetry_space_group_name_H-M   'P 1'
_cell_length_a   11.73884527
_cell_length_b   11.73884527
_cell_length_c   11.96691500
_cell_angle_alpha   90.00000000
_cell_angle_beta   90.00000000
_cell_angle_gamma   119.99999587
_symmetry_Int_Tables_number   1
_chemical_formula_structural   Na6TeP6(H2O5)6
_chemical_formula_sum   'Na12 Te2 P12 H24 O60'
_cell_volume   1428.11641893
_cell_formula_units_Z   2
loop_
 _symmetry_equiv_pos_site_id
 _symmetry_equiv_pos_as_xyz
  1  'x, y, z'
loop_
 _atom_site_type_symbol
 _atom_site_label
 _atom_site_symmetry_multiplicity
 _atom_site_fract_x
 _atom_site_fract_y
 _atom_site_fract_z
 _atom_site_occupancy
  Na  Na0  1  0.43194000  0.86896900  0.25000000  1
  Na  Na1  1  0.43702900  0.56806000  0.25000000  1
  Na  Na2  1  0.13103100  0.56297100  0.25000000  1
  Na  Na3  1  0.56806000  0.13103100  0.75000000  1
  Na  Na4  1  0.56297100  0.43194000  0.75000000  1
  Na  Na5  1  0.86896900  0.43702900  0.75000000  1
  Na  Na6  1  0.72580600  0.84450600  0.25000000  1
  Na  Na7  1  0.11870000  0.27419400  0.25000000  1
  Na  Na8  1  0.15549400  0.88130000  0.25000000  1
  Na  Na9  1  0.27419400  0.15549400  0.75000000  1
  Na  Na10  1  0.88130000  0.72580600  0.75000000  1
  Na  Na11  1  0.84450600  0.11870000  0.75000000  1
  Te  Te12  1  0.00000000  0.00000000  0.50000000  1
  Te  Te13  1  0.00000000  0.00000000  0.00000000  1
  P  P14  1  0.25026500  0.50127800  0.00598900  1
  P  P15  1  0.25101300  0.74973500  0.00598900  1
  P  P16  1  0.49872200  0.74898700  0.00598900  1
  P  P17  1  0.74973500  0.49872200  0.50598900  1
  P  P18  1  0.74898700  0.25026500  0.50598900  1
  P  P19  1  0.50127800  0.25101300  0.50598900  1
  P  P20  1  0.74973500  0.49872200  0.99401100  1
  P  P21  1  0.74898700  0.25026500  0.99401100  1
  P  P22  1  0.50127800  0.25101300  0.99401100  1
  P  P23  1  0.25026500  0.50127800  0.49401100  1
  P  P24  1  0.25101300  0.74973500  0.49401100  1
  P  P25  1  0.49872200  0.74898700  0.49401100  1
  H  H26  1  0.69793300  0.60176700  0.31511400  1
  H  H27  1  0.90383400  0.30206700  0.31511400  1
  H  H28  1  0.39823300  0.09616600  0.31511400  1
  H  H29  1  0.30206700  0.39823300  0.81511400  1
  H  H30  1  0.09616600  0.69793300  0.81511400  1
  H  H31  1  0.60176700  0.90383400  0.81511400  1
  H  H32  1  0.30206700  0.39823300  0.68488600  1
  H  H33  1  0.09616600  0.69793300  0.68488600  1
  H  H34  1  0.60176700  0.90383400  0.68488600  1
  H  H35  1  0.69793300  0.60176700  0.18488600  1
  H  H36  1  0.90383400  0.30206700  0.18488600  1
  H  H37  1  0.39823300  0.09616600  0.18488600  1
  H  H38  1  0.84843300  0.77644800  0.42599200  1
  H  H39  1  0.92801500  0.15156700  0.42599200  1
  H  H40  1  0.22355200  0.07198500  0.42599200  1
  H  H41  1  0.15156700  0.22355200  0.92599200  1
  H  H42  1  0.07198500  0.84843300  0.92599200  1
  H  H43  1  0.77644800  0.92801500  0.92599200  1
  H  H44  1  0.15156700  0.22355200  0.57400800  1
  H  H45  1  0.07198500  0.84843300  0.57400800  1
  H  H46  1  0.77644800  0.92801500  0.57400800  1
  H  H47  1  0.84843300  0.77644800  0.07400800  1
  H  H48  1  0.92801500  0.15156700  0.07400800  1
  H  H49  1  0.22355200  0.07198500  0.07400800  1
  O  O50  1  0.23771100  0.76021300  0.36976000  1
  O  O51  1  0.52250300  0.76228900  0.36976000  1
  O  O52  1  0.23978700  0.47749700  0.36976000  1
  O  O53  1  0.76228900  0.23978700  0.86976000  1
  O  O54  1  0.47749700  0.23771100  0.86976000  1
  O  O55  1  0.76021300  0.52250300  0.86976000  1
  O  O56  1  0.76228900  0.23978700  0.63024000  1
  O  O57  1  0.47749700  0.23771100  0.63024000  1
  O  O58  1  0.76021300  0.52250300  0.63024000  1
  O  O59  1  0.23771100  0.76021300  0.13024000  1
  O  O60  1  0.52250300  0.76228900  0.13024000  1
  O  O61  1  0.23978700  0.47749700  0.13024000  1
  O  O62  1  0.18978700  0.59482700  0.97312900  1
  O  O63  1  0.40503900  0.81021300  0.97312900  1
  O  O64  1  0.40517300  0.59496100  0.97312900  1
  O  O65  1  0.81021300  0.40517300  0.47312900  1
  O  O66  1  0.59496100  0.18978700  0.47312900  1
  O  O67  1  0.59482700  0.40503900  0.47312900  1
  O  O68  1  0.81021300  0.40517300  0.02687100  1
  O  O69  1  0.59496100  0.18978700  0.02687100  1
  O  O70  1  0.59482700  0.40503900  0.02687100  1
  O  O71  1  0.18978700  0.59482700  0.52687100  1
  O  O72  1  0.40503900  0.81021300  0.52687100  1
  O  O73  1  0.40517300  0.59496100  0.52687100  1
  O  O74  1  0.19396000  0.38765300  0.92622600  1
  O  O75  1  0.19369300  0.80604000  0.92622600  1
  O  O76  1  0.61234700  0.80630700  0.92622600  1
  O  O77  1  0.80604000  0.61234700  0.42622600  1
  O  O78  1  0.80630700  0.19396000  0.42622600  1
  O  O79  1  0.38765300  0.19369300  0.42622600  1
  O  O80  1  0.80604000  0.61234700  0.07377400  1
  O  O81  1  0.80630700  0.19396000  0.07377400  1
  O  O82  1  0.38765300  0.19369300  0.07377400  1
  O  O83  1  0.19396000  0.38765300  0.57377400  1
  O  O84  1  0.19369300  0.80604000  0.57377400  1
  O  O85  1  0.61234700  0.80630700  0.57377400  1
  O  O86  1  0.86375000  0.86573100  0.40515900  1
  O  O87  1  0.00198100  0.13625000  0.40515900  1
  O  O88  1  0.13426900  0.99801900  0.40515900  1
  O  O89  1  0.13625000  0.13426900  0.90515900  1
  O  O90  1  0.99801900  0.86375000  0.90515900  1
  O  O91  1  0.86573100  0.00198100  0.90515900  1
  O  O92  1  0.13625000  0.13426900  0.59484100  1
  O  O93  1  0.99801900  0.86375000  0.59484100  1
  O  O94  1  0.86573100  0.00198100  0.59484100  1
  O  O95  1  0.86375000  0.86573100  0.09484100  1
  O  O96  1  0.00198100  0.13625000  0.09484100  1
  O  O97  1  0.13426900  0.99801900  0.09484100  1
  O  O98  1  0.65445700  0.61589600  0.25000000  1
  O  O99  1  0.96143900  0.34554300  0.25000000  1
  O  O100  1  0.38410400  0.03856100  0.25000000  1
  O  O101  1  0.34554300  0.38410400  0.75000000  1
  O  O102  1  0.03856100  0.65445700  0.75000000  1
  O  O103  1  0.61589600  0.96143900  0.75000000  1
  O  O104  1  0.97139100  0.64952000  0.25000000  1
  O  O105  1  0.67812900  0.02860900  0.25000000  1
  O  O106  1  0.35048000  0.32187100  0.25000000  1
  O  O107  1  0.02860900  0.35048000  0.75000000  1
  O  O108  1  0.32187100  0.97139100  0.75000000  1
  O  O109  1  0.64952000  0.67812900  0.75000000  1
