# generated using pymatgen
data_NaH5CO4
_symmetry_space_group_name_H-M   'P 1'
_cell_length_a   8.14925725
_cell_length_b   8.14925725
_cell_length_c   8.82243600
_cell_angle_alpha   90.00000000
_cell_angle_beta   90.00000000
_cell_angle_gamma   127.86435416
_symmetry_Int_Tables_number   1
_chemical_formula_structural   NaH5CO4
_chemical_formula_sum   'Na4 H20 C4 O16'
_cell_volume   462.54933251
_cell_formula_units_Z   4
loop_
 _symmetry_equiv_pos_site_id
 _symmetry_equiv_pos_as_xyz
  1  'x, y, z'
loop_
 _atom_site_type_symbol
 _atom_site_label
 _atom_site_symmetry_multiplicity
 _atom_site_fract_x
 _atom_site_fract_y
 _atom_site_fract_z
 _atom_site_occupancy
  Na  Na0  1  0.25810900  0.25810900  0.50000000  1
  Na  Na1  1  0.75810900  0.75810900  0.00000000  1
  Na  Na2  1  0.74189100  0.74189100  0.50000000  1
  Na  Na3  1  0.24189100  0.24189100  0.00000000  1
  H  H4  1  0.79175800  0.52847300  0.20077700  1
  H  H5  1  0.52847300  0.79175800  0.79922300  1
  H  H6  1  0.02847300  0.29175800  0.70077700  1
  H  H7  1  0.29175800  0.02847300  0.29922300  1
  H  H8  1  0.20824200  0.47152700  0.79922300  1
  H  H9  1  0.47152700  0.20824200  0.20077700  1
  H  H10  1  0.97152700  0.70824200  0.29922300  1
  H  H11  1  0.70824200  0.97152700  0.70077700  1
  H  H12  1  0.58477400  0.41522600  0.71496500  1
  H  H13  1  0.41522600  0.58477400  0.28503500  1
  H  H14  1  0.91522600  0.08477400  0.21496500  1
  H  H15  1  0.08477400  0.91522600  0.78503500  1
  H  H16  1  0.66046800  0.33953200  0.59120700  1
  H  H17  1  0.33953200  0.66046800  0.40879300  1
  H  H18  1  0.83953200  0.16046800  0.09120700  1
  H  H19  1  0.16046800  0.83953200  0.90879300  1
  H  H20  1  0.26998300  0.73001700  0.13608500  1
  H  H21  1  0.73001700  0.26998300  0.86391500  1
  H  H22  1  0.23001700  0.76998300  0.63608500  1
  H  H23  1  0.76998300  0.23001700  0.36391500  1
  C  C24  1  0.68106500  0.31893500  0.95998300  1
  C  C25  1  0.31893500  0.68106500  0.04001700  1
  C  C26  1  0.81893500  0.18106500  0.45998300  1
  C  C27  1  0.18106500  0.81893500  0.54001700  1
  O  O28  1  0.40308500  0.59691500  0.07190200  1
  O  O29  1  0.59691500  0.40308500  0.92809800  1
  O  O30  1  0.09691500  0.90308500  0.57190200  1
  O  O31  1  0.90308500  0.09691500  0.42809800  1
  O  O32  1  0.28598500  0.71401500  0.90593100  1
  O  O33  1  0.71401500  0.28598500  0.09406900  1
  O  O34  1  0.21401500  0.78598500  0.40593100  1
  O  O35  1  0.78598500  0.21401500  0.59406900  1
  O  O36  1  0.59325300  0.40674700  0.60353300  1
  O  O37  1  0.40674700  0.59325300  0.39646700  1
  O  O38  1  0.90674700  0.09325300  0.10353300  1
  O  O39  1  0.09325300  0.90674700  0.89646700  1
  O  O40  1  0.34005700  0.15994300  0.25000000  1
  O  O41  1  0.15994300  0.34005700  0.75000000  1
  O  O42  1  0.65994300  0.84005700  0.75000000  1
  O  O43  1  0.84005700  0.65994300  0.25000000  1
