# generated using pymatgen
data_BaZn2H16O11
_symmetry_space_group_name_H-M   'P 1'
_cell_length_a   18.50254400
_cell_length_b   6.38487900
_cell_length_c   12.24375490
_cell_angle_alpha   83.77881582
_cell_angle_beta   90.00000000
_cell_angle_gamma   90.00000000
_symmetry_Int_Tables_number   1
_chemical_formula_structural   BaZn2H16O11
_chemical_formula_sum   'Ba4 Zn8 H64 O44'
_cell_volume   1437.91630474
_cell_formula_units_Z   4
loop_
 _symmetry_equiv_pos_site_id
 _symmetry_equiv_pos_as_xyz
  1  'x, y, z'
loop_
 _atom_site_type_symbol
 _atom_site_label
 _atom_site_symmetry_multiplicity
 _atom_site_fract_x
 _atom_site_fract_y
 _atom_site_fract_z
 _atom_site_occupancy
  Ba  Ba0  1  0.93979700  0.57316600  0.72976900  1
  Ba  Ba1  1  0.43979700  0.42683400  0.77023100  1
  Ba  Ba2  1  0.06020300  0.42683400  0.27023100  1
  Ba  Ba3  1  0.56020300  0.57316600  0.22976900  1
  Zn  Zn4  1  0.84847600  0.09594300  0.57645500  1
  Zn  Zn5  1  0.34847600  0.90405700  0.92354500  1
  Zn  Zn6  1  0.15152400  0.90405700  0.42354500  1
  Zn  Zn7  1  0.65152400  0.09594300  0.07645500  1
  Zn  Zn8  1  0.70183100  0.91118300  0.55276900  1
  Zn  Zn9  1  0.20183100  0.08881700  0.94723100  1
  Zn  Zn10  1  0.29816900  0.08881700  0.44723100  1
  Zn  Zn11  1  0.79816900  0.91118300  0.05276900  1
  H  H12  1  0.58664300  0.93787600  0.11165100  1
  H  H13  1  0.08664300  0.06212400  0.38834900  1
  H  H14  1  0.41335700  0.06212400  0.88834900  1
  H  H15  1  0.91335700  0.93787600  0.61165100  1
  H  H16  1  0.77019000  0.55733600  0.51752400  1
  H  H17  1  0.27019000  0.44266400  0.98247600  1
  H  H18  1  0.22981000  0.44266400  0.48247600  1
  H  H19  1  0.72981000  0.55733600  0.01752400  1
  H  H20  1  0.94098200  0.86139700  0.89554800  1
  H  H21  1  0.44098200  0.13860300  0.60445200  1
  H  H22  1  0.05901800  0.13860300  0.10445200  1
  H  H23  1  0.55901800  0.86139700  0.39554800  1
  H  H24  1  0.65507300  0.34647800  0.08195700  1
  H  H25  1  0.15507300  0.65352200  0.41804300  1
  H  H26  1  0.34492700  0.65352200  0.91804300  1
  H  H27  1  0.84492700  0.34647800  0.58195700  1
  H  H28  1  0.76577800  0.99641700  0.63388000  1
  H  H29  1  0.26577800  0.00358300  0.86612000  1
  H  H30  1  0.23422200  0.00358300  0.36612000  1
  H  H31  1  0.73422200  0.99641700  0.13388000  1
  H  H32  1  0.54866600  0.77170500  0.64334700  1
  H  H33  1  0.04866600  0.22829500  0.85665300  1
  H  H34  1  0.45133400  0.22829500  0.35665300  1
  H  H35  1  0.95133400  0.77170500  0.14334700  1
  H  H36  1  0.63484600  0.62639600  0.65644300  1
  H  H37  1  0.13484600  0.37360400  0.84355700  1
  H  H38  1  0.36515400  0.37360400  0.34355700  1
  H  H39  1  0.86515400  0.62639600  0.15644300  1
  H  H40  1  0.77845500  0.71589700  0.74781100  1
  H  H41  1  0.27845500  0.28410300  0.75218900  1
  H  H42  1  0.22154500  0.28410300  0.25218900  1
  H  H43  1  0.72154500  0.71589700  0.24781100  1
  H  H44  1  0.78541300  0.65277500  0.88001700  1
  H  H45  1  0.28541300  0.34722500  0.61998300  1
  H  H46  1  0.21458700  0.34722500  0.11998300  1
  H  H47  1  0.71458700  0.65277500  0.38001700  1
  H  H48  1  0.89954800  0.22780300  0.92736900  1
  H  H49  1  0.39954800  0.77219700  0.57263100  1
  H  H50  1  0.10045200  0.77219700  0.07263100  1
  H  H51  1  0.60045200  0.22780300  0.42736900  1
  H  H52  1  0.05512600  0.83280600  0.87677900  1
  H  H53  1  0.55512600  0.16719400  0.62322100  1
  H  H54  1  0.94487400  0.16719400  0.12322100  1
  H  H55  1  0.44487400  0.83280600  0.37677900  1
  H  H56  1  0.20698900  0.90149300  0.62763900  1
  H  H57  1  0.70698900  0.09850700  0.87236100  1
  H  H58  1  0.79301100  0.09850700  0.37236100  1
  H  H59  1  0.29301100  0.90149300  0.12763900  1
  H  H60  1  0.68910600  0.86756500  0.92451500  1
  H  H61  1  0.18910600  0.13243500  0.57548500  1
  H  H62  1  0.31089400  0.13243500  0.07548500  1
  H  H63  1  0.81089400  0.86756500  0.42451500  1
  H  H64  1  0.43905700  0.23800600  0.56531900  1
  H  H65  1  0.93905700  0.76199400  0.93468100  1
  H  H66  1  0.56094300  0.76199400  0.43468100  1
  H  H67  1  0.06094300  0.23800600  0.06531900  1
  H  H68  1  0.83726200  0.03318700  0.86617500  1
  H  H69  1  0.33726200  0.96681300  0.63382500  1
  H  H70  1  0.16273800  0.96681300  0.13382500  1
  H  H71  1  0.66273800  0.03318700  0.36617500  1
  H  H72  1  0.08925800  0.91091600  0.76309400  1
  H  H73  1  0.58925800  0.08908400  0.73690600  1
  H  H74  1  0.91074200  0.08908400  0.23690600  1
  H  H75  1  0.41074200  0.91091600  0.26309400  1
  O  O76  1  0.01084400  0.78059400  0.16256100  1
  O  O77  1  0.51084400  0.21940600  0.33743900  1
  O  O78  1  0.98915600  0.21940600  0.83743900  1
  O  O79  1  0.48915600  0.78059400  0.66256100  1
  O  O80  1  0.74592900  0.69066400  0.97794000  1
  O  O81  1  0.24592900  0.30933600  0.52206000  1
  O  O82  1  0.25407100  0.30933600  0.02206000  1
  O  O83  1  0.75407100  0.69066400  0.47794000  1
  O  O84  1  0.00155200  0.40099700  0.51159300  1
  O  O85  1  0.50155200  0.59900300  0.98840700  1
  O  O86  1  0.99844800  0.59900300  0.48840700  1
  O  O87  1  0.49844800  0.40099700  0.01159300  1
  O  O88  1  0.83349400  0.01284900  0.40427700  1
  O  O89  1  0.33349400  0.98715100  0.09572300  1
  O  O90  1  0.16650600  0.98715100  0.59572300  1
  O  O91  1  0.66650600  0.01284900  0.90427700  1
  O  O92  1  0.67267600  0.43093100  0.80078500  1
  O  O93  1  0.17267600  0.56906900  0.69921500  1
  O  O94  1  0.32732400  0.56906900  0.19921500  1
  O  O95  1  0.82732400  0.43093100  0.30078500  1
  O  O96  1  0.61966300  0.77207900  0.63692100  1
  O  O97  1  0.11966300  0.22792100  0.86307900  1
  O  O98  1  0.38033700  0.22792100  0.36307900  1
  O  O99  1  0.88033700  0.77207900  0.13692100  1
  O  O100  1  0.62251300  0.47227900  0.86247400  1
  O  O101  1  0.12251300  0.52772100  0.63752600  1
  O  O102  1  0.37748700  0.52772100  0.13752600  1
  O  O103  1  0.87748700  0.47227900  0.36247400  1
  O  O104  1  0.95001800  0.31685800  0.92285300  1
  O  O105  1  0.45001800  0.68314200  0.57714700  1
  O  O106  1  0.04998200  0.68314200  0.07714700  1
  O  O107  1  0.54998200  0.31685800  0.42285300  1
  O  O108  1  0.06266300  0.79354600  0.80261000  1
  O  O109  1  0.56266300  0.20645400  0.69739000  1
  O  O110  1  0.93733700  0.20645400  0.19739000  1
  O  O111  1  0.43733700  0.79354600  0.30261000  1
  O  O112  1  0.68820500  0.65138900  0.30340800  1
  O  O113  1  0.18820500  0.34861100  0.19659200  1
  O  O114  1  0.31179500  0.34861100  0.69659200  1
  O  O115  1  0.81179500  0.65138900  0.80340800  1
  O  O116  1  0.16796800  0.88697100  0.07060600  1
  O  O117  1  0.66796800  0.11302900  0.42939400  1
  O  O118  1  0.83203200  0.11302900  0.92939400  1
  O  O119  1  0.33203200  0.88697100  0.57060600  1
