# generated using pymatgen
data_SrSn4
_symmetry_space_group_name_H-M   'P 1'
_cell_length_a   9.12722219
_cell_length_b   9.12722219
_cell_length_c   7.20838200
_cell_angle_alpha   90.00000000
_cell_angle_beta   90.00000000
_cell_angle_gamma   150.39823640
_symmetry_Int_Tables_number   1
_chemical_formula_structural   SrSn4
_chemical_formula_sum   'Sr2 Sn8'
_cell_volume   296.62954712
_cell_formula_units_Z   2
loop_
 _symmetry_equiv_pos_site_id
 _symmetry_equiv_pos_as_xyz
  1  'x, y, z'
loop_
 _atom_site_type_symbol
 _atom_site_label
 _atom_site_symmetry_multiplicity
 _atom_site_fract_x
 _atom_site_fract_y
 _atom_site_fract_z
 _atom_site_occupancy
  Sr  Sr0  1  0.61216000  0.38784000  0.25000000  1
  Sr  Sr1  1  0.38784000  0.61216000  0.75000000  1
  Sn  Sn2  1  0.80502300  0.19497700  0.04564600  1
  Sn  Sn3  1  0.19497700  0.80502300  0.95435400  1
  Sn  Sn4  1  0.19497700  0.80502300  0.54564600  1
  Sn  Sn5  1  0.80502300  0.19497700  0.45435400  1
  Sn  Sn6  1  0.40963900  0.59036100  0.25000000  1
  Sn  Sn7  1  0.59036100  0.40963900  0.75000000  1
  Sn  Sn8  1  0.00000000  0.00000000  0.00000000  1
  Sn  Sn9  1  0.00000000  0.00000000  0.50000000  1
