# generated using pymatgen
data_CaP3H16(NO4)3
_symmetry_space_group_name_H-M   'P 1'
_cell_length_a   20.70775500
_cell_length_b   7.03561700
_cell_length_c   11.74451404
_cell_angle_alpha   62.10075224
_cell_angle_beta   90.00000000
_cell_angle_gamma   90.00000000
_symmetry_Int_Tables_number   1
_chemical_formula_structural   CaP3H16(NO4)3
_chemical_formula_sum   'Ca4 P12 H64 N12 O48'
_cell_volume   1512.20401101
_cell_formula_units_Z   4
loop_
 _symmetry_equiv_pos_site_id
 _symmetry_equiv_pos_as_xyz
  1  'x, y, z'
loop_
 _atom_site_type_symbol
 _atom_site_label
 _atom_site_symmetry_multiplicity
 _atom_site_fract_x
 _atom_site_fract_y
 _atom_site_fract_z
 _atom_site_occupancy
  Ca  Ca0  1  0.83408500  0.39154100  0.96763200  1
  Ca  Ca1  1  0.66591500  0.39154100  0.46763200  1
  Ca  Ca2  1  0.16591500  0.60845900  0.03236800  1
  Ca  Ca3  1  0.33408500  0.60845900  0.53236800  1
  P  P4  1  0.70642100  0.95353900  0.40531900  1
  P  P5  1  0.79357900  0.95353900  0.90531900  1
  P  P6  1  0.29357900  0.04646100  0.59468100  1
  P  P7  1  0.20642100  0.04646100  0.09468100  1
  P  P8  1  0.68987700  0.37504600  0.17011500  1
  P  P9  1  0.81012300  0.37504600  0.67011500  1
  P  P10  1  0.31012300  0.62495400  0.82988500  1
  P  P11  1  0.18987700  0.62495400  0.32988500  1
  P  P12  1  0.51850200  0.48447200  0.29332300  1
  P  P13  1  0.98149800  0.48447200  0.79332300  1
  P  P14  1  0.48149800  0.51552800  0.70667700  1
  P  P15  1  0.01850200  0.51552800  0.20667700  1
  H  H16  1  0.66260100  0.15013100  0.75147900  1
  H  H17  1  0.83739900  0.15013100  0.25147900  1
  H  H18  1  0.33739900  0.84986900  0.24852100  1
  H  H19  1  0.16260100  0.84986900  0.74852100  1
  H  H20  1  0.60058000  0.30537600  0.70133200  1
  H  H21  1  0.89942000  0.30537600  0.20133200  1
  H  H22  1  0.39942000  0.69462400  0.29866800  1
  H  H23  1  0.10058000  0.69462400  0.79866800  1
  H  H24  1  0.54016100  0.80685800  0.92278000  1
  H  H25  1  0.95983900  0.80685800  0.42278000  1
  H  H26  1  0.45983900  0.19314200  0.07722000  1
  H  H27  1  0.04016100  0.19314200  0.57722000  1
  H  H28  1  0.42559200  0.59357400  0.84936400  1
  H  H29  1  0.07440800  0.59357400  0.34936400  1
  H  H30  1  0.57440800  0.40642600  0.15063600  1
  H  H31  1  0.92559200  0.40642600  0.65063600  1
  H  H32  1  0.38857200  0.88709400  0.99737700  1
  H  H33  1  0.11142800  0.88709400  0.49737700  1
  H  H34  1  0.61142800  0.11290600  0.00262300  1
  H  H35  1  0.88857200  0.11290600  0.50262300  1
  H  H36  1  0.32566500  0.03596400  0.00758900  1
  H  H37  1  0.17433500  0.03596400  0.50758900  1
  H  H38  1  0.67433500  0.96403600  0.99241100  1
  H  H39  1  0.82566500  0.96403600  0.49241100  1
  H  H40  1  0.38397000  0.14315900  0.88383400  1
  H  H41  1  0.11603000  0.14315900  0.38383400  1
  H  H42  1  0.61603000  0.85684100  0.11616600  1
  H  H43  1  0.88397000  0.85684100  0.61616600  1
  H  H44  1  0.33023800  0.95889300  0.88852500  1
  H  H45  1  0.16976200  0.95889300  0.38852500  1
  H  H46  1  0.66976200  0.04110700  0.11147500  1
  H  H47  1  0.83023800  0.04110700  0.61147500  1
  H  H48  1  0.87368900  0.67502000  0.26662500  1
  H  H49  1  0.62631100  0.67502000  0.76662500  1
  H  H50  1  0.12631100  0.32498000  0.73337500  1
  H  H51  1  0.37368900  0.32498000  0.23337500  1
  H  H52  1  0.81413200  0.79929300  0.31124100  1
  H  H53  1  0.68586800  0.79929300  0.81124100  1
  H  H54  1  0.18586800  0.20070700  0.68875900  1
  H  H55  1  0.31413200  0.20070700  0.18875900  1
  H  H56  1  0.82467900  0.86098900  0.15214900  1
  H  H57  1  0.67532100  0.86098900  0.65214900  1
  H  H58  1  0.17532100  0.13901100  0.84785100  1
  H  H59  1  0.32467900  0.13901100  0.34785100  1
  H  H60  1  0.79491100  0.62042200  0.25788700  1
  H  H61  1  0.70508900  0.62042200  0.75788700  1
  H  H62  1  0.20508900  0.37957800  0.74211300  1
  H  H63  1  0.29491100  0.37957800  0.24211300  1
  H  H64  1  0.58235800  0.84163000  0.43009300  1
  H  H65  1  0.91764200  0.84163000  0.93009300  1
  H  H66  1  0.41764200  0.15837000  0.56990700  1
  H  H67  1  0.08235800  0.15837000  0.06990700  1
  H  H68  1  0.53303000  0.05206700  0.33748900  1
  H  H69  1  0.96697000  0.05206700  0.83748900  1
  H  H70  1  0.46697000  0.94793300  0.66251100  1
  H  H71  1  0.03303000  0.94793300  0.16251100  1
  H  H72  1  0.50085200  0.80818400  0.45042300  1
  H  H73  1  0.99914800  0.80818400  0.95042300  1
  H  H74  1  0.49914800  0.19181600  0.54957700  1
  H  H75  1  0.00085200  0.19181600  0.04957700  1
  H  H76  1  0.53833300  0.83124600  0.31462400  1
  H  H77  1  0.96166700  0.83124600  0.81462400  1
  H  H78  1  0.46166700  0.16875400  0.68537600  1
  H  H79  1  0.03833300  0.16875400  0.18537600  1
  N  N80  1  0.64323300  0.99204400  0.05570100  1
  N  N81  1  0.85676700  0.99204400  0.55570100  1
  N  N82  1  0.35676700  0.00795600  0.94429900  1
  N  N83  1  0.14323300  0.00795600  0.44429900  1
  N  N84  1  0.67230600  0.73723000  0.74893600  1
  N  N85  1  0.82769400  0.73723000  0.24893600  1
  N  N86  1  0.32769400  0.26277000  0.25106400  1
  N  N87  1  0.17230600  0.26277000  0.75106400  1
  N  N88  1  0.53785300  0.88618200  0.38417600  1
  N  N89  1  0.96214700  0.88618200  0.88417600  1
  N  N90  1  0.46214700  0.11381800  0.61582400  1
  N  N91  1  0.03785300  0.11381800  0.11582400  1
  O  O92  1  0.62747100  0.45573400  0.08907000  1
  O  O93  1  0.87252900  0.45573400  0.58907000  1
  O  O94  1  0.37252900  0.54426600  0.91093000  1
  O  O95  1  0.12747100  0.54426600  0.41093000  1
  O  O96  1  0.70495600  0.48437600  0.25305600  1
  O  O97  1  0.79504400  0.48437600  0.75305600  1
  O  O98  1  0.29504400  0.51562400  0.74694400  1
  O  O99  1  0.20495600  0.51562400  0.24694400  1
  O  O100  1  0.44509000  0.48658500  0.30924100  1
  O  O101  1  0.05491000  0.48658500  0.80924100  1
  O  O102  1  0.55491000  0.51341500  0.69075900  1
  O  O103  1  0.94509000  0.51341500  0.19075900  1
  O  O104  1  0.55450700  0.36312300  0.42385900  1
  O  O105  1  0.94549300  0.36312300  0.92385900  1
  O  O106  1  0.44549300  0.63687700  0.57614100  1
  O  O107  1  0.05450700  0.63687700  0.07614100  1
  O  O108  1  0.67063600  0.74677700  0.43568000  1
  O  O109  1  0.82936400  0.74677700  0.93568000  1
  O  O110  1  0.32936400  0.25322300  0.56432000  1
  O  O111  1  0.17063600  0.25322300  0.06432000  1
  O  O112  1  0.67319100  0.12168000  0.26620400  1
  O  O113  1  0.82680900  0.12168000  0.76620400  1
  O  O114  1  0.32680900  0.87832000  0.73379600  1
  O  O115  1  0.17319100  0.87832000  0.23379600  1
  O  O116  1  0.69121400  0.04230300  0.49946600  1
  O  O117  1  0.80878600  0.04230300  0.99946600  1
  O  O118  1  0.30878600  0.95769700  0.50053400  1
  O  O119  1  0.19121400  0.95769700  0.00053400  1
  O  O120  1  0.74314600  0.37670600  0.08200900  1
  O  O121  1  0.75685400  0.37670600  0.58200900  1
  O  O122  1  0.25685400  0.62329400  0.91799100  1
  O  O123  1  0.24314600  0.62329400  0.41799100  1
  O  O124  1  0.77944900  0.95150300  0.38104700  1
  O  O125  1  0.72055100  0.95150300  0.88104700  1
  O  O126  1  0.22055100  0.04849700  0.61895300  1
  O  O127  1  0.27944900  0.04849700  0.11895300  1
  O  O128  1  0.52968900  0.35504600  0.21508900  1
  O  O129  1  0.97031100  0.35504600  0.71508900  1
  O  O130  1  0.47031100  0.64495400  0.78491100  1
  O  O131  1  0.02968900  0.64495400  0.28491100  1
  O  O132  1  0.87277700  0.19924000  0.18787900  1
  O  O133  1  0.62722300  0.19924000  0.68787900  1
  O  O134  1  0.12722300  0.80076000  0.81212100  1
  O  O135  1  0.37277700  0.80076000  0.31212100  1
  O  O136  1  0.54722900  0.71365900  0.21926100  1
  O  O137  1  0.95277100  0.71365900  0.71926100  1
  O  O138  1  0.45277100  0.28634100  0.78073900  1
  O  O139  1  0.04722900  0.28634100  0.28073900  1
