# generated using pymatgen
data_Al4P4H11C3NO18
_symmetry_space_group_name_H-M   'P 1'
_cell_length_a   9.70820600
_cell_length_b   9.85242274
_cell_length_c   10.74964405
_cell_angle_alpha   104.93813380
_cell_angle_beta   106.26441694
_cell_angle_gamma   89.03142807
_symmetry_Int_Tables_number   1
_chemical_formula_structural   Al4P4H11C3NO18
_chemical_formula_sum   'Al8 P8 H22 C6 N2 O36'
_cell_volume   951.99392944
_cell_formula_units_Z   2
loop_
 _symmetry_equiv_pos_site_id
 _symmetry_equiv_pos_as_xyz
  1  'x, y, z'
loop_
 _atom_site_type_symbol
 _atom_site_label
 _atom_site_symmetry_multiplicity
 _atom_site_fract_x
 _atom_site_fract_y
 _atom_site_fract_z
 _atom_site_occupancy
  Al  Al0  1  0.78865300  0.23368600  0.16149700  1
  Al  Al1  1  0.21134700  0.76631400  0.83850300  1
  Al  Al2  1  0.22441200  0.49015900  0.07935300  1
  Al  Al3  1  0.77558800  0.50984100  0.92064700  1
  Al  Al4  1  0.95216500  0.17725100  0.65948500  1
  Al  Al5  1  0.04783500  0.82274900  0.34051500  1
  Al  Al6  1  0.49965000  0.97804800  0.13078900  1
  Al  Al7  1  0.50035000  0.02195200  0.86921100  1
  P  P8  1  0.03233300  0.49446000  0.79413700  1
  P  P9  1  0.96766700  0.50554000  0.20586300  1
  P  P10  1  0.47121700  0.27494800  0.09298200  1
  P  P11  1  0.52878300  0.72505200  0.90701800  1
  P  P12  1  0.79978800  0.03573700  0.34933900  1
  P  P13  1  0.20021200  0.96426300  0.65066100  1
  P  P14  1  0.23073700  0.81495100  0.13854000  1
  P  P15  1  0.76926300  0.18504900  0.86146000  1
  H  H16  1  0.70876500  0.98030800  0.03715400  1
  H  H17  1  0.29123500  0.01969200  0.96284600  1
  H  H18  1  0.55044300  0.72959100  0.24445700  1
  H  H19  1  0.44955700  0.27040900  0.75554300  1
  H  H20  1  0.72251400  0.70494000  0.30447100  1
  H  H21  1  0.27748600  0.29506000  0.69552900  1
  H  H22  1  0.60531900  0.56652800  0.22425000  1
  H  H23  1  0.39468100  0.43347200  0.77575000  1
  H  H24  1  0.50017000  0.58245400  0.38785400  1
  H  H25  1  0.49983000  0.41754600  0.61214600  1
  H  H26  1  0.75851700  0.50096000  0.44132500  1
  H  H27  1  0.24148300  0.49904000  0.55867500  1
  H  H28  1  0.81791000  0.67528000  0.54191400  1
  H  H29  1  0.18209000  0.32472000  0.45808600  1
  H  H30  1  0.70220600  0.57190700  0.58716500  1
  H  H31  1  0.29779400  0.42809300  0.41283500  1
  H  H32  1  0.47509200  0.84851400  0.42953100  1
  H  H33  1  0.52490800  0.15148600  0.57046900  1
  H  H34  1  0.51226900  0.78843100  0.57627000  1
  H  H35  1  0.48773100  0.21156900  0.42373000  1
  H  H36  1  0.65143300  0.87418300  0.54349600  1
  H  H37  1  0.34856700  0.12581700  0.45650400  1
  C  C38  1  0.59430500  0.65719000  0.42150300  1
  C  C39  1  0.40569500  0.34281000  0.57849700  1
  C  C40  1  0.72567300  0.59759800  0.50153500  1
  C  C41  1  0.27432700  0.40240200  0.49846500  1
  C  C42  1  0.55662800  0.80035300  0.49611400  1
  C  C43  1  0.44337200  0.19964700  0.50388600  1
  N  N44  1  0.61976800  0.66532000  0.29031000  1
  N  N45  1  0.38023200  0.33468000  0.70969000  1
  O  O46  1  0.43323600  0.16664400  0.16252200  1
  O  O47  1  0.56676400  0.83335600  0.83747800  1
  O  O48  1  0.38456000  0.40682500  0.11936100  1
  O  O49  1  0.61544000  0.59317500  0.88063900  1
  O  O50  1  0.15619800  0.80439000  0.98895700  1
  O  O51  1  0.84380200  0.19561000  0.01104300  1
  O  O52  1  0.90509800  0.54758300  0.84890000  1
  O  O53  1  0.09490200  0.45241700  0.15110000  1
  O  O54  1  0.08773100  0.60932000  0.74590700  1
  O  O55  1  0.91226900  0.39068000  0.25409300  1
  O  O56  1  0.63066100  0.33224800  0.16166100  1
  O  O57  1  0.36933900  0.66775200  0.83833900  1
  O  O58  1  0.63889000  0.99870800  0.29247600  1
  O  O59  1  0.36111000  0.00129200  0.70752400  1
  O  O60  1  0.83243700  0.10390200  0.50178100  1
  O  O61  1  0.16756300  0.89609800  0.49821900  1
  O  O62  1  0.63628500  0.05093500  0.05320900  1
  O  O63  1  0.36371500  0.94906500  0.94679100  1
  O  O64  1  0.44281900  0.20802100  0.94044000  1
  O  O65  1  0.55718100  0.79197900  0.05956000  1
  O  O66  1  0.85371300  0.13736400  0.28308000  1
  O  O67  1  0.14628700  0.86263600  0.71692000  1
  O  O68  1  0.28314400  0.66791700  0.15278000  1
  O  O69  1  0.71685600  0.33208300  0.84722000  1
  O  O70  1  0.11930200  0.85706600  0.21796300  1
  O  O71  1  0.88069800  0.14293400  0.78203700  1
  O  O72  1  0.98197400  0.35881700  0.67777600  1
  O  O73  1  0.01802600  0.64118300  0.32222400  1
  O  O74  1  0.15393400  0.45205700  0.90431600  1
  O  O75  1  0.84606600  0.54794300  0.09568400  1
  O  O76  1  0.36095200  0.91957000  0.19674500  1
  O  O77  1  0.63904800  0.08043000  0.80325500  1
  O  O78  1  0.88005500  0.89692600  0.32829700  1
  O  O79  1  0.11994500  0.10307400  0.67170300  1
  O  O80  1  0.17618200  0.14428500  0.01728000  1
  O  O81  1  0.82381800  0.85571500  0.98272000  1
