# generated using pymatgen
data_KB3(H3O4)2
_symmetry_space_group_name_H-M   'P 1'
_cell_length_a   9.65843851
_cell_length_b   9.65843851
_cell_length_c   17.00555057
_cell_angle_alpha   73.70461791
_cell_angle_beta   73.70461791
_cell_angle_gamma   38.03191118
_symmetry_Int_Tables_number   1
_chemical_formula_structural   KB3(H3O4)2
_chemical_formula_sum   'K4 B12 H24 O32'
_cell_volume   933.32715935
_cell_formula_units_Z   4
loop_
 _symmetry_equiv_pos_site_id
 _symmetry_equiv_pos_as_xyz
  1  'x, y, z'
loop_
 _atom_site_type_symbol
 _atom_site_label
 _atom_site_symmetry_multiplicity
 _atom_site_fract_x
 _atom_site_fract_y
 _atom_site_fract_z
 _atom_site_occupancy
  K  K0  1  0.92154400  0.07845600  0.25000000  1
  K  K1  1  0.07845600  0.92154400  0.75000000  1
  K  K2  1  0.00000000  0.50000000  0.00000000  1
  K  K3  1  0.50000000  0.00000000  0.50000000  1
  B  B4  1  0.13377300  0.15344100  0.38879000  1
  B  B5  1  0.84655900  0.86622700  0.11121000  1
  B  B6  1  0.86622700  0.84655900  0.61121000  1
  B  B7  1  0.15344100  0.13377300  0.88879000  1
  B  B8  1  0.47843300  0.42094500  0.38144600  1
  B  B9  1  0.57905500  0.52156700  0.11855400  1
  B  B10  1  0.52156700  0.57905500  0.61855400  1
  B  B11  1  0.42094500  0.47843300  0.88144600  1
  B  B12  1  0.60915600  0.59303700  0.35839200  1
  B  B13  1  0.40696300  0.39084400  0.14160800  1
  B  B14  1  0.39084400  0.40696300  0.64160800  1
  B  B15  1  0.59303700  0.60915600  0.85839200  1
  H  H16  1  0.57367800  0.93370200  0.09658700  1
  H  H17  1  0.06629800  0.42632200  0.40341300  1
  H  H18  1  0.42632200  0.06629800  0.90341300  1
  H  H19  1  0.93370200  0.57367800  0.59658700  1
  H  H20  1  0.38018700  0.93043800  0.09466900  1
  H  H21  1  0.06956200  0.61981300  0.40533100  1
  H  H22  1  0.61981300  0.06956200  0.90533100  1
  H  H23  1  0.93043800  0.38018700  0.59466900  1
  H  H24  1  0.10622700  0.32134200  0.21837700  1
  H  H25  1  0.67865800  0.89377300  0.28162300  1
  H  H26  1  0.89377300  0.67865800  0.78162300  1
  H  H27  1  0.32134200  0.10622700  0.71837700  1
  H  H28  1  0.84064500  0.15074800  0.57449400  1
  H  H29  1  0.84925200  0.15935500  0.92550600  1
  H  H30  1  0.15935500  0.84925200  0.42550600  1
  H  H31  1  0.15074800  0.84064500  0.07449400  1
  H  H32  1  0.87833800  0.71651200  0.35544200  1
  H  H33  1  0.28348800  0.12166200  0.14455800  1
  H  H34  1  0.12166200  0.28348800  0.64455800  1
  H  H35  1  0.71651200  0.87833800  0.85544200  1
  H  H36  1  0.09429800  0.25004700  0.23671600  1
  H  H37  1  0.74995300  0.90570200  0.26328400  1
  H  H38  1  0.90570200  0.74995300  0.76328400  1
  H  H39  1  0.25004700  0.09429800  0.73671600  1
  O  O40  1  0.12046100  0.05092800  0.36688400  1
  O  O41  1  0.94907200  0.87953900  0.13311600  1
  O  O42  1  0.87953900  0.94907200  0.63311600  1
  O  O43  1  0.05092800  0.12046100  0.86688400  1
  O  O44  1  0.17002200  0.24046300  0.40944100  1
  O  O45  1  0.75953700  0.82997800  0.09055900  1
  O  O46  1  0.82997800  0.75953700  0.59055900  1
  O  O47  1  0.24046300  0.17002200  0.90944100  1
  O  O48  1  0.67229300  0.66557800  0.35787100  1
  O  O49  1  0.33442200  0.32770700  0.14212900  1
  O  O50  1  0.32770700  0.33442200  0.64212900  1
  O  O51  1  0.66557800  0.67229300  0.85787100  1
  O  O52  1  0.58804600  0.22591600  0.36904000  1
  O  O53  1  0.77408400  0.41195400  0.13096000  1
  O  O54  1  0.41195400  0.77408400  0.63096000  1
  O  O55  1  0.22591600  0.58804600  0.86904000  1
  O  O56  1  0.17627900  0.74038100  0.46714200  1
  O  O57  1  0.25961900  0.82372100  0.03285800  1
  O  O58  1  0.82372100  0.25961900  0.53285800  1
  O  O59  1  0.74038100  0.17627900  0.96714200  1
  O  O60  1  0.55537300  0.50919900  0.35336300  1
  O  O61  1  0.49080100  0.44462700  0.14663700  1
  O  O62  1  0.44462700  0.49080100  0.64663700  1
  O  O63  1  0.50919900  0.55537300  0.85336300  1
  O  O64  1  0.96514000  0.61970000  0.40321600  1
  O  O65  1  0.38030000  0.03486000  0.09678400  1
  O  O66  1  0.03486000  0.38030000  0.59678400  1
  O  O67  1  0.61970000  0.96514000  0.90321600  1
  O  O68  1  0.41044100  0.75447900  0.08425800  1
  O  O69  1  0.24552100  0.58955900  0.41574200  1
  O  O70  1  0.58955900  0.24552100  0.91574200  1
  O  O71  1  0.75447900  0.41044100  0.58425800  1
