# generated using pymatgen
data_V9O17
_symmetry_space_group_name_H-M   'P 1'
_cell_length_a   5.53664084
_cell_length_b   7.11857956
_cell_length_c   14.77072740
_cell_angle_alpha   83.95681770
_cell_angle_beta   90.22058937
_cell_angle_gamma   71.84384370
_symmetry_Int_Tables_number   1
_chemical_formula_structural   V9O17
_chemical_formula_sum   'V18 O34'
_cell_volume   549.68557989
_cell_formula_units_Z   2
loop_
 _symmetry_equiv_pos_site_id
 _symmetry_equiv_pos_as_xyz
  1  'x, y, z'
loop_
 _atom_site_type_symbol
 _atom_site_label
 _atom_site_symmetry_multiplicity
 _atom_site_fract_x
 _atom_site_fract_y
 _atom_site_fract_z
 _atom_site_occupancy
  V  V0  1  0.32782500  0.91413200  0.73253100  1
  V  V1  1  0.66974800  0.08179000  0.27281400  1
  V  V2  1  0.74292200  0.11920900  0.84073600  1
  V  V3  1  0.24987800  0.89615500  0.15863600  1
  V  V4  1  0.32837300  0.41683000  0.72876400  1
  V  V5  1  0.67311000  0.58513900  0.27562600  1
  V  V6  1  0.91500700  0.20150400  0.61401800  1
  V  V7  1  0.08832800  0.79587500  0.38464800  1
  V  V8  1  0.24198700  0.40541200  0.16071700  1
  V  V9  1  0.74482000  0.61658300  0.83639400  1
  V  V10  1  0.79745800  0.69491700  0.03923100  1
  V  V11  1  0.18776800  0.31804700  0.95701300  1
  V  V12  1  0.92139300  0.70111000  0.60900400  1
  V  V13  1  0.09015400  0.29120200  0.38684800  1
  V  V14  1  0.80355400  0.19392800  0.04401600  1
  V  V15  1  0.18937500  0.81327100  0.95852600  1
  V  V16  1  0.49676600  0.99635800  0.49971800  1
  V  V17  1  0.50689400  0.49601200  0.50077500  1
  O  O18  1  0.14723600  0.19515600  0.09466800  1
  O  O19  1  0.84282700  0.81432600  0.90652500  1
  O  O20  1  0.95767700  0.06949600  0.74925200  1
  O  O21  1  0.02323700  0.92904600  0.25904100  1
  O  O22  1  0.19895700  0.00493200  0.41702600  1
  O  O23  1  0.80182400  0.97635800  0.58364200  1
  O  O24  1  0.19577400  0.53990700  0.02094700  1
  O  O25  1  0.79246600  0.46111100  0.97808600  1
  O  O26  1  0.73057500  0.95456500  0.39408500  1
  O  O27  1  0.25478500  0.04993700  0.60458800  1
  O  O28  1  0.56627400  0.35636000  0.62569100  1
  O  O29  1  0.45156500  0.62761100  0.37008600  1
  O  O30  1  0.79642100  0.29825800  0.30557100  1
  O  O31  1  0.22181300  0.68511600  0.69332700  1
  O  O32  1  0.62775200  0.40044500  0.80562200  1
  O  O33  1  0.37535500  0.59232800  0.19236200  1
  O  O34  1  0.14882800  0.66442000  0.50792700  1
  O  O35  1  0.86175700  0.32330500  0.48996500  1
  O  O36  1  0.47171900  0.81457800  0.04581700  1
  O  O37  1  0.54279800  0.18696000  0.95516300  1
  O  O38  1  0.03703000  0.11617800  0.93113600  1
  O  O39  1  0.96067500  0.89639500  0.07046900  1
  O  O40  1  0.43784000  0.13485200  0.77231400  1
  O  O41  1  0.55952100  0.87837900  0.23037000  1
  O  O42  1  0.39681600  0.76893900  0.85835600  1
  O  O43  1  0.61505800  0.22617100  0.13984200  1
  O  O44  1  0.02954500  0.42573600  0.65158400  1
  O  O45  1  0.97055900  0.57919300  0.34681000  1
  O  O46  1  0.37015600  0.29675900  0.45911100  1
  O  O47  1  0.62296800  0.69993600  0.53617100  1
  O  O48  1  0.30823500  0.25225900  0.27657100  1
  O  O49  1  0.70764000  0.73873500  0.72470800  1
  O  O50  1  0.11190100  0.45383200  0.84101500  1
  O  O51  1  0.88705800  0.55094300  0.16214000  1
