# generated using pymatgen
data_K2TeH6(O3F)2
_symmetry_space_group_name_H-M   'P 1'
_cell_length_a   8.31273200
_cell_length_b   10.03538600
_cell_length_c   11.16602400
_cell_angle_alpha   90.00000000
_cell_angle_beta   90.00000000
_cell_angle_gamma   90.00000000
_symmetry_Int_Tables_number   1
_chemical_formula_structural   K2TeH6(O3F)2
_chemical_formula_sum   'K8 Te4 H24 O24 F8'
_cell_volume   931.48618453
_cell_formula_units_Z   4
loop_
 _symmetry_equiv_pos_site_id
 _symmetry_equiv_pos_as_xyz
  1  'x, y, z'
loop_
 _atom_site_type_symbol
 _atom_site_label
 _atom_site_symmetry_multiplicity
 _atom_site_fract_x
 _atom_site_fract_y
 _atom_site_fract_z
 _atom_site_occupancy
  K  K0  1  0.21309800  0.76138500  0.74411700  1
  K  K1  1  0.28690200  0.26138500  0.25588300  1
  K  K2  1  0.71309800  0.23861500  0.75588300  1
  K  K3  1  0.78690200  0.73861500  0.24411700  1
  K  K4  1  0.78690200  0.23861500  0.25588300  1
  K  K5  1  0.71309800  0.73861500  0.74411700  1
  K  K6  1  0.28690200  0.76138500  0.24411700  1
  K  K7  1  0.21309800  0.26138500  0.75588300  1
  Te  Te8  1  0.00000000  0.50000000  0.50000000  1
  Te  Te9  1  0.50000000  0.00000000  0.50000000  1
  Te  Te10  1  0.50000000  0.50000000  0.00000000  1
  Te  Te11  1  0.00000000  0.00000000  0.00000000  1
  H  H12  1  0.04035500  0.72852300  0.43552000  1
  H  H13  1  0.45964500  0.22852300  0.56448000  1
  H  H14  1  0.54035500  0.27147700  0.06448000  1
  H  H15  1  0.95964500  0.77147700  0.93552000  1
  H  H16  1  0.95964500  0.27147700  0.56448000  1
  H  H17  1  0.54035500  0.77147700  0.43552000  1
  H  H18  1  0.45964500  0.72852300  0.93552000  1
  H  H19  1  0.04035500  0.22852300  0.06448000  1
  H  H20  1  0.76221600  0.61437100  0.00396400  1
  H  H21  1  0.73778400  0.11437100  0.99603600  1
  H  H22  1  0.26221600  0.38562900  0.49603600  1
  H  H23  1  0.23778400  0.88562900  0.50396400  1
  H  H24  1  0.23778400  0.38562900  0.99603600  1
  H  H25  1  0.26221600  0.88562900  0.00396400  1
  H  H26  1  0.73778400  0.61437100  0.50396400  1
  H  H27  1  0.76221600  0.11437100  0.49603600  1
  H  H28  1  0.34811300  0.55396300  0.49140400  1
  H  H29  1  0.15188700  0.05396300  0.50859600  1
  H  H30  1  0.84811300  0.44603700  0.00859600  1
  H  H31  1  0.65188700  0.94603700  0.99140400  1
  H  H32  1  0.65188700  0.44603700  0.50859600  1
  H  H33  1  0.84811300  0.94603700  0.49140400  1
  H  H34  1  0.15188700  0.55396300  0.99140400  1
  H  H35  1  0.34811300  0.05396300  0.00859600  1
  O  O36  1  0.97961900  0.62418700  0.62218400  1
  O  O37  1  0.52038100  0.12418700  0.37781600  1
  O  O38  1  0.47961900  0.37581300  0.87781600  1
  O  O39  1  0.02038100  0.87581300  0.12218400  1
  O  O40  1  0.02038100  0.37581300  0.37781600  1
  O  O41  1  0.47961900  0.87581300  0.62218400  1
  O  O42  1  0.52038100  0.62418700  0.12218400  1
  O  O43  1  0.97961900  0.12418700  0.87781600  1
  O  O44  1  0.24281000  0.46633800  0.54226200  1
  O  O45  1  0.25719000  0.96633800  0.45773800  1
  O  O46  1  0.74281000  0.53366200  0.95773800  1
  O  O47  1  0.75719000  0.03366200  0.04226200  1
  O  O48  1  0.75719000  0.53366200  0.45773800  1
  O  O49  1  0.74281000  0.03366200  0.54226200  1
  O  O50  1  0.25719000  0.46633800  0.04226200  1
  O  O51  1  0.24281000  0.96633800  0.95773800  1
  O  O52  1  0.06361500  0.64746000  0.38792400  1
  O  O53  1  0.43638500  0.14746000  0.61207600  1
  O  O54  1  0.56361500  0.35254000  0.11207600  1
  O  O55  1  0.93638500  0.85254000  0.88792400  1
  O  O56  1  0.93638500  0.35254000  0.61207600  1
  O  O57  1  0.56361500  0.85254000  0.38792400  1
  O  O58  1  0.43638500  0.64746000  0.88792400  1
  O  O59  1  0.06361500  0.14746000  0.11207600  1
  F  F60  1  0.57441200  0.87929800  0.94864800  1
  F  F61  1  0.92558800  0.37929800  0.05135200  1
  F  F62  1  0.07441200  0.12070200  0.55135200  1
  F  F63  1  0.42558800  0.62070200  0.44864800  1
  F  F64  1  0.42558800  0.12070200  0.05135200  1
  F  F65  1  0.07441200  0.62070200  0.94864800  1
  F  F66  1  0.92558800  0.87929800  0.44864800  1
  F  F67  1  0.57441200  0.37929800  0.55135200  1
