# generated using pymatgen
data_K2H6PtC4N4O3
_symmetry_space_group_name_H-M   'P 1'
_cell_length_a   6.98029500
_cell_length_b   11.88421300
_cell_length_c   13.48519800
_cell_angle_alpha   90.00000000
_cell_angle_beta   90.00000000
_cell_angle_gamma   90.00000000
_symmetry_Int_Tables_number   1
_chemical_formula_structural   K2H6PtC4N4O3
_chemical_formula_sum   'K8 H24 Pt4 C16 N16 O12'
_cell_volume   1118.66881533
_cell_formula_units_Z   4
loop_
 _symmetry_equiv_pos_site_id
 _symmetry_equiv_pos_as_xyz
  1  'x, y, z'
loop_
 _atom_site_type_symbol
 _atom_site_label
 _atom_site_symmetry_multiplicity
 _atom_site_fract_x
 _atom_site_fract_y
 _atom_site_fract_z
 _atom_site_occupancy
  K  K0  1  0.79582200  0.85979500  0.34384000  1
  K  K1  1  0.29582200  0.64020500  0.15616000  1
  K  K2  1  0.20417800  0.64020500  0.84384000  1
  K  K3  1  0.70417800  0.85979500  0.65616000  1
  K  K4  1  0.20417800  0.14020500  0.65616000  1
  K  K5  1  0.70417800  0.35979500  0.84384000  1
  K  K6  1  0.79582200  0.35979500  0.15616000  1
  K  K7  1  0.29582200  0.14020500  0.34384000  1
  H  H8  1  0.85460100  0.58113100  0.01193800  1
  H  H9  1  0.35460100  0.91886900  0.48806200  1
  H  H10  1  0.14539900  0.91886900  0.51193800  1
  H  H11  1  0.64539900  0.58113100  0.98806200  1
  H  H12  1  0.14539900  0.41886900  0.98806200  1
  H  H13  1  0.64539900  0.08113100  0.51193800  1
  H  H14  1  0.85460100  0.08113100  0.48806200  1
  H  H15  1  0.35460100  0.41886900  0.01193800  1
  H  H16  1  0.76086100  0.64052900  0.21946900  1
  H  H17  1  0.26086100  0.85947100  0.28053100  1
  H  H18  1  0.23913900  0.85947100  0.71946900  1
  H  H19  1  0.73913900  0.64052900  0.78053100  1
  H  H20  1  0.23913900  0.35947100  0.78053100  1
  H  H21  1  0.73913900  0.14052900  0.71946900  1
  H  H22  1  0.76086100  0.14052900  0.28053100  1
  H  H23  1  0.26086100  0.35947100  0.21946900  1
  H  H24  1  0.74045700  0.73210300  0.14009900  1
  H  H25  1  0.24045700  0.76789700  0.35990100  1
  H  H26  1  0.25954300  0.76789700  0.64009900  1
  H  H27  1  0.75954300  0.73210300  0.85990100  1
  H  H28  1  0.25954300  0.26789700  0.85990100  1
  H  H29  1  0.75954300  0.23210300  0.64009900  1
  H  H30  1  0.74045700  0.23210300  0.35990100  1
  H  H31  1  0.24045700  0.26789700  0.14009900  1
  Pt  Pt32  1  0.50000000  0.00000000  0.00000000  1
  Pt  Pt33  1  0.00000000  0.50000000  0.50000000  1
  Pt  Pt34  1  0.50000000  0.50000000  0.50000000  1
  Pt  Pt35  1  0.00000000  0.00000000  0.00000000  1
  C  C36  1  0.50029600  0.83398700  0.97980400  1
  C  C37  1  0.00029600  0.66601300  0.52019600  1
  C  C38  1  0.49970400  0.66601300  0.47980400  1
  C  C39  1  0.99970400  0.83398700  0.02019600  1
  C  C40  1  0.49970400  0.16601300  0.02019600  1
  C  C41  1  0.99970400  0.33398700  0.47980400  1
  C  C42  1  0.50029600  0.33398700  0.52019600  1
  C  C43  1  0.00029600  0.16601300  0.97980400  1
  C  C44  1  0.48405400  0.97571200  0.14578900  1
  C  C45  1  0.98405400  0.52428800  0.35421100  1
  C  C46  1  0.51594600  0.52428800  0.64578900  1
  C  C47  1  0.01594600  0.97571200  0.85421100  1
  C  C48  1  0.51594600  0.02428800  0.85421100  1
  C  C49  1  0.01594600  0.47571200  0.64578900  1
  C  C50  1  0.48405400  0.47571200  0.35421100  1
  C  C51  1  0.98405400  0.02428800  0.14578900  1
  N  N52  1  0.50101400  0.73566400  0.97000700  1
  N  N53  1  0.00101400  0.76433600  0.52999300  1
  N  N54  1  0.49898600  0.76433600  0.47000700  1
  N  N55  1  0.99898600  0.73566400  0.02999300  1
  N  N56  1  0.49898600  0.26433600  0.02999300  1
  N  N57  1  0.99898600  0.23566400  0.47000700  1
  N  N58  1  0.50101400  0.23566400  0.52999300  1
  N  N59  1  0.00101400  0.26433600  0.97000700  1
  N  N60  1  0.47330600  0.96131300  0.23196200  1
  N  N61  1  0.97330600  0.53868700  0.26803800  1
  N  N62  1  0.52669400  0.53868700  0.73196200  1
  N  N63  1  0.02669400  0.96131300  0.76803800  1
  N  N64  1  0.52669400  0.03868700  0.76803800  1
  N  N65  1  0.02669400  0.46131300  0.73196200  1
  N  N66  1  0.47330600  0.46131300  0.26803800  1
  N  N67  1  0.97330600  0.03868700  0.23196200  1
  O  O68  1  0.75000000  0.52759200  0.00000000  1
  O  O69  1  0.25000000  0.97240800  0.50000000  1
  O  O70  1  0.25000000  0.47240800  0.00000000  1
  O  O71  1  0.75000000  0.02759200  0.50000000  1
  O  O72  1  0.67842800  0.70426500  0.19991300  1
  O  O73  1  0.17842800  0.79573500  0.30008700  1
  O  O74  1  0.32157200  0.79573500  0.69991300  1
  O  O75  1  0.82157200  0.70426500  0.80008700  1
  O  O76  1  0.32157200  0.29573500  0.80008700  1
  O  O77  1  0.82157200  0.20426500  0.69991300  1
  O  O78  1  0.67842800  0.20426500  0.30008700  1
  O  O79  1  0.17842800  0.29573500  0.19991300  1
