# generated using pymatgen
data_H2Ru6(CO)17
_symmetry_space_group_name_H-M   'P 1'
_cell_length_a   8.23068400
_cell_length_b   11.16411629
_cell_length_c   15.52157932
_cell_angle_alpha   93.46974324
_cell_angle_beta   98.11085157
_cell_angle_gamma   109.37943133
_symmetry_Int_Tables_number   1
_chemical_formula_structural   H2Ru6(CO)17
_chemical_formula_sum   'H4 Ru12 C34 O34'
_cell_volume   1323.15747081
_cell_formula_units_Z   2
loop_
 _symmetry_equiv_pos_site_id
 _symmetry_equiv_pos_as_xyz
  1  'x, y, z'
loop_
 _atom_site_type_symbol
 _atom_site_label
 _atom_site_symmetry_multiplicity
 _atom_site_fract_x
 _atom_site_fract_y
 _atom_site_fract_z
 _atom_site_occupancy
  H  H0  1  0.42023400  0.72434400  0.76152700  1
  H  H1  1  0.57976600  0.27565600  0.23847300  1
  H  H2  1  0.16028000  0.70209100  0.63387600  1
  H  H3  1  0.83972000  0.29790900  0.36612400  1
  Ru  Ru4  1  0.29525600  0.75085000  0.84806100  1
  Ru  Ru5  1  0.70474400  0.24915000  0.15193900  1
  Ru  Ru6  1  0.03710200  0.49787200  0.79044100  1
  Ru  Ru7  1  0.96289800  0.50212800  0.20955900  1
  Ru  Ru8  1  0.26040000  0.97950600  0.78142100  1
  Ru  Ru9  1  0.73960000  0.02049400  0.21857900  1
  Ru  Ru10  1  0.01686600  0.72384100  0.71097200  1
  Ru  Ru11  1  0.98313400  0.27615900  0.28902800  1
  Ru  Ru12  1  0.38908200  0.83700100  0.67246700  1
  Ru  Ru13  1  0.61091800  0.16299900  0.32753300  1
  Ru  Ru14  1  0.27233600  0.58390900  0.67768500  1
  Ru  Ru15  1  0.72766400  0.41609100  0.32231500  1
  C  C16  1  0.16142700  0.76089000  0.93624100  1
  C  C17  1  0.83857300  0.23911000  0.06375900  1
  C  C18  1  0.49280000  0.89205500  0.90652900  1
  C  C19  1  0.50720000  0.10794500  0.09347100  1
  C  C20  1  0.40070500  0.64109900  0.90627100  1
  C  C21  1  0.59929500  0.35890100  0.09372900  1
  C  C22  1  0.86444300  0.35649300  0.72007900  1
  C  C23  1  0.13555700  0.64350700  0.27992100  1
  C  C24  1  0.13982400  0.38717000  0.84365500  1
  C  C25  1  0.86017600  0.61283000  0.15634500  1
  C  C26  1  0.89409900  0.49687500  0.87671400  1
  C  C27  1  0.10590100  0.50312500  0.12328600  1
  C  C28  1  0.19285100  0.08711800  0.70600500  1
  C  C29  1  0.80714900  0.91288200  0.29399500  1
  C  C30  1  0.46159200  0.11927500  0.83133800  1
  C  C31  1  0.53840800  0.88072500  0.16866200  1
  C  C32  1  0.12457800  0.00953500  0.86453000  1
  C  C33  1  0.87542200  0.99046500  0.13547000  1
  C  C34  1  0.84021300  0.57733900  0.64200300  1
  C  C35  1  0.15978700  0.42266100  0.35799700  1
  C  C36  1  0.87160400  0.74251200  0.79146600  1
  C  C37  1  0.12839600  0.25748800  0.20853400  1
  C  C38  1  0.95858100  0.83440700  0.63018800  1
  C  C39  1  0.04141900  0.16559300  0.36981200  1
  C  C40  1  0.61558200  0.95216000  0.70992000  1
  C  C41  1  0.38441800  0.04784000  0.29008000  1
  C  C42  1  0.35460200  0.93852900  0.58453800  1
  C  C43  1  0.64539800  0.06147100  0.41546200  1
  C  C44  1  0.45240200  0.70606500  0.59503900  1
  C  C45  1  0.54759800  0.29393500  0.40496100  1
  C  C46  1  0.13323800  0.44869500  0.59417600  1
  C  C47  1  0.86676200  0.55130500  0.40582400  1
  C  C48  1  0.40385700  0.48447200  0.71540300  1
  C  C49  1  0.59614300  0.51552800  0.28459700  1
  O  O50  1  0.08735600  0.76572400  0.99379500  1
  O  O51  1  0.91264400  0.23427600  0.00620500  1
  O  O52  1  0.61665200  0.96034400  0.95291700  1
  O  O53  1  0.38334800  0.03965600  0.04708300  1
  O  O54  1  0.48371700  0.58957000  0.94451500  1
  O  O55  1  0.51628300  0.41043000  0.05548500  1
  O  O56  1  0.75761100  0.26905000  0.67800900  1
  O  O57  1  0.24238900  0.73095000  0.32199100  1
  O  O58  1  0.20024200  0.31618500  0.87447600  1
  O  O59  1  0.79975800  0.68381500  0.12552400  1
  O  O60  1  0.80792300  0.49213700  0.93025800  1
  O  O61  1  0.19207700  0.50786300  0.06974200  1
  O  O62  1  0.15296600  0.15776100  0.66310600  1
  O  O63  1  0.84703400  0.84223900  0.33689400  1
  O  O64  1  0.58121600  0.20817200  0.86237600  1
  O  O65  1  0.41878400  0.79182800  0.13762400  1
  O  O66  1  0.04236100  0.03287100  0.91335400  1
  O  O67  1  0.95763900  0.96712900  0.08664600  1
  O  O68  1  0.72605300  0.50209700  0.59387200  1
  O  O69  1  0.27394700  0.49790300  0.40612800  1
  O  O70  1  0.77343300  0.75082400  0.83655600  1
  O  O71  1  0.22656700  0.24917600  0.16344400  1
  O  O72  1  0.90817000  0.88703900  0.57617700  1
  O  O73  1  0.09183000  0.11296100  0.42382300  1
  O  O74  1  0.75825200  0.02058900  0.73504600  1
  O  O75  1  0.24174800  0.97941100  0.26495400  1
  O  O76  1  0.33182200  0.99939600  0.52906200  1
  O  O77  1  0.66817800  0.00060400  0.47093800  1
  O  O78  1  0.53098100  0.69142600  0.54072600  1
  O  O79  1  0.46901900  0.30857400  0.45927400  1
  O  O80  1  0.04281400  0.36351500  0.54318400  1
  O  O81  1  0.95718600  0.63648500  0.45681600  1
  O  O82  1  0.48677100  0.42291400  0.74070100  1
  O  O83  1  0.51322900  0.57708600  0.25929900  1
