# generated using pymatgen
data_KMg8Al17Si19O72
_symmetry_space_group_name_H-M   'P 1'
_cell_length_a   9.98009800
_cell_length_b   10.00709696
_cell_length_c   18.85709461
_cell_angle_alpha   90.01087456
_cell_angle_beta   90.05783330
_cell_angle_gamma   119.83464803
_symmetry_Int_Tables_number   1
_chemical_formula_structural   KMg8Al17Si19O72
_chemical_formula_sum   'K1 Mg8 Al17 Si19 O72'
_cell_volume   1633.68821805
_cell_formula_units_Z   1
loop_
 _symmetry_equiv_pos_site_id
 _symmetry_equiv_pos_as_xyz
  1  'x, y, z'
loop_
 _atom_site_type_symbol
 _atom_site_label
 _atom_site_symmetry_multiplicity
 _atom_site_fract_x
 _atom_site_fract_y
 _atom_site_fract_z
 _atom_site_occupancy
  K  K0  1  0.00718100  0.02404100  0.91971500  1
  Mg  Mg1  1  0.33331500  0.66651400  0.12614100  1
  Mg  Mg2  1  0.33320600  0.66620600  0.62561800  1
  Mg  Mg3  1  0.33808000  0.66144900  0.37619000  1
  Mg  Mg4  1  0.32950200  0.65961400  0.87266400  1
  Mg  Mg5  1  0.65783400  0.32183100  0.12755400  1
  Mg  Mg6  1  0.65821000  0.32055500  0.62578000  1
  Mg  Mg7  1  0.65900200  0.32516500  0.37340900  1
  Mg  Mg8  1  0.66543300  0.33185400  0.87238400  1
  Al  Al9  1  0.00081000  0.50098800  0.87493700  1
  Al  Al10  1  0.10665700  0.37515700  0.99905500  1
  Al  Al11  1  0.10367100  0.37238000  0.49947400  1
  Al  Al12  1  0.72958000  0.63388200  0.25178300  1
  Al  Al13  1  0.73239200  0.63378100  0.75081200  1
  Al  Al14  1  0.89875300  0.26913200  0.25019000  1
  Al  Al15  1  0.89445100  0.26987100  0.74877200  1
  Al  Al16  1  0.50018600  0.48871200  0.37601600  1
  Al  Al17  1  0.50049000  0.49024400  0.87475600  1
  Al  Al18  1  0.73177700  0.09690000  0.00099700  1
  Al  Al19  1  0.73174000  0.09486100  0.50083600  1
  Al  Al20  1  0.37310500  0.26118700  0.00002000  1
  Al  Al21  1  0.37074900  0.26144000  0.50009600  1
  Al  Al22  1  0.49617700  0.00109000  0.12549400  1
  Al  Al23  1  0.49644600  0.00036100  0.62531500  1
  Al  Al24  1  0.36246000  0.10129600  0.25027600  1
  Al  Al25  1  0.36417200  0.10294400  0.74949400  1
  Si  Si26  1  0.62277000  0.89929300  0.25025800  1
  Si  Si27  1  0.62358100  0.89826000  0.74977100  1
  Si  Si28  1  0.63031100  0.72360900  0.00046400  1
  Si  Si29  1  0.63035600  0.72351200  0.50030200  1
  Si  Si30  1  0.26927600  0.89153100  0.99947500  1
  Si  Si31  1  0.27200400  0.89458000  0.50017700  1
  Si  Si32  1  0.50269700  0.49328600  0.62450200  1
  Si  Si33  1  0.09602000  0.73164000  0.25006300  1
  Si  Si34  1  0.10053500  0.73256400  0.74955000  1
  Si  Si35  1  0.27239100  0.37740400  0.25030100  1
  Si  Si36  1  0.27008000  0.37664200  0.74992500  1
  Si  Si37  1  0.90336200  0.63248000  0.00007500  1
  Si  Si38  1  0.90758600  0.63849800  0.49900200  1
  Si  Si39  1  0.00139700  0.50444200  0.12681200  1
  Si  Si40  1  0.00186300  0.50575800  0.62417000  1
  Si  Si41  1  0.00170300  0.50423400  0.37558100  1
  Si  Si42  1  0.50316500  0.49501300  0.12495400  1
  Si  Si43  1  0.49538900  0.99817400  0.37479500  1
  Si  Si44  1  0.49570600  0.99874900  0.87475600  1
  O  O45  1  0.69337600  0.90431500  0.00313200  1
  O  O46  1  0.68644300  0.90127100  0.50489200  1
  O  O47  1  0.68030600  0.77710000  0.25455400  1
  O  O48  1  0.68198500  0.77653200  0.75579800  1
  O  O49  1  0.50509000  0.85940200  0.18087100  1
  O  O50  1  0.50464500  0.85798900  0.68099900  1
  O  O51  1  0.51169500  0.86986600  0.32407800  1
  O  O52  1  0.51395300  0.87173800  0.82420400  1
  O  O53  1  0.34540200  0.85437200  0.06921500  1
  O  O54  1  0.34724300  0.85315700  0.56876500  1
  O  O55  1  0.34920900  0.86639000  0.42490500  1
  O  O56  1  0.34921100  0.86747800  0.92525000  1
  O  O57  1  0.52286800  0.64057400  0.07394700  1
  O  O58  1  0.52389700  0.63941400  0.57375400  1
  O  O59  1  0.51752800  0.64421000  0.43077900  1
  O  O60  1  0.51971000  0.64405300  0.93131300  1
  O  O61  1  0.22715300  0.90695500  0.24936700  1
  O  O62  1  0.22311500  0.91176600  0.74629000  1
  O  O63  1  0.08101500  0.77592100  0.99533000  1
  O  O64  1  0.08534000  0.77502100  0.49610300  1
  O  O65  1  0.35887400  0.48276400  0.17506200  1
  O  O66  1  0.35715600  0.48030700  0.67442800  1
  O  O67  1  0.35533300  0.49364800  0.81818300  1
  O  O68  1  0.35589100  0.49394800  0.31887000  1
  O  O69  1  0.12126200  0.64720800  0.32207800  1
  O  O70  1  0.13591900  0.65183200  0.81779500  1
  O  O71  1  0.12659900  0.64660100  0.17912200  1
  O  O72  1  0.12540000  0.64951000  0.67579100  1
  O  O73  1  0.92409500  0.69800400  0.24653700  1
  O  O74  1  0.92753600  0.69991300  0.74926300  1
  O  O75  1  0.12915400  0.48964000  0.07882100  1
  O  O76  1  0.13527300  0.50072300  0.42402700  1
  O  O77  1  0.13203800  0.49558200  0.57584900  1
  O  O78  1  0.14689000  0.50786300  0.92927400  1
  O  O79  1  0.22725500  0.30141300  0.99782800  1
  O  O80  1  0.24413300  0.32693400  0.49864300  1
  O  O81  1  0.78043400  0.69513400  0.00234800  1
  O  O82  1  0.77463300  0.68595400  0.49896800  1
  O  O83  1  0.88621200  0.54012900  0.07590800  1
  O  O84  1  0.88203800  0.53268500  0.42709100  1
  O  O85  1  0.88505400  0.53805400  0.57207500  1
  O  O86  1  0.86829000  0.52260100  0.93191900  1
  O  O87  1  0.09307400  0.32721200  0.24580700  1
  O  O88  1  0.08991800  0.32352600  0.74694100  1
  O  O89  1  0.87026400  0.36322500  0.17422000  1
  O  O90  1  0.87373000  0.36019100  0.32797300  1
  O  O91  1  0.85917800  0.35207700  0.82355500  1
  O  O92  1  0.87152000  0.36284200  0.67061400  1
  O  O93  1  0.65020000  0.52368800  0.17259700  1
  O  O94  1  0.65133800  0.52428600  0.67185300  1
  O  O95  1  0.65112800  0.50606700  0.32235500  1
  O  O96  1  0.65168200  0.50878600  0.82196000  1
  O  O97  1  0.92278800  0.22318900  0.99104500  1
  O  O98  1  0.91651800  0.23741000  0.49441600  1
  O  O99  1  0.75675800  0.07733300  0.24916200  1
  O  O100  1  0.76136300  0.07391200  0.74733200  1
  O  O101  1  0.48484900  0.35116100  0.07786100  1
  O  O102  1  0.48510500  0.34943700  0.57799000  1
  O  O103  1  0.49795000  0.34448000  0.42881500  1
  O  O104  1  0.49580300  0.34464200  0.92806100  1
  O  O105  1  0.64405700  0.13587900  0.07204900  1
  O  O106  1  0.64119500  0.13374200  0.57084000  1
  O  O107  1  0.64081500  0.11502900  0.42216500  1
  O  O108  1  0.63976500  0.11422800  0.92333000  1
  O  O109  1  0.48528800  0.13792900  0.17857400  1
  O  O110  1  0.48809600  0.13880200  0.67865900  1
  O  O111  1  0.47293500  0.12074600  0.32754400  1
  O  O112  1  0.47053600  0.11993500  0.82813600  1
  O  O113  1  0.30558000  0.23786800  0.25371900  1
  O  O114  1  0.30308500  0.23654100  0.75524800  1
  O  O115  1  0.29652400  0.06172100  0.00071800  1
  O  O116  1  0.30473500  0.06502300  0.50282700  1
