# generated using pymatgen
data_MgAsH15O11
_symmetry_space_group_name_H-M   'P 1'
_cell_length_a   13.63674050
_cell_length_b   13.63674050
_cell_length_c   11.45588047
_cell_angle_alpha   88.63584561
_cell_angle_beta   88.63584561
_cell_angle_gamma   151.62074346
_symmetry_Int_Tables_number   1
_chemical_formula_structural   MgAsH15O11
_chemical_formula_sum   'Mg4 As4 H60 O44'
_cell_volume   1007.77787795
_cell_formula_units_Z   4
loop_
 _symmetry_equiv_pos_site_id
 _symmetry_equiv_pos_as_xyz
  1  'x, y, z'
loop_
 _atom_site_type_symbol
 _atom_site_label
 _atom_site_symmetry_multiplicity
 _atom_site_fract_x
 _atom_site_fract_y
 _atom_site_fract_z
 _atom_site_occupancy
  Mg  Mg0  1  0.72023400  0.27976600  0.25000000  1
  Mg  Mg1  1  0.55381300  0.44618700  0.75000000  1
  Mg  Mg2  1  0.44618700  0.55381300  0.25000000  1
  Mg  Mg3  1  0.27976600  0.72023400  0.75000000  1
  As  As4  1  0.97006000  0.16136200  0.95813400  1
  As  As5  1  0.83863800  0.02994000  0.54186600  1
  As  As6  1  0.16136200  0.97006000  0.45813400  1
  As  As7  1  0.02994000  0.83863800  0.04186600  1
  H  H8  1  0.80662600  0.77687400  0.31983500  1
  H  H9  1  0.74282500  0.67435400  0.20105100  1
  H  H10  1  0.92477400  0.69223600  0.82313300  1
  H  H11  1  0.93601500  0.69965300  0.68550800  1
  H  H12  1  0.84640800  0.54914600  0.36848500  1
  H  H13  1  0.98450400  0.54626000  0.62774700  1
  H  H14  1  0.88015600  0.37923500  0.85824600  1
  H  H15  1  0.91930400  0.30013900  0.83857200  1
  H  H16  1  0.82602400  0.21544200  0.39350500  1
  H  H17  1  0.73388200  0.63518700  0.53520100  1
  H  H18  1  0.66776500  0.40358700  0.12180600  1
  H  H19  1  0.60612700  0.48223800  0.99134900  1
  H  H20  1  0.59641300  0.33223500  0.37819400  1
  H  H21  1  0.70754500  0.36903100  0.85099800  1
  H  H22  1  0.00000000  0.00000000  0.00000000  1
  H  H23  1  0.78455800  0.17397600  0.10649500  1
  H  H24  1  0.67049200  0.29426300  0.98119900  1
  H  H25  1  0.87626400  0.12373600  0.75000000  1
  H  H26  1  0.70573700  0.32950800  0.51880100  1
  H  H27  1  0.00000000  0.00000000  0.50000000  1
  H  H28  1  0.63096900  0.29245500  0.64900200  1
  H  H29  1  0.51776200  0.39387300  0.50865100  1
  H  H30  1  0.45085400  0.15359200  0.13151500  1
  H  H31  1  0.36481300  0.26611800  0.96479900  1
  H  H32  1  0.69223600  0.92477400  0.32313300  1
  H  H33  1  0.69965300  0.93601500  0.18550800  1
  H  H34  1  0.32564600  0.25717500  0.29894900  1
  H  H35  1  0.69986100  0.08069600  0.66142800  1
  H  H36  1  0.62076500  0.11984400  0.64175400  1
  H  H37  1  0.54626000  0.98450400  0.12774700  1
  H  H38  1  0.77687400  0.80662600  0.81983500  1
  H  H39  1  0.22312600  0.19337400  0.18016500  1
  H  H40  1  0.45374000  0.01549600  0.87225300  1
  H  H41  1  0.37923500  0.88015600  0.35824600  1
  H  H42  1  0.30013900  0.91930400  0.33857200  1
  H  H43  1  0.67435400  0.74282500  0.70105100  1
  H  H44  1  0.30034700  0.06398500  0.81449200  1
  H  H45  1  0.30776400  0.07522600  0.67686700  1
  H  H46  1  0.63518700  0.73388200  0.03520100  1
  H  H47  1  0.54914600  0.84640800  0.86848500  1
  H  H48  1  0.48223800  0.60612700  0.49134900  1
  H  H49  1  0.36903100  0.70754500  0.35099800  1
  H  H50  1  0.29426300  0.67049200  0.48119900  1
  H  H51  1  0.12373600  0.87626400  0.25000000  1
  H  H52  1  0.32950800  0.70573700  0.01880100  1
  H  H53  1  0.21544200  0.82602400  0.89350500  1
  H  H54  1  0.29245500  0.63096900  0.14900200  1
  H  H55  1  0.40358700  0.66776500  0.62180600  1
  H  H56  1  0.39387300  0.51776200  0.00865100  1
  H  H57  1  0.33223500  0.59641300  0.87819400  1
  H  H58  1  0.26611800  0.36481300  0.46479900  1
  H  H59  1  0.17397600  0.78455800  0.60649500  1
  H  H60  1  0.08069600  0.69986100  0.16142800  1
  H  H61  1  0.11984400  0.62076500  0.14175400  1
  H  H62  1  0.01549600  0.45374000  0.37225300  1
  H  H63  1  0.15359200  0.45085400  0.63151500  1
  H  H64  1  0.06398500  0.30034700  0.31449200  1
  H  H65  1  0.07522600  0.30776400  0.17686700  1
  H  H66  1  0.25717500  0.32564600  0.79894900  1
  H  H67  1  0.19337400  0.22312600  0.68016500  1
  O  O68  1  0.11489400  0.03435300  0.02283400  1
  O  O69  1  0.72499400  0.71650800  0.25296100  1
  O  O70  1  0.77469100  0.61020900  0.09477600  1
  O  O71  1  0.98592200  0.42346900  0.82832900  1
  O  O72  1  0.83373900  0.61168900  0.75578300  1
  O  O73  1  0.86367500  0.31701300  0.36826800  1
  O  O74  1  0.72014700  0.39599900  0.37218200  1
  O  O75  1  0.82327900  0.08611100  0.41740800  1
  O  O76  1  0.91388900  0.17672100  0.08259200  1
  O  O77  1  0.91919300  0.18040300  0.64668100  1
  O  O78  1  0.03435300  0.11489400  0.52283400  1
  O  O79  1  0.60100600  0.48982800  0.57186700  1
  O  O80  1  0.68585300  0.28878100  0.89728100  1
  O  O81  1  0.60400100  0.27985300  0.12781800  1
  O  O82  1  0.71121900  0.31414700  0.60271900  1
  O  O83  1  0.51017200  0.39899400  0.92813300  1
  O  O84  1  0.68298700  0.13632500  0.13173200  1
  O  O85  1  0.81959700  0.08080700  0.85331900  1
  O  O86  1  0.38979100  0.22530900  0.40522400  1
  O  O87  1  0.28349200  0.27500600  0.24703900  1
  O  O88  1  0.42346900  0.98592200  0.32832900  1
  O  O89  1  0.61168900  0.83373900  0.25578300  1
  O  O90  1  0.38831100  0.16626100  0.74421700  1
  O  O91  1  0.57653100  0.01407800  0.67167100  1
  O  O92  1  0.71650800  0.72499400  0.75296100  1
  O  O93  1  0.61020900  0.77469100  0.59477600  1
  O  O94  1  0.18040300  0.91919300  0.14668100  1
  O  O95  1  0.31701300  0.86367500  0.86826800  1
  O  O96  1  0.48982800  0.60100600  0.07186700  1
  O  O97  1  0.28878100  0.68585300  0.39728100  1
  O  O98  1  0.39599900  0.72014700  0.87218200  1
  O  O99  1  0.31414700  0.71121900  0.10271900  1
  O  O100  1  0.39899400  0.51017200  0.42813300  1
  O  O101  1  0.96564700  0.88510600  0.47716600  1
  O  O102  1  0.08080700  0.81959700  0.35331900  1
  O  O103  1  0.08611100  0.82327900  0.91740800  1
  O  O104  1  0.17672100  0.91388900  0.58259200  1
  O  O105  1  0.27985300  0.60400100  0.62781800  1
  O  O106  1  0.13632500  0.68298700  0.63173200  1
  O  O107  1  0.16626100  0.38831100  0.24421700  1
  O  O108  1  0.01407800  0.57653100  0.17167100  1
  O  O109  1  0.22530900  0.38979100  0.90522400  1
  O  O110  1  0.27500600  0.28349200  0.74703900  1
  O  O111  1  0.88510600  0.96564700  0.97716600  1
