# generated using pymatgen
data_Ge7H18O23
_symmetry_space_group_name_H-M   'P 1'
_cell_length_a   7.79257300
_cell_length_b   7.82524864
_cell_length_c   7.88709566
_cell_angle_alpha   89.70629763
_cell_angle_beta   89.64263530
_cell_angle_gamma   87.28826959
_symmetry_Int_Tables_number   1
_chemical_formula_structural   Ge7H18O23
_chemical_formula_sum   'Ge7 H18 O23'
_cell_volume   480.39227472
_cell_formula_units_Z   1
loop_
 _symmetry_equiv_pos_site_id
 _symmetry_equiv_pos_as_xyz
  1  'x, y, z'
loop_
 _atom_site_type_symbol
 _atom_site_label
 _atom_site_symmetry_multiplicity
 _atom_site_fract_x
 _atom_site_fract_y
 _atom_site_fract_z
 _atom_site_occupancy
  Ge  Ge0  1  0.16351400  0.88112000  0.86040700  1
  Ge  Ge1  1  0.87781500  0.14044800  0.87935700  1
  Ge  Ge2  1  0.16387000  0.13191000  0.14025700  1
  Ge  Ge3  1  0.89592900  0.86156600  0.14214600  1
  Ge  Ge4  1  0.03226100  0.49052700  0.00326700  1
  Ge  Ge5  1  0.52515500  0.98944900  0.99469900  1
  Ge  Ge6  1  0.01374400  0.00745000  0.49204300  1
  H  H7  1  0.89305200  0.28571700  0.58870400  1
  H  H8  1  0.80403800  0.54464900  0.55785700  1
  H  H9  1  0.99591300  0.49769100  0.48213000  1
  H  H10  1  0.61647500  0.64524800  0.07085300  1
  H  H11  1  0.68514700  0.47657300  0.96789500  1
  H  H12  1  0.43783400  0.00761800  0.33227700  1
  H  H13  1  0.34705500  0.93963700  0.52282800  1
  H  H14  1  0.53797900  0.85652600  0.47148000  1
  H  H15  1  0.20395600  0.56827500  0.33079100  1
  H  H16  1  0.18775400  0.68285200  0.49811200  1
  H  H17  1  0.35261200  0.42678300  0.59160200  1
  H  H18  1  0.26808400  0.55689600  0.81673000  1
  H  H19  1  0.46949900  0.33034700  0.73524400  1
  H  H20  1  0.54947700  0.59817500  0.64153600  1
  H  H21  1  0.65843800  0.75213600  0.69616400  1
  H  H22  1  0.61638500  0.43791900  0.16305200  1
  H  H23  1  0.73700600  0.24089100  0.22463800  1
  H  H24  1  0.75163500  0.39085200  0.35563100  1
  O  O25  1  0.14105700  0.88296300  0.11418200  1
  O  O26  1  0.13739100  0.12465400  0.89056400  1
  O  O27  1  0.91724600  0.89094600  0.87079500  1
  O  O28  1  0.89187400  0.11391500  0.12003800  1
  O  O29  1  0.16044200  0.62097300  0.85849000  1
  O  O30  1  0.39931800  0.86642800  0.85978000  1
  O  O31  1  0.16699700  0.88384700  0.61632600  1
  O  O32  1  0.87481800  0.38199300  0.88898400  1
  O  O33  1  0.63870300  0.13791000  0.87167700  1
  O  O34  1  0.89335500  0.15541800  0.63244000  1
  O  O35  1  0.17728800  0.36544700  0.12282300  1
  O  O36  1  0.40172100  0.08892900  0.16081400  1
  O  O37  1  0.13890500  0.14193000  0.37146300  1
  O  O38  1  0.92389400  0.62846400  0.14286900  1
  O  O39  1  0.66070200  0.84123800  0.10886700  1
  O  O40  1  0.88029900  0.87759900  0.37824400  1
  O  O41  1  0.88062200  0.45064500  0.50968700  1
  O  O42  1  0.58863000  0.52210600  0.04326700  1
  O  O43  1  0.45854000  0.95995700  0.45767000  1
  O  O44  1  0.19651400  0.56402900  0.45443400  1
  O  O45  1  0.41677000  0.44080100  0.69778000  1
  O  O46  1  0.63293900  0.68213600  0.59815800  1
  O  O47  1  0.66634300  0.33510800  0.28159900  1
