# generated using pymatgen
data_CoH17S2N5ClO4
_symmetry_space_group_name_H-M   'P 1'
_cell_length_a   8.36685000
_cell_length_b   10.37744300
_cell_length_c   13.52081000
_cell_angle_alpha   90.00000000
_cell_angle_beta   90.00000000
_cell_angle_gamma   90.00000000
_symmetry_Int_Tables_number   1
_chemical_formula_structural   CoH17S2N5ClO4
_chemical_formula_sum   'Co4 H68 S8 N20 Cl4 O16'
_cell_volume   1173.96473067
_cell_formula_units_Z   4
loop_
 _symmetry_equiv_pos_site_id
 _symmetry_equiv_pos_as_xyz
  1  'x, y, z'
loop_
 _atom_site_type_symbol
 _atom_site_label
 _atom_site_symmetry_multiplicity
 _atom_site_fract_x
 _atom_site_fract_y
 _atom_site_fract_z
 _atom_site_occupancy
  Co  Co0  1  0.25000000  0.24555300  0.66469600  1
  Co  Co1  1  0.25000000  0.25444700  0.16469600  1
  Co  Co2  1  0.75000000  0.75444700  0.33530400  1
  Co  Co3  1  0.75000000  0.74555300  0.83530400  1
  H  H4  1  0.15094400  0.46480200  0.59380300  1
  H  H5  1  0.34905600  0.03519800  0.09380300  1
  H  H6  1  0.65094400  0.53519800  0.40619700  1
  H  H7  1  0.84905600  0.96480200  0.90619700  1
  H  H8  1  0.84905600  0.53519800  0.40619700  1
  H  H9  1  0.65094400  0.96480200  0.90619700  1
  H  H10  1  0.34905600  0.46480200  0.59380300  1
  H  H11  1  0.15094400  0.03519800  0.09380300  1
  H  H12  1  0.25000000  0.48763200  0.69700700  1
  H  H13  1  0.25000000  0.01236800  0.19700700  1
  H  H14  1  0.75000000  0.51236800  0.30299300  1
  H  H15  1  0.75000000  0.98763200  0.80299300  1
  H  H16  1  0.97192900  0.16707900  0.58347900  1
  H  H17  1  0.52807100  0.33292100  0.08347900  1
  H  H18  1  0.47192900  0.83292100  0.41652100  1
  H  H19  1  0.02807100  0.66707900  0.91652100  1
  H  H20  1  0.02807100  0.83292100  0.41652100  1
  H  H21  1  0.47192900  0.66707900  0.91652100  1
  H  H22  1  0.52807100  0.16707900  0.58347900  1
  H  H23  1  0.97192900  0.33292100  0.08347900  1
  H  H24  1  0.04659000  0.28220300  0.51192800  1
  H  H25  1  0.45341000  0.21779700  0.01192800  1
  H  H26  1  0.54659000  0.71779700  0.48807200  1
  H  H27  1  0.95341000  0.78220300  0.98807200  1
  H  H28  1  0.95341000  0.71779700  0.48807200  1
  H  H29  1  0.54659000  0.78220300  0.98807200  1
  H  H30  1  0.45341000  0.28220300  0.51192800  1
  H  H31  1  0.04659000  0.21779700  0.01192800  1
  H  H32  1  0.11770100  0.13465600  0.50689900  1
  H  H33  1  0.38229900  0.36534400  0.00689900  1
  H  H34  1  0.61770100  0.86534400  0.49310100  1
  H  H35  1  0.88229900  0.63465600  0.99310100  1
  H  H36  1  0.88229900  0.86534400  0.49310100  1
  H  H37  1  0.61770100  0.63465600  0.99310100  1
  H  H38  1  0.38229900  0.13465600  0.50689900  1
  H  H39  1  0.11770100  0.36534400  0.00689900  1
  H  H40  1  0.96249500  0.31034800  0.73063800  1
  H  H41  1  0.53750500  0.18965200  0.23063800  1
  H  H42  1  0.46249500  0.68965200  0.26936200  1
  H  H43  1  0.03750500  0.81034800  0.76936200  1
  H  H44  1  0.03750500  0.68965200  0.26936200  1
  H  H45  1  0.46249500  0.81034800  0.76936200  1
  H  H46  1  0.53750500  0.31034800  0.73063800  1
  H  H47  1  0.96249500  0.18965200  0.23063800  1
  H  H48  1  0.04128200  0.20833800  0.81109900  1
  H  H49  1  0.45871800  0.29166200  0.31109900  1
  H  H50  1  0.54128200  0.79166200  0.18890100  1
  H  H51  1  0.95871800  0.70833800  0.68890100  1
  H  H52  1  0.95871800  0.79166200  0.18890100  1
  H  H53  1  0.54128200  0.70833800  0.68890100  1
  H  H54  1  0.45871800  0.20833800  0.81109900  1
  H  H55  1  0.04128200  0.29166200  0.31109900  1
  H  H56  1  0.09951900  0.36101800  0.81025900  1
  H  H57  1  0.40048100  0.13898200  0.31025900  1
  H  H58  1  0.59951900  0.63898200  0.18974100  1
  H  H59  1  0.90048100  0.86101800  0.68974100  1
  H  H60  1  0.90048100  0.63898200  0.18974100  1
  H  H61  1  0.59951900  0.86101800  0.68974100  1
  H  H62  1  0.40048100  0.36101800  0.81025900  1
  H  H63  1  0.09951900  0.13898200  0.31025900  1
  H  H64  1  0.25000000  0.82520200  0.58878700  1
  H  H65  1  0.25000000  0.67479800  0.08878700  1
  H  H66  1  0.75000000  0.17479800  0.41121300  1
  H  H67  1  0.75000000  0.32520200  0.91121300  1
  H  H68  1  0.25000000  0.71547500  0.51173500  1
  H  H69  1  0.25000000  0.78452500  0.01173500  1
  H  H70  1  0.75000000  0.28452500  0.48826500  1
  H  H71  1  0.75000000  0.21547500  0.98826500  1
  S  S72  1  0.25000000  0.03064400  0.70273300  1
  S  S73  1  0.25000000  0.46935600  0.20273300  1
  S  S74  1  0.75000000  0.96935600  0.29726700  1
  S  S75  1  0.75000000  0.53064400  0.79726700  1
  S  S76  1  0.25000000  0.00147000  0.85595900  1
  S  S77  1  0.25000000  0.49853000  0.35595900  1
  S  S78  1  0.75000000  0.99853000  0.14404100  1
  S  S79  1  0.75000000  0.50147000  0.64404100  1
  N  N80  1  0.25000000  0.43529600  0.63237300  1
  N  N81  1  0.25000000  0.06470400  0.13237300  1
  N  N82  1  0.75000000  0.56470400  0.36762700  1
  N  N83  1  0.75000000  0.93529600  0.86762700  1
  N  N84  1  0.07635100  0.20425800  0.55478300  1
  N  N85  1  0.42364900  0.29574200  0.05478300  1
  N  N86  1  0.57635100  0.79574200  0.44521700  1
  N  N87  1  0.92364900  0.70425800  0.94521700  1
  N  N88  1  0.92364900  0.79574200  0.44521700  1
  N  N89  1  0.57635100  0.70425800  0.94521700  1
  N  N90  1  0.42364900  0.20425800  0.55478300  1
  N  N91  1  0.07635100  0.29574200  0.05478300  1
  N  N92  1  0.06673300  0.28471200  0.76551700  1
  N  N93  1  0.43326700  0.21528800  0.26551700  1
  N  N94  1  0.56673300  0.71528800  0.23448300  1
  N  N95  1  0.93326700  0.78471200  0.73448300  1
  N  N96  1  0.93326700  0.71528800  0.23448300  1
  N  N97  1  0.56673300  0.78471200  0.73448300  1
  N  N98  1  0.43326700  0.28471200  0.76551700  1
  N  N99  1  0.06673300  0.21528800  0.26551700  1
  Cl  Cl100  1  0.25000000  0.51291900  0.89724700  1
  Cl  Cl101  1  0.25000000  0.98708100  0.39724700  1
  Cl  Cl102  1  0.75000000  0.48708100  0.10275300  1
  Cl  Cl103  1  0.75000000  0.01291900  0.60275300  1
  O  O104  1  0.25000000  0.85871300  0.86183800  1
  O  O105  1  0.25000000  0.64128700  0.36183800  1
  O  O106  1  0.75000000  0.14128700  0.13816200  1
  O  O107  1  0.75000000  0.35871300  0.63816200  1
  O  O108  1  0.10322100  0.05848000  0.89806400  1
  O  O109  1  0.39677900  0.44152000  0.39806400  1
  O  O110  1  0.60322100  0.94152000  0.10193600  1
  O  O111  1  0.89677900  0.55848000  0.60193600  1
  O  O112  1  0.89677900  0.94152000  0.10193600  1
  O  O113  1  0.60322100  0.55848000  0.60193600  1
  O  O114  1  0.39677900  0.05848000  0.89806400  1
  O  O115  1  0.10322100  0.44152000  0.39806400  1
  O  O116  1  0.25000000  0.73150300  0.58312300  1
  O  O117  1  0.25000000  0.76849700  0.08312300  1
  O  O118  1  0.75000000  0.26849700  0.41687700  1
  O  O119  1  0.75000000  0.23150300  0.91687700  1
