# generated using pymatgen
data_H4Ru3C9N2O9
_symmetry_space_group_name_H-M   'P 1'
_cell_length_a   9.50274100
_cell_length_b   13.22715851
_cell_length_c   14.51825596
_cell_angle_alpha   67.83518355
_cell_angle_beta   86.58393360
_cell_angle_gamma   82.45762961
_symmetry_Int_Tables_number   1
_chemical_formula_structural   H4Ru3C9N2O9
_chemical_formula_sum   'H16 Ru12 C36 N8 O36'
_cell_volume   1675.28609158
_cell_formula_units_Z   4
loop_
 _symmetry_equiv_pos_site_id
 _symmetry_equiv_pos_as_xyz
  1  'x, y, z'
loop_
 _atom_site_type_symbol
 _atom_site_label
 _atom_site_symmetry_multiplicity
 _atom_site_fract_x
 _atom_site_fract_y
 _atom_site_fract_z
 _atom_site_occupancy
  H  H0  1  0.89433800  0.86505500  0.73789400  1
  H  H1  1  0.10566200  0.13494500  0.26210600  1
  H  H2  1  0.91732000  0.11417100  0.60180000  1
  H  H3  1  0.08268000  0.88582900  0.39820000  1
  H  H4  1  0.70170900  0.20784100  0.63099100  1
  H  H5  1  0.29829100  0.79215900  0.36900900  1
  H  H6  1  0.82424900  0.20761500  0.70900200  1
  H  H7  1  0.17575100  0.79238500  0.29099800  1
  H  H8  1  0.09999000  0.62572500  0.73492500  1
  H  H9  1  0.90001000  0.37427500  0.26507500  1
  H  H10  1  0.18256300  0.40084200  0.93200600  1
  H  H11  1  0.81743700  0.59915800  0.06799400  1
  H  H12  1  0.35164000  0.30462700  0.85878800  1
  H  H13  1  0.64836000  0.69537300  0.14121200  1
  H  H14  1  0.19311900  0.26545800  0.86247300  1
  H  H15  1  0.80688100  0.73454200  0.13752700  1
  Ru  Ru16  1  0.95587400  0.95496500  0.79176800  1
  Ru  Ru17  1  0.04412600  0.04503500  0.20823200  1
  Ru  Ru18  1  0.73755700  0.94983600  0.66873800  1
  Ru  Ru19  1  0.26244300  0.05016400  0.33126200  1
  Ru  Ru20  1  0.67277000  0.02884600  0.82095300  1
  Ru  Ru21  1  0.32723000  0.97115400  0.17904700  1
  Ru  Ru22  1  0.00896600  0.50418200  0.76862400  1
  Ru  Ru23  1  0.99103400  0.49581800  0.23137600  1
  Ru  Ru24  1  0.28365000  0.56344300  0.75899400  1
  Ru  Ru25  1  0.71635000  0.43655700  0.24100600  1
  Ru  Ru26  1  0.22711000  0.41839600  0.67025900  1
  Ru  Ru27  1  0.77289000  0.58160400  0.32974100  1
  C  C28  1  0.13862100  0.92800800  0.73359400  1
  C  C29  1  0.86137900  0.07199200  0.26640600  1
  C  C30  1  0.97925300  0.82858500  0.91029600  1
  C  C31  1  0.02074700  0.17141500  0.08970400  1
  C  C32  1  0.01616800  0.04358100  0.85598800  1
  C  C33  1  0.98383200  0.95641900  0.14401200  1
  C  C34  1  0.83385000  0.92019300  0.56013300  1
  C  C35  1  0.16615000  0.07980700  0.43986700  1
  C  C36  1  0.64434100  0.82011600  0.71847000  1
  C  C37  1  0.35565900  0.17988400  0.28153000  1
  C  C38  1  0.56689200  0.03560000  0.60401800  1
  C  C39  1  0.43310800  0.96440000  0.39598200  1
  C  C40  1  0.47564200  0.07652100  0.79989800  1
  C  C41  1  0.52435800  0.92347900  0.20010200  1
  C  C42  1  0.64482800  0.88738700  0.90865300  1
  C  C43  1  0.35517200  0.11261300  0.09134700  1
  C  C44  1  0.70034200  0.08426300  0.92252000  1
  C  C45  1  0.29965800  0.91573700  0.07748000  1
  C  C46  1  0.89986500  0.54671000  0.86678800  1
  C  C47  1  0.10013500  0.45329000  0.13321200  1
  C  C48  1  0.88918400  0.59034300  0.65952500  1
  C  C49  1  0.11081600  0.40965700  0.34047500  1
  C  C50  1  0.91869700  0.38003500  0.78409300  1
  C  C51  1  0.08130300  0.61996500  0.21590700  1
  C  C52  1  0.29680700  0.63625000  0.85129000  1
  C  C53  1  0.70319300  0.36375000  0.14871000  1
  C  C54  1  0.31239600  0.68309200  0.63917500  1
  C  C55  1  0.68760400  0.31690800  0.36082500  1
  C  C56  1  0.47697000  0.50298600  0.76555000  1
  C  C57  1  0.52303000  0.49701400  0.23445000  1
  C  C58  1  0.41254500  0.38054600  0.62754200  1
  C  C59  1  0.58745500  0.61945400  0.37245800  1
  C  C60  1  0.18014600  0.53061000  0.54727000  1
  C  C61  1  0.81985400  0.46939000  0.45273000  1
  C  C62  1  0.13905500  0.30766800  0.64836400  1
  C  C63  1  0.86094500  0.69233200  0.35163600  1
  N  N64  1  0.85608400  0.07770700  0.66293100  1
  N  N65  1  0.14391600  0.92229300  0.33706900  1
  N  N66  1  0.76485300  0.15882200  0.69010600  1
  N  N67  1  0.23514700  0.84117800  0.30989400  1
  N  N68  1  0.19077200  0.42300700  0.85647200  1
  N  N69  1  0.80922800  0.57699300  0.14352800  1
  N  N70  1  0.25092000  0.33073700  0.83113600  1
  N  N71  1  0.74908000  0.66926300  0.16886400  1
  O  O72  1  0.25110700  0.90957500  0.70366700  1
  O  O73  1  0.74889300  0.09042500  0.29633300  1
  O  O74  1  0.98996800  0.74948500  0.98241400  1
  O  O75  1  0.01003200  0.25051500  0.01758600  1
  O  O76  1  0.05634600  0.09698400  0.89478900  1
  O  O77  1  0.94365400  0.90301600  0.10521100  1
  O  O78  1  0.89856200  0.89943600  0.49758400  1
  O  O79  1  0.10143800  0.10056400  0.50241600  1
  O  O80  1  0.59157700  0.73922000  0.75004800  1
  O  O81  1  0.40842300  0.26078000  0.24995200  1
  O  O82  1  0.46410400  0.08730100  0.56422100  1
  O  O83  1  0.53589600  0.91269900  0.43577900  1
  O  O84  1  0.35326800  0.10256200  0.79197800  1
  O  O85  1  0.64673200  0.89743800  0.20802200  1
  O  O86  1  0.62598700  0.79937700  0.96481300  1
  O  O87  1  0.37401300  0.20062300  0.03518700  1
  O  O88  1  0.71357100  0.11400100  0.98724400  1
  O  O89  1  0.28642900  0.88599900  0.01275600  1
  O  O90  1  0.82716000  0.56747600  0.92638800  1
  O  O91  1  0.17284000  0.43252400  0.07361200  1
  O  O92  1  0.81541500  0.64233100  0.59293900  1
  O  O93  1  0.18458500  0.35766900  0.40706100  1
  O  O94  1  0.85848200  0.30534900  0.79325000  1
  O  O95  1  0.14151800  0.69465100  0.20675000  1
  O  O96  1  0.31231300  0.67769300  0.90712000  1
  O  O97  1  0.68768700  0.32230700  0.09288000  1
  O  O98  1  0.32110300  0.75590200  0.56331600  1
  O  O99  1  0.67889700  0.24409800  0.43668400  1
  O  O100  1  0.59636000  0.46773600  0.76922400  1
  O  O101  1  0.40364000  0.53226400  0.23077600  1
  O  O102  1  0.52363900  0.35752100  0.59701100  1
  O  O103  1  0.47636100  0.64247900  0.40298900  1
  O  O104  1  0.15369400  0.60054800  0.47014200  1
  O  O105  1  0.84630600  0.39945200  0.52985800  1
  O  O106  1  0.08842000  0.23823800  0.63589500  1
  O  O107  1  0.91158000  0.76176200  0.36410500  1
