# generated using pymatgen
data_CoHgS4
_symmetry_space_group_name_H-M   'P 1'
_cell_length_a   5.68684304
_cell_length_b   5.68684304
_cell_length_c   5.68684304
_cell_angle_alpha   101.64249264
_cell_angle_beta   101.64249264
_cell_angle_gamma   126.61187775
_symmetry_Int_Tables_number   1
_chemical_formula_structural   CoHgS4
_chemical_formula_sum   'Co1 Hg1 S4'
_cell_volume   131.89196558
_cell_formula_units_Z   1
loop_
 _symmetry_equiv_pos_site_id
 _symmetry_equiv_pos_as_xyz
  1  'x, y, z'
loop_
 _atom_site_type_symbol
 _atom_site_label
 _atom_site_symmetry_multiplicity
 _atom_site_fract_x
 _atom_site_fract_y
 _atom_site_fract_z
 _atom_site_occupancy
  Co  Co0  1  0.75000000  0.25000000  0.50000000  1
  Hg  Hg1  1  0.00000000  0.00000000  0.00000000  1
  S  S2  1  0.35490900  0.20154500  0.48550900  1
  S  S3  1  0.71603600  0.86940000  0.51449100  1
  S  S4  1  0.13060000  0.64509100  0.84663700  1
  S  S5  1  0.79845500  0.28396400  0.15336300  1
