# generated using pymatgen
data_H10S(NO2)2
_symmetry_space_group_name_H-M   'P 1'
_cell_length_a   8.39452300
_cell_length_b   6.52054400
_cell_length_c   13.52350429
_cell_angle_alpha   80.25969695
_cell_angle_beta   90.00000000
_cell_angle_gamma   90.00000000
_symmetry_Int_Tables_number   1
_chemical_formula_structural   H10S(NO2)2
_chemical_formula_sum   'H40 S4 N8 O16'
_cell_volume   729.56342241
_cell_formula_units_Z   4
loop_
 _symmetry_equiv_pos_site_id
 _symmetry_equiv_pos_as_xyz
  1  'x, y, z'
loop_
 _atom_site_type_symbol
 _atom_site_label
 _atom_site_symmetry_multiplicity
 _atom_site_fract_x
 _atom_site_fract_y
 _atom_site_fract_z
 _atom_site_occupancy
  H  H0  1  0.35924800  0.62659500  0.10824000  1
  H  H1  1  0.85924800  0.37340500  0.39176000  1
  H  H2  1  0.64075200  0.37340500  0.89176000  1
  H  H3  1  0.14075200  0.62659500  0.60824000  1
  H  H4  1  0.40156100  0.77459900  0.19447400  1
  H  H5  1  0.90156100  0.22540100  0.30552600  1
  H  H6  1  0.59843900  0.22540100  0.80552600  1
  H  H7  1  0.09843900  0.77459900  0.69447400  1
  H  H8  1  0.21780400  0.64316500  0.19787400  1
  H  H9  1  0.71780400  0.35683500  0.30212600  1
  H  H10  1  0.78219600  0.35683500  0.80212600  1
  H  H11  1  0.28219600  0.64316500  0.69787400  1
  H  H12  1  0.40980200  0.51027300  0.22444100  1
  H  H13  1  0.90980200  0.48972700  0.27555900  1
  H  H14  1  0.59019800  0.48972700  0.77555900  1
  H  H15  1  0.09019800  0.51027300  0.72444100  1
  H  H16  1  0.71108000  0.58981700  0.11243200  1
  H  H17  1  0.21108000  0.41018300  0.38756800  1
  H  H18  1  0.28892000  0.41018300  0.88756800  1
  H  H19  1  0.78892000  0.58981700  0.61243200  1
  H  H20  1  0.67862300  0.82289500  0.14446400  1
  H  H21  1  0.17862300  0.17710500  0.35553600  1
  H  H22  1  0.32137700  0.17710500  0.85553600  1
  H  H23  1  0.82137700  0.82289500  0.64446400  1
  H  H24  1  0.95086900  0.71526700  0.16941100  1
  H  H25  1  0.45086900  0.28473300  0.33058900  1
  H  H26  1  0.04913100  0.28473300  0.83058900  1
  H  H27  1  0.54913100  0.71526700  0.66941100  1
  H  H28  1  0.74284900  0.80021100  0.03025400  1
  H  H29  1  0.24284900  0.19978900  0.46974600  1
  H  H30  1  0.25715100  0.19978900  0.96974600  1
  H  H31  1  0.75715100  0.80021100  0.53025400  1
  H  H32  1  0.07092700  0.13072700  0.21122900  1
  H  H33  1  0.57092700  0.86927300  0.28877100  1
  H  H34  1  0.92907300  0.86927300  0.78877100  1
  H  H35  1  0.42907300  0.13072700  0.71122900  1
  H  H36  1  0.04214800  0.89050000  0.25416700  1
  H  H37  1  0.54214800  0.10950000  0.24583300  1
  H  H38  1  0.95785200  0.10950000  0.74583300  1
  H  H39  1  0.45785200  0.89050000  0.75416700  1
  S  S40  1  0.10838800  0.78936200  0.97733300  1
  S  S41  1  0.60838800  0.21063800  0.52266700  1
  S  S42  1  0.89161200  0.21063800  0.02266700  1
  S  S43  1  0.39161200  0.78936200  0.47733300  1
  N  N44  1  0.34651600  0.63616300  0.18270400  1
  N  N45  1  0.84651600  0.36383700  0.31729600  1
  N  N46  1  0.65348400  0.36383700  0.81729600  1
  N  N47  1  0.15348400  0.63616300  0.68270400  1
  N  N48  1  0.75210500  0.74000100  0.10471900  1
  N  N49  1  0.25210500  0.25999900  0.39528100  1
  N  N50  1  0.24789500  0.25999900  0.89528100  1
  N  N51  1  0.74789500  0.74000100  0.60471900  1
  O  O52  1  0.23426200  0.70059600  0.46425500  1
  O  O53  1  0.73426200  0.29940400  0.03574500  1
  O  O54  1  0.76573800  0.29940400  0.53574500  1
  O  O55  1  0.26573800  0.70059600  0.96425500  1
  O  O56  1  0.03828400  0.04192500  0.27337400  1
  O  O57  1  0.53828400  0.95807500  0.22662600  1
  O  O58  1  0.96171600  0.95807500  0.72662600  1
  O  O59  1  0.46171600  0.04192500  0.77337400  1
  O  O60  1  0.04313300  0.69045700  0.21600200  1
  O  O61  1  0.54313300  0.30954300  0.28399800  1
  O  O62  1  0.95686700  0.30954300  0.78399800  1
  O  O63  1  0.45686700  0.69045700  0.71600200  1
  O  O64  1  0.02409200  0.29337400  0.07275600  1
  O  O65  1  0.52409200  0.70662600  0.42724400  1
  O  O66  1  0.97590800  0.70662600  0.92724400  1
  O  O67  1  0.47590800  0.29337400  0.57275600  1
