# generated using pymatgen
data_Na2P2H14O13
_symmetry_space_group_name_H-M   'P 1'
_cell_length_a   7.89692056
_cell_length_b   7.89692056
_cell_length_c   13.52892312
_cell_angle_alpha   65.39001733
_cell_angle_beta   65.39001733
_cell_angle_gamma   52.75186236
_symmetry_Int_Tables_number   1
_chemical_formula_structural   Na2P2H14O13
_chemical_formula_sum   'Na4 P4 H28 O26'
_cell_volume   594.62549087
_cell_formula_units_Z   2
loop_
 _symmetry_equiv_pos_site_id
 _symmetry_equiv_pos_as_xyz
  1  'x, y, z'
loop_
 _atom_site_type_symbol
 _atom_site_label
 _atom_site_symmetry_multiplicity
 _atom_site_fract_x
 _atom_site_fract_y
 _atom_site_fract_z
 _atom_site_occupancy
  Na  Na0  1  0.14482600  0.38220800  0.23067100  1
  Na  Na1  1  0.61779200  0.85517400  0.26932900  1
  Na  Na2  1  0.85517400  0.61779200  0.76932900  1
  Na  Na3  1  0.38220800  0.14482600  0.73067100  1
  P  P4  1  0.14444100  0.85578600  0.13956400  1
  P  P5  1  0.14421400  0.85555900  0.36043600  1
  P  P6  1  0.85555900  0.14421400  0.86043600  1
  P  P7  1  0.85578600  0.14444100  0.63956400  1
  H  H8  1  0.85447700  0.71035000  0.06809100  1
  H  H9  1  0.28965000  0.14552300  0.43190900  1
  H  H10  1  0.14552300  0.28965000  0.93190900  1
  H  H11  1  0.71035000  0.85447700  0.56809100  1
  H  H12  1  0.34028700  0.08642600  0.10184700  1
  H  H13  1  0.91357400  0.65971300  0.39815300  1
  H  H14  1  0.65971300  0.91357400  0.89815300  1
  H  H15  1  0.08642600  0.34028700  0.60184700  1
  H  H16  1  0.53095100  0.46962600  0.11393000  1
  H  H17  1  0.53037400  0.46904900  0.38607000  1
  H  H18  1  0.46904900  0.53037400  0.88607000  1
  H  H19  1  0.46962600  0.53095100  0.61393000  1
  H  H20  1  0.78567000  0.53585700  0.12461500  1
  H  H21  1  0.46414300  0.21433000  0.37538500  1
  H  H22  1  0.21433000  0.46414300  0.87538500  1
  H  H23  1  0.53585700  0.78567000  0.62461500  1
  H  H24  1  0.73719000  0.37810200  0.01891200  1
  H  H25  1  0.62189800  0.26281000  0.48108800  1
  H  H26  1  0.26281000  0.62189800  0.98108800  1
  H  H27  1  0.37810200  0.73719000  0.51891200  1
  H  H28  1  0.55187600  0.09370900  0.05844300  1
  H  H29  1  0.90629100  0.44812400  0.44155700  1
  H  H30  1  0.44812400  0.90629100  0.94155700  1
  H  H31  1  0.09370900  0.55187600  0.55844300  1
  H  H32  1  0.80513800  0.14296100  0.15210500  1
  H  H33  1  0.85703900  0.19486200  0.34789500  1
  H  H34  1  0.19486200  0.85703900  0.84789500  1
  H  H35  1  0.14296100  0.80513800  0.65210500  1
  O  O36  1  0.21213700  0.01539400  0.05417700  1
  O  O37  1  0.98460600  0.78786300  0.44582300  1
  O  O38  1  0.78786300  0.98460600  0.94582300  1
  O  O39  1  0.01539400  0.21213700  0.55417700  1
  O  O40  1  0.23550300  0.64709900  0.10836300  1
  O  O41  1  0.35290100  0.76449700  0.39163700  1
  O  O42  1  0.76449700  0.35290100  0.89163700  1
  O  O43  1  0.64709900  0.23550300  0.60836300  1
  O  O44  1  0.88643300  0.97450600  0.18275300  1
  O  O45  1  0.02549400  0.11356700  0.31724700  1
  O  O46  1  0.11356700  0.02549400  0.81724700  1
  O  O47  1  0.97450600  0.88643300  0.68275300  1
  O  O48  1  0.23547200  0.76452800  0.25000000  1
  O  O49  1  0.76452800  0.23547200  0.75000000  1
  O  O50  1  0.83978200  0.60642600  0.13882600  1
  O  O51  1  0.39357400  0.16021800  0.36117400  1
  O  O52  1  0.16021800  0.39357400  0.86117400  1
  O  O53  1  0.60642600  0.83978200  0.63882600  1
  O  O54  1  0.42347800  0.11864500  0.12213500  1
  O  O55  1  0.88135500  0.57652200  0.37786500  1
  O  O56  1  0.57652200  0.88135500  0.87786500  1
  O  O57  1  0.11864500  0.42347800  0.62213500  1
  O  O58  1  0.69309700  0.38634500  0.09866700  1
  O  O59  1  0.61365500  0.30690300  0.40133300  1
  O  O60  1  0.30690300  0.61365500  0.90133300  1
  O  O61  1  0.38634500  0.69309700  0.59866700  1
