# generated using pymatgen
data_Ca5Ti3NbAl(SiO5)5
_symmetry_space_group_name_H-M   'P 1'
_cell_length_a   5.48691500
_cell_length_b   7.13056660
_cell_length_c   25.18829871
_cell_angle_alpha   84.54065487
_cell_angle_beta   85.86475808
_cell_angle_gamma   76.00115265
_symmetry_Int_Tables_number   1
_chemical_formula_structural   Ca5Ti3NbAl(SiO5)5
_chemical_formula_sum   'Ca10 Ti6 Nb2 Al2 Si10 O50'
_cell_volume   950.65115788
_cell_formula_units_Z   2
loop_
 _symmetry_equiv_pos_site_id
 _symmetry_equiv_pos_as_xyz
  1  'x, y, z'
loop_
 _atom_site_type_symbol
 _atom_site_label
 _atom_site_symmetry_multiplicity
 _atom_site_fract_x
 _atom_site_fract_y
 _atom_site_fract_z
 _atom_site_occupancy
  Ca  Ca0  1  0.84330600  0.89407300  0.66690700  1
  Ca  Ca1  1  0.24718200  0.69280800  0.46812100  1
  Ca  Ca2  1  0.64267900  0.51246100  0.26680600  1
  Ca  Ca3  1  0.03954600  0.31329500  0.06515100  1
  Ca  Ca4  1  0.75281800  0.30719200  0.53187900  1
  Ca  Ca5  1  0.43766500  0.11736000  0.86587400  1
  Ca  Ca6  1  0.15669400  0.10592700  0.33309300  1
  Ca  Ca7  1  0.56233500  0.88264000  0.13412600  1
  Ca  Ca8  1  0.96045400  0.68670500  0.93484900  1
  Ca  Ca9  1  0.35732100  0.48753900  0.73319400  1
  Ti  Ti10  1  0.10040800  0.20239100  0.19880900  1
  Ti  Ti11  1  0.10388300  0.69987200  0.20039500  1
  Ti  Ti12  1  0.50000000  0.00000000  0.00000000  1
  Ti  Ti13  1  0.50000000  0.50000000  0.00000000  1
  Ti  Ti14  1  0.89959200  0.79760900  0.80119100  1
  Ti  Ti15  1  0.89611700  0.30012800  0.79960500  1
  Nb  Nb16  1  0.29627000  0.10160300  0.59965600  1
  Nb  Nb17  1  0.70373000  0.89839700  0.40034400  1
  Al  Al18  1  0.29998100  0.59907000  0.60096900  1
  Al  Al19  1  0.70001900  0.40093000  0.39903100  1
  Si  Si20  1  0.84631700  0.42198500  0.66372100  1
  Si  Si21  1  0.24676800  0.22396300  0.46165300  1
  Si  Si22  1  0.65415900  0.01526700  0.26233600  1
  Si  Si23  1  0.75323200  0.77603700  0.53834700  1
  Si  Si24  1  0.05384000  0.81236100  0.06409600  1
  Si  Si25  1  0.15368300  0.57801500  0.33627900  1
  Si  Si26  1  0.45267000  0.61245700  0.86425000  1
  Si  Si27  1  0.54733000  0.38754300  0.13575000  1
  Si  Si28  1  0.94616000  0.18763900  0.93590400  1
  Si  Si29  1  0.34584100  0.98473300  0.73766400  1
  O  O30  1  0.02758700  0.63551500  0.55170700  1
  O  O31  1  0.93657100  0.24084500  0.62347000  1
  O  O32  1  0.20337800  0.85770300  0.61325800  1
  O  O33  1  0.42834600  0.43788700  0.35033000  1
  O  O34  1  0.19605400  0.12323000  0.52261300  1
  O  O35  1  0.06389100  0.54672300  0.66178700  1
  O  O36  1  0.33778000  0.04120300  0.42259100  1
  O  O37  1  0.53537900  0.65278800  0.53891500  1
  O  O38  1  0.40252800  0.08205900  0.67704800  1
  O  O39  1  0.60285300  0.65780400  0.41307100  1
  O  O40  1  0.82105900  0.24063200  0.14955700  1
  O  O41  1  0.39714700  0.34219600  0.58692900  1
  O  O42  1  0.59747200  0.91794100  0.32295200  1
  O  O43  1  0.46462100  0.34721200  0.46108500  1
  O  O44  1  0.74278100  0.83873100  0.22227100  1
  O  O45  1  0.66222000  0.95879700  0.57740900  1
  O  O46  1  0.93610900  0.45327700  0.33821300  1
  O  O47  1  0.80394600  0.87677000  0.47738700  1
  O  O48  1  0.00326100  0.46276000  0.21344100  1
  O  O49  1  0.57165400  0.56211300  0.64967000  1
  O  O50  1  0.22036900  0.04247000  0.95012100  1
  O  O51  1  0.79662200  0.14229700  0.38674200  1
  O  O52  1  0.00137700  0.71592400  0.12454500  1
  O  O53  1  0.86501100  0.14554200  0.26237000  1
  O  O54  1  0.14171400  0.63756600  0.02301500  1
  O  O55  1  0.06342900  0.75915500  0.37653000  1
  O  O56  1  0.33691900  0.25570900  0.13667500  1
  O  O57  1  0.20089100  0.67843200  0.27561500  1
  O  O58  1  0.40446400  0.26320900  0.01406200  1
  O  O59  1  0.97241300  0.36448500  0.44829300  1
  O  O60  1  0.61900600  0.83831500  0.75113400  1
  O  O61  1  0.19862400  0.93594300  0.18625500  1
  O  O62  1  0.39858600  0.51515600  0.92458300  1
  O  O63  1  0.26341600  0.94516000  0.06264000  1
  O  O64  1  0.53957100  0.43847700  0.82306100  1
  O  O65  1  0.46042900  0.56152300  0.17693900  1
  O  O66  1  0.73658400  0.05484000  0.93736000  1
  O  O67  1  0.60141400  0.48484400  0.07541700  1
  O  O68  1  0.80137600  0.06405700  0.81374500  1
  O  O69  1  0.38099400  0.16168500  0.24886600  1
  O  O70  1  0.59553600  0.73679100  0.98593800  1
  O  O71  1  0.79910900  0.32156800  0.72438500  1
  O  O72  1  0.66308100  0.74429100  0.86332500  1
  O  O73  1  0.85828600  0.36243400  0.97698500  1
  O  O74  1  0.13498900  0.85445800  0.73763000  1
  O  O75  1  0.99862300  0.28407600  0.87545500  1
  O  O76  1  0.77963100  0.95753000  0.04987900  1
  O  O77  1  0.99673900  0.53724000  0.78655900  1
  O  O78  1  0.25721900  0.16126900  0.77772900  1
  O  O79  1  0.17894100  0.75936800  0.85044300  1
