# generated using pymatgen
data_K3B7PtO20
_symmetry_space_group_name_H-M   'P 1'
_cell_length_a   8.42465300
_cell_length_b   11.10107800
_cell_length_c   19.51436600
_cell_angle_alpha   90.00000000
_cell_angle_beta   90.00000000
_cell_angle_gamma   90.00000000
_symmetry_Int_Tables_number   1
_chemical_formula_structural   K3B7PtO20
_chemical_formula_sum   'K12 B28 Pt4 O80'
_cell_volume   1825.03678402
_cell_formula_units_Z   4
loop_
 _symmetry_equiv_pos_site_id
 _symmetry_equiv_pos_as_xyz
  1  'x, y, z'
loop_
 _atom_site_type_symbol
 _atom_site_label
 _atom_site_symmetry_multiplicity
 _atom_site_fract_x
 _atom_site_fract_y
 _atom_site_fract_z
 _atom_site_occupancy
  K  K0  1  0.11440900  0.52104300  0.88822100  1
  K  K1  1  0.38559100  0.97895700  0.38822100  1
  K  K2  1  0.88559100  0.02104300  0.11177900  1
  K  K3  1  0.61440900  0.47895700  0.61177900  1
  K  K4  1  0.88559100  0.47895700  0.11177900  1
  K  K5  1  0.61440900  0.02104300  0.61177900  1
  K  K6  1  0.11440900  0.97895700  0.88822100  1
  K  K7  1  0.38559100  0.52104300  0.38822100  1
  K  K8  1  0.21989700  0.75000000  0.58466900  1
  K  K9  1  0.28010300  0.75000000  0.08466900  1
  K  K10  1  0.78010300  0.25000000  0.41533100  1
  K  K11  1  0.71989700  0.25000000  0.91533100  1
  B  B12  1  0.93906000  0.40440000  0.73920900  1
  B  B13  1  0.56094000  0.09560000  0.23920900  1
  B  B14  1  0.06094000  0.90440000  0.26079100  1
  B  B15  1  0.43906000  0.59560000  0.76079100  1
  B  B16  1  0.06094000  0.59560000  0.26079100  1
  B  B17  1  0.43906000  0.90440000  0.76079100  1
  B  B18  1  0.93906000  0.09560000  0.73920900  1
  B  B19  1  0.56094000  0.40440000  0.23920900  1
  B  B20  1  0.20038400  0.41885800  0.55287200  1
  B  B21  1  0.29961600  0.08114200  0.05287200  1
  B  B22  1  0.79961600  0.91885800  0.44712800  1
  B  B23  1  0.70038400  0.58114200  0.94712800  1
  B  B24  1  0.79961600  0.58114200  0.44712800  1
  B  B25  1  0.70038400  0.91885800  0.94712800  1
  B  B26  1  0.20038400  0.08114200  0.55287200  1
  B  B27  1  0.29961600  0.41885800  0.05287200  1
  B  B28  1  0.16271800  0.25000000  0.74469900  1
  B  B29  1  0.33728200  0.25000000  0.24469900  1
  B  B30  1  0.83728200  0.75000000  0.25530100  1
  B  B31  1  0.66271800  0.75000000  0.75530100  1
  B  B32  1  0.45752000  0.25000000  0.73632300  1
  B  B33  1  0.04248000  0.25000000  0.23632300  1
  B  B34  1  0.54248000  0.75000000  0.26367700  1
  B  B35  1  0.95752000  0.75000000  0.76367700  1
  B  B36  1  0.32643600  0.25000000  0.62284700  1
  B  B37  1  0.17356400  0.25000000  0.12284700  1
  B  B38  1  0.67356400  0.75000000  0.37715300  1
  B  B39  1  0.82643600  0.75000000  0.87715300  1
  Pt  Pt40  1  0.96144400  0.25000000  0.61415300  1
  Pt  Pt41  1  0.53855600  0.25000000  0.11415300  1
  Pt  Pt42  1  0.03855600  0.75000000  0.38584700  1
  Pt  Pt43  1  0.46144400  0.75000000  0.88584700  1
  O  O44  1  0.87531800  0.37998200  0.67573200  1
  O  O45  1  0.62468200  0.12001800  0.17573200  1
  O  O46  1  0.12468200  0.87998200  0.32426800  1
  O  O47  1  0.37531800  0.62001800  0.82426800  1
  O  O48  1  0.12468200  0.62001800  0.32426800  1
  O  O49  1  0.37531800  0.87998200  0.82426800  1
  O  O50  1  0.87531800  0.12001800  0.67573200  1
  O  O51  1  0.62468200  0.37998200  0.17573200  1
  O  O52  1  0.04610000  0.37685100  0.55100000  1
  O  O53  1  0.45390000  0.12314900  0.05100000  1
  O  O54  1  0.95390000  0.87685100  0.44900000  1
  O  O55  1  0.54610000  0.62314900  0.94900000  1
  O  O56  1  0.95390000  0.62314900  0.44900000  1
  O  O57  1  0.54610000  0.87685100  0.94900000  1
  O  O58  1  0.04610000  0.12314900  0.55100000  1
  O  O59  1  0.45390000  0.37685100  0.05100000  1
  O  O60  1  0.17187800  0.25000000  0.66567000  1
  O  O61  1  0.32812200  0.25000000  0.16567000  1
  O  O62  1  0.82812200  0.75000000  0.33433000  1
  O  O63  1  0.67187800  0.75000000  0.83433000  1
  O  O64  1  0.07741000  0.35934700  0.76624700  1
  O  O65  1  0.42259000  0.14065300  0.26624700  1
  O  O66  1  0.92259000  0.85934700  0.23375300  1
  O  O67  1  0.57741000  0.64065300  0.73375300  1
  O  O68  1  0.92259000  0.64065300  0.23375300  1
  O  O69  1  0.57741000  0.85934700  0.73375300  1
  O  O70  1  0.07741000  0.14065300  0.76624700  1
  O  O71  1  0.42259000  0.35934700  0.26624700  1
  O  O72  1  0.32805000  0.35614400  0.57853500  1
  O  O73  1  0.17195000  0.14385600  0.07853500  1
  O  O74  1  0.67195000  0.85614400  0.42146500  1
  O  O75  1  0.82805000  0.64385600  0.92146500  1
  O  O76  1  0.67195000  0.64385600  0.42146500  1
  O  O77  1  0.82805000  0.85614400  0.92146500  1
  O  O78  1  0.32805000  0.14385600  0.57853500  1
  O  O79  1  0.17195000  0.35614400  0.07853500  1
  O  O80  1  0.31901900  0.25000000  0.77242200  1
  O  O81  1  0.18098100  0.25000000  0.27242200  1
  O  O82  1  0.68098100  0.75000000  0.22757800  1
  O  O83  1  0.81901900  0.75000000  0.72757800  1
  O  O84  1  0.46561600  0.25000000  0.66619400  1
  O  O85  1  0.03438400  0.25000000  0.16619400  1
  O  O86  1  0.53438400  0.75000000  0.33380600  1
  O  O87  1  0.96561600  0.75000000  0.83380600  1
  O  O88  1  0.85981000  0.48121600  0.78223000  1
  O  O89  1  0.64019000  0.01878400  0.28223000  1
  O  O90  1  0.14019000  0.98121600  0.21777000  1
  O  O91  1  0.35981000  0.51878400  0.71777000  1
  O  O92  1  0.14019000  0.51878400  0.21777000  1
  O  O93  1  0.35981000  0.98121600  0.71777000  1
  O  O94  1  0.85981000  0.01878400  0.78223000  1
  O  O95  1  0.64019000  0.48121600  0.28223000  1
  O  O96  1  0.59492000  0.25000000  0.77477800  1
  O  O97  1  0.90508000  0.25000000  0.27477800  1
  O  O98  1  0.40508000  0.75000000  0.22522200  1
  O  O99  1  0.09492000  0.75000000  0.72522200  1
  O  O100  1  0.23377300  0.52948400  0.52629200  1
  O  O101  1  0.26622700  0.97051600  0.02629200  1
  O  O102  1  0.76622700  0.02948400  0.47370800  1
  O  O103  1  0.73377300  0.47051600  0.97370800  1
  O  O104  1  0.76622700  0.47051600  0.47370800  1
  O  O105  1  0.73377300  0.02948400  0.97370800  1
  O  O106  1  0.23377300  0.97051600  0.52629200  1
  O  O107  1  0.26622700  0.52948400  0.02629200  1
  O  O108  1  0.77103700  0.25000000  0.56673900  1
  O  O109  1  0.72896300  0.25000000  0.06673900  1
  O  O110  1  0.22896300  0.75000000  0.43326100  1
  O  O111  1  0.27103700  0.75000000  0.93326100  1
  O  O112  1  0.37382500  0.30575400  0.90818000  1
  O  O113  1  0.12617500  0.19424600  0.40818000  1
  O  O114  1  0.62617500  0.80575400  0.09182000  1
  O  O115  1  0.87382500  0.69424600  0.59182000  1
  O  O116  1  0.62617500  0.69424600  0.09182000  1
  O  O117  1  0.87382500  0.80575400  0.59182000  1
  O  O118  1  0.37382500  0.19424600  0.90818000  1
  O  O119  1  0.12617500  0.30575400  0.40818000  1
  O  O120  1  0.05831200  0.25000000  0.92046200  1
  O  O121  1  0.44168800  0.25000000  0.42046200  1
  O  O122  1  0.94168800  0.75000000  0.07953800  1
  O  O123  1  0.55831200  0.75000000  0.57953800  1
