# generated using pymatgen
data_K3Ca2Mg10Si16(HO12)4
_symmetry_space_group_name_H-M   'P 1'
_cell_length_a   8.20590900
_cell_length_b   8.41229473
_cell_length_c   15.15309320
_cell_angle_alpha   90.69399098
_cell_angle_beta   97.59233872
_cell_angle_gamma   117.88836721
_symmetry_Int_Tables_number   1
_chemical_formula_structural   K3Ca2Mg10Si16(HO12)4
_chemical_formula_sum   'K3 Ca2 Mg10 Si16 H4 O48'
_cell_volume   913.16875151
_cell_formula_units_Z   1
loop_
 _symmetry_equiv_pos_site_id
 _symmetry_equiv_pos_as_xyz
  1  'x, y, z'
loop_
 _atom_site_type_symbol
 _atom_site_label
 _atom_site_symmetry_multiplicity
 _atom_site_fract_x
 _atom_site_fract_y
 _atom_site_fract_z
 _atom_site_occupancy
  K  K0  1  0.54173000  0.76295600  0.39148000  1
  K  K1  1  0.00000000  0.50000000  0.00000000  1
  K  K2  1  0.45827000  0.23704400  0.60852000  1
  Ca  Ca3  1  0.74782200  0.97858500  0.81038800  1
  Ca  Ca4  1  0.25217800  0.02141500  0.18961200  1
  Mg  Mg5  1  0.70650100  0.79168600  0.62872900  1
  Mg  Mg6  1  0.23543100  0.51259600  0.51279900  1
  Mg  Mg7  1  0.13800800  0.96783200  0.71933900  1
  Mg  Mg8  1  0.86199200  0.03216800  0.28066100  1
  Mg  Mg9  1  0.76456900  0.48740400  0.48720100  1
  Mg  Mg10  1  0.29349900  0.20831400  0.37127100  1
  Mg  Mg11  1  0.73969400  0.86269400  0.02634700  1
  Mg  Mg12  1  0.65537500  0.19109100  0.35651200  1
  Mg  Mg13  1  0.34462500  0.80890900  0.64348800  1
  Mg  Mg14  1  0.26030600  0.13730600  0.97365300  1
  Si  Si15  1  0.83684200  0.52482900  0.71028500  1
  Si  Si16  1  0.36351000  0.73646600  0.89663600  1
  Si  Si17  1  0.82684400  0.11749100  0.50058400  1
  Si  Si18  1  0.00810500  0.21075600  0.11684200  1
  Si  Si19  1  0.99189500  0.78924400  0.88315800  1
  Si  Si20  1  0.17315600  0.88250900  0.49941600  1
  Si  Si21  1  0.63649000  0.26353400  0.10336400  1
  Si  Si22  1  0.16315800  0.47517100  0.28971500  1
  Si  Si23  1  0.44266000  0.77293100  0.18260200  1
  Si  Si24  1  0.99910600  0.24814100  0.68350500  1
  Si  Si25  1  0.41367300  0.51367100  0.05295300  1
  Si  Si26  1  0.40884800  0.55894300  0.74808600  1
  Si  Si27  1  0.59115200  0.44105700  0.25191400  1
  Si  Si28  1  0.58632700  0.48632900  0.94704700  1
  Si  Si29  1  0.00089400  0.75185900  0.31649500  1
  Si  Si30  1  0.55734000  0.22706900  0.81739800  1
  H  H31  1  0.62634200  0.69571000  0.74905500  1
  H  H32  1  0.37365800  0.30429000  0.25094500  1
  H  H33  1  0.30853600  0.85177300  0.06981700  1
  H  H34  1  0.69146400  0.14822700  0.93018300  1
  O  O35  1  0.76858300  0.65353300  0.26637200  1
  O  O36  1  0.04619700  0.27617300  0.22483700  1
  O  O37  1  0.73528900  0.15506100  0.68681500  1
  O  O38  1  0.02287100  0.56109600  0.28827800  1
  O  O39  1  0.40039100  0.59644600  0.63416400  1
  O  O40  1  0.39900300  0.05254600  0.75941600  1
  O  O41  1  0.18159100  0.33442500  0.06256500  1
  O  O42  1  0.68323800  0.20561300  0.49568900  1
  O  O43  1  0.42544700  0.10191500  0.06743600  1
  O  O44  1  0.98484200  0.46565800  0.45607100  1
  O  O45  1  0.76263600  0.91213400  0.52326700  1
  O  O46  1  0.29837800  0.58209800  0.96760700  1
  O  O47  1  0.70162200  0.41790200  0.03239300  1
  O  O48  1  0.23736400  0.08786600  0.47673300  1
  O  O49  1  0.01515800  0.53434200  0.54392900  1
  O  O50  1  0.57455300  0.89808500  0.93256400  1
  O  O51  1  0.31676200  0.79438700  0.50431100  1
  O  O52  1  0.81840900  0.66557500  0.93743500  1
  O  O53  1  0.60099700  0.94745400  0.24058400  1
  O  O54  1  0.97712900  0.43890400  0.71172200  1
  O  O55  1  0.26471100  0.84493900  0.31318500  1
  O  O56  1  0.95569200  0.04265400  0.71378600  1
  O  O57  1  0.95380300  0.72382700  0.77516300  1
  O  O58  1  0.59960900  0.40355400  0.36583600  1
  O  O59  1  0.61415500  0.95884800  0.67000800  1
  O  O60  1  0.23141700  0.34646700  0.73362800  1
  O  O61  1  0.26032700  0.77936000  0.12065500  1
  O  O62  1  0.65882400  0.40754300  0.76497700  1
  O  O63  1  0.01761300  0.99063600  0.89993900  1
  O  O64  1  0.67047300  0.29706800  0.21563100  1
  O  O65  1  0.97903400  0.75286500  0.42544600  1
  O  O66  1  0.20028300  0.80683900  0.91584000  1
  O  O67  1  0.74883500  0.56858300  0.61687600  1
  O  O68  1  0.46028800  0.26719600  0.89801600  1
  O  O69  1  0.50575400  0.44140900  0.14013600  1
  O  O70  1  0.85925700  0.12855700  0.39361700  1
  O  O71  1  0.14074300  0.87144300  0.60638300  1
  O  O72  1  0.49424600  0.55859100  0.85986400  1
  O  O73  1  0.53971200  0.73280400  0.10198400  1
  O  O74  1  0.25116500  0.43141700  0.38312400  1
  O  O75  1  0.79971700  0.19316100  0.08416000  1
  O  O76  1  0.02096600  0.24713500  0.57455400  1
  O  O77  1  0.32952700  0.70293200  0.78436900  1
  O  O78  1  0.34117600  0.59245700  0.23502300  1
  O  O79  1  0.73967300  0.22064000  0.87934500  1
  O  O80  1  0.38584500  0.04115200  0.32999200  1
  O  O81  1  0.98238700  0.00936400  0.10006100  1
  O  O82  1  0.04430800  0.95734600  0.28621400  1
