# generated using pymatgen
data_P3H22C3N9O11
_symmetry_space_group_name_H-M   'P 1'
_cell_length_a   15.25978300
_cell_length_b   10.83694000
_cell_length_c   12.28103119
_cell_angle_alpha   82.53395103
_cell_angle_beta   90.00000000
_cell_angle_gamma   90.00000000
_symmetry_Int_Tables_number   1
_chemical_formula_structural   P3H22C3N9O11
_chemical_formula_sum   'P12 H88 C12 N36 O44'
_cell_volume   2013.68822172
_cell_formula_units_Z   4
loop_
 _symmetry_equiv_pos_site_id
 _symmetry_equiv_pos_as_xyz
  1  'x, y, z'
loop_
 _atom_site_type_symbol
 _atom_site_label
 _atom_site_symmetry_multiplicity
 _atom_site_fract_x
 _atom_site_fract_y
 _atom_site_fract_z
 _atom_site_occupancy
  P  P0  1  0.45599900  0.26117400  0.86069100  1
  P  P1  1  0.04400100  0.76117400  0.36069100  1
  P  P2  1  0.54400100  0.73882600  0.13930900  1
  P  P3  1  0.95599900  0.23882600  0.63930900  1
  P  P4  1  0.38597400  0.11363900  0.69855800  1
  P  P5  1  0.11402600  0.61363900  0.19855800  1
  P  P6  1  0.61402600  0.88636100  0.30144200  1
  P  P7  1  0.88597400  0.38636100  0.80144200  1
  P  P8  1  0.36922100  0.38087000  0.66150900  1
  P  P9  1  0.13077900  0.88087000  0.16150900  1
  P  P10  1  0.63077900  0.61913000  0.33849100  1
  P  P11  1  0.86922100  0.11913000  0.83849100  1
  H  H12  1  0.29219800  0.52751100  0.17457100  1
  H  H13  1  0.20780200  0.02751100  0.67457100  1
  H  H14  1  0.70780200  0.47248900  0.82542900  1
  H  H15  1  0.79219800  0.97248900  0.32542900  1
  H  H16  1  0.37881700  0.60914400  0.15624700  1
  H  H17  1  0.12118300  0.10914400  0.65624700  1
  H  H18  1  0.62118300  0.39085600  0.84375300  1
  H  H19  1  0.87881700  0.89085600  0.34375300  1
  H  H20  1  0.31366800  0.97272700  0.17598700  1
  H  H21  1  0.18633200  0.47272700  0.67598700  1
  H  H22  1  0.68633200  0.02727300  0.82401300  1
  H  H23  1  0.81366800  0.52727300  0.32401300  1
  H  H24  1  0.40200300  0.90891400  0.14746000  1
  H  H25  1  0.09799700  0.40891400  0.64746000  1
  H  H26  1  0.59799700  0.09108600  0.85254000  1
  H  H27  1  0.90200300  0.59108600  0.35254000  1
  H  H28  1  0.11561400  0.30205300  0.48006100  1
  H  H29  1  0.38438600  0.80205300  0.98006100  1
  H  H30  1  0.88438600  0.69794700  0.51993900  1
  H  H31  1  0.61561400  0.19794700  0.01993900  1
  H  H32  1  0.15745800  0.39867000  0.36502000  1
  H  H33  1  0.34254200  0.89867000  0.86502000  1
  H  H34  1  0.84254200  0.60133000  0.63498000  1
  H  H35  1  0.65745800  0.10133000  0.13498000  1
  H  H36  1  0.35537500  0.52603300  0.85811200  1
  H  H37  1  0.14462500  0.02603300  0.35811200  1
  H  H38  1  0.64462500  0.47396700  0.14188800  1
  H  H39  1  0.85537500  0.97396700  0.64188800  1
  H  H40  1  0.36719500  0.57829200  0.98570200  1
  H  H41  1  0.13280500  0.07829200  0.48570200  1
  H  H42  1  0.63280500  0.42170800  0.01429800  1
  H  H43  1  0.86719500  0.92170800  0.51429800  1
  H  H44  1  0.31826600  0.81766900  0.70598000  1
  H  H45  1  0.18173400  0.31766900  0.20598000  1
  H  H46  1  0.68173400  0.18233100  0.29402000  1
  H  H47  1  0.81826600  0.68233100  0.79402000  1
  H  H48  1  0.31112200  0.65335000  0.70789500  1
  H  H49  1  0.18887800  0.15335000  0.20789500  1
  H  H50  1  0.68887800  0.34665000  0.29210500  1
  H  H51  1  0.81112200  0.84665000  0.79210500  1
  H  H52  1  0.41815100  0.36307100  0.41588900  1
  H  H53  1  0.08184900  0.86307100  0.91588900  1
  H  H54  1  0.58184900  0.63692900  0.58411100  1
  H  H55  1  0.91815100  0.13692900  0.08411100  1
  H  H56  1  0.09877800  0.92423500  0.77717900  1
  H  H57  1  0.40122200  0.42423500  0.27717900  1
  H  H58  1  0.90122200  0.07576500  0.22282100  1
  H  H59  1  0.59877800  0.57576500  0.72282100  1
  H  H60  1  0.44710400  0.14408700  0.45735600  1
  H  H61  1  0.05289600  0.64408700  0.95735600  1
  H  H62  1  0.55289600  0.85591300  0.54264400  1
  H  H63  1  0.94710400  0.35591300  0.04264400  1
  H  H64  1  0.46739800  0.05922900  0.35031100  1
  H  H65  1  0.03260200  0.55922900  0.85031100  1
  H  H66  1  0.53260200  0.94077100  0.64968900  1
  H  H67  1  0.96739800  0.44077100  0.14968900  1
  H  H68  1  0.42155600  0.30387500  0.13682000  1
  H  H69  1  0.07844400  0.80387500  0.63682000  1
  H  H70  1  0.57844400  0.69612500  0.86318000  1
  H  H71  1  0.92155600  0.19612500  0.36318000  1
  H  H72  1  0.07785000  0.64302700  0.66961300  1
  H  H73  1  0.42215000  0.14302700  0.16961300  1
  H  H74  1  0.92215000  0.35697300  0.33038700  1
  H  H75  1  0.57785000  0.85697300  0.83038700  1
  H  H76  1  0.46177900  0.74145500  0.42009800  1
  H  H77  1  0.03822100  0.24145500  0.92009800  1
  H  H78  1  0.53822100  0.25854500  0.57990200  1
  H  H79  1  0.96177900  0.75854500  0.07990200  1
  H  H80  1  0.42539800  0.59344600  0.47935100  1
  H  H81  1  0.07460200  0.09344600  0.97935100  1
  H  H82  1  0.57460200  0.40655400  0.52064900  1
  H  H83  1  0.92539800  0.90655400  0.02064900  1
  H  H84  1  0.24730100  0.87005000  0.39853100  1
  H  H85  1  0.25269900  0.37005000  0.89853100  1
  H  H86  1  0.75269900  0.12995000  0.60146900  1
  H  H87  1  0.74730100  0.62995000  0.10146900  1
  H  H88  1  0.35709400  0.89734800  0.36731300  1
  H  H89  1  0.14290600  0.39734800  0.86731300  1
  H  H90  1  0.64290600  0.10265200  0.63268700  1
  H  H91  1  0.85709400  0.60265200  0.13268700  1
  H  H92  1  0.29969200  0.18295200  0.98291100  1
  H  H93  1  0.20030800  0.68295200  0.48291100  1
  H  H94  1  0.70030800  0.81704800  0.01708900  1
  H  H95  1  0.79969200  0.31704800  0.51708900  1
  H  H96  1  0.22447300  0.06216600  0.02395800  1
  H  H97  1  0.27552700  0.56216600  0.52395800  1
  H  H98  1  0.77552700  0.93783400  0.97604200  1
  H  H99  1  0.72447300  0.43783400  0.47604200  1
  C  C100  1  0.15620100  0.21361100  0.35274700  1
  C  C101  1  0.34379900  0.71361100  0.85274700  1
  C  C102  1  0.84379900  0.78638900  0.64725300  1
  C  C103  1  0.65620100  0.28638900  0.14725300  1
  C  C104  1  0.43170800  0.24030100  0.30134500  1
  C  C105  1  0.06829200  0.74030100  0.80134500  1
  C  C106  1  0.56829200  0.75969900  0.69865500  1
  C  C107  1  0.93170800  0.25969900  0.19865500  1
  C  C108  1  0.32920900  0.72538500  0.44922500  1
  C  C109  1  0.17079100  0.22538500  0.94922500  1
  C  C110  1  0.67079100  0.27461500  0.55077500  1
  C  C111  1  0.82920900  0.77461500  0.05077500  1
  N  N112  1  0.14937300  0.31217500  0.40753200  1
  N  N113  1  0.35062700  0.81217500  0.90753200  1
  N  N114  1  0.85062700  0.68782500  0.59246800  1
  N  N115  1  0.64937300  0.18782500  0.09246800  1
  N  N116  1  0.14022100  0.09864100  0.40261000  1
  N  N117  1  0.35977900  0.59864100  0.90261000  1
  N  N118  1  0.85977900  0.90135900  0.59739000  1
  N  N119  1  0.64022100  0.40135900  0.09739000  1
  N  N120  1  0.31931200  0.72973900  0.74699000  1
  N  N121  1  0.18068800  0.22973900  0.24699000  1
  N  N122  1  0.68068800  0.27026100  0.25301000  1
  N  N123  1  0.81931200  0.77026100  0.75301000  1
  N  N124  1  0.42063600  0.35151500  0.33435000  1
  N  N125  1  0.07936400  0.85151500  0.83435000  1
  N  N126  1  0.57936400  0.64848500  0.66565000  1
  N  N127  1  0.92063600  0.14848500  0.16565000  1
  N  N128  1  0.05771200  0.63804700  0.87511400  1
  N  N129  1  0.44228800  0.13804700  0.37511400  1
  N  N130  1  0.94228800  0.36195300  0.12488600  1
  N  N131  1  0.55771200  0.86195300  0.62488600  1
  N  N132  1  0.06621400  0.72912100  0.69357500  1
  N  N133  1  0.43378600  0.22912100  0.19357500  1
  N  N134  1  0.93378600  0.27087900  0.30642500  1
  N  N135  1  0.56621400  0.77087900  0.80642500  1
  N  N136  1  0.08823200  0.18433200  0.95096600  1
  N  N137  1  0.41176800  0.68433200  0.45096600  1
  N  N138  1  0.91176800  0.81566800  0.04903400  1
  N  N139  1  0.58823200  0.31566800  0.54903400  1
  N  N140  1  0.31120600  0.84499100  0.41186200  1
  N  N141  1  0.18879400  0.34499100  0.91186200  1
  N  N142  1  0.68879400  0.15500900  0.58813800  1
  N  N143  1  0.81120600  0.65500900  0.08813800  1
  N  N144  1  0.23653800  0.15028300  0.98802800  1
  N  N145  1  0.26346200  0.65028300  0.48802800  1
  N  N146  1  0.76346200  0.84971700  0.01197200  1
  N  N147  1  0.73653800  0.34971700  0.51197200  1
  O  O148  1  0.55217100  0.24568100  0.88671800  1
  O  O149  1  0.94782900  0.74568100  0.38671800  1
  O  O150  1  0.44782900  0.75431900  0.11328200  1
  O  O151  1  0.05217100  0.25431900  0.61328200  1
  O  O152  1  0.39287300  0.29881700  0.94365300  1
  O  O153  1  0.10712700  0.79881700  0.44365300  1
  O  O154  1  0.60712700  0.70118300  0.05634700  1
  O  O155  1  0.89287300  0.20118300  0.55634700  1
  O  O156  1  0.42068600  0.13198200  0.82095100  1
  O  O157  1  0.07931400  0.63198200  0.32095100  1
  O  O158  1  0.57931400  0.86801800  0.17904900  1
  O  O159  1  0.92068600  0.36801800  0.67904900  1
  O  O160  1  0.32883000  0.24096100  0.66706000  1
  O  O161  1  0.17117000  0.74096100  0.16706000  1
  O  O162  1  0.67117000  0.75903900  0.33294000  1
  O  O163  1  0.82883000  0.25903900  0.83294000  1
  O  O164  1  0.46300400  0.11296800  0.62212000  1
  O  O165  1  0.03699600  0.61296800  0.12212000  1
  O  O166  1  0.53699600  0.88703200  0.37788000  1
  O  O167  1  0.96300400  0.38703200  0.87788000  1
  O  O168  1  0.32257300  0.00714200  0.71263000  1
  O  O169  1  0.17742700  0.50714200  0.21263000  1
  O  O170  1  0.67742700  0.99285800  0.28737000  1
  O  O171  1  0.82257300  0.49285800  0.78737000  1
  O  O172  1  0.45097500  0.35788700  0.74689700  1
  O  O173  1  0.04902500  0.85788700  0.24689700  1
  O  O174  1  0.54902500  0.64211300  0.25310300  1
  O  O175  1  0.95097500  0.14211300  0.75310300  1
  O  O176  1  0.19817200  0.96183300  0.20711100  1
  O  O177  1  0.30182800  0.46183300  0.70711100  1
  O  O178  1  0.80182800  0.03816700  0.79288900  1
  O  O179  1  0.69817200  0.53816700  0.29288900  1
  O  O180  1  0.09413200  0.92224100  0.04965200  1
  O  O181  1  0.40586800  0.42224100  0.54965200  1
  O  O182  1  0.90586800  0.07775900  0.95034800  1
  O  O183  1  0.59413200  0.57775900  0.45034800  1
  O  O184  1  0.35542700  0.52445300  0.15642300  1
  O  O185  1  0.14457300  0.02445300  0.65642300  1
  O  O186  1  0.64457300  0.47554700  0.84357700  1
  O  O187  1  0.85542700  0.97554700  0.34357700  1
  O  O188  1  0.37683300  0.98834800  0.16304900  1
  O  O189  1  0.12316700  0.48834800  0.66304900  1
  O  O190  1  0.62316700  0.01165200  0.83695100  1
  O  O191  1  0.87683300  0.51165200  0.33695100  1
