# generated using pymatgen
data_CrO2
_symmetry_space_group_name_H-M   'P 1'
_cell_length_a   4.76442700
_cell_length_b   9.27944800
_cell_length_c   3.00936000
_cell_angle_alpha   89.99999383
_cell_angle_beta   90.00057421
_cell_angle_gamma   89.99913551
_symmetry_Int_Tables_number   1
_chemical_formula_structural   CrO2
_chemical_formula_sum   'Cr4 O8'
_cell_volume   133.04757510
_cell_formula_units_Z   4
loop_
 _symmetry_equiv_pos_site_id
 _symmetry_equiv_pos_as_xyz
  1  'x, y, z'
loop_
 _atom_site_type_symbol
 _atom_site_label
 _atom_site_symmetry_multiplicity
 _atom_site_fract_x
 _atom_site_fract_y
 _atom_site_fract_z
 _atom_site_occupancy
  Cr  Cr0  1  0.52290000  0.63967100  0.24999900  1
  Cr  Cr1  1  0.97712500  0.13964800  0.24999900  1
  Cr  Cr2  1  0.47749200  0.36035300  0.75000100  1
  Cr  Cr3  1  0.02258600  0.86036100  0.74999900  1
  O  O4  1  0.25867300  0.28437300  0.25000200  1
  O  O5  1  0.24133000  0.78434300  0.25000000  1
  O  O6  1  0.74130200  0.71562800  0.75000100  1
  O  O7  1  0.75862900  0.21565200  0.75000100  1
  O  O8  1  0.68041000  0.45262700  0.25001600  1
  O  O9  1  0.81957000  0.95266000  0.24998400  1
  O  O10  1  0.31976000  0.54734000  0.74998500  1
  O  O11  1  0.18022300  0.04734500  0.75001400  1
