# generated using pymatgen
data_K3NaP4(H2O7)2
_symmetry_space_group_name_H-M   'P 1'
_cell_length_a   9.43427180
_cell_length_b   9.43427180
_cell_length_c   11.35392967
_cell_angle_alpha   80.91422488
_cell_angle_beta   80.91422488
_cell_angle_gamma   45.90250896
_symmetry_Int_Tables_number   1
_chemical_formula_structural   K3NaP4(H2O7)2
_chemical_formula_sum   'K6 Na2 P8 H8 O28'
_cell_volume   714.99090113
_cell_formula_units_Z   2
loop_
 _symmetry_equiv_pos_site_id
 _symmetry_equiv_pos_as_xyz
  1  'x, y, z'
loop_
 _atom_site_type_symbol
 _atom_site_label
 _atom_site_symmetry_multiplicity
 _atom_site_fract_x
 _atom_site_fract_y
 _atom_site_fract_z
 _atom_site_occupancy
  K  K0  1  0.44776200  0.83217000  0.51156900  1
  K  K1  1  0.16783000  0.55223800  0.98843100  1
  K  K2  1  0.55223800  0.16783000  0.48843100  1
  K  K3  1  0.83217000  0.44776200  0.01156900  1
  K  K4  1  0.86236800  0.13763200  0.75000000  1
  K  K5  1  0.13763200  0.86236800  0.25000000  1
  Na  Na6  1  0.00000000  0.50000000  0.50000000  1
  Na  Na7  1  0.50000000  0.00000000  0.00000000  1
  P  P8  1  0.17487500  0.21963300  0.24433300  1
  P  P9  1  0.78036700  0.82512500  0.25566700  1
  P  P10  1  0.82512500  0.78036700  0.75566700  1
  P  P11  1  0.21963300  0.17487500  0.74433300  1
  P  P12  1  0.81823000  0.32236300  0.39687300  1
  P  P13  1  0.67763700  0.18177000  0.10312700  1
  P  P14  1  0.18177000  0.67763700  0.60312700  1
  P  P15  1  0.32236300  0.81823000  0.89687300  1
  H  H16  1  0.12333800  0.47668900  0.26828000  1
  H  H17  1  0.52331100  0.87666200  0.23172000  1
  H  H18  1  0.87666200  0.52331100  0.73172000  1
  H  H19  1  0.47668900  0.12333800  0.76828000  1
  H  H20  1  0.60950700  0.51235900  0.25866100  1
  H  H21  1  0.48764100  0.39049300  0.24133900  1
  H  H22  1  0.39049300  0.48764100  0.74133900  1
  H  H23  1  0.51235900  0.60950700  0.75866100  1
  O  O24  1  0.18595300  0.25958400  0.11119600  1
  O  O25  1  0.74041600  0.81404700  0.38880400  1
  O  O26  1  0.81404700  0.74041600  0.88880400  1
  O  O27  1  0.25958400  0.18595300  0.61119600  1
  O  O28  1  0.19692900  0.33858800  0.31308800  1
  O  O29  1  0.66141200  0.80307100  0.18691200  1
  O  O30  1  0.80307100  0.66141200  0.68691200  1
  O  O31  1  0.33858800  0.19692900  0.81308800  1
  O  O32  1  0.31522700  0.00557300  0.29426000  1
  O  O33  1  0.99442700  0.68477300  0.20574000  1
  O  O34  1  0.68477300  0.99442700  0.70574000  1
  O  O35  1  0.00557300  0.31522700  0.79426000  1
  O  O36  1  0.94992900  0.31814000  0.28049900  1
  O  O37  1  0.68186000  0.05007100  0.21950100  1
  O  O38  1  0.05007100  0.68186000  0.71950100  1
  O  O39  1  0.31814000  0.94992900  0.78049900  1
  O  O40  1  0.82731500  0.38972700  0.50406000  1
  O  O41  1  0.61027300  0.17268500  0.99594000  1
  O  O42  1  0.17268500  0.61027300  0.49594000  1
  O  O43  1  0.38972700  0.82731500  0.00406000  1
  O  O44  1  0.59843100  0.51058900  0.34541300  1
  O  O45  1  0.48941100  0.40156900  0.15458700  1
  O  O46  1  0.40156900  0.48941100  0.65458700  1
  O  O47  1  0.51058900  0.59843100  0.84541300  1
  O  O48  1  0.85544700  0.13944700  0.40256700  1
  O  O49  1  0.86055300  0.14455300  0.09743300  1
  O  O50  1  0.14455300  0.86055300  0.59743300  1
  O  O51  1  0.13944700  0.85544700  0.90256700  1
