# generated using pymatgen
data_Na2Mn(H2N)4
_symmetry_space_group_name_H-M   'P 1'
_cell_length_a   14.40847200
_cell_length_b   6.39862000
_cell_length_c   6.95983215
_cell_angle_alpha   64.22907742
_cell_angle_beta   90.00000000
_cell_angle_gamma   90.00000000
_symmetry_Int_Tables_number   1
_chemical_formula_structural   Na2Mn(H2N)4
_chemical_formula_sum   'Na8 Mn4 H32 N16'
_cell_volume   577.83759604
_cell_formula_units_Z   4
loop_
 _symmetry_equiv_pos_site_id
 _symmetry_equiv_pos_as_xyz
  1  'x, y, z'
loop_
 _atom_site_type_symbol
 _atom_site_label
 _atom_site_symmetry_multiplicity
 _atom_site_fract_x
 _atom_site_fract_y
 _atom_site_fract_z
 _atom_site_occupancy
  Na  Na0  1  0.55882200  0.24935700  0.45778400  1
  Na  Na1  1  0.05882200  0.75064300  0.04221600  1
  Na  Na2  1  0.44117800  0.75064300  0.54221600  1
  Na  Na3  1  0.94117800  0.24935700  0.95778400  1
  Na  Na4  1  0.64628200  0.78357200  0.35735000  1
  Na  Na5  1  0.14628200  0.21642800  0.14265000  1
  Na  Na6  1  0.35371800  0.21642800  0.64265000  1
  Na  Na7  1  0.85371800  0.78357200  0.85735000  1
  Mn  Mn8  1  0.61738300  0.75178300  0.83036100  1
  Mn  Mn9  1  0.11738300  0.24821700  0.66963900  1
  Mn  Mn10  1  0.38261700  0.24821700  0.16963900  1
  Mn  Mn11  1  0.88261700  0.75178300  0.33036100  1
  H  H12  1  0.66699800  0.38429500  0.15543300  1
  H  H13  1  0.16699800  0.61570500  0.34456700  1
  H  H14  1  0.33300200  0.61570500  0.84456700  1
  H  H15  1  0.83300200  0.38429500  0.65543300  1
  H  H16  1  0.71793900  0.59935400  0.17261100  1
  H  H17  1  0.21793900  0.40064600  0.32738900  1
  H  H18  1  0.28206100  0.40064600  0.82738900  1
  H  H19  1  0.78206100  0.59935400  0.67261100  1
  H  H20  1  0.63806200  0.38861300  0.75668300  1
  H  H21  1  0.13806200  0.61138700  0.74331700  1
  H  H22  1  0.36193800  0.61138700  0.24331700  1
  H  H23  1  0.86193800  0.38861300  0.25668300  1
  H  H24  1  0.52788000  0.41551700  0.77835500  1
  H  H25  1  0.02788000  0.58448300  0.72164500  1
  H  H26  1  0.47212000  0.58448300  0.22164500  1
  H  H27  1  0.97212000  0.41551700  0.27835500  1
  H  H28  1  0.77860400  0.15200900  0.15252900  1
  H  H29  1  0.27860400  0.84799100  0.34747100  1
  H  H30  1  0.22139600  0.84799100  0.84747100  1
  H  H31  1  0.72139600  0.15200900  0.65252900  1
  H  H32  1  0.75869800  0.00136800  0.02095100  1
  H  H33  1  0.25869800  0.99863200  0.47904900  1
  H  H34  1  0.24130200  0.99863200  0.97904900  1
  H  H35  1  0.74130200  0.00136800  0.52095100  1
  H  H36  1  0.49501700  0.95165200  0.15795500  1
  H  H37  1  0.99501700  0.04834800  0.34204500  1
  H  H38  1  0.50498300  0.04834800  0.84204500  1
  H  H39  1  0.00498300  0.95165200  0.65795500  1
  H  H40  1  0.55126800  0.18567800  0.10783400  1
  H  H41  1  0.05126800  0.81432200  0.39216600  1
  H  H42  1  0.44873200  0.81432200  0.89216600  1
  H  H43  1  0.94873200  0.18567800  0.60783400  1
  N  N44  1  0.65500600  0.55363500  0.12803600  1
  N  N45  1  0.15500600  0.44636500  0.37196400  1
  N  N46  1  0.34499400  0.44636500  0.87196400  1
  N  N47  1  0.84499400  0.55363500  0.62803600  1
  N  N48  1  0.58660500  0.51245000  0.71147900  1
  N  N49  1  0.08660500  0.48755000  0.78852100  1
  N  N50  1  0.41339500  0.48755000  0.28852100  1
  N  N51  1  0.91339500  0.51245000  0.21147900  1
  N  N52  1  0.70835700  0.99291700  0.65559400  1
  N  N53  1  0.20835700  0.00708300  0.84440600  1
  N  N54  1  0.29164300  0.00708300  0.34440600  1
  N  N55  1  0.79164300  0.99291700  0.15559400  1
  N  N56  1  0.50546300  0.07248500  0.21764800  1
  N  N57  1  0.00546300  0.92751500  0.28235200  1
  N  N58  1  0.49453700  0.92751500  0.78235200  1
  N  N59  1  0.99453700  0.07248500  0.71764800  1
