# generated using pymatgen
data_CuH4C2S2N2Cl
_symmetry_space_group_name_H-M   'P 1'
_cell_length_a   6.95099700
_cell_length_b   11.56708600
_cell_length_c   15.57342400
_cell_angle_alpha   90.00000000
_cell_angle_beta   90.00000000
_cell_angle_gamma   90.00000000
_symmetry_Int_Tables_number   1
_chemical_formula_structural   CuH4C2S2N2Cl
_chemical_formula_sum   'Cu8 H32 C16 S16 N16 Cl8'
_cell_volume   1252.14658504
_cell_formula_units_Z   8
loop_
 _symmetry_equiv_pos_site_id
 _symmetry_equiv_pos_as_xyz
  1  'x, y, z'
loop_
 _atom_site_type_symbol
 _atom_site_label
 _atom_site_symmetry_multiplicity
 _atom_site_fract_x
 _atom_site_fract_y
 _atom_site_fract_z
 _atom_site_occupancy
  Cu  Cu0  1  0.11498200  0.25574400  0.66798900  1
  Cu  Cu1  1  0.38501800  0.74425600  0.16798900  1
  Cu  Cu2  1  0.61498200  0.24425600  0.33201100  1
  Cu  Cu3  1  0.88501800  0.75574400  0.83201100  1
  Cu  Cu4  1  0.88501800  0.74425600  0.33201100  1
  Cu  Cu5  1  0.61498200  0.25574400  0.83201100  1
  Cu  Cu6  1  0.38501800  0.75574400  0.66798900  1
  Cu  Cu7  1  0.11498200  0.24425600  0.16798900  1
  H  H8  1  0.02147500  0.43185200  0.90598700  1
  H  H9  1  0.47852500  0.56814800  0.40598700  1
  H  H10  1  0.52147500  0.06814800  0.09401300  1
  H  H11  1  0.97852500  0.93185200  0.59401300  1
  H  H12  1  0.97852500  0.56814800  0.09401300  1
  H  H13  1  0.52147500  0.43185200  0.59401300  1
  H  H14  1  0.47852500  0.93185200  0.90598700  1
  H  H15  1  0.02147500  0.06814800  0.40598700  1
  H  H16  1  0.07345600  0.41942300  0.79487100  1
  H  H17  1  0.42654400  0.58057700  0.29487100  1
  H  H18  1  0.57345600  0.08057700  0.20512900  1
  H  H19  1  0.92654400  0.91942300  0.70512900  1
  H  H20  1  0.92654400  0.58057700  0.20512900  1
  H  H21  1  0.57345600  0.41942300  0.70512900  1
  H  H22  1  0.42654400  0.91942300  0.79487100  1
  H  H23  1  0.07345600  0.08057700  0.29487100  1
  H  H24  1  0.15730200  0.07277300  0.91864100  1
  H  H25  1  0.34269800  0.92722700  0.41864100  1
  H  H26  1  0.65730200  0.42722700  0.08135900  1
  H  H27  1  0.84269800  0.57277300  0.58135900  1
  H  H28  1  0.84269800  0.92722700  0.08135900  1
  H  H29  1  0.65730200  0.07277300  0.58135900  1
  H  H30  1  0.34269800  0.57277300  0.91864100  1
  H  H31  1  0.15730200  0.42722700  0.41864100  1
  H  H32  1  0.15837400  0.09080200  0.03196500  1
  H  H33  1  0.34162600  0.90919800  0.53196500  1
  H  H34  1  0.65837400  0.40919800  0.96803500  1
  H  H35  1  0.84162600  0.59080200  0.46803500  1
  H  H36  1  0.84162600  0.90919800  0.96803500  1
  H  H37  1  0.65837400  0.09080200  0.46803500  1
  H  H38  1  0.34162600  0.59080200  0.03196500  1
  H  H39  1  0.15837400  0.40919800  0.53196500  1
  C  C40  1  0.15834100  0.28373300  0.87060700  1
  C  C41  1  0.34165900  0.71626700  0.37060700  1
  C  C42  1  0.65834100  0.21626700  0.12939300  1
  C  C43  1  0.84165900  0.78373300  0.62939300  1
  C  C44  1  0.84165900  0.71626700  0.12939300  1
  C  C45  1  0.65834100  0.28373300  0.62939300  1
  C  C46  1  0.34165900  0.78373300  0.87060700  1
  C  C47  1  0.15834100  0.21626700  0.37060700  1
  C  C48  1  0.16102800  0.23931500  0.96100000  1
  C  C49  1  0.33897200  0.76068500  0.46100000  1
  C  C50  1  0.66102800  0.26068500  0.03900000  1
  C  C51  1  0.83897200  0.73931500  0.53900000  1
  C  C52  1  0.83897200  0.76068500  0.03900000  1
  C  C53  1  0.66102800  0.23931500  0.53900000  1
  C  C54  1  0.33897200  0.73931500  0.96100000  1
  C  C55  1  0.16102800  0.26068500  0.46100000  1
  S  S56  1  0.25424900  0.19908700  0.79236200  1
  S  S57  1  0.24575100  0.80091300  0.29236200  1
  S  S58  1  0.75424900  0.30091300  0.20763800  1
  S  S59  1  0.74575100  0.69908700  0.70763800  1
  S  S60  1  0.74575100  0.80091300  0.20763800  1
  S  S61  1  0.75424900  0.19908700  0.70763800  1
  S  S62  1  0.24575100  0.69908700  0.79236200  1
  S  S63  1  0.25424900  0.30091300  0.29236200  1
  S  S64  1  0.16115100  0.33528700  0.04286900  1
  S  S65  1  0.33884900  0.66471300  0.54286900  1
  S  S66  1  0.66115100  0.16471300  0.95713100  1
  S  S67  1  0.83884900  0.83528700  0.45713100  1
  S  S68  1  0.83884900  0.66471300  0.95713100  1
  S  S69  1  0.66115100  0.33528700  0.45713100  1
  S  S70  1  0.33884900  0.83528700  0.04286900  1
  S  S71  1  0.16115100  0.16471300  0.54286900  1
  N  N72  1  0.07978500  0.38580800  0.85642500  1
  N  N73  1  0.42021500  0.61419200  0.35642500  1
  N  N74  1  0.57978500  0.11419200  0.14357500  1
  N  N75  1  0.92021500  0.88580800  0.64357500  1
  N  N76  1  0.92021500  0.61419200  0.14357500  1
  N  N77  1  0.57978500  0.38580800  0.64357500  1
  N  N78  1  0.42021500  0.88580800  0.85642500  1
  N  N79  1  0.07978500  0.11419200  0.35642500  1
  N  N80  1  0.16881900  0.12601700  0.97105600  1
  N  N81  1  0.33118100  0.87398300  0.47105600  1
  N  N82  1  0.66881900  0.37398300  0.02894400  1
  N  N83  1  0.83118100  0.62601700  0.52894400  1
  N  N84  1  0.83118100  0.87398300  0.02894400  1
  N  N85  1  0.66881900  0.12601700  0.52894400  1
  N  N86  1  0.33118100  0.62601700  0.97105600  1
  N  N87  1  0.16881900  0.37398300  0.47105600  1
  Cl  Cl88  1  0.08509600  0.45593600  0.66085900  1
  Cl  Cl89  1  0.41490400  0.54406400  0.16085900  1
  Cl  Cl90  1  0.58509600  0.04406400  0.33914100  1
  Cl  Cl91  1  0.91490400  0.95593600  0.83914100  1
  Cl  Cl92  1  0.91490400  0.54406400  0.33914100  1
  Cl  Cl93  1  0.58509600  0.45593600  0.83914100  1
  Cl  Cl94  1  0.41490400  0.95593600  0.66085900  1
  Cl  Cl95  1  0.08509600  0.04406400  0.16085900  1
