# generated using pymatgen
data_H12PtN6(ClO3)2
_symmetry_space_group_name_H-M   'P 1'
_cell_length_a   6.65283500
_cell_length_b   6.75392257
_cell_length_c   7.18187027
_cell_angle_alpha   100.62831487
_cell_angle_beta   114.58042060
_cell_angle_gamma   96.56579351
_symmetry_Int_Tables_number   1
_chemical_formula_structural   H12PtN6(ClO3)2
_chemical_formula_sum   'H12 Pt1 N6 Cl2 O6'
_cell_volume   281.75559007
_cell_formula_units_Z   1
loop_
 _symmetry_equiv_pos_site_id
 _symmetry_equiv_pos_as_xyz
  1  'x, y, z'
loop_
 _atom_site_type_symbol
 _atom_site_label
 _atom_site_symmetry_multiplicity
 _atom_site_fract_x
 _atom_site_fract_y
 _atom_site_fract_z
 _atom_site_occupancy
  H  H0  1  0.41410900  0.93945500  0.13907700  1
  H  H1  1  0.58589100  0.06054500  0.86092300  1
  H  H2  1  0.25368800  0.74141000  0.15385600  1
  H  H3  1  0.74631200  0.25859000  0.84614400  1
  H  H4  1  0.25307500  0.74827800  0.92162500  1
  H  H5  1  0.74692500  0.25172200  0.07837500  1
  H  H6  1  0.02354700  0.15871100  0.36797000  1
  H  H7  1  0.97645300  0.84128900  0.63203000  1
  H  H8  1  0.25627400  0.07276000  0.41113800  1
  H  H9  1  0.74372600  0.92724000  0.58886200  1
  H  H10  1  0.23143400  0.30234200  0.34611200  1
  H  H11  1  0.76856600  0.69765800  0.65388800  1
  Pt  Pt12  1  0.00000000  0.00000000  0.00000000  1
  N  N13  1  0.25897400  0.83773600  0.05838700  1
  N  N14  1  0.74102600  0.16226400  0.94161300  1
  N  N15  1  0.14858100  0.15240000  0.31922800  1
  N  N16  1  0.85141900  0.84760000  0.68077200  1
  N  N17  1  0.71651100  0.31801700  0.44710400  1
  N  N18  1  0.28348900  0.68198300  0.55289600  1
  Cl  Cl19  1  0.78648400  0.74691200  0.06587900  1
  Cl  Cl20  1  0.21351600  0.25308800  0.93412100  1
  O  O21  1  0.69774300  0.39988900  0.61137600  1
  O  O22  1  0.30225700  0.60011100  0.38862400  1
  O  O23  1  0.75950100  0.42674500  0.33863100  1
  O  O24  1  0.24049900  0.57325500  0.66136900  1
  O  O25  1  0.69181700  0.12097200  0.39142900  1
  O  O26  1  0.30818300  0.87902800  0.60857100  1
