# generated using pymatgen
data_Na6P2H2O9
_symmetry_space_group_name_H-M   'P 1'
_cell_length_a   5.58354970
_cell_length_b   5.58354970
_cell_length_c   17.15030785
_cell_angle_alpha   78.94979295
_cell_angle_beta   78.94979295
_cell_angle_gamma   58.77129790
_symmetry_Int_Tables_number   1
_chemical_formula_structural   Na6P2H2O9
_chemical_formula_sum   'Na12 P4 H4 O18'
_cell_volume   446.00738997
_cell_formula_units_Z   2
loop_
 _symmetry_equiv_pos_site_id
 _symmetry_equiv_pos_as_xyz
  1  'x, y, z'
loop_
 _atom_site_type_symbol
 _atom_site_label
 _atom_site_symmetry_multiplicity
 _atom_site_fract_x
 _atom_site_fract_y
 _atom_site_fract_z
 _atom_site_occupancy
  Na  Na0  1  0.34797300  0.28913700  0.95198900  1
  Na  Na1  1  0.71086300  0.65202700  0.54801100  1
  Na  Na2  1  0.65202700  0.71086300  0.04801100  1
  Na  Na3  1  0.28913700  0.34797300  0.45198900  1
  Na  Na4  1  0.09651200  0.90163300  0.59712000  1
  Na  Na5  1  0.09836700  0.90348800  0.90288000  1
  Na  Na6  1  0.90348800  0.09836700  0.40288000  1
  Na  Na7  1  0.90163300  0.09651200  0.09712000  1
  Na  Na8  1  0.51745200  0.18240000  0.78469300  1
  Na  Na9  1  0.81760000  0.48254800  0.71530700  1
  Na  Na10  1  0.48254800  0.81760000  0.21530700  1
  Na  Na11  1  0.18240000  0.51745200  0.28469300  1
  P  P12  1  0.22954200  0.45606300  0.11320200  1
  P  P13  1  0.54393700  0.77045800  0.38679800  1
  P  P14  1  0.77045800  0.54393700  0.88679800  1
  P  P15  1  0.45606300  0.22954200  0.61320200  1
  H  H16  1  0.93447600  0.23010000  0.22660000  1
  H  H17  1  0.76990000  0.06552400  0.27340000  1
  H  H18  1  0.06552400  0.76990000  0.77340000  1
  H  H19  1  0.23010000  0.93447600  0.72660000  1
  O  O20  1  0.95923300  0.04076700  0.25000000  1
  O  O21  1  0.04076700  0.95923300  0.75000000  1
  O  O22  1  0.13213000  0.66438400  0.03565600  1
  O  O23  1  0.33561600  0.86787000  0.46434400  1
  O  O24  1  0.86787000  0.33561600  0.96434400  1
  O  O25  1  0.66438400  0.13213000  0.53565600  1
  O  O26  1  0.49337100  0.44247300  0.64905000  1
  O  O27  1  0.55752700  0.50662900  0.85095000  1
  O  O28  1  0.50662900  0.55752700  0.35095000  1
  O  O29  1  0.44247300  0.49337100  0.14905000  1
  O  O30  1  0.52125100  0.96293100  0.67486100  1
  O  O31  1  0.03706900  0.47874900  0.82513900  1
  O  O32  1  0.47874900  0.03706900  0.32513900  1
  O  O33  1  0.96293100  0.52125100  0.17486100  1
  O  O34  1  0.37167100  0.14510300  0.09327700  1
  O  O35  1  0.85489700  0.62832900  0.40672300  1
  O  O36  1  0.62832900  0.85489700  0.90672300  1
  O  O37  1  0.14510300  0.37167100  0.59327700  1
