# generated using pymatgen
data_K2B6H5NO2
_symmetry_space_group_name_H-M   'P 1'
_cell_length_a   9.02257290
_cell_length_b   9.02257290
_cell_length_c   8.21937800
_cell_angle_alpha   90.00000000
_cell_angle_beta   90.00000000
_cell_angle_gamma   140.79420608
_symmetry_Int_Tables_number   1
_chemical_formula_structural   K2B6H5NO2
_chemical_formula_sum   'K4 B12 H10 N2 O4'
_cell_volume   422.95173324
_cell_formula_units_Z   2
loop_
 _symmetry_equiv_pos_site_id
 _symmetry_equiv_pos_as_xyz
  1  'x, y, z'
loop_
 _atom_site_type_symbol
 _atom_site_label
 _atom_site_symmetry_multiplicity
 _atom_site_fract_x
 _atom_site_fract_y
 _atom_site_fract_z
 _atom_site_occupancy
  K  K0  1  0.71044500  0.28955500  0.75000000  1
  K  K1  1  0.28955500  0.71044500  0.25000000  1
  K  K2  1  0.00000000  0.00000000  0.50000000  1
  K  K3  1  0.00000000  0.00000000  0.00000000  1
  B  B4  1  0.42207700  0.57792300  0.75000000  1
  B  B5  1  0.57792300  0.42207700  0.25000000  1
  B  B6  1  0.50464400  0.20924700  0.35501800  1
  B  B7  1  0.49535600  0.79075300  0.85501800  1
  B  B8  1  0.49535600  0.79075300  0.64498200  1
  B  B9  1  0.50464400  0.20924700  0.14498200  1
  B  B10  1  0.20924700  0.50464400  0.64498200  1
  B  B11  1  0.79075300  0.49535600  0.14498200  1
  B  B12  1  0.79075300  0.49535600  0.35501800  1
  B  B13  1  0.20924700  0.50464400  0.85501800  1
  B  B14  1  0.28102600  0.71897400  0.75000000  1
  B  B15  1  0.71897400  0.28102600  0.25000000  1
  H  H16  1  0.63128000  0.93044900  0.53945800  1
  H  H17  1  0.36872000  0.06955100  0.03945800  1
  H  H18  1  0.36872000  0.06955100  0.46054200  1
  H  H19  1  0.63128000  0.93044900  0.96054200  1
  H  H20  1  0.06955100  0.36872000  0.53945800  1
  H  H21  1  0.93044900  0.63128000  0.03945800  1
  H  H22  1  0.93044900  0.63128000  0.46054200  1
  H  H23  1  0.06955100  0.36872000  0.96054200  1
  H  H24  1  0.21050200  0.78949800  0.75000000  1
  H  H25  1  0.78949800  0.21050200  0.25000000  1
  N  N26  1  0.51054200  0.48945800  0.75000000  1
  N  N27  1  0.48945800  0.51054200  0.25000000  1
  O  O28  1  0.72882600  0.63168100  0.75000000  1
  O  O29  1  0.27117400  0.36831900  0.25000000  1
  O  O30  1  0.36831900  0.27117400  0.75000000  1
  O  O31  1  0.63168100  0.72882600  0.25000000  1
