# generated using pymatgen
data_H8AuC2S2N4ClO4
_symmetry_space_group_name_H-M   'P 1'
_cell_length_a   7.28949600
_cell_length_b   8.45780900
_cell_length_c   18.12793200
_cell_angle_alpha   90.00000000
_cell_angle_beta   90.00000000
_cell_angle_gamma   90.00000000
_symmetry_Int_Tables_number   1
_chemical_formula_structural   H8AuC2S2N4ClO4
_chemical_formula_sum   'H32 Au4 C8 S8 N16 Cl4 O16'
_cell_volume   1117.64438043
_cell_formula_units_Z   4
loop_
 _symmetry_equiv_pos_site_id
 _symmetry_equiv_pos_as_xyz
  1  'x, y, z'
loop_
 _atom_site_type_symbol
 _atom_site_label
 _atom_site_symmetry_multiplicity
 _atom_site_fract_x
 _atom_site_fract_y
 _atom_site_fract_z
 _atom_site_occupancy
  H  H0  1  0.87258200  0.51948800  0.09250900  1
  H  H1  1  0.87258200  0.48051200  0.40749100  1
  H  H2  1  0.62741800  0.48051200  0.59250900  1
  H  H3  1  0.62741800  0.51948800  0.90749100  1
  H  H4  1  0.12741800  0.48051200  0.90749100  1
  H  H5  1  0.12741800  0.51948800  0.59250900  1
  H  H6  1  0.37258200  0.51948800  0.40749100  1
  H  H7  1  0.37258200  0.48051200  0.09250900  1
  H  H8  1  0.74239900  0.45740800  0.16792800  1
  H  H9  1  0.74239900  0.54259200  0.33207200  1
  H  H10  1  0.75760100  0.54259200  0.66792800  1
  H  H11  1  0.75760100  0.45740800  0.83207200  1
  H  H12  1  0.25760100  0.54259200  0.83207200  1
  H  H13  1  0.25760100  0.45740800  0.66792800  1
  H  H14  1  0.24239900  0.45740800  0.33207200  1
  H  H15  1  0.24239900  0.54259200  0.16792800  1
  H  H16  1  0.89076500  0.78931900  0.06445500  1
  H  H17  1  0.89076500  0.21068100  0.43554500  1
  H  H18  1  0.60923500  0.21068100  0.56445500  1
  H  H19  1  0.60923500  0.78931900  0.93554500  1
  H  H20  1  0.10923500  0.21068100  0.93554500  1
  H  H21  1  0.10923500  0.78931900  0.56445500  1
  H  H22  1  0.39076500  0.78931900  0.43554500  1
  H  H23  1  0.39076500  0.21068100  0.06445500  1
  H  H24  1  0.76651300  0.92712900  0.11615200  1
  H  H25  1  0.76651300  0.07287100  0.38384800  1
  H  H26  1  0.73348700  0.07287100  0.61615200  1
  H  H27  1  0.73348700  0.92712900  0.88384800  1
  H  H28  1  0.23348700  0.07287100  0.88384800  1
  H  H29  1  0.23348700  0.92712900  0.61615200  1
  H  H30  1  0.26651300  0.92712900  0.38384800  1
  H  H31  1  0.26651300  0.07287100  0.11615200  1
  Au  Au32  1  0.60170600  0.00000000  0.25000000  1
  Au  Au33  1  0.89829400  0.00000000  0.75000000  1
  Au  Au34  1  0.39829400  0.00000000  0.75000000  1
  Au  Au35  1  0.10170600  0.00000000  0.25000000  1
  C  C36  1  0.74021100  0.69724700  0.14987700  1
  C  C37  1  0.74021100  0.30275300  0.35012300  1
  C  C38  1  0.75978900  0.30275300  0.64987700  1
  C  C39  1  0.75978900  0.69724700  0.85012300  1
  C  C40  1  0.25978900  0.30275300  0.85012300  1
  C  C41  1  0.25978900  0.69724700  0.64987700  1
  C  C42  1  0.24021100  0.69724700  0.35012300  1
  C  C43  1  0.24021100  0.30275300  0.14987700  1
  S  S44  1  0.59361800  0.73192000  0.22342400  1
  S  S45  1  0.59361800  0.26808000  0.27657600  1
  S  S46  1  0.90638200  0.26808000  0.72342400  1
  S  S47  1  0.90638200  0.73192000  0.77657600  1
  S  S48  1  0.40638200  0.26808000  0.77657600  1
  S  S49  1  0.40638200  0.73192000  0.72342400  1
  S  S50  1  0.09361800  0.73192000  0.27657600  1
  S  S51  1  0.09361800  0.26808000  0.22342400  1
  N  N52  1  0.78817700  0.54750400  0.13552300  1
  N  N53  1  0.78817700  0.45249600  0.36447700  1
  N  N54  1  0.71182300  0.45249600  0.63552300  1
  N  N55  1  0.71182300  0.54750400  0.86447700  1
  N  N56  1  0.21182300  0.45249600  0.86447700  1
  N  N57  1  0.21182300  0.54750400  0.63552300  1
  N  N58  1  0.28817700  0.54750400  0.36447700  1
  N  N59  1  0.28817700  0.45249600  0.13552300  1
  N  N60  1  0.80333800  0.81261200  0.10709400  1
  N  N61  1  0.80333800  0.18738800  0.39290600  1
  N  N62  1  0.69666200  0.18738800  0.60709400  1
  N  N63  1  0.69666200  0.81261200  0.89290600  1
  N  N64  1  0.19666200  0.18738800  0.89290600  1
  N  N65  1  0.19666200  0.81261200  0.60709400  1
  N  N66  1  0.30333800  0.81261200  0.39290600  1
  N  N67  1  0.30333800  0.18738800  0.10709400  1
  Cl  Cl68  1  0.75000000  0.76276500  0.50000000  1
  Cl  Cl69  1  0.75000000  0.23723500  0.00000000  1
  Cl  Cl70  1  0.25000000  0.23723500  0.50000000  1
  Cl  Cl71  1  0.25000000  0.76276500  0.00000000  1
  O  O72  1  0.58580000  0.66258300  0.50674500  1
  O  O73  1  0.58580000  0.33741700  0.99325500  1
  O  O74  1  0.91420000  0.33741700  0.00674500  1
  O  O75  1  0.91420000  0.66258300  0.49325500  1
  O  O76  1  0.41420000  0.33741700  0.49325500  1
  O  O77  1  0.41420000  0.66258300  0.00674500  1
  O  O78  1  0.08580000  0.66258300  0.99325500  1
  O  O79  1  0.08580000  0.33741700  0.50674500  1
  O  O80  1  0.72928200  0.86013600  0.43440300  1
  O  O81  1  0.72928200  0.13986400  0.06559700  1
  O  O82  1  0.77071800  0.13986400  0.93440300  1
  O  O83  1  0.77071800  0.86013600  0.56559700  1
  O  O84  1  0.27071800  0.13986400  0.56559700  1
  O  O85  1  0.27071800  0.86013600  0.93440300  1
  O  O86  1  0.22928200  0.86013600  0.06559700  1
  O  O87  1  0.22928200  0.13986400  0.43440300  1
