# generated using pymatgen
data_NaPH7O6
_symmetry_space_group_name_H-M   'P 1'
_cell_length_a   7.87604829
_cell_length_b   7.87604829
_cell_length_c   12.83319740
_cell_angle_alpha   66.84772360
_cell_angle_beta   66.84772360
_cell_angle_gamma   53.10666530
_symmetry_Int_Tables_number   1
_chemical_formula_structural   NaPH7O6
_chemical_formula_sum   'Na4 P4 H28 O24'
_cell_volume   571.86382855
_cell_formula_units_Z   4
loop_
 _symmetry_equiv_pos_site_id
 _symmetry_equiv_pos_as_xyz
  1  'x, y, z'
loop_
 _atom_site_type_symbol
 _atom_site_label
 _atom_site_symmetry_multiplicity
 _atom_site_fract_x
 _atom_site_fract_y
 _atom_site_fract_z
 _atom_site_occupancy
  Na  Na0  1  0.14736000  0.38008300  0.23601200  1
  Na  Na1  1  0.61991700  0.85264000  0.26398800  1
  Na  Na2  1  0.85264000  0.61991700  0.76398800  1
  Na  Na3  1  0.38008300  0.14736000  0.73601200  1
  P  P4  1  0.14302500  0.85970300  0.16234700  1
  P  P5  1  0.14029700  0.85697500  0.33765300  1
  P  P6  1  0.85697500  0.14029700  0.83765300  1
  P  P7  1  0.85970300  0.14302500  0.66234700  1
  H  H8  1  0.86700000  0.72473800  0.05179200  1
  H  H9  1  0.27526200  0.13300000  0.44820800  1
  H  H10  1  0.13300000  0.27526200  0.94820800  1
  H  H11  1  0.72473800  0.86700000  0.55179200  1
  H  H12  1  0.35164200  0.09027000  0.09920500  1
  H  H13  1  0.90973000  0.64835800  0.40079500  1
  H  H14  1  0.64835800  0.90973000  0.90079500  1
  H  H15  1  0.09027000  0.35164200  0.59920500  1
  H  H16  1  0.54213200  0.47579600  0.11360000  1
  H  H17  1  0.52420400  0.45786800  0.38640000  1
  H  H18  1  0.45786800  0.52420400  0.88640000  1
  H  H19  1  0.47579600  0.54213200  0.61360000  1
  H  H20  1  0.81315900  0.54101900  0.10412100  1
  H  H21  1  0.45898100  0.18684100  0.39587900  1
  H  H22  1  0.18684100  0.45898100  0.89587900  1
  H  H23  1  0.54101900  0.81315900  0.60412100  1
  H  H24  1  0.72583000  0.39460200  0.00331400  1
  H  H25  1  0.60539800  0.27417000  0.49668600  1
  H  H26  1  0.27417000  0.60539800  0.99668600  1
  H  H27  1  0.39460200  0.72583000  0.50331400  1
  H  H28  1  0.55374900  0.11315000  0.04656800  1
  H  H29  1  0.88685000  0.44625100  0.45343200  1
  H  H30  1  0.44625100  0.88685000  0.95343200  1
  H  H31  1  0.11315000  0.55374900  0.54656800  1
  H  H32  1  0.80956500  0.13772800  0.14183700  1
  H  H33  1  0.86227200  0.19043500  0.35816300  1
  H  H34  1  0.19043500  0.86227200  0.85816300  1
  H  H35  1  0.13772800  0.80956500  0.64183700  1
  O  O36  1  0.22567900  0.00267900  0.06945500  1
  O  O37  1  0.99732100  0.77432100  0.43054500  1
  O  O38  1  0.77432100  0.99732100  0.93054500  1
  O  O39  1  0.00267900  0.22567900  0.56945500  1
  O  O40  1  0.26205800  0.62891500  0.14570200  1
  O  O41  1  0.37108500  0.73794200  0.35429800  1
  O  O42  1  0.73794200  0.37108500  0.85429800  1
  O  O43  1  0.62891500  0.26205800  0.64570200  1
  O  O44  1  0.88884900  0.97139000  0.17214900  1
  O  O45  1  0.02861000  0.11115100  0.32785200  1
  O  O46  1  0.11115100  0.02861000  0.82785100  1
  O  O47  1  0.97139000  0.88884900  0.67214900  1
  O  O48  1  0.86357300  0.61280000  0.12182300  1
  O  O49  1  0.38720000  0.13642700  0.37817700  1
  O  O50  1  0.13642700  0.38720000  0.87817700  1
  O  O51  1  0.61280000  0.86357300  0.62182300  1
  O  O52  1  0.43181300  0.13535400  0.11501600  1
  O  O53  1  0.86464600  0.56818700  0.38498400  1
  O  O54  1  0.56818700  0.86464600  0.88498400  1
  O  O55  1  0.13535400  0.43181300  0.61501600  1
  O  O56  1  0.70376100  0.38517200  0.08630000  1
  O  O57  1  0.61482800  0.29623900  0.41370000  1
  O  O58  1  0.29623900  0.61482800  0.91370000  1
  O  O59  1  0.38517200  0.70376100  0.58630000  1
