# generated using pymatgen
data_H6S(NO2)2
_symmetry_space_group_name_H-M   'P 1'
_cell_length_a   6.62195300
_cell_length_b   8.24342900
_cell_length_c   10.20409200
_cell_angle_alpha   90.00000000
_cell_angle_beta   90.00000000
_cell_angle_gamma   90.00000000
_symmetry_Int_Tables_number   1
_chemical_formula_structural   H6S(NO2)2
_chemical_formula_sum   'H24 S4 N8 O16'
_cell_volume   557.01688630
_cell_formula_units_Z   4
loop_
 _symmetry_equiv_pos_site_id
 _symmetry_equiv_pos_as_xyz
  1  'x, y, z'
loop_
 _atom_site_type_symbol
 _atom_site_label
 _atom_site_symmetry_multiplicity
 _atom_site_fract_x
 _atom_site_fract_y
 _atom_site_fract_z
 _atom_site_occupancy
  H  H0  1  0.04940200  0.86046300  0.87819200  1
  H  H1  1  0.54940200  0.63953700  0.12180800  1
  H  H2  1  0.95059800  0.36046300  0.62180800  1
  H  H3  1  0.45059800  0.13953700  0.37819200  1
  H  H4  1  0.65077300  0.96581000  0.95067800  1
  H  H5  1  0.15077300  0.53419000  0.04932200  1
  H  H6  1  0.34922700  0.46581000  0.54932200  1
  H  H7  1  0.84922700  0.03419000  0.45067800  1
  H  H8  1  0.59439700  0.02517600  0.74234100  1
  H  H9  1  0.09439700  0.47482400  0.25765900  1
  H  H10  1  0.40560300  0.52517600  0.75765900  1
  H  H11  1  0.90560300  0.97482400  0.24234100  1
  H  H12  1  0.05079700  0.20065100  0.77281100  1
  H  H13  1  0.55079700  0.29934900  0.22718900  1
  H  H14  1  0.94920300  0.70065100  0.72718900  1
  H  H15  1  0.44920300  0.79934900  0.27281100  1
  H  H16  1  0.02652500  0.26850500  0.81929300  1
  H  H17  1  0.52652500  0.23149500  0.18070700  1
  H  H18  1  0.97347500  0.76850500  0.68070700  1
  H  H19  1  0.47347500  0.73149500  0.31929300  1
  H  H20  1  0.65110400  0.23149800  0.78030700  1
  H  H21  1  0.15110400  0.26850200  0.21969300  1
  H  H22  1  0.34889600  0.73149800  0.71969300  1
  H  H23  1  0.84889600  0.76850200  0.28030700  1
  S  S24  1  0.31572600  0.07812300  0.56486300  1
  S  S25  1  0.81572600  0.42187700  0.43513700  1
  S  S26  1  0.68427400  0.57812300  0.93513700  1
  S  S27  1  0.18427400  0.92187700  0.06486300  1
  N  N28  1  0.64162200  0.11288700  0.81318000  1
  N  N29  1  0.14162200  0.38711300  0.18682000  1
  N  N30  1  0.35837800  0.61288700  0.68682000  1
  N  N31  1  0.85837800  0.88711300  0.31318000  1
  N  N32  1  0.67245700  0.08934500  0.93068100  1
  N  N33  1  0.17245700  0.41065500  0.06931900  1
  N  N34  1  0.32754300  0.58934500  0.56931900  1
  N  N35  1  0.82754300  0.91065500  0.43068100  1
  O  O36  1  0.46929500  0.95820500  0.60614300  1
  O  O37  1  0.96929500  0.54179500  0.39385700  1
  O  O38  1  0.53070500  0.45820500  0.89385700  1
  O  O39  1  0.03070500  0.04179500  0.10614300  1
  O  O40  1  0.10944800  0.02422400  0.58778800  1
  O  O41  1  0.60944800  0.47577600  0.41221200  1
  O  O42  1  0.89055200  0.52422400  0.91221200  1
  O  O43  1  0.39055200  0.97577600  0.08778800  1
  O  O44  1  0.36161100  0.24196200  0.61261000  1
  O  O45  1  0.86161100  0.25803800  0.38739000  1
  O  O46  1  0.63838900  0.74196200  0.88739000  1
  O  O47  1  0.13838900  0.75803800  0.11261000  1
  O  O48  1  0.32511300  0.08614900  0.40597900  1
  O  O49  1  0.82511300  0.41385100  0.59402100  1
  O  O50  1  0.67488700  0.58614900  0.09402100  1
  O  O51  1  0.17488700  0.91385100  0.90597900  1
