# generated using pymatgen
data_AlP3(HO5)2
_symmetry_space_group_name_H-M   'P 1'
_cell_length_a   8.62467400
_cell_length_b   7.33273400
_cell_length_c   12.49648894
_cell_angle_alpha   67.32391615
_cell_angle_beta   90.00000000
_cell_angle_gamma   90.00000000
_symmetry_Int_Tables_number   1
_chemical_formula_structural   AlP3(HO5)2
_chemical_formula_sum   'Al4 P12 H8 O40'
_cell_volume   729.21689439
_cell_formula_units_Z   4
loop_
 _symmetry_equiv_pos_site_id
 _symmetry_equiv_pos_as_xyz
  1  'x, y, z'
loop_
 _atom_site_type_symbol
 _atom_site_label
 _atom_site_symmetry_multiplicity
 _atom_site_fract_x
 _atom_site_fract_y
 _atom_site_fract_z
 _atom_site_occupancy
  Al  Al0  1  0.57139000  0.25991900  0.70391500  1
  Al  Al1  1  0.92861000  0.25991900  0.20391500  1
  Al  Al2  1  0.42861000  0.74008100  0.29608500  1
  Al  Al3  1  0.07139000  0.74008100  0.79608500  1
  P  P4  1  0.39418500  0.86036200  0.86057900  1
  P  P5  1  0.10581500  0.86036200  0.36057900  1
  P  P6  1  0.60581500  0.13963800  0.13942100  1
  P  P7  1  0.89418500  0.13963800  0.63942100  1
  P  P8  1  0.39038800  0.64313300  0.70691000  1
  P  P9  1  0.10961200  0.64313300  0.20691000  1
  P  P10  1  0.60961200  0.35686700  0.29309000  1
  P  P11  1  0.89038800  0.35686700  0.79309000  1
  P  P12  1  0.61732000  0.71116500  0.52011500  1
  P  P13  1  0.88268000  0.71116500  0.02011500  1
  P  P14  1  0.38268000  0.28883500  0.47988500  1
  P  P15  1  0.11732000  0.28883500  0.97988500  1
  H  H16  1  0.36845500  0.74012100  0.05277300  1
  H  H17  1  0.13154500  0.74012100  0.55277300  1
  H  H18  1  0.63154500  0.25987900  0.94722700  1
  H  H19  1  0.86845500  0.25987900  0.44722700  1
  H  H20  1  0.82772500  0.77761900  0.59272400  1
  H  H21  1  0.67227500  0.77761900  0.09272400  1
  H  H22  1  0.17227500  0.22238100  0.40727600  1
  H  H23  1  0.32772500  0.22238100  0.90727600  1
  O  O24  1  0.46747700  0.72719600  0.79456900  1
  O  O25  1  0.03252300  0.72719600  0.29456900  1
  O  O26  1  0.53252300  0.27280400  0.20543100  1
  O  O27  1  0.96747700  0.27280400  0.70543100  1
  O  O28  1  0.42702600  0.72031900  0.98952100  1
  O  O29  1  0.07297400  0.72031900  0.48952100  1
  O  O30  1  0.57297400  0.27968100  0.01047900  1
  O  O31  1  0.92702600  0.27968100  0.51047900  1
  O  O32  1  0.47259700  0.76539300  0.58637500  1
  O  O33  1  0.02740300  0.76539300  0.08637500  1
  O  O34  1  0.52740300  0.23460700  0.41362500  1
  O  O35  1  0.97259700  0.23460700  0.91362500  1
  O  O36  1  0.48948600  0.04622000  0.82861300  1
  O  O37  1  0.01051400  0.04622000  0.32861300  1
  O  O38  1  0.51051400  0.95378000  0.17138700  1
  O  O39  1  0.98948600  0.95378000  0.67138700  1
  O  O40  1  0.22402700  0.89031200  0.83081800  1
  O  O41  1  0.27597300  0.89031200  0.33081800  1
  O  O42  1  0.77597300  0.10968800  0.16918200  1
  O  O43  1  0.72402700  0.10968800  0.66918200  1
  O  O44  1  0.65151700  0.49379300  0.58340200  1
  O  O45  1  0.84848300  0.49379300  0.08340200  1
  O  O46  1  0.34848300  0.50620700  0.41659800  1
  O  O47  1  0.15151700  0.50620700  0.91659800  1
  O  O48  1  0.22028400  0.69799900  0.68950300  1
  O  O49  1  0.27971600  0.69799900  0.18950300  1
  O  O50  1  0.77971600  0.30200100  0.31049700  1
  O  O51  1  0.72028400  0.30200100  0.81049700  1
  O  O52  1  0.42886900  0.42619200  0.74672800  1
  O  O53  1  0.07113100  0.42619200  0.24672800  1
  O  O54  1  0.57113100  0.57380800  0.25327200  1
  O  O55  1  0.92886900  0.57380800  0.75327200  1
  O  O56  1  0.57212700  0.78444100  0.39458600  1
  O  O57  1  0.92787300  0.78444100  0.89458600  1
  O  O58  1  0.42787300  0.21555900  0.60541400  1
  O  O59  1  0.07212700  0.21555900  0.10541400  1
  O  O60  1  0.75609500  0.84313800  0.52770700  1
  O  O61  1  0.74390500  0.84313800  0.02770700  1
  O  O62  1  0.24390500  0.15686200  0.47229300  1
  O  O63  1  0.25609500  0.15686200  0.97229300  1
