# generated using pymatgen
data_KNaTiH2O3F4
_symmetry_space_group_name_H-M   'P 1'
_cell_length_a   11.07958251
_cell_length_b   10.36306007
_cell_length_c   6.41998000
_cell_angle_alpha   90.00000000
_cell_angle_beta   90.00000000
_cell_angle_gamma   101.01745182
_symmetry_Int_Tables_number   1
_chemical_formula_structural   KNaTiH2O3F4
_chemical_formula_sum   'K4 Na4 Ti4 H8 O12 F16'
_cell_volume   723.54563686
_cell_formula_units_Z   4
loop_
 _symmetry_equiv_pos_site_id
 _symmetry_equiv_pos_as_xyz
  1  'x, y, z'
loop_
 _atom_site_type_symbol
 _atom_site_label
 _atom_site_symmetry_multiplicity
 _atom_site_fract_x
 _atom_site_fract_y
 _atom_site_fract_z
 _atom_site_occupancy
  K  K0  1  0.36569200  0.34778600  0.66475600  1
  K  K1  1  0.63430800  0.15221400  0.16475600  1
  K  K2  1  0.63430800  0.65221400  0.33524400  1
  K  K3  1  0.36569200  0.84778600  0.83524400  1
  Na  Na4  1  0.09968900  0.72036800  0.43301400  1
  Na  Na5  1  0.90031100  0.77963200  0.93301400  1
  Na  Na6  1  0.90031100  0.27963200  0.56698600  1
  Na  Na7  1  0.09968900  0.22036800  0.06698600  1
  Ti  Ti8  1  0.15175000  0.51984400  0.94007500  1
  Ti  Ti9  1  0.84825000  0.98015600  0.44007500  1
  Ti  Ti10  1  0.84825000  0.48015600  0.05992500  1
  Ti  Ti11  1  0.15175000  0.01984400  0.55992500  1
  H  H12  1  0.35624500  0.94818400  0.36175600  1
  H  H13  1  0.64375500  0.55181600  0.86175600  1
  H  H14  1  0.64375500  0.05181600  0.63824400  1
  H  H15  1  0.35624500  0.44818400  0.13824400  1
  H  H16  1  0.00516700  0.49250000  0.44409200  1
  H  H17  1  0.99483300  0.00750000  0.94409200  1
  H  H18  1  0.99483300  0.50750000  0.55590800  1
  H  H19  1  0.00516700  0.99250000  0.05590800  1
  O  O20  1  0.44611400  0.92568800  0.25540500  1
  O  O21  1  0.55388600  0.57431200  0.75540500  1
  O  O22  1  0.55388600  0.07431200  0.74459500  1
  O  O23  1  0.44611400  0.42568800  0.24459500  1
  O  O24  1  0.27440000  0.45200600  0.02749400  1
  O  O25  1  0.72560000  0.04799400  0.52749400  1
  O  O26  1  0.72560000  0.54799400  0.97250600  1
  O  O27  1  0.27440000  0.95200600  0.47250600  1
  O  O28  1  0.47903700  0.82803300  0.36556400  1
  O  O29  1  0.52096300  0.67196700  0.86556400  1
  O  O30  1  0.52096300  0.17196700  0.63443600  1
  O  O31  1  0.47903700  0.32803300  0.13443600  1
  F  F32  1  0.02682000  0.42356700  0.13857900  1
  F  F33  1  0.97318000  0.07643300  0.63857900  1
  F  F34  1  0.97318000  0.57643300  0.86142100  1
  F  F35  1  0.02682000  0.92356700  0.36142100  1
  F  F36  1  0.21408500  0.62038200  0.70513500  1
  F  F37  1  0.78591500  0.87961800  0.20513500  1
  F  F38  1  0.78591500  0.37961800  0.29486500  1
  F  F39  1  0.21408500  0.12038200  0.79486500  1
  F  F40  1  0.17617100  0.67034100  0.11519600  1
  F  F41  1  0.82382900  0.82965900  0.61519600  1
  F  F42  1  0.82382900  0.32965900  0.88480400  1
  F  F43  1  0.17617100  0.17034100  0.38480400  1
  F  F44  1  0.09228000  0.36875400  0.76638000  1
  F  F45  1  0.90772000  0.13124600  0.26638000  1
  F  F46  1  0.90772000  0.63124600  0.23362000  1
  F  F47  1  0.09228000  0.86875400  0.73362000  1
