# generated using pymatgen
data_CdH18Se4(N2O7)2
_symmetry_space_group_name_H-M   'P 1'
_cell_length_a   5.85879900
_cell_length_b   7.46654927
_cell_length_c   10.96187716
_cell_angle_alpha   90.01465862
_cell_angle_beta   105.25551051
_cell_angle_gamma   112.60963418
_symmetry_Int_Tables_number   1
_chemical_formula_structural   CdH18Se4(N2O7)2
_chemical_formula_sum   'Cd1 H18 Se4 N4 O14'
_cell_volume   424.29689944
_cell_formula_units_Z   1
loop_
 _symmetry_equiv_pos_site_id
 _symmetry_equiv_pos_as_xyz
  1  'x, y, z'
loop_
 _atom_site_type_symbol
 _atom_site_label
 _atom_site_symmetry_multiplicity
 _atom_site_fract_x
 _atom_site_fract_y
 _atom_site_fract_z
 _atom_site_occupancy
  Cd  Cd0  1  0.00000000  0.00000000  0.00000000  1
  H  H1  1  0.86896300  0.42949300  0.19065700  1
  H  H2  1  0.13103700  0.57050700  0.80934300  1
  H  H3  1  0.71855300  0.35731200  0.03211500  1
  H  H4  1  0.28144700  0.64268800  0.96788500  1
  H  H5  1  0.62027600  0.48978200  0.11576100  1
  H  H6  1  0.37972400  0.51021800  0.88423900  1
  H  H7  1  0.90956300  0.59517500  0.08632300  1
  H  H8  1  0.09043700  0.40482500  0.91367700  1
  H  H9  1  0.15554300  0.87813500  0.40617500  1
  H  H10  1  0.84445700  0.12186500  0.59382500  1
  H  H11  1  0.11335100  0.63825200  0.40611600  1
  H  H12  1  0.88664900  0.36174800  0.59388400  1
  H  H13  1  0.01930900  0.73646400  0.51186300  1
  H  H14  1  0.98069100  0.26353600  0.48813700  1
  H  H15  1  0.33615900  0.80555400  0.52673800  1
  H  H16  1  0.66384100  0.19444600  0.47326200  1
  H  H17  1  0.41226800  0.26769500  0.67454300  1
  H  H18  1  0.58773200  0.73230500  0.32545700  1
  Se  Se19  1  0.45141900  0.04694400  0.82360200  1
  Se  Se20  1  0.54858100  0.95305600  0.17639800  1
  Se  Se21  1  0.30392500  0.33799100  0.29589500  1
  Se  Se22  1  0.69607500  0.66200900  0.70410500  1
  N  N23  1  0.77771200  0.46736100  0.10526300  1
  N  N24  1  0.22228800  0.53263900  0.89473700  1
  N  N25  1  0.15384800  0.76553100  0.46165600  1
  N  N26  1  0.84615200  0.23446900  0.53834400  1
  O  O27  1  0.33611300  0.14774000  0.36579800  1
  O  O28  1  0.66388700  0.85226000  0.63420200  1
  O  O29  1  0.58849400  0.52946900  0.34251500  1
  O  O30  1  0.41150600  0.47053100  0.65748500  1
  O  O31  1  0.06905500  0.38786400  0.33144300  1
  O  O32  1  0.93094500  0.61213600  0.66855700  1
  O  O33  1  0.22520100  0.29565800  0.13610900  1
  O  O34  1  0.77479900  0.70434200  0.86389100  1
  O  O35  1  0.77274100  0.18336800  0.90049000  1
  O  O36  1  0.22725900  0.81663200  0.09951000  1
  O  O37  1  0.30705500  0.15895100  0.89466600  1
  O  O38  1  0.69294500  0.84104900  0.10533400  1
  O  O39  1  0.40114100  0.12620100  0.66913200  1
  O  O40  1  0.59885900  0.87379900  0.33086800  1
