# generated using pymatgen
data_UH12C2S2N6O13
_symmetry_space_group_name_H-M   'P 1'
_cell_length_a   6.92616677
_cell_length_b   6.92616677
_cell_length_c   18.63074698
_cell_angle_alpha   81.80251583
_cell_angle_beta   81.80251583
_cell_angle_gamma   71.84545655
_symmetry_Int_Tables_number   1
_chemical_formula_structural   UH12C2S2N6O13
_chemical_formula_sum   'U2 H24 C4 S4 N12 O26'
_cell_volume   835.99104899
_cell_formula_units_Z   2
loop_
 _symmetry_equiv_pos_site_id
 _symmetry_equiv_pos_as_xyz
  1  'x, y, z'
loop_
 _atom_site_type_symbol
 _atom_site_label
 _atom_site_symmetry_multiplicity
 _atom_site_fract_x
 _atom_site_fract_y
 _atom_site_fract_z
 _atom_site_occupancy
  U  U0  1  0.78693000  0.21307000  0.75000000  1
  U  U1  1  0.21307000  0.78693000  0.25000000  1
  H  H2  1  0.87603400  0.63578500  0.87713300  1
  H  H3  1  0.36421500  0.12396600  0.62286700  1
  H  H4  1  0.12396600  0.36421500  0.12286700  1
  H  H5  1  0.63578500  0.87603400  0.37713300  1
  H  H6  1  0.61787300  0.64602400  0.89220600  1
  H  H7  1  0.35397600  0.38212700  0.60779400  1
  H  H8  1  0.38212700  0.35397600  0.10779400  1
  H  H9  1  0.64602400  0.61787300  0.39220600  1
  H  H10  1  0.01553100  0.74789400  0.96837000  1
  H  H11  1  0.25210600  0.98446900  0.53163000  1
  H  H12  1  0.98446900  0.25210600  0.03163000  1
  H  H13  1  0.74789400  0.01553100  0.46837000  1
  H  H14  1  0.86428600  0.79341900  0.05397300  1
  H  H15  1  0.20658100  0.13571400  0.44602700  1
  H  H16  1  0.13571400  0.20658100  0.94602700  1
  H  H17  1  0.79341900  0.86428600  0.55397300  1
  H  H18  1  0.42856100  0.72341300  0.00048000  1
  H  H19  1  0.27658700  0.57143900  0.49952000  1
  H  H20  1  0.57143900  0.27658700  0.99952000  1
  H  H21  1  0.72341300  0.42856100  0.50048000  1
  H  H22  1  0.52942500  0.78828100  0.07073100  1
  H  H23  1  0.21171900  0.47057500  0.42926900  1
  H  H24  1  0.47057500  0.21171900  0.92926900  1
  H  H25  1  0.78828100  0.52942500  0.57073100  1
  C  C26  1  0.72801100  0.71612100  0.97745300  1
  C  C27  1  0.28387900  0.27198900  0.52254700  1
  C  C28  1  0.27198900  0.28387900  0.02254700  1
  C  C29  1  0.71612100  0.72801100  0.47745300  1
  S  S30  1  0.67618600  0.76187400  0.70464800  1
  S  S31  1  0.23812600  0.32381400  0.79535200  1
  S  S32  1  0.32381400  0.23812600  0.29535200  1
  S  S33  1  0.76187400  0.67618600  0.20464800  1
  N  N34  1  0.74428200  0.65410500  0.91192500  1
  N  N35  1  0.34589500  0.25571800  0.58807500  1
  N  N36  1  0.25571800  0.34589500  0.08807500  1
  N  N37  1  0.65410500  0.74428200  0.41192500  1
  N  N38  1  0.88188400  0.75754000  0.00145500  1
  N  N39  1  0.24246000  0.11811600  0.49854500  1
  N  N40  1  0.11811600  0.24246000  0.99854500  1
  N  N41  1  0.75754000  0.88188400  0.50145500  1
  N  N42  1  0.55226100  0.73216200  0.02149400  1
  N  N43  1  0.26783800  0.44773900  0.47850600  1
  N  N44  1  0.44773900  0.26783800  0.97850600  1
  N  N45  1  0.73216200  0.55226100  0.52149400  1
  O  O46  1  0.27943200  0.73637800  0.90684400  1
  O  O47  1  0.26362200  0.72056800  0.59315600  1
  O  O48  1  0.72056800  0.26362200  0.09315600  1
  O  O49  1  0.73637800  0.27943200  0.40684400  1
  O  O50  1  0.07347800  0.92652200  0.75000000  1
  O  O51  1  0.92652200  0.07347800  0.25000000  1
  O  O52  1  0.81582000  0.23804700  0.65065000  1
  O  O53  1  0.76195300  0.18418000  0.84935000  1
  O  O54  1  0.18418000  0.76195300  0.34935000  1
  O  O55  1  0.23804700  0.81582000  0.15065000  1
  O  O56  1  0.42860600  0.32154900  0.74563400  1
  O  O57  1  0.67845100  0.57139400  0.75436600  1
  O  O58  1  0.57139400  0.67845100  0.25436600  1
  O  O59  1  0.32154900  0.42860600  0.24563400  1
  O  O60  1  0.47474200  0.85505800  0.67658100  1
  O  O61  1  0.14494200  0.52525800  0.82341900  1
  O  O62  1  0.52525800  0.14494200  0.32341900  1
  O  O63  1  0.85505800  0.47474200  0.17658100  1
  O  O64  1  0.70507600  0.90779700  0.75265900  1
  O  O65  1  0.09220300  0.29492400  0.74734100  1
  O  O66  1  0.29492400  0.09220300  0.24734100  1
  O  O67  1  0.90779700  0.70507600  0.25265900  1
  O  O68  1  0.27937900  0.15659500  0.85472700  1
  O  O69  1  0.84340500  0.72062100  0.64527300  1
  O  O70  1  0.72062100  0.84340500  0.14527300  1
  O  O71  1  0.15659500  0.27937900  0.35472700  1
