# generated using pymatgen
data_K2Na4Ca5(Si6O17)2
_symmetry_space_group_name_H-M   'P 1'
_cell_length_a   10.45198365
_cell_length_b   10.45198365
_cell_length_c   12.85676837
_cell_angle_alpha   70.82385530
_cell_angle_beta   109.17614470
_cell_angle_gamma   137.17600277
_symmetry_Int_Tables_number   1
_chemical_formula_structural   K2Na4Ca5(Si6O17)2
_chemical_formula_sum   'K2 Na4 Ca5 Si12 O34'
_cell_volume   893.32423051
_cell_formula_units_Z   1
loop_
 _symmetry_equiv_pos_site_id
 _symmetry_equiv_pos_as_xyz
  1  'x, y, z'
loop_
 _atom_site_type_symbol
 _atom_site_label
 _atom_site_symmetry_multiplicity
 _atom_site_fract_x
 _atom_site_fract_y
 _atom_site_fract_z
 _atom_site_occupancy
  K  K0  1  0.15832400  0.84167600  0.49251500  1
  K  K1  1  0.82905300  0.17094700  0.50313200  1
  Na  Na2  1  0.00326200  0.99673800  0.99378700  1
  Na  Na3  1  0.48828600  0.51171400  0.94133100  1
  Na  Na4  1  0.74559400  0.25440600  0.00443100  1
  Na  Na5  1  0.55365400  0.44634600  0.47236100  1
  Ca  Ca6  1  0.25162200  0.74837800  0.99887600  1
  Ca  Ca7  1  0.95581600  0.60335000  0.16364300  1
  Ca  Ca8  1  0.39665000  0.04418400  0.16364300  1
  Ca  Ca9  1  0.08027500  0.40985600  0.83357700  1
  Ca  Ca10  1  0.59014400  0.91972500  0.83357700  1
  Si  Si11  1  0.05948800  0.35349100  0.24240400  1
  Si  Si12  1  0.64650900  0.94051200  0.24240400  1
  Si  Si13  1  0.94155000  0.66613500  0.73816000  1
  Si  Si14  1  0.33386500  0.05845000  0.73816000  1
  Si  Si15  1  0.30540800  0.69459200  0.36969200  1
  Si  Si16  1  0.69871900  0.30128100  0.69867600  1
  Si  Si17  1  0.17874500  0.22391500  0.74126400  1
  Si  Si18  1  0.77608500  0.82125500  0.74126400  1
  Si  Si19  1  0.81226600  0.77905600  0.26074400  1
  Si  Si20  1  0.22094400  0.18773400  0.26074400  1
  Si  Si21  1  0.37109300  0.62890700  0.62986100  1
  Si  Si22  1  0.58952400  0.41047600  0.17878500  1
  O  O23  1  0.02919900  0.46255500  0.13058900  1
  O  O24  1  0.53744500  0.97080100  0.13058900  1
  O  O25  1  0.01766800  0.59259800  0.84733600  1
  O  O26  1  0.40740200  0.98233200  0.84733600  1
  O  O27  1  0.16753600  0.47369500  0.34917900  1
  O  O28  1  0.52630500  0.83246400  0.34917900  1
  O  O29  1  0.82619000  0.52649900  0.63979900  1
  O  O30  1  0.47350100  0.17381000  0.63979900  1
  O  O31  1  0.85544300  0.14455700  0.28396900  1
  O  O32  1  0.12440000  0.87560000  0.68097800  1
  O  O33  1  0.18569200  0.32685500  0.22566200  1
  O  O34  1  0.67314500  0.81430800  0.22566200  1
  O  O35  1  0.80928700  0.68440200  0.75805100  1
  O  O36  1  0.31559800  0.19071300  0.75805100  1
  O  O37  1  0.31174300  0.68825700  0.50055400  1
  O  O38  1  0.69305700  0.30694300  0.82461300  1
  O  O39  1  0.32793400  0.67206600  0.71623900  1
  O  O40  1  0.78163900  0.21836100  0.70016400  1
  O  O41  1  0.22000600  0.77999400  0.29192000  1
  O  O42  1  0.66931800  0.33068200  0.27937900  1
  O  O43  1  0.24469000  0.40098800  0.63863600  1
  O  O44  1  0.59901200  0.75531000  0.63863600  1
  O  O45  1  0.81466100  0.68436100  0.38468300  1
  O  O46  1  0.31563900  0.18533900  0.38468300  1
  O  O47  1  0.18736900  0.26830000  0.85291400  1
  O  O48  1  0.73170000  0.81263100  0.85291400  1
  O  O49  1  0.72671300  0.64056800  0.16822700  1
  O  O50  1  0.35943200  0.27328700  0.16822700  1
  O  O51  1  0.35913500  0.64086500  0.94596500  1
  O  O52  1  0.87148000  0.12852000  0.95124600  1
  O  O53  1  0.14545600  0.85454400  0.04748800  1
  O  O54  1  0.61752300  0.38247700  0.07254000  1
  O  O55  1  0.96071600  0.03928400  0.69027200  1
  O  O56  1  0.02208900  0.97791100  0.21948800  1
