# generated using pymatgen
data_K6Na15Tl18H
_symmetry_space_group_name_H-M   'P 1'
_cell_length_a   10.88480100
_cell_length_b   10.88480100
_cell_length_c   10.88480100
_cell_angle_alpha   90.00000000
_cell_angle_beta   90.00000000
_cell_angle_gamma   90.00000000
_symmetry_Int_Tables_number   1
_chemical_formula_structural   K6Na15Tl18H
_chemical_formula_sum   'K6 Na15 Tl18 H1'
_cell_volume   1289.61917093
_cell_formula_units_Z   1
loop_
 _symmetry_equiv_pos_site_id
 _symmetry_equiv_pos_as_xyz
  1  'x, y, z'
loop_
 _atom_site_type_symbol
 _atom_site_label
 _atom_site_symmetry_multiplicity
 _atom_site_fract_x
 _atom_site_fract_y
 _atom_site_fract_z
 _atom_site_occupancy
  K  K0  1  0.00000000  0.18627600  0.50000000  1
  K  K1  1  0.00000000  0.81372400  0.50000000  1
  K  K2  1  0.50000000  0.00000000  0.18627600  1
  K  K3  1  0.50000000  0.00000000  0.81372400  1
  K  K4  1  0.18627600  0.50000000  0.00000000  1
  K  K5  1  0.81372400  0.50000000  0.00000000  1
  Na  Na6  1  0.00000000  0.00000000  0.00000000  1
  Na  Na7  1  0.71977300  0.28022700  0.28022700  1
  Na  Na8  1  0.28022700  0.28022700  0.71977300  1
  Na  Na9  1  0.28022700  0.71977300  0.28022700  1
  Na  Na10  1  0.71977300  0.71977300  0.71977300  1
  Na  Na11  1  0.28022700  0.71977300  0.71977300  1
  Na  Na12  1  0.71977300  0.71977300  0.28022700  1
  Na  Na13  1  0.71977300  0.28022700  0.71977300  1
  Na  Na14  1  0.28022700  0.28022700  0.28022700  1
  Na  Na15  1  0.50000000  0.32899500  0.00000000  1
  Na  Na16  1  0.50000000  0.67100500  0.00000000  1
  Na  Na17  1  0.00000000  0.50000000  0.32899500  1
  Na  Na18  1  0.00000000  0.50000000  0.67100500  1
  Na  Na19  1  0.32899500  0.00000000  0.50000000  1
  Na  Na20  1  0.67100500  0.00000000  0.50000000  1
  Tl  Tl21  1  0.50000000  0.27530400  0.50000000  1
  Tl  Tl22  1  0.50000000  0.72469600  0.50000000  1
  Tl  Tl23  1  0.50000000  0.50000000  0.27530400  1
  Tl  Tl24  1  0.50000000  0.50000000  0.72469600  1
  Tl  Tl25  1  0.27530400  0.50000000  0.50000000  1
  Tl  Tl26  1  0.72469600  0.50000000  0.50000000  1
  Tl  Tl27  1  0.84416700  0.00000000  0.25428300  1
  Tl  Tl28  1  0.15583300  0.00000000  0.74571700  1
  Tl  Tl29  1  0.15583300  0.00000000  0.25428300  1
  Tl  Tl30  1  0.84416700  0.00000000  0.74571700  1
  Tl  Tl31  1  0.25428300  0.84416700  0.00000000  1
  Tl  Tl32  1  0.74571700  0.15583300  0.00000000  1
  Tl  Tl33  1  0.25428300  0.15583300  0.00000000  1
  Tl  Tl34  1  0.74571700  0.84416700  0.00000000  1
  Tl  Tl35  1  0.00000000  0.25428300  0.84416700  1
  Tl  Tl36  1  0.00000000  0.74571700  0.15583300  1
  Tl  Tl37  1  0.00000000  0.25428300  0.15583300  1
  Tl  Tl38  1  0.00000000  0.74571700  0.84416700  1
  H  H39  1  0.50000000  0.50000000  0.50000000  1
