# generated using pymatgen
data_CsNa2(H5O3)3
_symmetry_space_group_name_H-M   'P 1'
_cell_length_a   6.08883800
_cell_length_b   12.46508300
_cell_length_c   13.91440100
_cell_angle_alpha   90.00000000
_cell_angle_beta   90.00000000
_cell_angle_gamma   90.00000000
_symmetry_Int_Tables_number   1
_chemical_formula_structural   CsNa2(H5O3)3
_chemical_formula_sum   'Cs4 Na8 H60 O36'
_cell_volume   1056.07341275
_cell_formula_units_Z   4
loop_
 _symmetry_equiv_pos_site_id
 _symmetry_equiv_pos_as_xyz
  1  'x, y, z'
loop_
 _atom_site_type_symbol
 _atom_site_label
 _atom_site_symmetry_multiplicity
 _atom_site_fract_x
 _atom_site_fract_y
 _atom_site_fract_z
 _atom_site_occupancy
  Cs  Cs0  1  0.58022600  0.49996000  0.09915000  1
  Cs  Cs1  1  0.41977400  0.99996000  0.90085000  1
  Cs  Cs2  1  0.58022600  0.99996000  0.40085000  1
  Cs  Cs3  1  0.41977400  0.49996000  0.59915000  1
  Na  Na4  1  0.73821700  0.17760900  0.16005800  1
  Na  Na5  1  0.26178300  0.67760900  0.83994200  1
  Na  Na6  1  0.73821700  0.67760900  0.33994200  1
  Na  Na7  1  0.26178300  0.17760900  0.66005800  1
  Na  Na8  1  0.24227400  0.15484700  0.14105100  1
  Na  Na9  1  0.75772600  0.65484700  0.85894900  1
  Na  Na10  1  0.24227400  0.65484700  0.35894900  1
  Na  Na11  1  0.75772600  0.15484700  0.64105100  1
  H  H12  1  0.12185900  0.25323700  0.42913000  1
  H  H13  1  0.87814100  0.75323700  0.57087000  1
  H  H14  1  0.12185900  0.75323700  0.07087000  1
  H  H15  1  0.87814100  0.25323700  0.92913000  1
  H  H16  1  0.12208200  0.39956300  0.31123900  1
  H  H17  1  0.87791800  0.89956300  0.68876100  1
  H  H18  1  0.12208200  0.89956300  0.18876100  1
  H  H19  1  0.87791800  0.39956300  0.81123900  1
  H  H20  1  0.17955300  0.32722100  0.88565700  1
  H  H21  1  0.82044700  0.82722100  0.11434300  1
  H  H22  1  0.17955300  0.82722100  0.61434300  1
  H  H23  1  0.82044700  0.32722100  0.38565700  1
  H  H24  1  0.92157400  0.10546100  0.99143500  1
  H  H25  1  0.07842600  0.60546100  0.00856500  1
  H  H26  1  0.92157400  0.60546100  0.50856500  1
  H  H27  1  0.07842600  0.10546100  0.49143500  1
  H  H28  1  0.94180400  0.99177500  0.04870200  1
  H  H29  1  0.05819600  0.49177500  0.95129800  1
  H  H30  1  0.94180400  0.49177500  0.45129800  1
  H  H31  1  0.05819600  0.99177500  0.54870200  1
  H  H32  1  0.06051200  0.13784300  0.32906700  1
  H  H33  1  0.93948800  0.63784300  0.67093300  1
  H  H34  1  0.06051200  0.63784300  0.17093300  1
  H  H35  1  0.93948800  0.13784300  0.82906700  1
  H  H36  1  0.05553300  0.03298000  0.26483800  1
  H  H37  1  0.94446700  0.53298000  0.73516200  1
  H  H38  1  0.05553300  0.53298000  0.23516200  1
  H  H39  1  0.94446700  0.03298000  0.76483800  1
  H  H40  1  0.07211700  0.35975400  0.16724700  1
  H  H41  1  0.92788300  0.85975400  0.83275300  1
  H  H42  1  0.07211700  0.85975400  0.33275300  1
  H  H43  1  0.92788300  0.35975400  0.66724700  1
  H  H44  1  0.04780500  0.33592800  0.05401600  1
  H  H45  1  0.95219500  0.83592800  0.94598400  1
  H  H46  1  0.04780500  0.83592800  0.44598400  1
  H  H47  1  0.95219500  0.33592800  0.55401600  1
  H  H48  1  0.58986800  0.22783000  0.98937300  1
  H  H49  1  0.41013200  0.72783000  0.01062700  1
  H  H50  1  0.58986800  0.72783000  0.51062700  1
  H  H51  1  0.41013200  0.22783000  0.48937300  1
  H  H52  1  0.36650600  0.29518100  0.00066300  1
  H  H53  1  0.63349400  0.79518100  0.99933700  1
  H  H54  1  0.36650600  0.79518100  0.49933700  1
  H  H55  1  0.63349400  0.29518100  0.50066300  1
  H  H56  1  0.41604100  0.97447300  0.17975400  1
  H  H57  1  0.58395900  0.47447300  0.82024600  1
  H  H58  1  0.41604100  0.47447300  0.32024600  1
  H  H59  1  0.58395900  0.97447300  0.67975400  1
  H  H60  1  0.63178300  0.96157400  0.11353600  1
  H  H61  1  0.36821700  0.46157400  0.88646400  1
  H  H62  1  0.63178300  0.46157400  0.38646400  1
  H  H63  1  0.36821700  0.96157400  0.61353600  1
  H  H64  1  0.38269900  0.22022200  0.32541400  1
  H  H65  1  0.61730100  0.72022200  0.67458600  1
  H  H66  1  0.38269900  0.72022200  0.17458600  1
  H  H67  1  0.61730100  0.22022200  0.82541400  1
  H  H68  1  0.38772100  0.31364800  0.25432600  1
  H  H69  1  0.61227900  0.81364800  0.74567400  1
  H  H70  1  0.38772100  0.81364800  0.24567400  1
  H  H71  1  0.61227900  0.31364800  0.75432600  1
  O  O72  1  0.21265300  0.18966600  0.41792600  1
  O  O73  1  0.78734700  0.68966600  0.58207400  1
  O  O74  1  0.21265300  0.68966600  0.08207400  1
  O  O75  1  0.78734700  0.18966600  0.91792600  1
  O  O76  1  0.20916700  0.42321300  0.25614000  1
  O  O77  1  0.79083300  0.92321300  0.74386000  1
  O  O78  1  0.20916700  0.92321300  0.24386000  1
  O  O79  1  0.79083300  0.42321300  0.75614000  1
  O  O80  1  0.18115200  0.37164700  0.94349200  1
  O  O81  1  0.81884800  0.87164700  0.05650800  1
  O  O82  1  0.18115200  0.87164700  0.55650800  1
  O  O83  1  0.81884800  0.37164700  0.44349200  1
  O  O84  1  0.00777600  0.06506400  0.04147300  1
  O  O85  1  0.99222400  0.56506400  0.95852700  1
  O  O86  1  0.00777600  0.56506400  0.45852700  1
  O  O87  1  0.99222400  0.06506400  0.54147300  1
  O  O88  1  0.97975800  0.10426500  0.27348500  1
  O  O89  1  0.02024200  0.60426500  0.72651500  1
  O  O90  1  0.97975800  0.60426500  0.22651500  1
  O  O91  1  0.02024200  0.10426500  0.77348500  1
  O  O92  1  0.99039500  0.31513800  0.11842700  1
  O  O93  1  0.00960500  0.81513800  0.88157300  1
  O  O94  1  0.99039500  0.81513800  0.38157300  1
  O  O95  1  0.00960500  0.31513800  0.61842700  1
  O  O96  1  0.47377900  0.24937700  0.03772300  1
  O  O97  1  0.52622100  0.74937700  0.96227700  1
  O  O98  1  0.47377900  0.74937700  0.46227700  1
  O  O99  1  0.52622100  0.24937700  0.53772300  1
  O  O100  1  0.53084500  0.01583600  0.14274600  1
  O  O101  1  0.46915500  0.51583600  0.85725400  1
  O  O102  1  0.53084500  0.51583600  0.35725400  1
  O  O103  1  0.46915500  0.01583600  0.64274600  1
  O  O104  1  0.46216000  0.24298600  0.26523400  1
  O  O105  1  0.53784000  0.74298600  0.73476600  1
  O  O106  1  0.46216000  0.74298600  0.23476600  1
  O  O107  1  0.53784000  0.24298600  0.76523400  1
