# generated using pymatgen
data_Mg3B11(H3O8)3
_symmetry_space_group_name_H-M   'P 1'
_cell_length_a   9.84336000
_cell_length_b   10.33351600
_cell_length_c   17.37309000
_cell_angle_alpha   90.00000000
_cell_angle_beta   90.00000000
_cell_angle_gamma   90.00000000
_symmetry_Int_Tables_number   1
_chemical_formula_structural   Mg3B11(H3O8)3
_chemical_formula_sum   'Mg12 B44 H36 O96'
_cell_volume   1767.13022263
_cell_formula_units_Z   4
loop_
 _symmetry_equiv_pos_site_id
 _symmetry_equiv_pos_as_xyz
  1  'x, y, z'
loop_
 _atom_site_type_symbol
 _atom_site_label
 _atom_site_symmetry_multiplicity
 _atom_site_fract_x
 _atom_site_fract_y
 _atom_site_fract_z
 _atom_site_occupancy
  Mg  Mg0  1  0.52084700  0.75000000  0.00000000  1
  Mg  Mg1  1  0.97915300  0.25000000  0.50000000  1
  Mg  Mg2  1  0.47915300  0.25000000  0.00000000  1
  Mg  Mg3  1  0.02084700  0.75000000  0.50000000  1
  Mg  Mg4  1  0.93360700  0.92926700  0.17407800  1
  Mg  Mg5  1  0.56639300  0.42926700  0.32592200  1
  Mg  Mg6  1  0.56639300  0.07073300  0.67407800  1
  Mg  Mg7  1  0.93360700  0.57073300  0.82592200  1
  Mg  Mg8  1  0.06639300  0.07073300  0.82592200  1
  Mg  Mg9  1  0.43360700  0.57073300  0.67407800  1
  Mg  Mg10  1  0.43360700  0.92926700  0.32592200  1
  Mg  Mg11  1  0.06639300  0.42926700  0.17407800  1
  B  B12  1  0.87675500  0.75000000  0.00000000  1
  B  B13  1  0.62324500  0.25000000  0.50000000  1
  B  B14  1  0.12324500  0.25000000  0.00000000  1
  B  B15  1  0.37675500  0.75000000  0.50000000  1
  B  B16  1  0.84065600  0.55612700  0.09467300  1
  B  B17  1  0.65934400  0.05612700  0.40532700  1
  B  B18  1  0.65934400  0.44387300  0.59467300  1
  B  B19  1  0.84065600  0.94387300  0.90532700  1
  B  B20  1  0.15934400  0.44387300  0.90532700  1
  B  B21  1  0.34065600  0.94387300  0.59467300  1
  B  B22  1  0.34065600  0.55612700  0.40532700  1
  B  B23  1  0.15934400  0.05612700  0.09467300  1
  B  B24  1  0.04494200  0.71736600  0.10267500  1
  B  B25  1  0.45505800  0.21736600  0.39732500  1
  B  B26  1  0.45505800  0.28263400  0.60267500  1
  B  B27  1  0.04494200  0.78263400  0.89732500  1
  B  B28  1  0.95505800  0.28263400  0.89732500  1
  B  B29  1  0.54494200  0.78263400  0.60267500  1
  B  B30  1  0.54494200  0.71736600  0.39732500  1
  B  B31  1  0.95505800  0.21736600  0.10267500  1
  B  B32  1  0.28840300  0.64882300  0.09978100  1
  B  B33  1  0.21159700  0.14882300  0.40021900  1
  B  B34  1  0.21159700  0.35117700  0.59978100  1
  B  B35  1  0.28840300  0.85117700  0.90021900  1
  B  B36  1  0.71159700  0.35117700  0.90021900  1
  B  B37  1  0.78840300  0.85117700  0.59978100  1
  B  B38  1  0.78840300  0.64882300  0.40021900  1
  B  B39  1  0.71159700  0.14882300  0.09978100  1
  B  B40  1  0.22707000  0.84289100  0.17108300  1
  B  B41  1  0.27293000  0.34289100  0.32891700  1
  B  B42  1  0.27293000  0.15710900  0.67108300  1
  B  B43  1  0.22707000  0.65710900  0.82891700  1
  B  B44  1  0.77293000  0.15710900  0.82891700  1
  B  B45  1  0.72707000  0.65710900  0.67108300  1
  B  B46  1  0.72707000  0.84289100  0.32891700  1
  B  B47  1  0.77293000  0.34289100  0.17108300  1
  B  B48  1  0.67771500  0.96739200  0.20295200  1
  B  B49  1  0.82228500  0.46739200  0.29704800  1
  B  B50  1  0.82228500  0.03260800  0.70295200  1
  B  B51  1  0.67771500  0.53260800  0.79704800  1
  B  B52  1  0.32228500  0.03260800  0.79704800  1
  B  B53  1  0.17771500  0.53260800  0.70295200  1
  B  B54  1  0.17771500  0.96739200  0.29704800  1
  B  B55  1  0.32228500  0.46739200  0.20295200  1
  H  H56  1  0.51535200  0.50186700  0.17064300  1
  H  H57  1  0.98464800  0.00186700  0.32935700  1
  H  H58  1  0.98464800  0.49813300  0.67064300  1
  H  H59  1  0.51535200  0.99813300  0.82935700  1
  H  H60  1  0.48464800  0.49813300  0.82935700  1
  H  H61  1  0.01535200  0.99813300  0.67064300  1
  H  H62  1  0.01535200  0.50186700  0.32935700  1
  H  H63  1  0.48464800  0.00186700  0.17064300  1
  H  H64  1  0.17153200  0.75000000  0.00000000  1
  H  H65  1  0.32846800  0.25000000  0.50000000  1
  H  H66  1  0.82846800  0.25000000  0.00000000  1
  H  H67  1  0.67153200  0.75000000  0.50000000  1
  H  H68  1  0.37112000  0.53655100  0.01776400  1
  H  H69  1  0.12888000  0.03655100  0.48223600  1
  H  H70  1  0.12888000  0.46344900  0.51776400  1
  H  H71  1  0.37112000  0.96344900  0.98223600  1
  H  H72  1  0.62888000  0.46344900  0.98223600  1
  H  H73  1  0.87112000  0.96344900  0.51776400  1
  H  H74  1  0.87112000  0.53655100  0.48223600  1
  H  H75  1  0.62888000  0.03655100  0.01776400  1
  H  H76  1  0.68014700  0.16660200  0.26611900  1
  H  H77  1  0.81985300  0.66660200  0.23388100  1
  H  H78  1  0.81985300  0.83339800  0.76611900  1
  H  H79  1  0.68014700  0.33339800  0.73388100  1
  H  H80  1  0.31985300  0.83339800  0.73388100  1
  H  H81  1  0.18014700  0.33339800  0.76611900  1
  H  H82  1  0.18014700  0.16660200  0.23388100  1
  H  H83  1  0.31985300  0.66660200  0.26611900  1
  H  H84  1  0.26298800  0.63974700  0.28997700  1
  H  H85  1  0.23701200  0.13974700  0.21002300  1
  H  H86  1  0.23701200  0.36025300  0.78997700  1
  H  H87  1  0.26298800  0.86025300  0.71002300  1
  H  H88  1  0.73701200  0.36025300  0.71002300  1
  H  H89  1  0.76298800  0.86025300  0.78997700  1
  H  H90  1  0.76298800  0.63974700  0.21002300  1
  H  H91  1  0.73701200  0.13974700  0.28997700  1
  O  O92  1  0.94859500  0.80318700  0.06326900  1
  O  O93  1  0.55140500  0.30318700  0.43673100  1
  O  O94  1  0.55140500  0.19681300  0.56326900  1
  O  O95  1  0.94859500  0.69681300  0.93673100  1
  O  O96  1  0.05140500  0.19681300  0.93673100  1
  O  O97  1  0.44859500  0.69681300  0.56326900  1
  O  O98  1  0.44859500  0.80318700  0.43673100  1
  O  O99  1  0.05140500  0.30318700  0.06326900  1
  O  O100  1  0.78415100  0.64841700  0.03809200  1
  O  O101  1  0.71584900  0.14841700  0.46190800  1
  O  O102  1  0.71584900  0.35158300  0.53809200  1
  O  O103  1  0.78415100  0.85158300  0.96190800  1
  O  O104  1  0.21584900  0.35158300  0.96190800  1
  O  O105  1  0.28415100  0.85158300  0.53809200  1
  O  O106  1  0.28415100  0.64841700  0.46190800  1
  O  O107  1  0.21584900  0.14841700  0.03809200  1
  O  O108  1  0.76295600  0.45852700  0.11582600  1
  O  O109  1  0.73704400  0.95852700  0.38417400  1
  O  O110  1  0.73704400  0.54147300  0.61582600  1
  O  O111  1  0.76295600  0.04147300  0.88417400  1
  O  O112  1  0.23704400  0.54147300  0.88417400  1
  O  O113  1  0.26295600  0.04147300  0.61582600  1
  O  O114  1  0.26295600  0.45852700  0.38417400  1
  O  O115  1  0.23704400  0.95852700  0.11582600  1
  O  O116  1  0.96912400  0.58716100  0.12008200  1
  O  O117  1  0.53087600  0.08716100  0.37991800  1
  O  O118  1  0.53087600  0.41283900  0.62008200  1
  O  O119  1  0.96912400  0.91283900  0.87991800  1
  O  O120  1  0.03087600  0.41283900  0.87991800  1
  O  O121  1  0.46912400  0.91283900  0.62008200  1
  O  O122  1  0.46912400  0.58716100  0.37991800  1
  O  O123  1  0.03087600  0.08716100  0.12008200  1
  O  O124  1  0.08510300  0.78880900  0.17169600  1
  O  O125  1  0.41489700  0.28880900  0.32830400  1
  O  O126  1  0.41489700  0.21119100  0.67169600  1
  O  O127  1  0.08510300  0.71119100  0.82830400  1
  O  O128  1  0.91489700  0.21119100  0.82830400  1
  O  O129  1  0.58510300  0.71119100  0.67169600  1
  O  O130  1  0.58510300  0.78880900  0.32830400  1
  O  O131  1  0.91489700  0.28880900  0.17169600  1
  O  O132  1  0.16164300  0.68069400  0.05576800  1
  O  O133  1  0.33835700  0.18069400  0.44423200  1
  O  O134  1  0.33835700  0.31930600  0.55576800  1
  O  O135  1  0.16164300  0.81930600  0.94423200  1
  O  O136  1  0.83835700  0.31930600  0.94423200  1
  O  O137  1  0.66164300  0.81930600  0.55576800  1
  O  O138  1  0.66164300  0.68069400  0.44423200  1
  O  O139  1  0.83835700  0.18069400  0.05576800  1
  O  O140  1  0.39702400  0.61944400  0.04543200  1
  O  O141  1  0.10297600  0.11944400  0.45456800  1
  O  O142  1  0.10297600  0.38055600  0.54543200  1
  O  O143  1  0.39702400  0.88055600  0.95456800  1
  O  O144  1  0.60297600  0.38055600  0.95456800  1
  O  O145  1  0.89702400  0.88055600  0.54543200  1
  O  O146  1  0.89702400  0.61944400  0.45456800  1
  O  O147  1  0.60297600  0.11944400  0.04543200  1
  O  O148  1  0.25086900  0.52591900  0.14533100  1
  O  O149  1  0.24913100  0.02591900  0.35466900  1
  O  O150  1  0.24913100  0.47408100  0.64533100  1
  O  O151  1  0.25086900  0.97408100  0.85466900  1
  O  O152  1  0.74913100  0.47408100  0.85466900  1
  O  O153  1  0.75086900  0.97408100  0.64533100  1
  O  O154  1  0.75086900  0.52591900  0.35466900  1
  O  O155  1  0.74913100  0.02591900  0.14533100  1
  O  O156  1  0.32804500  0.75168500  0.14925300  1
  O  O157  1  0.17195500  0.25168500  0.35074700  1
  O  O158  1  0.17195500  0.24831500  0.64925300  1
  O  O159  1  0.32804500  0.74831500  0.85074700  1
  O  O160  1  0.67195500  0.24831500  0.85074700  1
  O  O161  1  0.82804500  0.74831500  0.64925300  1
  O  O162  1  0.82804500  0.75168500  0.35074700  1
  O  O163  1  0.67195500  0.25168500  0.14925300  1
  O  O164  1  0.25995200  0.89577700  0.24972600  1
  O  O165  1  0.24004800  0.39577700  0.25027400  1
  O  O166  1  0.24004800  0.10422300  0.74972600  1
  O  O167  1  0.25995200  0.60422300  0.75027400  1
  O  O168  1  0.74004800  0.10422300  0.75027400  1
  O  O169  1  0.75995200  0.60422300  0.74972600  1
  O  O170  1  0.75995200  0.89577700  0.25027400  1
  O  O171  1  0.74004800  0.39577700  0.24972600  1
  O  O172  1  0.03710900  0.97031800  0.28586100  1
  O  O173  1  0.46289100  0.47031800  0.21413900  1
  O  O174  1  0.46289100  0.02968200  0.78586100  1
  O  O175  1  0.03710900  0.52968200  0.71413900  1
  O  O176  1  0.96289100  0.02968200  0.71413900  1
  O  O177  1  0.53710900  0.52968200  0.78586100  1
  O  O178  1  0.53710900  0.97031800  0.21413900  1
  O  O179  1  0.96289100  0.47031800  0.28586100  1
  O  O180  1  0.16418400  0.88922300  0.49335300  1
  O  O181  1  0.33581600  0.38922300  0.00664700  1
  O  O182  1  0.33581600  0.11077700  0.99335300  1
  O  O183  1  0.16418400  0.61077700  0.50664700  1
  O  O184  1  0.83581600  0.11077700  0.50664700  1
  O  O185  1  0.66418400  0.61077700  0.99335300  1
  O  O186  1  0.66418400  0.88922300  0.00664700  1
  O  O187  1  0.83581600  0.38922300  0.49335300  1
