# generated using pymatgen
data_CuSnO6
_symmetry_space_group_name_H-M   'P 1'
_cell_length_a   8.23815153
_cell_length_b   8.11037675
_cell_length_c   6.40089226
_cell_angle_alpha   89.98888422
_cell_angle_beta   89.91707178
_cell_angle_gamma   90.44083051
_symmetry_Int_Tables_number   1
_chemical_formula_structural   CuSnO6
_chemical_formula_sum   'Cu4 Sn4 O24'
_cell_volume   427.65938144
_cell_formula_units_Z   4
loop_
 _symmetry_equiv_pos_site_id
 _symmetry_equiv_pos_as_xyz
  1  'x, y, z'
loop_
 _atom_site_type_symbol
 _atom_site_label
 _atom_site_symmetry_multiplicity
 _atom_site_fract_x
 _atom_site_fract_y
 _atom_site_fract_z
 _atom_site_occupancy
  Cu  Cu0  1  0.99715700  0.99908500  0.00046700  1
  Cu  Cu1  1  0.49893800  0.00031100  0.49961800  1
  Cu  Cu2  1  0.00215500  0.49745400  0.49932200  1
  Cu  Cu3  1  0.50151400  0.50058000  0.99951600  1
  Sn  Sn4  1  0.50071900  0.49951500  0.49930900  1
  Sn  Sn5  1  0.00292100  0.49908400  0.00025200  1
  Sn  Sn6  1  0.49860900  0.00275000  0.99915800  1
  Sn  Sn7  1  0.99784700  0.99679800  0.50053800  1
  O  O8  1  0.24405200  0.01739100  0.14271500  1
  O  O9  1  0.74458900  0.98166700  0.64210200  1
  O  O10  1  0.75620800  0.52660300  0.64288400  1
  O  O11  1  0.25606200  0.47990700  0.14250600  1
  O  O12  1  0.75193400  0.98363100  0.85853600  1
  O  O13  1  0.25173600  0.01867600  0.35681800  1
  O  O14  1  0.24789500  0.47796100  0.35742200  1
  O  O15  1  0.74816800  0.52473900  0.85649100  1
  O  O16  1  0.51926300  0.74721400  0.14101200  1
  O  O17  1  0.49058600  0.24671700  0.64164800  1
  O  O18  1  0.01658800  0.25240600  0.64134600  1
  O  O19  1  0.98548400  0.75289100  0.14201400  1
  O  O20  1  0.47697700  0.25641500  0.85941300  1
  O  O21  1  0.51920200  0.75589800  0.35914700  1
  O  O22  1  0.97366100  0.74262700  0.35983300  1
  O  O23  1  0.01482500  0.24366300  0.85867300  1
  O  O24  1  0.08170800  0.91306600  0.76456600  1
  O  O25  1  0.58270900  0.08714300  0.26302100  1
  O  O26  1  0.91771200  0.41071000  0.26245700  1
  O  O27  1  0.41838500  0.58706500  0.76277500  1
  O  O28  1  0.91354800  0.08332900  0.23801800  1
  O  O29  1  0.41334700  0.91543500  0.73694600  1
  O  O30  1  0.08826400  0.58251400  0.73555300  1
  O  O31  1  0.58723400  0.41675600  0.23592500  1
