# generated using pymatgen
data_H4NF
_symmetry_space_group_name_H-M   'P 1'
_cell_length_a   7.38358623
_cell_length_b   7.38358623
_cell_length_c   7.38358649
_cell_angle_alpha   70.83959070
_cell_angle_beta   70.83959070
_cell_angle_gamma   70.83959806
_symmetry_Int_Tables_number   1
_chemical_formula_structural   H4NF
_chemical_formula_sum   'H32 N8 F8'
_cell_volume   348.03210604
_cell_formula_units_Z   8
loop_
 _symmetry_equiv_pos_site_id
 _symmetry_equiv_pos_as_xyz
  1  'x, y, z'
loop_
 _atom_site_type_symbol
 _atom_site_label
 _atom_site_symmetry_multiplicity
 _atom_site_fract_x
 _atom_site_fract_y
 _atom_site_fract_z
 _atom_site_occupancy
  H  H0  1  0.80425800  0.80425800  0.80425800  1
  H  H1  1  0.30425800  0.30425800  0.30425800  1
  H  H2  1  0.62484900  0.84472200  0.68227900  1
  H  H3  1  0.68227900  0.62484900  0.84472200  1
  H  H4  1  0.84472200  0.68227900  0.62484900  1
  H  H5  1  0.18227900  0.34472200  0.12484900  1
  H  H6  1  0.12484900  0.18227900  0.34472200  1
  H  H7  1  0.34472200  0.12484900  0.18227900  1
  H  H8  1  0.65657100  0.23978400  0.14657400  1
  H  H9  1  0.14657400  0.65657100  0.23978400  1
  H  H10  1  0.23978400  0.14657400  0.65657100  1
  H  H11  1  0.64657400  0.73978400  0.15657100  1
  H  H12  1  0.15657100  0.64657400  0.73978400  1
  H  H13  1  0.73978400  0.15657100  0.64657400  1
  H  H14  1  0.60713600  0.04328700  0.34023800  1
  H  H15  1  0.34023800  0.60713600  0.04328700  1
  H  H16  1  0.04328700  0.34023800  0.60713600  1
  H  H17  1  0.84023800  0.54328700  0.10713600  1
  H  H18  1  0.10713600  0.84023800  0.54328700  1
  H  H19  1  0.54328700  0.10713600  0.84023800  1
  H  H20  1  0.78812500  0.01154800  0.12216100  1
  H  H21  1  0.12216100  0.78812500  0.01154800  1
  H  H22  1  0.01154800  0.12216100  0.78812500  1
  H  H23  1  0.62216100  0.51154800  0.28812500  1
  H  H24  1  0.28812500  0.62216100  0.51154800  1
  H  H25  1  0.51154800  0.28812500  0.62216100  1
  H  H26  1  0.81966200  0.10163800  0.29609300  1
  H  H27  1  0.29609300  0.81966200  0.10163800  1
  H  H28  1  0.10163800  0.29609300  0.81966200  1
  H  H29  1  0.79609300  0.60163800  0.31966200  1
  H  H30  1  0.31966200  0.79609300  0.60163800  1
  H  H31  1  0.60163800  0.31966200  0.79609300  1
  N  N32  1  0.74119100  0.74119100  0.74119100  1
  N  N33  1  0.24119100  0.24119100  0.24119100  1
  N  N34  1  0.71838900  0.09865500  0.22556300  1
  N  N35  1  0.22556300  0.71838900  0.09865500  1
  N  N36  1  0.09865500  0.22556300  0.71838900  1
  N  N37  1  0.72556300  0.59865500  0.21838900  1
  N  N38  1  0.21838900  0.72556300  0.59865500  1
  N  N39  1  0.59865500  0.21838900  0.72556300  1
  F  F40  1  0.91962400  0.91962400  0.91962400  1
  F  F41  1  0.41962400  0.41962400  0.41962400  1
  F  F42  1  0.44500200  0.96556300  0.56837100  1
  F  F43  1  0.56837100  0.44500200  0.96556300  1
  F  F44  1  0.96556300  0.56837100  0.44500200  1
  F  F45  1  0.06837100  0.46556300  0.94500200  1
  F  F46  1  0.94500200  0.06837100  0.46556300  1
  F  F47  1  0.46556300  0.94500200  0.06837100  1
