# generated using pymatgen
data_Er3NF10
_symmetry_space_group_name_H-M   'P 1'
_cell_length_a   8.12643323
_cell_length_b   8.12643323
_cell_length_c   13.37171700
_cell_angle_alpha   90.00000000
_cell_angle_beta   90.00000000
_cell_angle_gamma   119.92402119
_symmetry_Int_Tables_number   1
_chemical_formula_structural   Er3NF10
_chemical_formula_sum   'Er12 N4 F40'
_cell_volume   765.33177377
_cell_formula_units_Z   4
loop_
 _symmetry_equiv_pos_site_id
 _symmetry_equiv_pos_as_xyz
  1  'x, y, z'
loop_
 _atom_site_type_symbol
 _atom_site_label
 _atom_site_symmetry_multiplicity
 _atom_site_fract_x
 _atom_site_fract_y
 _atom_site_fract_z
 _atom_site_occupancy
  Er  Er0  1  0.50478900  0.01515700  0.50015600  1
  Er  Er1  1  0.50526100  0.49473900  0.49926500  1
  Er  Er2  1  0.98484300  0.49521100  0.50015600  1
  Er  Er3  1  0.49521100  0.98484300  0.00015600  1
  Er  Er4  1  0.49473900  0.50526100  0.99926500  1
  Er  Er5  1  0.01515700  0.50478900  0.00015600  1
  Er  Er6  1  0.82504900  0.17495100  0.25947500  1
  Er  Er7  1  0.34847300  0.17700800  0.26068300  1
  Er  Er8  1  0.82299200  0.65152700  0.26068300  1
  Er  Er9  1  0.17495100  0.82504900  0.75947500  1
  Er  Er10  1  0.65152700  0.82299200  0.76068300  1
  Er  Er11  1  0.17700800  0.34847300  0.76068300  1
  N  N12  1  0.99407100  0.00592900  0.47919900  1
  N  N13  1  0.00592900  0.99407100  0.97919900  1
  N  N14  1  0.33130100  0.66869900  0.25798800  1
  N  N15  1  0.66869900  0.33130100  0.75798800  1
  F  F16  1  0.78237400  0.89362600  0.29179500  1
  F  F17  1  0.10637400  0.21762600  0.29179500  1
  F  F18  1  0.10825800  0.89174200  0.29247700  1
  F  F19  1  0.21762600  0.10637400  0.79179500  1
  F  F20  1  0.89362600  0.78237400  0.79179500  1
  F  F21  1  0.89174200  0.10825800  0.79247700  1
  F  F22  1  0.55225600  0.77901400  0.46612900  1
  F  F23  1  0.22098600  0.44774400  0.46612900  1
  F  F24  1  0.22107400  0.77892600  0.46588900  1
  F  F25  1  0.44774400  0.22098600  0.96612900  1
  F  F26  1  0.77901400  0.55225600  0.96612900  1
  F  F27  1  0.77892600  0.22107400  0.96588900  1
  F  F28  1  0.52226600  0.04435300  0.32591300  1
  F  F29  1  0.51798900  0.48201100  0.32512800  1
  F  F30  1  0.95564700  0.47773400  0.32591300  1
  F  F31  1  0.47773400  0.95564700  0.82591300  1
  F  F32  1  0.48201100  0.51798900  0.82512800  1
  F  F33  1  0.04435300  0.52226600  0.82591300  1
  F  F34  1  0.66469600  0.00934900  0.13051900  1
  F  F35  1  0.34253200  0.33897800  0.13075000  1
  F  F36  1  0.99314300  0.66097300  0.13073600  1
  F  F37  1  0.66102200  0.65746800  0.13075000  1
  F  F38  1  0.33902700  0.00685700  0.13073600  1
  F  F39  1  0.99065100  0.33530400  0.13051900  1
  F  F40  1  0.33530400  0.99065100  0.63051900  1
  F  F41  1  0.65746800  0.66102200  0.63075000  1
  F  F42  1  0.00685700  0.33902700  0.63073600  1
  F  F43  1  0.33897800  0.34253200  0.63075000  1
  F  F44  1  0.66097300  0.99314300  0.63073600  1
  F  F45  1  0.00934900  0.66469600  0.63051900  1
  F  F46  1  0.66607600  0.33392400  0.54222700  1
  F  F47  1  0.33392400  0.66607600  0.04222700  1
  F  F48  1  0.66517400  0.33482600  0.21098200  1
  F  F49  1  0.33482600  0.66517400  0.71098200  1
  F  F50  1  0.81867500  0.18132500  0.43723900  1
  F  F51  1  0.36897700  0.18765400  0.43565700  1
  F  F52  1  0.81234600  0.63102300  0.43565700  1
  F  F53  1  0.18132500  0.81867500  0.93723900  1
  F  F54  1  0.63102300  0.81234600  0.93565700  1
  F  F55  1  0.18765400  0.36897700  0.93565700  1
