# generated using pymatgen
data_H13Se2N3O8
_symmetry_space_group_name_H-M   'P 1'
_cell_length_a   6.89675890
_cell_length_b   6.89675890
_cell_length_c   16.84752183
_cell_angle_alpha   82.80304763
_cell_angle_beta   82.80304763
_cell_angle_gamma   54.98149648
_symmetry_Int_Tables_number   1
_chemical_formula_structural   H13Se2N3O8
_chemical_formula_sum   'H26 Se4 N6 O16'
_cell_volume   649.70708074
_cell_formula_units_Z   2
loop_
 _symmetry_equiv_pos_site_id
 _symmetry_equiv_pos_as_xyz
  1  'x, y, z'
loop_
 _atom_site_type_symbol
 _atom_site_label
 _atom_site_symmetry_multiplicity
 _atom_site_fract_x
 _atom_site_fract_y
 _atom_site_fract_z
 _atom_site_occupancy
  H  H0  1  0.10044800  0.37911100  0.64644300  1
  H  H1  1  0.37911100  0.10044800  0.14644300  1
  H  H2  1  0.03108800  0.61621700  0.59808600  1
  H  H3  1  0.61621700  0.03108800  0.09808600  1
  H  H4  1  0.98629100  0.50528000  0.47815800  1
  H  H5  1  0.50528000  0.98629100  0.97815800  1
  H  H6  1  0.57015900  0.71403600  0.43963400  1
  H  H7  1  0.71403600  0.57015900  0.93963400  1
  H  H8  1  0.38985700  0.02068600  0.00097100  1
  H  H9  1  0.02068600  0.38985700  0.50097100  1
  H  H10  1  0.29393900  0.57300700  0.36204800  1
  H  H11  1  0.57300700  0.29393900  0.86204800  1
  H  H12  1  0.74950800  0.95875700  0.32400900  1
  H  H13  1  0.95875700  0.74950800  0.82400900  1
  H  H14  1  0.24389600  0.15396700  0.37812000  1
  H  H15  1  0.15396700  0.24389600  0.87812000  1
  H  H16  1  0.54311600  0.24444900  0.74279900  1
  H  H17  1  0.24444900  0.54311600  0.24279900  1
  H  H18  1  0.77022300  0.17469100  0.67038400  1
  H  H19  1  0.17469100  0.77022300  0.17038400  1
  H  H20  1  0.61804000  0.04070000  0.67423900  1
  H  H21  1  0.04070000  0.61804000  0.17423900  1
  H  H22  1  0.47428300  0.32721700  0.64767200  1
  H  H23  1  0.32721700  0.47428300  0.14767200  1
  H  H24  1  0.61365700  0.92382200  0.54928200  1
  H  H25  1  0.92382200  0.61365700  0.04928200  1
  Se  Se26  1  0.54891400  0.17689100  0.42751200  1
  Se  Se27  1  0.17689100  0.54891400  0.92751200  1
  Se  Se28  1  0.29864700  0.86956200  0.68749800  1
  Se  Se29  1  0.86956200  0.29864700  0.18749800  1
  N  N30  1  0.93277200  0.34424600  0.31155300  1
  N  N31  1  0.34424600  0.93277200  0.81155300  1
  N  N32  1  0.41827000  0.02182600  0.38922700  1
  N  N33  1  0.02182600  0.41827000  0.88922700  1
  N  N34  1  0.60747100  0.19463000  0.68339200  1
  N  N35  1  0.19463000  0.60747100  0.18339200  1
  O  O36  1  0.71948300  0.92644600  0.50290400  1
  O  O37  1  0.92644600  0.71948300  0.00290500  1
  O  O38  1  0.77255000  0.52860700  0.33643400  1
  O  O39  1  0.52860700  0.77255000  0.83643400  1
  O  O40  1  0.80117700  0.02818000  0.35698600  1
  O  O41  1  0.02818000  0.80117700  0.85698600  1
  O  O42  1  0.35341700  0.42619800  0.33713700  1
  O  O43  1  0.42619800  0.35341700  0.83713700  1
  O  O44  1  0.40987900  0.85934300  0.44558700  1
  O  O45  1  0.85934300  0.40987900  0.94558700  1
  O  O46  1  0.14543200  0.49433600  0.63492500  1
  O  O47  1  0.49433600  0.14543200  0.13492500  1
  O  O48  1  0.54443300  0.85388200  0.64517700  1
  O  O49  1  0.85388200  0.54443300  0.14517700  1
  O  O50  1  0.05492300  0.14322100  0.66425400  1
  O  O51  1  0.14322100  0.05492300  0.16425400  1
