# generated using pymatgen
data_SbH24C6(NCl2)3
_symmetry_space_group_name_H-M   'P 1'
_cell_length_a   9.58707900
_cell_length_b   10.24301687
_cell_length_c   11.24403078
_cell_angle_alpha   64.92450276
_cell_angle_beta   77.73886327
_cell_angle_gamma   77.12544715
_symmetry_Int_Tables_number   1
_chemical_formula_structural   SbH24C6(NCl2)3
_chemical_formula_sum   'Sb2 H48 C12 N6 Cl12'
_cell_volume   966.22485988
_cell_formula_units_Z   2
loop_
 _symmetry_equiv_pos_site_id
 _symmetry_equiv_pos_as_xyz
  1  'x, y, z'
loop_
 _atom_site_type_symbol
 _atom_site_label
 _atom_site_symmetry_multiplicity
 _atom_site_fract_x
 _atom_site_fract_y
 _atom_site_fract_z
 _atom_site_occupancy
  Sb  Sb0  1  0.17311100  0.48569400  0.34888900  1
  Sb  Sb1  1  0.82688900  0.51430600  0.65111100  1
  H  H2  1  0.70167100  0.34816100  0.35705100  1
  H  H3  1  0.29832900  0.65183900  0.64294900  1
  H  H4  1  0.57452700  0.49754100  0.32891500  1
  H  H5  1  0.42547300  0.50245900  0.67108500  1
  H  H6  1  0.74804700  0.51147500  0.32033200  1
  H  H7  1  0.25195300  0.48852500  0.67966800  1
  H  H8  1  0.12071100  0.87306400  0.42252300  1
  H  H9  1  0.87928900  0.12693600  0.57747700  1
  H  H10  1  0.00146600  0.83860800  0.35139900  1
  H  H11  1  0.99853400  0.16139200  0.64860100  1
  H  H12  1  0.96221000  0.98431900  0.38879100  1
  H  H13  1  0.03779000  0.01568100  0.61120900  1
  H  H14  1  0.52967600  0.11411400  0.57869000  1
  H  H15  1  0.47032400  0.88588600  0.42131000  1
  H  H16  1  0.35958400  0.16774300  0.64267200  1
  H  H17  1  0.64041600  0.83225700  0.35732800  1
  H  H18  1  0.39826500  0.01011700  0.62414300  1
  H  H19  1  0.60173500  0.98988300  0.37585700  1
  H  H20  1  0.82106500  0.44120000  0.13603200  1
  H  H21  1  0.17893500  0.55880000  0.86396800  1
  H  H22  1  0.64058500  0.41479500  0.14610600  1
  H  H23  1  0.35941500  0.58520500  0.85389400  1
  H  H24  1  0.70013700  0.64667000  0.96080100  1
  H  H25  1  0.29986300  0.35333000  0.03919900  1
  H  H26  1  0.73188300  0.71234500  0.07453600  1
  H  H27  1  0.26811700  0.28765500  0.92546400  1
  H  H28  1  0.55537800  0.68166100  0.07751400  1
  H  H29  1  0.44462200  0.31833900  0.92248600  1
  H  H30  1  0.17114900  0.08530700  0.23650100  1
  H  H31  1  0.82885100  0.91469300  0.76349900  1
  H  H32  1  0.20207800  0.93344500  0.18998500  1
  H  H33  1  0.79792200  0.06655500  0.81001500  1
  H  H34  1  0.06387500  0.14888800  0.02451600  1
  H  H35  1  0.93612500  0.85111200  0.97548400  1
  H  H36  1  0.92692900  0.16369400  0.15366300  1
  H  H37  1  0.07307100  0.83630600  0.84633700  1
  H  H38  1  0.95838400  0.00717600  0.11495400  1
  H  H39  1  0.04161600  0.99282400  0.88504600  1
  H  H40  1  0.57562400  0.91672500  0.77949500  1
  H  H41  1  0.42437600  0.08327500  0.22050500  1
  H  H42  1  0.53176700  0.08601100  0.79882000  1
  H  H43  1  0.46823300  0.91398900  0.20118000  1
  H  H44  1  0.40813500  0.90239700  0.98924200  1
  H  H45  1  0.59186500  0.09760300  0.01075800  1
  H  H46  1  0.32559500  0.85826400  0.88747300  1
  H  H47  1  0.67440500  0.14173600  0.11252700  1
  H  H48  1  0.27588700  0.03365700  0.89398000  1
  H  H49  1  0.72411300  0.96634300  0.10602000  1
  C  C50  1  0.70696500  0.48301700  0.15621200  1
  C  C51  1  0.29303500  0.51698300  0.84378800  1
  C  C52  1  0.67096300  0.64053400  0.06263900  1
  C  C53  1  0.32903700  0.35946600  0.93736100  1
  C  C54  1  0.11919000  0.00953900  0.22101700  1
  C  C55  1  0.88081000  0.99046100  0.77898300  1
  C  C56  1  0.01080100  0.08714500  0.12351200  1
  C  C57  1  0.98919900  0.91285500  0.87648800  1
  C  C58  1  0.48791700  0.00441900  0.78418000  1
  C  C59  1  0.51208300  0.99558100  0.21582000  1
  C  C60  1  0.36665900  0.94673000  0.89372100  1
  C  C61  1  0.63334100  0.05327000  0.10627900  1
  N  N62  1  0.68016700  0.45983000  0.29960200  1
  N  N63  1  0.31983300  0.54017000  0.70039800  1
  N  N64  1  0.04721500  0.92038300  0.35449900  1
  N  N65  1  0.95278500  0.07961700  0.64550100  1
  N  N66  1  0.44066000  0.07932400  0.64945100  1
  N  N67  1  0.55934000  0.92067600  0.35054900  1
  Cl  Cl68  1  0.13986500  0.30811700  0.65950500  1
  Cl  Cl69  1  0.86013500  0.69188300  0.34049500  1
  Cl  Cl70  1  0.38997400  0.30850400  0.33502400  1
  Cl  Cl71  1  0.61002600  0.69149600  0.66497600  1
  Cl  Cl72  1  0.35811900  0.65003200  0.36487800  1
  Cl  Cl73  1  0.64188100  0.34996800  0.63512200  1
  Cl  Cl74  1  0.03029500  0.31672800  0.32798300  1
  Cl  Cl75  1  0.96970500  0.68327200  0.67201700  1
  Cl  Cl76  1  0.20222900  0.62380600  0.10935700  1
  Cl  Cl77  1  0.79777100  0.37619400  0.89064300  1
  Cl  Cl78  1  0.73606200  0.09819300  0.43891200  1
  Cl  Cl79  1  0.26393800  0.90180700  0.56108800  1
