# generated using pymatgen
data_NiH10(SeO5)2
_symmetry_space_group_name_H-M   'P 1'
_cell_length_a   8.12340248
_cell_length_b   8.12340248
_cell_length_c   12.14188046
_cell_angle_alpha   61.18100326
_cell_angle_beta   61.18100326
_cell_angle_gamma   59.18832608
_symmetry_Int_Tables_number   1
_chemical_formula_structural   NiH10(SeO5)2
_chemical_formula_sum   'Ni2 H20 Se4 O20'
_cell_volume   572.72834297
_cell_formula_units_Z   2
loop_
 _symmetry_equiv_pos_site_id
 _symmetry_equiv_pos_as_xyz
  1  'x, y, z'
loop_
 _atom_site_type_symbol
 _atom_site_label
 _atom_site_symmetry_multiplicity
 _atom_site_fract_x
 _atom_site_fract_y
 _atom_site_fract_z
 _atom_site_occupancy
  Ni  Ni0  1  0.70648800  0.29351200  0.25000000  1
  Ni  Ni1  1  0.29351200  0.70648800  0.75000000  1
  H  H2  1  0.59476800  0.91228700  0.64586700  1
  H  H3  1  0.08771300  0.40523200  0.85413300  1
  H  H4  1  0.40523200  0.08771300  0.35413300  1
  H  H5  1  0.91228700  0.59476800  0.14586700  1
  H  H6  1  0.10342300  0.03983500  0.20070400  1
  H  H7  1  0.96016500  0.89657700  0.29929600  1
  H  H8  1  0.89657700  0.96016500  0.79929600  1
  H  H9  1  0.03983500  0.10342300  0.70070400  1
  H  H10  1  0.39533400  0.64625300  0.17479400  1
  H  H11  1  0.35374700  0.60466600  0.32520600  1
  H  H12  1  0.60466600  0.35374700  0.82520600  1
  H  H13  1  0.64625300  0.39533400  0.67479400  1
  H  H14  1  0.13385600  0.75663300  0.95775800  1
  H  H15  1  0.24336700  0.86614400  0.54224200  1
  H  H16  1  0.86614400  0.24336700  0.04224200  1
  H  H17  1  0.75663300  0.13385600  0.45775800  1
  H  H18  1  0.25144700  0.04939000  0.86745400  1
  H  H19  1  0.95061000  0.74855300  0.63254600  1
  H  H20  1  0.74855300  0.95061000  0.13254600  1
  H  H21  1  0.04939000  0.25144700  0.36745400  1
  Se  Se22  1  0.76235300  0.66251600  0.86295900  1
  Se  Se23  1  0.33748400  0.23764700  0.63704100  1
  Se  Se24  1  0.23764700  0.33748400  0.13704100  1
  Se  Se25  1  0.66251600  0.76235300  0.36295900  1
  O  O26  1  0.55325100  0.02636500  0.34487700  1
  O  O27  1  0.97363500  0.44674900  0.15512300  1
  O  O28  1  0.44674900  0.97363500  0.65512300  1
  O  O29  1  0.02636500  0.55325100  0.84487700  1
  O  O30  1  0.73175900  0.33686900  0.07281500  1
  O  O31  1  0.66313100  0.26824100  0.42718500  1
  O  O32  1  0.26824100  0.66313100  0.92718500  1
  O  O33  1  0.33686900  0.73175900  0.57281500  1
  O  O34  1  0.80993500  0.75778900  0.67739600  1
  O  O35  1  0.24221100  0.19006500  0.82260400  1
  O  O36  1  0.19006500  0.24221100  0.32260400  1
  O  O37  1  0.75778900  0.80993500  0.17739600  1
  O  O38  1  0.96628700  0.03371300  0.25000000  1
  O  O39  1  0.03371300  0.96628700  0.75000000  1
  O  O40  1  0.44486600  0.55513400  0.25000000  1
  O  O41  1  0.55513400  0.44486600  0.75000000  1
  O  O42  1  0.29633300  0.13328600  0.10639100  1
  O  O43  1  0.86671400  0.70366700  0.39360900  1
  O  O44  1  0.70366700  0.86671400  0.89360900  1
  O  O45  1  0.13328600  0.29633300  0.60639100  1
