# generated using pymatgen
data_Fe3P2(HO)16
_symmetry_space_group_name_H-M   'P 1'
_cell_length_a   8.42427959
_cell_length_b   8.42427959
_cell_length_c   4.78610890
_cell_angle_alpha   81.35778381
_cell_angle_beta   81.35778381
_cell_angle_gamma   105.06374207
_symmetry_Int_Tables_number   1
_chemical_formula_structural   Fe3P2(HO)16
_chemical_formula_sum   'Fe3 P2 H16 O16'
_cell_volume   317.82731155
_cell_formula_units_Z   1
loop_
 _symmetry_equiv_pos_site_id
 _symmetry_equiv_pos_as_xyz
  1  'x, y, z'
loop_
 _atom_site_type_symbol
 _atom_site_label
 _atom_site_symmetry_multiplicity
 _atom_site_fract_x
 _atom_site_fract_y
 _atom_site_fract_z
 _atom_site_occupancy
  Fe  Fe0  1  0.00000000  0.00000000  0.00000000  1
  Fe  Fe1  1  0.38988300  0.61011700  0.00000000  1
  Fe  Fe2  1  0.61011700  0.38988300  0.00000000  1
  P  P3  1  0.68841400  0.68841400  0.37391600  1
  P  P4  1  0.31158600  0.31158600  0.62608400  1
  H  H5  1  0.31890200  0.06049300  0.05706700  1
  H  H6  1  0.93950700  0.68109800  0.94293300  1
  H  H7  1  0.68109800  0.93950700  0.94293300  1
  H  H8  1  0.06049300  0.31890200  0.05706700  1
  H  H9  1  0.21009800  0.04359800  0.36608100  1
  H  H10  1  0.95640200  0.78990200  0.63391900  1
  H  H11  1  0.78990200  0.95640200  0.63391900  1
  H  H12  1  0.04359800  0.21009800  0.36608100  1
  H  H13  1  0.82767500  0.43359200  0.51509900  1
  H  H14  1  0.56640800  0.17232500  0.48490100  1
  H  H15  1  0.17232500  0.56640800  0.48490100  1
  H  H16  1  0.43359200  0.82767500  0.51509900  1
  H  H17  1  0.82469900  0.26220300  0.71489800  1
  H  H18  1  0.73779700  0.17530100  0.28510200  1
  H  H19  1  0.17530100  0.73779700  0.28510200  1
  H  H20  1  0.26220300  0.82469900  0.71489800  1
  O  O21  1  0.84305800  0.84305800  0.36791600  1
  O  O22  1  0.15694200  0.15694200  0.63208400  1
  O  O23  1  0.61071200  0.61071200  0.69432800  1
  O  O24  1  0.38928800  0.38928800  0.30567200  1
  O  O25  1  0.56140100  0.75562300  0.21902000  1
  O  O26  1  0.24437700  0.43859900  0.78098000  1
  O  O27  1  0.43859900  0.24437700  0.78098000  1
  O  O28  1  0.75562300  0.56140100  0.21902000  1
  O  O29  1  0.01537300  0.78062700  0.79885000  1
  O  O30  1  0.21937300  0.98462700  0.20115000  1
  O  O31  1  0.98462700  0.21937300  0.20115000  1
  O  O32  1  0.78062700  0.01537300  0.79885000  1
  O  O33  1  0.82725000  0.37986600  0.71336000  1
  O  O34  1  0.62013400  0.17275000  0.28664000  1
  O  O35  1  0.17275000  0.62013400  0.28664000  1
  O  O36  1  0.37986600  0.82725000  0.71336000  1
