# generated using pymatgen
data_Ca(ClO2)2
_symmetry_space_group_name_H-M   'P 1'
_cell_length_a   5.28532700
_cell_length_b   6.01121509
_cell_length_c   8.69393110
_cell_angle_alpha   70.23984341
_cell_angle_beta   82.86841795
_cell_angle_gamma   76.60365955
_symmetry_Int_Tables_number   1
_chemical_formula_structural   Ca(ClO2)2
_chemical_formula_sum   'Ca2 Cl4 O8'
_cell_volume   252.56219069
_cell_formula_units_Z   2
loop_
 _symmetry_equiv_pos_site_id
 _symmetry_equiv_pos_as_xyz
  1  'x, y, z'
loop_
 _atom_site_type_symbol
 _atom_site_label
 _atom_site_symmetry_multiplicity
 _atom_site_fract_x
 _atom_site_fract_y
 _atom_site_fract_z
 _atom_site_occupancy
  Ca  Ca0  1  0.13153900  0.84747300  0.21434900  1
  Ca  Ca1  1  0.86846100  0.15252700  0.78565100  1
  Cl  Cl2  1  0.64511400  0.66427500  0.05824400  1
  Cl  Cl3  1  0.35488600  0.33572500  0.94175600  1
  Cl  Cl4  1  0.02273200  0.26875000  0.37729600  1
  Cl  Cl5  1  0.97726800  0.73125000  0.62270400  1
  O  O6  1  0.13060900  0.16713500  0.97574500  1
  O  O7  1  0.86939100  0.83286500  0.02425500  1
  O  O8  1  0.66661500  0.94616700  0.33310600  1
  O  O9  1  0.33338500  0.05383300  0.66689400  1
  O  O10  1  0.24092400  0.43699700  0.32144400  1
  O  O11  1  0.75907600  0.56300300  0.67855600  1
  O  O12  1  0.51304500  0.80202100  0.39573000  1
  O  O13  1  0.48695500  0.19797900  0.60427000  1
