# generated using pymatgen
data_CoH9C4NO6
_symmetry_space_group_name_H-M   'P 1'
_cell_length_a   8.19455800
_cell_length_b   8.46925500
_cell_length_c   11.81090900
_cell_angle_alpha   90.00000000
_cell_angle_beta   90.00000000
_cell_angle_gamma   90.00000000
_symmetry_Int_Tables_number   1
_chemical_formula_structural   CoH9C4NO6
_chemical_formula_sum   'Co4 H36 C16 N4 O24'
_cell_volume   819.69835976
_cell_formula_units_Z   4
loop_
 _symmetry_equiv_pos_site_id
 _symmetry_equiv_pos_as_xyz
  1  'x, y, z'
loop_
 _atom_site_type_symbol
 _atom_site_label
 _atom_site_symmetry_multiplicity
 _atom_site_fract_x
 _atom_site_fract_y
 _atom_site_fract_z
 _atom_site_occupancy
  Co  Co0  1  0.50000000  0.50000000  0.50000000  1
  Co  Co1  1  0.00000000  0.00000000  0.00000000  1
  Co  Co2  1  0.50000000  0.50000000  0.00000000  1
  Co  Co3  1  0.00000000  0.00000000  0.50000000  1
  H  H4  1  0.51196800  0.14801800  0.17874900  1
  H  H5  1  0.98803200  0.64801800  0.32125100  1
  H  H6  1  0.48803200  0.85198200  0.67874900  1
  H  H7  1  0.01196800  0.35198200  0.82125100  1
  H  H8  1  0.48803200  0.85198200  0.82125100  1
  H  H9  1  0.01196800  0.35198200  0.67874900  1
  H  H10  1  0.51196800  0.14801800  0.32125100  1
  H  H11  1  0.98803200  0.64801800  0.17874900  1
  H  H12  1  0.34124400  0.09002900  0.25000000  1
  H  H13  1  0.15875600  0.59002900  0.25000000  1
  H  H14  1  0.65875600  0.90997100  0.75000000  1
  H  H15  1  0.84124400  0.40997100  0.75000000  1
  H  H16  1  0.22273800  0.72441800  0.45599400  1
  H  H17  1  0.27726200  0.22441800  0.04400600  1
  H  H18  1  0.77726200  0.27558200  0.95599400  1
  H  H19  1  0.72273800  0.77558200  0.54400600  1
  H  H20  1  0.77726200  0.27558200  0.54400600  1
  H  H21  1  0.72273800  0.77558200  0.95599400  1
  H  H22  1  0.22273800  0.72441800  0.04400600  1
  H  H23  1  0.27726200  0.22441800  0.45599400  1
  H  H24  1  0.57681100  0.48787500  0.25000000  1
  H  H25  1  0.92318900  0.98787500  0.25000000  1
  H  H26  1  0.42318900  0.51212500  0.75000000  1
  H  H27  1  0.07681100  0.01212500  0.75000000  1
  H  H28  1  0.47135000  0.86179100  0.17421500  1
  H  H29  1  0.02865000  0.36179100  0.32578500  1
  H  H30  1  0.52865000  0.13820900  0.67421500  1
  H  H31  1  0.97135000  0.63820900  0.82578500  1
  H  H32  1  0.52865000  0.13820900  0.82578500  1
  H  H33  1  0.97135000  0.63820900  0.67421500  1
  H  H34  1  0.47135000  0.86179100  0.32578500  1
  H  H35  1  0.02865000  0.36179100  0.17421500  1
  H  H36  1  0.65279300  0.91366700  0.25000000  1
  H  H37  1  0.84720700  0.41366700  0.25000000  1
  H  H38  1  0.34720700  0.08633300  0.75000000  1
  H  H39  1  0.15279300  0.58633300  0.75000000  1
  C  C40  1  0.28264100  0.78403900  0.52795500  1
  C  C41  1  0.21735900  0.28403900  0.97204500  1
  C  C42  1  0.71735900  0.21596100  0.02795500  1
  C  C43  1  0.78264100  0.71596100  0.47204500  1
  C  C44  1  0.71735900  0.21596100  0.47204500  1
  C  C45  1  0.78264100  0.71596100  0.02795500  1
  C  C46  1  0.28264100  0.78403900  0.97204500  1
  C  C47  1  0.21735900  0.28403900  0.52795500  1
  C  C48  1  0.44477900  0.51364500  0.25000000  1
  C  C49  1  0.05522100  0.01364500  0.25000000  1
  C  C50  1  0.55522100  0.48635500  0.75000000  1
  C  C51  1  0.94477900  0.98635500  0.75000000  1
  C  C52  1  0.51977000  0.91942400  0.25000000  1
  C  C53  1  0.98023000  0.41942400  0.25000000  1
  C  C54  1  0.48023000  0.08057600  0.75000000  1
  C  C55  1  0.01977000  0.58057600  0.75000000  1
  N  N56  1  0.46783700  0.08723600  0.25000000  1
  N  N57  1  0.03216300  0.58723600  0.25000000  1
  N  N58  1  0.53216300  0.91276400  0.75000000  1
  N  N59  1  0.96783700  0.41276400  0.75000000  1
  O  O60  1  0.41734700  0.72586700  0.56317900  1
  O  O61  1  0.08265300  0.22586700  0.93682100  1
  O  O62  1  0.58265300  0.27413300  0.06317900  1
  O  O63  1  0.91734700  0.77413300  0.43682100  1
  O  O64  1  0.58265300  0.27413300  0.43682100  1
  O  O65  1  0.91734700  0.77413300  0.06317900  1
  O  O66  1  0.41734700  0.72586700  0.93682100  1
  O  O67  1  0.08265300  0.22586700  0.56317900  1
  O  O68  1  0.21545700  0.90495900  0.57054900  1
  O  O69  1  0.28454300  0.40495900  0.92945100  1
  O  O70  1  0.78454300  0.09504100  0.07054900  1
  O  O71  1  0.71545700  0.59504100  0.42945100  1
  O  O72  1  0.78454300  0.09504100  0.42945100  1
  O  O73  1  0.71545700  0.59504100  0.07054900  1
  O  O74  1  0.21545700  0.90495900  0.92945100  1
  O  O75  1  0.28454300  0.40495900  0.57054900  1
  O  O76  1  0.37225200  0.52869000  0.34466200  1
  O  O77  1  0.12774800  0.02869000  0.15533800  1
  O  O78  1  0.62774800  0.47131000  0.84466200  1
  O  O79  1  0.87225200  0.97131000  0.65533800  1
  O  O80  1  0.62774800  0.47131000  0.65533800  1
  O  O81  1  0.87225200  0.97131000  0.84466200  1
  O  O82  1  0.37225200  0.52869000  0.15533800  1
  O  O83  1  0.12774800  0.02869000  0.34466200  1
