# generated using pymatgen
data_FeGe4H24C8(S5N)2
_symmetry_space_group_name_H-M   'P 1'
_cell_length_a   9.96855110
_cell_length_b   9.96855110
_cell_length_c   9.96855110
_cell_angle_alpha   122.55300512
_cell_angle_beta   122.55300512
_cell_angle_gamma   85.63216860
_symmetry_Int_Tables_number   1
_chemical_formula_structural   FeGe4H24C8(S5N)2
_chemical_formula_sum   'Fe1 Ge4 H24 C8 S10 N2'
_cell_volume   671.29979335
_cell_formula_units_Z   1
loop_
 _symmetry_equiv_pos_site_id
 _symmetry_equiv_pos_as_xyz
  1  'x, y, z'
loop_
 _atom_site_type_symbol
 _atom_site_label
 _atom_site_symmetry_multiplicity
 _atom_site_fract_x
 _atom_site_fract_y
 _atom_site_fract_z
 _atom_site_occupancy
  Fe  Fe0  1  0.75000000  0.25000000  0.50000000  1
  Ge  Ge1  1  0.97605300  0.73204300  0.88750700  1
  Ge  Ge2  1  0.84453700  0.08854700  0.11249300  1
  Ge  Ge3  1  0.91145300  0.02394700  0.75599000  1
  Ge  Ge4  1  0.26795700  0.15546300  0.24401000  1
  H  H5  1  0.41770500  0.51957800  0.77064400  1
  H  H6  1  0.74893400  0.64706100  0.22935600  1
  H  H7  1  0.35293900  0.58229500  0.10187300  1
  H  H8  1  0.48042200  0.25106600  0.89812700  1
  H  H9  1  0.32323600  0.61636700  0.89725800  1
  H  H10  1  0.71910900  0.42597800  0.10274200  1
  H  H11  1  0.57402200  0.67676400  0.29313100  1
  H  H12  1  0.38363300  0.28089100  0.70686900  1
  H  H13  1  0.53476300  0.71474100  0.01259700  1
  H  H14  1  0.70214400  0.52216700  0.98740300  1
  H  H15  1  0.47783300  0.46523700  0.17997700  1
  H  H16  1  0.28525900  0.29785600  0.82002300  1
  H  H17  1  0.25780800  0.91905800  0.43187600  1
  H  H18  1  0.48718200  0.82593200  0.56812400  1
  H  H19  1  0.17406800  0.74219200  0.66125000  1
  H  H20  1  0.08094200  0.51281800  0.33875000  1
  H  H21  1  0.10158400  0.91455400  0.46831700  1
  H  H22  1  0.44623700  0.63326700  0.53168300  1
  H  H23  1  0.36673300  0.89841600  0.81297000  1
  H  H24  1  0.08544600  0.55376300  0.18703000  1
  H  H25  1  0.31555300  0.01219400  0.67457300  1
  H  H26  1  0.33762100  0.64098000  0.32542700  1
  H  H27  1  0.35902000  0.68444700  0.69664100  1
  H  H28  1  0.98780600  0.66237900  0.30335900  1
  C  C29  1  0.43883500  0.59549700  0.91357000  1
  C  C30  1  0.68192800  0.52526500  0.08643000  1
  C  C31  1  0.47473500  0.56116500  0.15666200  1
  C  C32  1  0.40450300  0.31807200  0.84333800  1
  C  C33  1  0.22968800  0.91047600  0.51955700  1
  C  C34  1  0.39091800  0.71013100  0.48044300  1
  C  C35  1  0.28986900  0.77031200  0.68078700  1
  C  C36  1  0.08952400  0.60908200  0.31921300  1
  S  S37  1  0.24946400  0.88627600  0.13527000  1
  S  S38  1  0.75100600  0.11419300  0.86473000  1
  S  S39  1  0.88580700  0.75053600  0.63681300  1
  S  S40  1  0.11372400  0.24899400  0.36318700  1
  S  S41  1  0.81751500  0.81751500  0.00000000  1
  S  S42  1  0.18248500  0.18248500  0.00000000  1
  S  S43  1  0.97607600  0.47502300  0.79411200  1
  S  S44  1  0.68091100  0.18196400  0.20588800  1
  S  S45  1  0.81803500  0.02392400  0.49894600  1
  S  S46  1  0.52497700  0.31908900  0.50105400  1
  N  N47  1  0.50000000  0.50000000  0.00000000  1
  N  N48  1  0.25000000  0.75000000  0.50000000  1
