# generated using pymatgen
data_K4Cu(IO10)2
_symmetry_space_group_name_H-M   'P 1'
_cell_length_a   10.77915100
_cell_length_b   9.13809500
_cell_length_c   12.99801325
_cell_angle_alpha   55.52763653
_cell_angle_beta   90.00000000
_cell_angle_gamma   90.00000000
_symmetry_Int_Tables_number   1
_chemical_formula_structural   K4Cu(IO10)2
_chemical_formula_sum   'K8 Cu2 I4 O40'
_cell_volume   1055.49167726
_cell_formula_units_Z   2
loop_
 _symmetry_equiv_pos_site_id
 _symmetry_equiv_pos_as_xyz
  1  'x, y, z'
loop_
 _atom_site_type_symbol
 _atom_site_label
 _atom_site_symmetry_multiplicity
 _atom_site_fract_x
 _atom_site_fract_y
 _atom_site_fract_z
 _atom_site_occupancy
  K  K0  1  0.18324500  0.41952500  0.79757700  1
  K  K1  1  0.31675500  0.41952500  0.29757700  1
  K  K2  1  0.81675500  0.58047500  0.20242300  1
  K  K3  1  0.68324500  0.58047500  0.70242300  1
  K  K4  1  0.42541200  0.98702100  0.18785200  1
  K  K5  1  0.07458800  0.98702100  0.68785200  1
  K  K6  1  0.57458800  0.01297900  0.81214800  1
  K  K7  1  0.92541200  0.01297900  0.31214800  1
  Cu  Cu8  1  0.50000000  0.00000000  0.50000000  1
  Cu  Cu9  1  0.00000000  0.00000000  0.00000000  1
  I  I10  1  0.24143500  0.92406400  0.47774900  1
  I  I11  1  0.25856500  0.92406400  0.97774900  1
  I  I12  1  0.75856500  0.07593600  0.52225100  1
  I  I13  1  0.74143500  0.07593600  0.02225100  1
  O  O14  1  0.46301300  0.44935000  0.95903300  1
  O  O15  1  0.03698700  0.44935000  0.45903300  1
  O  O16  1  0.53698700  0.55065000  0.04096700  1
  O  O17  1  0.96301300  0.55065000  0.54096700  1
  O  O18  1  0.29626900  0.48589400  0.58417700  1
  O  O19  1  0.20373100  0.48589400  0.08417700  1
  O  O20  1  0.70373100  0.51410600  0.41582300  1
  O  O21  1  0.79626900  0.51410600  0.91582300  1
  O  O22  1  0.14460600  0.75753600  0.60687500  1
  O  O23  1  0.35539400  0.75753600  0.10687500  1
  O  O24  1  0.85539400  0.24246400  0.39312500  1
  O  O25  1  0.64460600  0.24246400  0.89312500  1
  O  O26  1  0.39283900  0.04393900  0.37502300  1
  O  O27  1  0.10716100  0.04393900  0.87502300  1
  O  O28  1  0.60716100  0.95606100  0.62497700  1
  O  O29  1  0.89283900  0.95606100  0.12497700  1
  O  O30  1  0.12928600  0.86128900  0.10034500  1
  O  O31  1  0.37071400  0.86128900  0.60034500  1
  O  O32  1  0.87071400  0.13871100  0.89965500  1
  O  O33  1  0.62928600  0.13871100  0.39965500  1
  O  O34  1  0.19149300  0.89139100  0.35873400  1
  O  O35  1  0.30850700  0.89139100  0.85873400  1
  O  O36  1  0.80850700  0.10860900  0.64126600  1
  O  O37  1  0.69149300  0.10860900  0.14126600  1
  O  O38  1  0.32956900  0.12500100  0.94609100  1
  O  O39  1  0.17043100  0.12500100  0.44609100  1
  O  O40  1  0.67043100  0.87499900  0.05390900  1
  O  O41  1  0.82956900  0.87499900  0.55390900  1
  O  O42  1  0.00385300  0.45840400  0.97546800  1
  O  O43  1  0.49614700  0.45840400  0.47546800  1
  O  O44  1  0.99614700  0.54159600  0.02453200  1
  O  O45  1  0.50385300  0.54159600  0.52453200  1
  O  O46  1  0.43949300  0.56710900  0.84700400  1
  O  O47  1  0.06050700  0.56710900  0.34700400  1
  O  O48  1  0.56050700  0.43289100  0.15299600  1
  O  O49  1  0.93949300  0.43289100  0.65299600  1
  O  O50  1  0.21830800  0.40069100  0.03584000  1
  O  O51  1  0.28169200  0.40069100  0.53584000  1
  O  O52  1  0.78169200  0.59930900  0.96416000  1
  O  O53  1  0.71830800  0.59930900  0.46416000  1
