# generated using pymatgen
data_Na3VH11IO13
_symmetry_space_group_name_H-M   'P 1'
_cell_length_a   6.96994500
_cell_length_b   8.65972395
_cell_length_c   12.76071416
_cell_angle_alpha   76.83106730
_cell_angle_beta   86.22666288
_cell_angle_gamma   85.40983404
_symmetry_Int_Tables_number   1
_chemical_formula_structural   Na3VH11IO13
_chemical_formula_sum   'Na6 V2 H22 I2 O26'
_cell_volume   746.65005662
_cell_formula_units_Z   2
loop_
 _symmetry_equiv_pos_site_id
 _symmetry_equiv_pos_as_xyz
  1  'x, y, z'
loop_
 _atom_site_type_symbol
 _atom_site_label
 _atom_site_symmetry_multiplicity
 _atom_site_fract_x
 _atom_site_fract_y
 _atom_site_fract_z
 _atom_site_occupancy
  Na  Na0  1  0.96616100  0.30396800  0.23609600  1
  Na  Na1  1  0.03383900  0.69603200  0.76390400  1
  Na  Na2  1  0.58122000  0.30301500  0.10407200  1
  Na  Na3  1  0.41878000  0.69698500  0.89592800  1
  Na  Na4  1  0.54703000  0.68606100  0.57701800  1
  Na  Na5  1  0.45297000  0.31393900  0.42298200  1
  V  V6  1  0.05724800  0.67936300  0.49981700  1
  V  V7  1  0.94275200  0.32063700  0.50018300  1
  H  H8  1  0.84742700  0.99799300  0.44410700  1
  H  H9  1  0.15257300  0.00200700  0.55589300  1
  H  H10  1  0.12817100  0.14513300  0.14126000  1
  H  H11  1  0.87182900  0.85486700  0.85874000  1
  H  H12  1  0.88406400  0.36962000  0.81222200  1
  H  H13  1  0.11593600  0.63038000  0.18777800  1
  H  H14  1  0.21230400  0.10922200  0.17740900  1
  H  H15  1  0.78769600  0.89077800  0.82259100  1
  H  H16  1  0.89931200  0.88664100  0.08343200  1
  H  H17  1  0.10068800  0.11335900  0.91656800  1
  H  H18  1  0.09807200  0.54404700  0.35375900  1
  H  H19  1  0.90192800  0.45595300  0.64624100  1
  H  H20  1  0.95200000  0.94139400  0.34403300  1
  H  H21  1  0.04800000  0.05860600  0.65596700  1
  H  H22  1  0.57736100  0.92255700  0.63437500  1
  H  H23  1  0.42263900  0.07744300  0.36562500  1
  H  H24  1  0.92883800  0.33920700  0.01027600  1
  H  H25  1  0.07116200  0.66079300  0.98972400  1
  H  H26  1  0.55489200  0.49671500  0.49399600  1
  H  H27  1  0.44510800  0.50328500  0.50600400  1
  H  H28  1  0.53112600  0.07118100  0.36584900  1
  H  H29  1  0.46887400  0.92881900  0.63415100  1
  I  I30  1  0.21420100  0.33965100  0.75989600  1
  I  I31  1  0.78579900  0.66034900  0.24010400  1
  O  O32  1  0.89059500  0.68058900  0.60881400  1
  O  O33  1  0.10940500  0.31941100  0.39118600  1
  O  O34  1  0.32339300  0.29503700  0.93067200  1
  O  O35  1  0.67660700  0.70496300  0.06932800  1
  O  O36  1  0.98690400  0.42287300  0.83729800  1
  O  O37  1  0.01309600  0.57712700  0.16270200  1
  O  O38  1  0.18165700  0.49726700  0.53165400  1
  O  O39  1  0.81834300  0.50273300  0.46834600  1
  O  O40  1  0.93196200  0.33790500  0.66229900  1
  O  O41  1  0.06803800  0.66209500  0.33770100  1
  O  O42  1  0.31844400  0.53627500  0.74087100  1
  O  O43  1  0.68155600  0.46372500  0.25912900  1
  O  O44  1  0.22438100  0.81095500  0.50600700  1
  O  O45  1  0.77561900  0.18904500  0.49399300  1
  O  O46  1  0.86291700  0.90878200  0.40586300  1
  O  O47  1  0.13708300  0.09121800  0.59413700  1
  O  O48  1  0.88865700  0.26436200  0.07556300  1
  O  O49  1  0.11134300  0.73563800  0.92443700  1
  O  O50  1  0.39857700  0.85830900  0.20546100  1
  O  O51  1  0.60142300  0.14169100  0.79453900  1
  O  O52  1  0.39660800  0.41646900  0.95402200  1
  O  O53  1  0.60339200  0.58353100  0.04597800  1
  O  O54  1  0.68994900  0.18087300  0.86470900  1
  O  O55  1  0.31005100  0.81912700  0.13529100  1
  O  O56  1  0.86487700  0.88227300  0.15947900  1
  O  O57  1  0.13512300  0.11772700  0.84052100  1
