# generated using pymatgen
data_MoH6NO3F2
_symmetry_space_group_name_H-M   'P 1'
_cell_length_a   8.59078888
_cell_length_b   8.59078888
_cell_length_c   7.99098615
_cell_angle_alpha   77.39712198
_cell_angle_beta   77.39712198
_cell_angle_gamma   113.18510539
_symmetry_Int_Tables_number   1
_chemical_formula_structural   MoH6NO3F2
_chemical_formula_sum   'Mo4 H24 N4 O12 F8'
_cell_volume   497.73316993
_cell_formula_units_Z   4
loop_
 _symmetry_equiv_pos_site_id
 _symmetry_equiv_pos_as_xyz
  1  'x, y, z'
loop_
 _atom_site_type_symbol
 _atom_site_label
 _atom_site_symmetry_multiplicity
 _atom_site_fract_x
 _atom_site_fract_y
 _atom_site_fract_z
 _atom_site_occupancy
  Mo  Mo0  1  0.01057400  0.72404800  0.73680500  1
  Mo  Mo1  1  0.27595200  0.98942600  0.76319500  1
  Mo  Mo2  1  0.98942600  0.27595200  0.26319500  1
  Mo  Mo3  1  0.72404800  0.01057400  0.23680500  1
  H  H4  1  0.37102600  0.53299500  0.86615400  1
  H  H5  1  0.46700500  0.62897400  0.63384600  1
  H  H6  1  0.62897400  0.46700500  0.13384600  1
  H  H7  1  0.53299500  0.37102600  0.36615400  1
  H  H8  1  0.41556700  0.41302300  0.73856900  1
  H  H9  1  0.58697700  0.58443300  0.76143100  1
  H  H10  1  0.58443300  0.58697700  0.26143100  1
  H  H11  1  0.41302300  0.41556700  0.23856900  1
  H  H12  1  0.87981000  0.29546000  0.66111800  1
  H  H13  1  0.70454000  0.12019000  0.83888200  1
  H  H14  1  0.12019000  0.70454000  0.33888200  1
  H  H15  1  0.29546000  0.87981000  0.16111800  1
  H  H16  1  0.12960800  0.24072600  0.65740400  1
  H  H17  1  0.75927400  0.87039200  0.84259600  1
  H  H18  1  0.87039200  0.75927400  0.34259600  1
  H  H19  1  0.24072600  0.12960800  0.15740400  1
  H  H20  1  0.07793000  0.19150200  0.87762200  1
  H  H21  1  0.80849800  0.92207000  0.62237800  1
  H  H22  1  0.92207000  0.80849800  0.12237800  1
  H  H23  1  0.19150200  0.07793000  0.37762200  1
  H  H24  1  0.75115300  0.33416100  0.82487500  1
  H  H25  1  0.66583900  0.24884700  0.67512500  1
  H  H26  1  0.24884700  0.66583900  0.17512500  1
  H  H27  1  0.33416100  0.75115300  0.32487500  1
  N  N28  1  0.46047300  0.53952700  0.75000000  1
  N  N29  1  0.53952700  0.46047300  0.25000000  1
  N  N30  1  0.75088400  0.24911600  0.75000000  1
  N  N31  1  0.24911600  0.75088400  0.25000000  1
  O  O32  1  0.10516400  0.58194200  0.73271600  1
  O  O33  1  0.41805800  0.89483600  0.76728400  1
  O  O34  1  0.89483600  0.41805800  0.26728400  1
  O  O35  1  0.58194200  0.10516400  0.23271600  1
  O  O36  1  0.04117100  0.80487300  0.94557200  1
  O  O37  1  0.19512700  0.95882900  0.55442800  1
  O  O38  1  0.95882900  0.19512700  0.05442800  1
  O  O39  1  0.80487300  0.04117100  0.44557200  1
  O  O40  1  0.80851700  0.84164900  0.73609600  1
  O  O41  1  0.15835100  0.19148300  0.76390400  1
  O  O42  1  0.19148300  0.15835100  0.26390400  1
  O  O43  1  0.84164900  0.80851700  0.23609600  1
  F  F44  1  0.91860100  0.67110800  0.52490000  1
  F  F45  1  0.32889200  0.08139900  0.97510000  1
  F  F46  1  0.08139900  0.32889200  0.47510000  1
  F  F47  1  0.67110800  0.91860100  0.02490000  1
  F  F48  1  0.75935000  0.51426500  0.90791600  1
  F  F49  1  0.48573500  0.24065000  0.59208400  1
  F  F50  1  0.24065000  0.48573500  0.09208400  1
  F  F51  1  0.51426500  0.75935000  0.40791600  1
