# generated using pymatgen
data_Mg2MnH24(ClO2)6
_symmetry_space_group_name_H-M   'P 1'
_cell_length_a   9.94779236
_cell_length_b   9.94779236
_cell_length_c   11.59578000
_cell_angle_alpha   90.00000000
_cell_angle_beta   90.00000000
_cell_angle_gamma   120.00000240
_symmetry_Int_Tables_number   1
_chemical_formula_structural   Mg2MnH24(ClO2)6
_chemical_formula_sum   'Mg4 Mn2 H48 Cl12 O24'
_cell_volume   993.76572021
_cell_formula_units_Z   2
loop_
 _symmetry_equiv_pos_site_id
 _symmetry_equiv_pos_as_xyz
  1  'x, y, z'
loop_
 _atom_site_type_symbol
 _atom_site_label
 _atom_site_symmetry_multiplicity
 _atom_site_fract_x
 _atom_site_fract_y
 _atom_site_fract_z
 _atom_site_occupancy
  Mg  Mg0  1  0.33333300  0.66666700  0.99856000  1
  Mg  Mg1  1  0.66666700  0.33333300  0.49856000  1
  Mg  Mg2  1  0.00000000  0.00000000  0.60164600  1
  Mg  Mg3  1  0.00000000  0.00000000  0.10164600  1
  Mn  Mn4  1  0.33333300  0.66666700  0.50257900  1
  Mn  Mn5  1  0.66666700  0.33333300  0.00257900  1
  H  H6  1  0.46524300  0.50375500  0.90842100  1
  H  H7  1  0.49624500  0.96148900  0.90842100  1
  H  H8  1  0.03851100  0.53475700  0.90842100  1
  H  H9  1  0.50375500  0.46524300  0.40842100  1
  H  H10  1  0.96148900  0.49624500  0.40842100  1
  H  H11  1  0.53475700  0.03851100  0.40842100  1
  H  H12  1  0.47547400  0.61824200  0.81288200  1
  H  H13  1  0.38175800  0.85723200  0.81288200  1
  H  H14  1  0.14276800  0.52452600  0.81288200  1
  H  H15  1  0.61824200  0.47547400  0.31288200  1
  H  H16  1  0.85723200  0.38175800  0.31288200  1
  H  H17  1  0.52452600  0.14276800  0.31288200  1
  H  H18  1  0.53816300  0.91661400  0.11343400  1
  H  H19  1  0.08338600  0.62154800  0.11343400  1
  H  H20  1  0.37845200  0.46183700  0.11343400  1
  H  H21  1  0.91661400  0.53816300  0.61343400  1
  H  H22  1  0.62154800  0.08338600  0.61343400  1
  H  H23  1  0.46183700  0.37845200  0.61343400  1
  H  H24  1  0.53263500  0.78367500  0.18698000  1
  H  H25  1  0.21632500  0.74896000  0.18698000  1
  H  H26  1  0.25104000  0.46736500  0.18698000  1
  H  H27  1  0.78367500  0.53263500  0.68698000  1
  H  H28  1  0.74896000  0.21632500  0.68698000  1
  H  H29  1  0.46736500  0.25104000  0.68698000  1
  H  H30  1  0.88763500  0.18045800  0.51911600  1
  H  H31  1  0.81954200  0.70717700  0.51911600  1
  H  H32  1  0.29282300  0.11236500  0.51911600  1
  H  H33  1  0.18045800  0.88763500  0.01911600  1
  H  H34  1  0.70717700  0.81954200  0.01911600  1
  H  H35  1  0.11236500  0.29282300  0.01911600  1
  H  H36  1  0.04274000  0.22399600  0.45210900  1
  H  H37  1  0.77600400  0.81874400  0.45210900  1
  H  H38  1  0.18125600  0.95726000  0.45210900  1
  H  H39  1  0.22399600  0.04274000  0.95210900  1
  H  H40  1  0.81874400  0.77600400  0.95210900  1
  H  H41  1  0.95726000  0.18125600  0.95210900  1
  H  H42  1  0.70578600  0.83433700  0.69241800  1
  H  H43  1  0.16566300  0.87144900  0.69241800  1
  H  H44  1  0.12855100  0.29421400  0.69241800  1
  H  H45  1  0.83433700  0.70578600  0.19241800  1
  H  H46  1  0.87144900  0.16566300  0.19241800  1
  H  H47  1  0.29421400  0.12855100  0.19241800  1
  H  H48  1  0.79290300  0.98643100  0.77082800  1
  H  H49  1  0.01356900  0.80647300  0.77082800  1
  H  H50  1  0.19352700  0.20709700  0.77082800  1
  H  H51  1  0.98643100  0.79290300  0.27082800  1
  H  H52  1  0.80647300  0.01356900  0.27082800  1
  H  H53  1  0.20709700  0.19352700  0.27082800  1
  Cl  Cl54  1  0.50528100  0.61127600  0.63525700  1
  Cl  Cl55  1  0.38872400  0.89400500  0.63525700  1
  Cl  Cl56  1  0.10599500  0.49471900  0.63525700  1
  Cl  Cl57  1  0.61127600  0.50528100  0.13525700  1
  Cl  Cl58  1  0.89400500  0.38872400  0.13525700  1
  Cl  Cl59  1  0.49471900  0.10599500  0.13525700  1
  Cl  Cl60  1  0.25573700  0.42641200  0.37517800  1
  Cl  Cl61  1  0.57358800  0.82932500  0.37517800  1
  Cl  Cl62  1  0.17067500  0.74426300  0.37517800  1
  Cl  Cl63  1  0.42641200  0.25573700  0.87517800  1
  Cl  Cl64  1  0.82932500  0.57358800  0.87517800  1
  Cl  Cl65  1  0.74426300  0.17067500  0.87517800  1
  O  O66  1  0.46429200  0.60150000  0.89773400  1
  O  O67  1  0.39850000  0.86279200  0.89773400  1
  O  O68  1  0.13720800  0.53570800  0.89773400  1
  O  O69  1  0.60150000  0.46429200  0.39773400  1
  O  O70  1  0.86279200  0.39850000  0.39773400  1
  O  O71  1  0.53570800  0.13720800  0.39773400  1
  O  O72  1  0.52608900  0.81159400  0.10578100  1
  O  O73  1  0.18840600  0.71449500  0.10578100  1
  O  O74  1  0.28550500  0.47391100  0.10578100  1
  O  O75  1  0.81159400  0.52608900  0.60578100  1
  O  O76  1  0.71449500  0.18840600  0.60578100  1
  O  O77  1  0.47391100  0.28550500  0.60578100  1
  O  O78  1  0.95361100  0.13889200  0.49254100  1
  O  O79  1  0.86110800  0.81471800  0.49254100  1
  O  O80  1  0.18528200  0.04638900  0.49254100  1
  O  O81  1  0.13889200  0.95361100  0.99254100  1
  O  O82  1  0.81471800  0.86110800  0.99254100  1
  O  O83  1  0.04638900  0.18528200  0.99254100  1
  O  O84  1  0.80633900  0.92887200  0.70769600  1
  O  O85  1  0.07112800  0.87746700  0.70769600  1
  O  O86  1  0.12253300  0.19366100  0.70769600  1
  O  O87  1  0.92887200  0.80633900  0.20769600  1
  O  O88  1  0.87746700  0.07112800  0.20769600  1
  O  O89  1  0.19366100  0.12253300  0.20769600  1
