# generated using pymatgen
data_K2FeP2H3(O4F)2
_symmetry_space_group_name_H-M   'P 1'
_cell_length_a   7.19947900
_cell_length_b   8.50194332
_cell_length_c   8.61899309
_cell_angle_alpha   79.98966559
_cell_angle_beta   87.45044174
_cell_angle_gamma   87.07448844
_symmetry_Int_Tables_number   1
_chemical_formula_structural   K2FeP2H3(O4F)2
_chemical_formula_sum   'K4 Fe2 P4 H6 O16 F4'
_cell_volume   518.51602050
_cell_formula_units_Z   2
loop_
 _symmetry_equiv_pos_site_id
 _symmetry_equiv_pos_as_xyz
  1  'x, y, z'
loop_
 _atom_site_type_symbol
 _atom_site_label
 _atom_site_symmetry_multiplicity
 _atom_site_fract_x
 _atom_site_fract_y
 _atom_site_fract_z
 _atom_site_occupancy
  K  K0  1  0.16869200  0.67782700  0.58538800  1
  K  K1  1  0.69301700  0.28363400  0.91264100  1
  K  K2  1  0.41713800  0.65173000  0.07490400  1
  K  K3  1  0.92602800  0.34880300  0.53968900  1
  Fe  Fe4  1  0.27129200  0.16180000  0.27850800  1
  Fe  Fe5  1  0.96151500  0.75089100  0.09434400  1
  P  P6  1  0.55578900  0.84186700  0.41920900  1
  P  P7  1  0.98304200  0.94732200  0.76305900  1
  P  P8  1  0.81668000  0.11061100  0.25712900  1
  P  P9  1  0.40522600  0.00166500  0.70054100  1
  H  H10  1  0.23229600  0.34700300  0.97732500  1
  H  H11  1  0.55252600  0.57306600  0.52851200  1
  H  H12  1  0.10162300  0.65159500  0.98056800  1
  H  H13  1  0.41707800  0.16878300  0.66688700  1
  H  H14  1  0.75269500  0.54380400  0.20970900  1
  H  H15  1  0.02223300  0.53993100  0.90654400  1
  O  O16  1  0.11496600  0.42981000  0.23166400  1
  O  O17  1  0.61910900  0.57881200  0.62895200  1
  O  O18  1  0.96543800  0.95045100  0.94933300  1
  O  O19  1  0.14320700  0.07358600  0.68714300  1
  O  O20  1  0.22080200  0.39190500  0.86223100  1
  O  O21  1  0.35615400  0.85601800  0.81932100  1
  O  O22  1  0.22700600  0.37657000  0.35645600  1
  O  O23  1  0.00600700  0.10155000  0.33165700  1
  O  O24  1  0.79302000  0.08061800  0.70220300  1
  O  O25  1  0.68720200  0.74393300  0.57176800  1
  O  O26  1  0.73573100  0.92967600  0.34519300  1
  O  O27  1  0.76450700  0.60925300  0.10515400  1
  O  O28  1  0.42181500  0.95873400  0.51719400  1
  O  O29  1  0.62860400  0.97571400  0.77218000  1
  O  O30  1  0.47554800  0.69421900  0.37641000  1
  O  O31  1  0.02424900  0.44753700  0.84512400  1
  F  F32  1  0.42739700  0.96017800  0.24703000  1
  F  F33  1  0.06189500  0.74911800  0.28917700  1
  F  F34  1  0.68589100  0.21958500  0.37076600  1
  F  F35  1  0.41678300  0.27239900  0.09608500  1
