# generated using pymatgen
data_NiH48C16S8(NO7)2
_symmetry_space_group_name_H-M   'P 1'
_cell_length_a   9.86981200
_cell_length_b   10.48013754
_cell_length_c   11.41624802
_cell_angle_alpha   116.00684820
_cell_angle_beta   109.69344817
_cell_angle_gamma   87.24368581
_symmetry_Int_Tables_number   1
_chemical_formula_structural   NiH48C16S8(NO7)2
_chemical_formula_sum   'Ni1 H48 C16 S8 N2 O14'
_cell_volume   992.25789131
_cell_formula_units_Z   1
loop_
 _symmetry_equiv_pos_site_id
 _symmetry_equiv_pos_as_xyz
  1  'x, y, z'
loop_
 _atom_site_type_symbol
 _atom_site_label
 _atom_site_symmetry_multiplicity
 _atom_site_fract_x
 _atom_site_fract_y
 _atom_site_fract_z
 _atom_site_occupancy
  Ni  Ni0  1  0.00000000  0.00000000  0.00000000  1
  H  H1  1  0.62707100  0.80327800  0.53798900  1
  H  H2  1  0.37292900  0.19672200  0.46201100  1
  H  H3  1  0.66276400  0.93582100  0.48833000  1
  H  H4  1  0.33723600  0.06417900  0.51167000  1
  H  H5  1  0.79865300  0.82217700  0.51839200  1
  H  H6  1  0.20134700  0.17782300  0.48160800  1
  H  H7  1  0.64665700  0.13866900  0.86461500  1
  H  H8  1  0.35334300  0.86133100  0.13538500  1
  H  H9  1  0.58523100  0.13465200  0.69594400  1
  H  H10  1  0.41476900  0.86534800  0.30405600  1
  H  H11  1  0.54080500  0.97988200  0.71267000  1
  H  H12  1  0.45919500  0.02011800  0.28733000  1
  H  H13  1  0.76306300  0.42456700  0.07234200  1
  H  H14  1  0.23693700  0.57543300  0.92765800  1
  H  H15  1  0.91848800  0.55339700  0.13416100  1
  H  H16  1  0.08151200  0.44660300  0.86583900  1
  H  H17  1  0.86556600  0.40590200  0.96287600  1
  H  H18  1  0.13443400  0.59409800  0.03712400  1
  H  H19  1  0.03014800  0.34856700  0.36119900  1
  H  H20  1  0.96985200  0.65143300  0.63880100  1
  H  H21  1  0.01165900  0.52177100  0.36337600  1
  H  H22  1  0.98834100  0.47822900  0.63662400  1
  H  H23  1  0.85316100  0.39275900  0.29003200  1
  H  H24  1  0.14683900  0.60724100  0.70996800  1
  H  H25  1  0.26556300  0.19028500  0.80605500  1
  H  H26  1  0.73443700  0.80971500  0.19394500  1
  H  H27  1  0.19535700  0.04529200  0.63148000  1
  H  H28  1  0.80464300  0.95470800  0.36852000  1
  H  H29  1  0.07378400  0.15905700  0.70375200  1
  H  H30  1  0.92621600  0.84094300  0.29624800  1
  H  H31  1  0.32883300  0.86889700  0.88344400  1
  H  H32  1  0.67116700  0.13110300  0.11655600  1
  H  H33  1  0.34373800  0.87908000  0.73482600  1
  H  H34  1  0.65626200  0.12092000  0.26517400  1
  H  H35  1  0.40196000  0.03515400  0.90297100  1
  H  H36  1  0.59804000  0.96484600  0.09702900  1
  H  H37  1  0.65014300  0.76370800  0.81777200  1
  H  H38  1  0.34985700  0.23629200  0.18222800  1
  H  H39  1  0.64854100  0.58128900  0.70055000  1
  H  H40  1  0.35145900  0.41871100  0.29945000  1
  H  H41  1  0.47857800  0.65466300  0.69940600  1
  H  H42  1  0.52142200  0.34533700  0.30059400  1
  H  H43  1  0.37910900  0.44480000  0.71202000  1
  H  H44  1  0.62089100  0.55520000  0.28798000  1
  H  H45  1  0.54635600  0.36593400  0.70955100  1
  H  H46  1  0.45364400  0.63406600  0.29044900  1
  H  H47  1  0.47137200  0.38036600  0.83789100  1
  H  H48  1  0.52862800  0.61963400  0.16210900  1
  C  C49  1  0.71027300  0.87750500  0.54926400  1
  C  C50  1  0.28972700  0.12249500  0.45073600  1
  C  C51  1  0.62159500  0.07085800  0.75308100  1
  C  C52  1  0.37840500  0.92914200  0.24691900  1
  C  C53  1  0.87086000  0.44147000  0.07022800  1
  C  C54  1  0.12914000  0.55853000  0.92977200  1
  C  C55  1  0.96839000  0.40811300  0.30649500  1
  C  C56  1  0.03161000  0.59188700  0.69350500  1
  C  C57  1  0.17357100  0.10993700  0.72744300  1
  C  C58  1  0.82642900  0.89006300  0.27255700  1
  C  C59  1  0.32481600  0.93819300  0.83338000  1
  C  C60  1  0.67518400  0.06180700  0.16662000  1
  C  C61  1  0.59050600  0.65639200  0.76345400  1
  C  C62  1  0.40949400  0.34360800  0.23654600  1
  C  C63  1  0.48471100  0.43003400  0.77484600  1
  C  C64  1  0.51528900  0.56996600  0.22515400  1
  S  S65  1  0.78680800  0.00599900  0.72897500  1
  S  S66  1  0.21319200  0.99400100  0.27102500  1
  S  S67  1  0.98804100  0.33494300  0.13870400  1
  S  S68  1  0.01195900  0.66505700  0.86129600  1
  S  S69  1  0.14496600  0.98968600  0.79280000  1
  S  S70  1  0.85503400  0.01031400  0.20720000  1
  S  S71  1  0.58836900  0.60318000  0.89323000  1
  S  S72  1  0.41163100  0.39682000  0.10677000  1
  N  N73  1  0.78007400  0.26231100  0.58373100  1
  N  N74  1  0.21992600  0.73768900  0.41626900  1
  O  O75  1  0.83297100  0.91322100  0.80532300  1
  O  O76  1  0.16702900  0.08677900  0.19467700  1
  O  O77  1  0.90064000  0.18601200  0.05732800  1
  O  O78  1  0.09936000  0.81398800  0.94267200  1
  O  O79  1  0.12903400  0.08686900  0.93303400  1
  O  O80  1  0.87096600  0.91313100  0.06696600  1
  O  O81  1  0.49122100  0.69544300  0.96680400  1
  O  O82  1  0.50877900  0.30455700  0.03319600  1
  O  O83  1  0.65459500  0.19060500  0.51303700  1
  O  O84  1  0.34540500  0.80939500  0.48696300  1
  O  O85  1  0.87789600  0.23590100  0.52996700  1
  O  O86  1  0.12210400  0.76409900  0.47003300  1
  O  O87  1  0.80604900  0.35881800  0.70668800  1
  O  O88  1  0.19395100  0.64118200  0.29331200  1
