# generated using pymatgen
data_Sr8Mg3Fe(MoO6)4
_symmetry_space_group_name_H-M   'P 1'
_cell_length_a   11.25110382
_cell_length_b   7.93809691
_cell_length_c   9.85050852
_cell_angle_alpha   113.73977420
_cell_angle_beta   89.86820620
_cell_angle_gamma   45.09502704
_symmetry_Int_Tables_number   1
_chemical_formula_structural   Sr8Mg3Fe(MoO6)4
_chemical_formula_sum   'Sr8 Mg3 Fe1 Mo4 O24'
_cell_volume   511.68596629
_cell_formula_units_Z   1
loop_
 _symmetry_equiv_pos_site_id
 _symmetry_equiv_pos_as_xyz
  1  'x, y, z'
loop_
 _atom_site_type_symbol
 _atom_site_label
 _atom_site_symmetry_multiplicity
 _atom_site_fract_x
 _atom_site_fract_y
 _atom_site_fract_z
 _atom_site_occupancy
  Sr  Sr0  1  0.12143400  0.24823200  0.25000700  1
  Sr  Sr1  1  0.12221600  0.75717300  0.24917100  1
  Sr  Sr2  1  0.37778400  0.24282700  0.75082900  1
  Sr  Sr3  1  0.62882700  0.25139900  0.24999400  1
  Sr  Sr4  1  0.37856600  0.75176800  0.74999300  1
  Sr  Sr5  1  0.62846400  0.74116000  0.24947000  1
  Sr  Sr6  1  0.87153600  0.25884000  0.75053000  1
  Sr  Sr7  1  0.87117300  0.74860100  0.75000600  1
  Mg  Mg8  1  0.00128000  0.99734000  0.99741300  1
  Mg  Mg9  1  0.49872000  0.00266000  0.00258700  1
  Mg  Mg10  1  0.75000000  0.00000000  0.50000000  1
  Fe  Fe11  1  0.25000000  0.00000000  0.50000000  1
  Mo  Mo12  1  0.25000000  0.50000000  0.50000000  1
  Mo  Mo13  1  0.50113200  0.49789200  0.99777200  1
  Mo  Mo14  1  0.75000000  0.50000000  0.50000000  1
  Mo  Mo15  1  0.99886800  0.50210800  0.00222800  1
  O  O16  1  0.03778300  0.21860500  0.99481200  1
  O  O17  1  0.12259000  0.25481900  0.75504200  1
  O  O18  1  0.00928000  0.70669500  0.49993800  1
  O  O19  1  0.23896400  0.29793500  0.00297000  1
  O  O20  1  0.28595600  0.21871900  0.50011300  1
  O  O21  1  0.36946000  0.26108000  0.26123000  1
  O  O22  1  0.13054000  0.73892000  0.73877000  1
  O  O23  1  0.21404400  0.78128100  0.49988700  1
  O  O24  1  0.26103600  0.70206500  0.99703000  1
  O  O25  1  0.49072000  0.29330500  0.50006200  1
  O  O26  1  0.53245600  0.22952900  0.00541500  1
  O  O27  1  0.37741000  0.74518100  0.24495800  1
  O  O28  1  0.62063500  0.25931500  0.75893200  1
  O  O29  1  0.46221700  0.78139500  0.00518800  1
  O  O30  1  0.49702900  0.71878200  0.49996800  1
  O  O31  1  0.74185700  0.29232200  0.99723800  1
  O  O32  1  0.78215700  0.22557500  0.49910700  1
  O  O33  1  0.87458800  0.24988400  0.25067500  1
  O  O34  1  0.62541200  0.75011600  0.74932500  1
  O  O35  1  0.71784300  0.77442500  0.50089300  1
  O  O36  1  0.75814300  0.70767800  0.00276200  1
  O  O37  1  0.00297100  0.28121800  0.50003200  1
  O  O38  1  0.87936500  0.74068500  0.24106800  1
  O  O39  1  0.96754400  0.77047100  0.99458500  1
