# generated using pymatgen
data_Fe2H13C6NCl2O11
_symmetry_space_group_name_H-M   'P 1'
_cell_length_a   8.89536250
_cell_length_b   8.89536250
_cell_length_c   12.64788142
_cell_angle_alpha   79.80688649
_cell_angle_beta   79.80688649
_cell_angle_gamma   116.54105900
_symmetry_Int_Tables_number   1
_chemical_formula_structural   Fe2H13C6NCl2O11
_chemical_formula_sum   'Fe4 H26 C12 N2 Cl4 O22'
_cell_volume   843.11445288
_cell_formula_units_Z   2
loop_
 _symmetry_equiv_pos_site_id
 _symmetry_equiv_pos_as_xyz
  1  'x, y, z'
loop_
 _atom_site_type_symbol
 _atom_site_label
 _atom_site_symmetry_multiplicity
 _atom_site_fract_x
 _atom_site_fract_y
 _atom_site_fract_z
 _atom_site_occupancy
  Fe  Fe0  1  0.07641700  0.66311100  0.83459700  1
  Fe  Fe1  1  0.66311100  0.07641700  0.33459700  1
  Fe  Fe2  1  0.02282400  0.92833900  0.60811200  1
  Fe  Fe3  1  0.92833900  0.02282400  0.10811200  1
  H  H4  1  0.93481800  0.60755600  0.68053900  1
  H  H5  1  0.60755600  0.93481800  0.18053900  1
  H  H6  1  0.44136900  0.19290100  0.67306200  1
  H  H7  1  0.19290100  0.44136900  0.17306200  1
  H  H8  1  0.46091100  0.14068600  0.80088000  1
  H  H9  1  0.14068600  0.46091100  0.30088000  1
  H  H10  1  0.63690100  0.30398100  0.69754800  1
  H  H11  1  0.30398100  0.63690100  0.19754800  1
  H  H12  1  0.87586800  0.49990300  0.34718200  1
  H  H13  1  0.49990300  0.87586800  0.84718200  1
  H  H14  1  0.99639900  0.65500500  0.38889400  1
  H  H15  1  0.65500500  0.99639900  0.88889400  1
  H  H16  1  0.90109300  0.32836800  0.67208900  1
  H  H17  1  0.32836800  0.90109300  0.17208900  1
  H  H18  1  0.88992600  0.42442300  0.55548700  1
  H  H19  1  0.42442300  0.88992600  0.05548700  1
  H  H20  1  0.30462200  0.31085900  0.77987800  1
  H  H21  1  0.31085900  0.30462200  0.27987800  1
  H  H22  1  0.50525600  0.48574400  0.68240200  1
  H  H23  1  0.48574400  0.50525600  0.18240200  1
  H  H24  1  0.47241800  0.52912800  0.87392000  1
  H  H25  1  0.52912800  0.47241800  0.37392000  1
  H  H26  1  0.65733500  0.50212700  0.83196100  1
  H  H27  1  0.50212700  0.65733500  0.33196100  1
  H  H28  1  0.45850100  0.32411900  0.93117700  1
  H  H29  1  0.32411900  0.45850100  0.43117700  1
  C  C30  1  0.89875300  0.76846200  0.99345800  1
  C  C31  1  0.76846200  0.89875300  0.49345800  1
  C  C32  1  0.08716400  0.92296500  0.93908100  1
  C  C33  1  0.92296500  0.08716400  0.43908100  1
  C  C34  1  0.93394600  0.29712900  0.94062500  1
  C  C35  1  0.29712900  0.93394600  0.44062500  1
  C  C36  1  0.05687600  0.39133200  0.00716000  1
  C  C37  1  0.39133200  0.05687600  0.50716000  1
  C  C38  1  0.44816000  0.37541600  0.75914600  1
  C  C39  1  0.37541600  0.44816000  0.25914600  1
  C  C40  1  0.51358400  0.43520300  0.85500100  1
  C  C41  1  0.43520300  0.51358400  0.35500100  1
  N  N42  1  0.49998600  0.24507100  0.73139400  1
  N  N43  1  0.24507100  0.49998600  0.23139400  1
  Cl  Cl44  1  0.34275200  0.72690300  0.72579100  1
  Cl  Cl45  1  0.72690300  0.34275200  0.22579100  1
  Cl  Cl46  1  0.94477300  0.05615200  0.73157000  1
  Cl  Cl47  1  0.05615200  0.94477300  0.23157000  1
  O  O48  1  0.97710900  0.70899300  0.71183800  1
  O  O49  1  0.70899300  0.97710900  0.21183800  1
  O  O50  1  0.85775000  0.63687400  0.95691100  1
  O  O51  1  0.63687400  0.85775000  0.45691100  1
  O  O52  1  0.18539100  0.90420000  0.86228300  1
  O  O53  1  0.90420000  0.18539100  0.36228300  1
  O  O54  1  0.80202900  0.78841600  0.07047600  1
  O  O55  1  0.78841600  0.80202900  0.57047600  1
  O  O56  1  0.13171900  0.05628100  0.97404300  1
  O  O57  1  0.05628100  0.13171900  0.47404300  1
  O  O58  1  0.85197000  0.13169500  0.97267600  1
  O  O59  1  0.13169500  0.85197000  0.47267600  1
  O  O60  1  0.07443600  0.29368400  0.08555600  1
  O  O61  1  0.29368400  0.07443600  0.58555600  1
  O  O62  1  0.13188200  0.55640200  0.97927400  1
  O  O63  1  0.55640200  0.13188200  0.47927400  1
  O  O64  1  0.92688600  0.39593500  0.85776200  1
  O  O65  1  0.39593500  0.92688600  0.35776200  1
  O  O66  1  0.95618400  0.53117200  0.39390000  1
  O  O67  1  0.53117200  0.95618400  0.89390000  1
  O  O68  1  0.85680000  0.40209800  0.63805700  1
  O  O69  1  0.40209800  0.85680000  0.13805700  1
