# generated using pymatgen
data_Ca2Mn2Si4H6O17
_symmetry_space_group_name_H-M   'P 1'
_cell_length_a   5.45535706
_cell_length_b   5.45535706
_cell_length_c   12.03166940
_cell_angle_alpha   86.54954761
_cell_angle_beta   86.54954761
_cell_angle_gamma   67.18127609
_symmetry_Int_Tables_number   1
_chemical_formula_structural   Ca2Mn2Si4H6O17
_chemical_formula_sum   'Ca2 Mn2 Si4 H6 O17'
_cell_volume   329.18688197
_cell_formula_units_Z   1
loop_
 _symmetry_equiv_pos_site_id
 _symmetry_equiv_pos_as_xyz
  1  'x, y, z'
loop_
 _atom_site_type_symbol
 _atom_site_label
 _atom_site_symmetry_multiplicity
 _atom_site_fract_x
 _atom_site_fract_y
 _atom_site_fract_z
 _atom_site_occupancy
  Ca  Ca0  1  0.70204100  0.69365500  0.73382500  1
  Ca  Ca1  1  0.30634500  0.29795900  0.26617500  1
  Mn  Mn2  1  0.50518100  0.99347300  0.00023600  1
  Mn  Mn3  1  0.00652700  0.49481900  0.99976400  1
  Si  Si4  1  0.04060200  0.03139500  0.85145500  1
  Si  Si5  1  0.96860500  0.95939800  0.14854500  1
  Si  Si6  1  0.11395200  0.08539900  0.60408900  1
  Si  Si7  1  0.91460100  0.88604800  0.39591100  1
  H  H8  1  0.95049000  0.47839400  0.50701200  1
  H  H9  1  0.52160600  0.04951000  0.49298800  1
  H  H10  1  0.43908200  0.31186600  0.67477700  1
  H  H11  1  0.68813400  0.56091800  0.32522300  1
  H  H12  1  0.39425300  0.40059900  0.80192700  1
  H  H13  1  0.59940100  0.60574700  0.19807300  1
  O  O14  1  0.87309800  0.86387000  0.92091300  1
  O  O15  1  0.13613000  0.12690200  0.07908800  1
  O  O16  1  0.98635000  0.99028100  0.72056100  1
  O  O17  1  0.00971900  0.01365000  0.27943900  1
  O  O18  1  0.35785700  0.89491500  0.87360900  1
  O  O19  1  0.10508500  0.64214300  0.12639100  1
  O  O20  1  0.65057600  0.09098300  0.12706400  1
  O  O21  1  0.90901700  0.34942400  0.87293600  1
  O  O22  1  0.06672600  0.93327400  0.50000000  1
  O  O23  1  0.42634700  0.02238200  0.61379100  1
  O  O24  1  0.97761800  0.57365300  0.38620900  1
  O  O25  1  0.59192600  0.06483900  0.41185400  1
  O  O26  1  0.93516100  0.40807400  0.58814600  1
  O  O27  1  0.36284700  0.34935100  0.94286300  1
  O  O28  1  0.65064900  0.63715300  0.05713700  1
  O  O29  1  0.42197000  0.45889600  0.72310600  1
  O  O30  1  0.54110400  0.57803000  0.27689400  1
