# generated using pymatgen
data_Ca10Ti8NbFeO30
_symmetry_space_group_name_H-M   'P 1'
_cell_length_a   5.43686100
_cell_length_b   5.53379019
_cell_length_c   38.61817823
_cell_angle_alpha   90.07275440
_cell_angle_beta   90.04505839
_cell_angle_gamma   90.23411052
_symmetry_Int_Tables_number   1
_chemical_formula_structural   Ca10Ti8NbFeO30
_chemical_formula_sum   'Ca20 Ti16 Nb2 Fe2 O60'
_cell_volume   1161.87281497
_cell_formula_units_Z   2
loop_
 _symmetry_equiv_pos_site_id
 _symmetry_equiv_pos_as_xyz
  1  'x, y, z'
loop_
 _atom_site_type_symbol
 _atom_site_label
 _atom_site_symmetry_multiplicity
 _atom_site_fract_x
 _atom_site_fract_y
 _atom_site_fract_z
 _atom_site_occupancy
  Ca  Ca0  1  0.00817100  0.95187300  0.95074600  1
  Ca  Ca1  1  0.01903200  0.96792600  0.34630900  1
  Ca  Ca2  1  0.00731200  0.96836900  0.14830600  1
  Ca  Ca3  1  0.00871000  0.96785400  0.54914900  1
  Ca  Ca4  1  0.00430300  0.94561500  0.75287800  1
  Ca  Ca5  1  0.49418000  0.46451800  0.14817300  1
  Ca  Ca6  1  0.48972800  0.45289900  0.95049500  1
  Ca  Ca7  1  0.48934800  0.46217200  0.34626200  1
  Ca  Ca8  1  0.48226800  0.45764100  0.54983200  1
  Ca  Ca9  1  0.48699100  0.44739700  0.75311700  1
  Ca  Ca10  1  0.50582000  0.53548200  0.85182700  1
  Ca  Ca11  1  0.51027200  0.54710100  0.04950500  1
  Ca  Ca12  1  0.51773200  0.54235900  0.45016800  1
  Ca  Ca13  1  0.51300900  0.55260300  0.24688300  1
  Ca  Ca14  1  0.51065200  0.53782800  0.65373800  1
  Ca  Ca15  1  0.99182900  0.04812700  0.04925400  1
  Ca  Ca16  1  0.99268800  0.03163100  0.85169400  1
  Ca  Ca17  1  0.99129000  0.03214600  0.45085100  1
  Ca  Ca18  1  0.99569700  0.05438500  0.24712200  1
  Ca  Ca19  1  0.98096800  0.03207400  0.65369100  1
  Ti  Ti20  1  0.00000000  0.50000000  0.00000000  1
  Ti  Ti21  1  0.99579300  0.51626000  0.19743100  1
  Ti  Ti22  1  0.99863500  0.51264000  0.29536900  1
  Ti  Ti23  1  0.00136500  0.48736000  0.70463100  1
  Ti  Ti24  1  0.50455700  0.98677800  0.90084300  1
  Ti  Ti25  1  0.49544300  0.01322200  0.09915700  1
  Ti  Ti26  1  0.50777300  0.98899300  0.80179900  1
  Ti  Ti27  1  0.50330800  0.00857100  0.29904200  1
  Ti  Ti28  1  0.49669200  0.99142900  0.70095800  1
  Ti  Ti29  1  0.50000000  0.00000000  0.00000000  1
  Ti  Ti30  1  0.49222700  0.01100700  0.19820100  1
  Ti  Ti31  1  0.50000000  0.00000000  0.50000000  1
  Ti  Ti32  1  0.99991800  0.48375200  0.90188900  1
  Ti  Ti33  1  0.00420700  0.48374000  0.80256900  1
  Ti  Ti34  1  0.00008200  0.51624800  0.09811100  1
  Ti  Ti35  1  0.00000000  0.50000000  0.50000000  1
  Nb  Nb36  1  0.99598100  0.49797900  0.60201600  1
  Nb  Nb37  1  0.00401900  0.50202100  0.39798400  1
  Fe  Fe38  1  0.50345900  0.00124300  0.39926800  1
  Fe  Fe39  1  0.49654100  0.99875700  0.60073200  1
  O  O40  1  0.07233100  0.47703000  0.85166700  1
  O  O41  1  0.08259400  0.48011200  0.04933800  1
  O  O42  1  0.08898000  0.48675500  0.24769500  1
  O  O43  1  0.41618900  0.97184400  0.45081900  1
  O  O44  1  0.08280800  0.47703300  0.65248400  1
  O  O45  1  0.20944500  0.21050400  0.99184500  1
  O  O46  1  0.21925700  0.21396700  0.18973400  1
  O  O47  1  0.21949400  0.21960000  0.38876700  1
  O  O48  1  0.20841500  0.21447200  0.59150900  1
  O  O49  1  0.19763700  0.20594600  0.79408200  1
  O  O50  1  0.20306100  0.21124900  0.90953800  1
  O  O51  1  0.21600900  0.21027400  0.10688700  1
  O  O52  1  0.22317000  0.22141100  0.30568000  1
  O  O53  1  0.21498500  0.21879000  0.50790600  1
  O  O54  1  0.19877600  0.20430900  0.71117900  1
  O  O55  1  0.28550100  0.71000900  0.90952800  1
  O  O56  1  0.28934300  0.71021000  0.99165200  1
  O  O57  1  0.29454400  0.71033800  0.10671000  1
  O  O58  1  0.29903500  0.71449900  0.18965500  1
  O  O59  1  0.28967600  0.71744300  0.38761000  1
  O  O60  1  0.27789600  0.70156600  0.71195300  1
  O  O61  1  0.27958300  0.71706500  0.50991200  1
  O  O62  1  0.27741100  0.71442700  0.59074100  1
  O  O63  1  0.29584800  0.72176500  0.30592300  1
  O  O64  1  0.28025500  0.70397300  0.79408900  1
  O  O65  1  0.41641000  0.97654200  0.85186400  1
  O  O66  1  0.42267100  0.97966200  0.04935900  1
  O  O67  1  0.09089900  0.49122500  0.44984300  1
  O  O68  1  0.43049500  0.98522400  0.24725700  1
  O  O69  1  0.40490200  0.96815200  0.65360600  1
  O  O70  1  0.58359000  0.02345800  0.14813600  1
  O  O71  1  0.57732900  0.02033800  0.95064100  1
  O  O72  1  0.59509800  0.03184800  0.34639400  1
  O  O73  1  0.90910100  0.50877500  0.55015700  1
  O  O74  1  0.56950500  0.01477600  0.75274300  1
  O  O75  1  0.70096500  0.28550100  0.81034500  1
  O  O76  1  0.70545600  0.28966200  0.89329000  1
  O  O77  1  0.71065700  0.28979000  0.00834800  1
  O  O78  1  0.71449900  0.28999100  0.09047200  1
  O  O79  1  0.72258900  0.28557300  0.40925900  1
  O  O80  1  0.71974500  0.29602700  0.20591100  1
  O  O81  1  0.72210400  0.29843400  0.28804700  1
  O  O82  1  0.71032400  0.28255700  0.61239000  1
  O  O83  1  0.72041700  0.28293500  0.49008800  1
  O  O84  1  0.70415200  0.27823500  0.69407700  1
  O  O85  1  0.78399100  0.78972600  0.89311300  1
  O  O86  1  0.78501500  0.78121000  0.49209400  1
  O  O87  1  0.79693900  0.78875100  0.09046200  1
  O  O88  1  0.80122400  0.79569100  0.28882100  1
  O  O89  1  0.77683000  0.77858900  0.69432000  1
  O  O90  1  0.78074300  0.78603300  0.81026600  1
  O  O91  1  0.79055500  0.78949600  0.00815500  1
  O  O92  1  0.80236300  0.79405400  0.20591800  1
  O  O93  1  0.79158500  0.78552800  0.40849100  1
  O  O94  1  0.78050600  0.78040000  0.61123300  1
  O  O95  1  0.91740600  0.51988800  0.95066200  1
  O  O96  1  0.92766900  0.52297000  0.14833300  1
  O  O97  1  0.91719200  0.52296700  0.34751600  1
  O  O98  1  0.58381100  0.02815600  0.54918100  1
  O  O99  1  0.91102000  0.51324500  0.75230500  1
