# generated using pymatgen
data_GaN
_symmetry_space_group_name_H-M   'P 1'
_cell_length_a   3.21153800
_cell_length_b   3.21153757
_cell_length_c   10.35684000
_cell_angle_alpha   90.00000000
_cell_angle_beta   90.00000000
_cell_angle_gamma   120.00000440
_symmetry_Int_Tables_number   1
_chemical_formula_structural   GaN
_chemical_formula_sum   'Ga4 N4'
_cell_volume   92.50899265
_cell_formula_units_Z   4
loop_
 _symmetry_equiv_pos_site_id
 _symmetry_equiv_pos_as_xyz
  1  'x, y, z'
loop_
 _atom_site_type_symbol
 _atom_site_label
 _atom_site_symmetry_multiplicity
 _atom_site_fract_x
 _atom_site_fract_y
 _atom_site_fract_z
 _atom_site_occupancy
  Ga  Ga0  1  0.00000000  0.00000000  0.28586800  1
  Ga  Ga1  1  0.33333300  0.66666700  0.53734900  1
  Ga  Ga2  1  0.66666700  0.33333300  0.03734900  1
  Ga  Ga3  1  0.00000000  0.00000000  0.78586800  1
  N  N4  1  0.33333300  0.66666700  0.84374500  1
  N  N5  1  0.00000000  0.00000000  0.59303800  1
  N  N6  1  0.66666700  0.33333300  0.34374500  1
  N  N7  1  0.00000000  0.00000000  0.09303800  1
