# generated using pymatgen
data_CoH2(CN2)2
_symmetry_space_group_name_H-M   'P 1'
_cell_length_a   6.68715100
_cell_length_b   8.64841800
_cell_length_c   3.27388700
_cell_angle_alpha   90.00000000
_cell_angle_beta   90.00000000
_cell_angle_gamma   90.00000000
_symmetry_Int_Tables_number   1
_chemical_formula_structural   CoH2(CN2)2
_chemical_formula_sum   'Co2 H4 C4 N8'
_cell_volume   189.33961399
_cell_formula_units_Z   2
loop_
 _symmetry_equiv_pos_site_id
 _symmetry_equiv_pos_as_xyz
  1  'x, y, z'
loop_
 _atom_site_type_symbol
 _atom_site_label
 _atom_site_symmetry_multiplicity
 _atom_site_fract_x
 _atom_site_fract_y
 _atom_site_fract_z
 _atom_site_occupancy
  Co  Co0  1  0.50000000  0.50000000  0.50000000  1
  Co  Co1  1  0.00000000  0.00000000  0.00000000  1
  H  H2  1  0.29750400  0.93357000  0.50000000  1
  H  H3  1  0.70249600  0.06643000  0.50000000  1
  H  H4  1  0.79750400  0.56643000  0.00000000  1
  H  H5  1  0.20249600  0.43357000  0.00000000  1
  C  C6  1  0.67338800  0.84071300  0.50000000  1
  C  C7  1  0.32661200  0.15928700  0.50000000  1
  C  C8  1  0.17338800  0.65928700  0.00000000  1
  C  C9  1  0.82661200  0.34071300  0.00000000  1
  N  N10  1  0.78248700  0.96532300  0.50000000  1
  N  N11  1  0.21751300  0.03467700  0.50000000  1
  N  N12  1  0.28248700  0.53467700  0.00000000  1
  N  N13  1  0.71751300  0.46532300  0.00000000  1
  N  N14  1  0.58553300  0.72181000  0.50000000  1
  N  N15  1  0.41446700  0.27819000  0.50000000  1
  N  N16  1  0.08553300  0.77819000  0.00000000  1
  N  N17  1  0.91446700  0.22181000  0.00000000  1
