# generated using pymatgen
data_Cr2Hg2H2O9
_symmetry_space_group_name_H-M   'P 1'
_cell_length_a   6.59140315
_cell_length_b   6.59140315
_cell_length_c   13.51529886
_cell_angle_alpha   72.78458591
_cell_angle_beta   72.78458591
_cell_angle_gamma   47.69890420
_symmetry_Int_Tables_number   1
_chemical_formula_structural   Cr2Hg2H2O9
_chemical_formula_sum   'Cr4 Hg4 H4 O18'
_cell_volume   410.93176809
_cell_formula_units_Z   2
loop_
 _symmetry_equiv_pos_site_id
 _symmetry_equiv_pos_as_xyz
  1  'x, y, z'
loop_
 _atom_site_type_symbol
 _atom_site_label
 _atom_site_symmetry_multiplicity
 _atom_site_fract_x
 _atom_site_fract_y
 _atom_site_fract_z
 _atom_site_occupancy
  Cr  Cr0  1  0.16086800  0.54124400  0.59827100  1
  Cr  Cr1  1  0.45875600  0.83913200  0.90172900  1
  Cr  Cr2  1  0.83913200  0.45875600  0.40172900  1
  Cr  Cr3  1  0.54124400  0.16086800  0.09827100  1
  Hg  Hg4  1  0.34583500  0.90191800  0.62464700  1
  Hg  Hg5  1  0.09808200  0.65416500  0.87535300  1
  Hg  Hg6  1  0.65416500  0.09808200  0.37535300  1
  Hg  Hg7  1  0.90191800  0.34583500  0.12464700  1
  H  H8  1  0.77645500  0.29415500  0.78865800  1
  H  H9  1  0.70584500  0.22354500  0.71134200  1
  H  H10  1  0.22354500  0.70584500  0.21134200  1
  H  H11  1  0.29415500  0.77645500  0.28865800  1
  O  O12  1  0.31098000  0.59011300  0.66520600  1
  O  O13  1  0.40988700  0.68902000  0.83479400  1
  O  O14  1  0.68902000  0.40988700  0.33479400  1
  O  O15  1  0.59011300  0.31098000  0.16520600  1
  O  O16  1  0.87831700  0.61217200  0.66775100  1
  O  O17  1  0.38782800  0.12168300  0.83224900  1
  O  O18  1  0.12168300  0.38782800  0.33224900  1
  O  O19  1  0.61217200  0.87831700  0.16775100  1
  O  O20  1  0.39572000  0.20175900  0.57348700  1
  O  O21  1  0.79824100  0.60428000  0.92651300  1
  O  O22  1  0.60428000  0.79824100  0.42651300  1
  O  O23  1  0.20175900  0.39572000  0.07348700  1
  O  O24  1  0.09186900  0.73816700  0.48665200  1
  O  O25  1  0.26183300  0.90813100  0.01334800  1
  O  O26  1  0.90813100  0.26183300  0.51334800  1
  O  O27  1  0.73816700  0.09186900  0.98665200  1
  O  O28  1  0.85462600  0.14537400  0.75000000  1
  O  O29  1  0.14537400  0.85462600  0.25000000  1
