# generated using pymatgen
data_Cd(BrO2)2
_symmetry_space_group_name_H-M   'P 1'
_cell_length_a   9.51822300
_cell_length_b   3.70354100
_cell_length_c   7.59514437
_cell_angle_alpha   63.57413614
_cell_angle_beta   90.00000000
_cell_angle_gamma   90.00000000
_symmetry_Int_Tables_number   1
_chemical_formula_structural   Cd(BrO2)2
_chemical_formula_sum   'Cd2 Br4 O8'
_cell_volume   239.76178855
_cell_formula_units_Z   2
loop_
 _symmetry_equiv_pos_site_id
 _symmetry_equiv_pos_as_xyz
  1  'x, y, z'
loop_
 _atom_site_type_symbol
 _atom_site_label
 _atom_site_symmetry_multiplicity
 _atom_site_fract_x
 _atom_site_fract_y
 _atom_site_fract_z
 _atom_site_occupancy
  Cd  Cd0  1  0.50000000  0.00000000  0.00000000  1
  Cd  Cd1  1  0.00000000  0.00000000  0.50000000  1
  Br  Br2  1  0.17933300  0.56936800  0.00193700  1
  Br  Br3  1  0.82066700  0.43063200  0.99806300  1
  Br  Br4  1  0.32066700  0.56936800  0.50193700  1
  Br  Br5  1  0.67933300  0.43063200  0.49806300  1
  O  O6  1  0.42215300  0.55262200  0.31409200  1
  O  O7  1  0.57784700  0.44737800  0.68590800  1
  O  O8  1  0.07784700  0.55262200  0.81409200  1
  O  O9  1  0.92215300  0.44737800  0.18590800  1
  O  O10  1  0.14386000  0.57789000  0.41874200  1
  O  O11  1  0.85614000  0.42211000  0.58125800  1
  O  O12  1  0.35614000  0.57789000  0.91874200  1
  O  O13  1  0.64386000  0.42211000  0.08125800  1
