# generated using pymatgen
data_Mn2PH9(C4O3)3
_symmetry_space_group_name_H-M   'P 1'
_cell_length_a   15.91772700
_cell_length_b   8.75934000
_cell_length_c   14.34194545
_cell_angle_alpha   64.33045882
_cell_angle_beta   90.00000000
_cell_angle_gamma   90.00000000
_symmetry_Int_Tables_number   1
_chemical_formula_structural   Mn2PH9(C4O3)3
_chemical_formula_sum   'Mn8 P4 H36 C48 O36'
_cell_volume   1802.32643998
_cell_formula_units_Z   4
loop_
 _symmetry_equiv_pos_site_id
 _symmetry_equiv_pos_as_xyz
  1  'x, y, z'
loop_
 _atom_site_type_symbol
 _atom_site_label
 _atom_site_symmetry_multiplicity
 _atom_site_fract_x
 _atom_site_fract_y
 _atom_site_fract_z
 _atom_site_occupancy
  Mn  Mn0  1  0.68628300  0.79700200  0.66629200  1
  Mn  Mn1  1  0.81371700  0.79700200  0.16629200  1
  Mn  Mn2  1  0.31371700  0.20299800  0.33370800  1
  Mn  Mn3  1  0.18628300  0.20299800  0.83370800  1
  Mn  Mn4  1  0.82225700  0.04680600  0.62695900  1
  Mn  Mn5  1  0.67774300  0.04680600  0.12695900  1
  Mn  Mn6  1  0.17774300  0.95319400  0.37304100  1
  Mn  Mn7  1  0.32225700  0.95319400  0.87304100  1
  P  P8  1  0.58467600  0.60612200  0.68132800  1
  P  P9  1  0.91532400  0.60612200  0.18132800  1
  P  P10  1  0.41532400  0.39387800  0.31867200  1
  P  P11  1  0.08467600  0.39387800  0.81867200  1
  H  H12  1  0.62976800  0.36776300  0.83839500  1
  H  H13  1  0.87023200  0.36776300  0.33839500  1
  H  H14  1  0.37023200  0.63223700  0.16160500  1
  H  H15  1  0.12976800  0.63223700  0.66160500  1
  H  H16  1  0.54310400  0.47786400  0.86211300  1
  H  H17  1  0.95689600  0.47786400  0.36211300  1
  H  H18  1  0.45689600  0.52213600  0.13788700  1
  H  H19  1  0.04310400  0.52213600  0.63788700  1
  H  H20  1  0.52538500  0.33905700  0.80182600  1
  H  H21  1  0.97461500  0.33905700  0.30182600  1
  H  H22  1  0.47461500  0.66094300  0.19817400  1
  H  H23  1  0.02538500  0.66094300  0.69817400  1
  H  H24  1  0.66233300  0.43936700  0.61231600  1
  H  H25  1  0.83766700  0.43936700  0.11231600  1
  H  H26  1  0.33766700  0.56063300  0.38768400  1
  H  H27  1  0.16233300  0.56063300  0.88768400  1
  H  H28  1  0.55172300  0.39883100  0.61680700  1
  H  H29  1  0.94827700  0.39883100  0.11680700  1
  H  H30  1  0.44827700  0.60116900  0.38319300  1
  H  H31  1  0.05172300  0.60116900  0.88319300  1
  H  H32  1  0.59455300  0.58897000  0.51699800  1
  H  H33  1  0.90544700  0.58897000  0.01699800  1
  H  H34  1  0.40544700  0.41103000  0.48300200  1
  H  H35  1  0.09455300  0.41103000  0.98300200  1
  H  H36  1  0.45911800  0.75694400  0.69108000  1
  H  H37  1  0.04088200  0.75694400  0.19108000  1
  H  H38  1  0.54088200  0.24305600  0.30892000  1
  H  H39  1  0.95911800  0.24305600  0.80892000  1
  H  H40  1  0.47593800  0.77534100  0.56334900  1
  H  H41  1  0.02406200  0.77534100  0.06334900  1
  H  H42  1  0.52406200  0.22465900  0.43665100  1
  H  H43  1  0.97593800  0.22465900  0.93665100  1
  H  H44  1  0.43529500  0.58196700  0.66170000  1
  H  H45  1  0.06470500  0.58196700  0.16170000  1
  H  H46  1  0.56470500  0.41803300  0.33830000  1
  H  H47  1  0.93529500  0.41803300  0.83830000  1
  C  C48  1  0.67226900  0.88380100  0.52597400  1
  C  C49  1  0.82773100  0.88380100  0.02597400  1
  C  C50  1  0.32773100  0.11619900  0.47402600  1
  C  C51  1  0.17226900  0.11619900  0.97402600  1
  C  C52  1  0.76777300  0.64807800  0.66533100  1
  C  C53  1  0.73222700  0.64807800  0.16533100  1
  C  C54  1  0.23222700  0.35192200  0.33466900  1
  C  C55  1  0.26777300  0.35192200  0.83466900  1
  C  C56  1  0.69797200  0.71878200  0.80763700  1
  C  C57  1  0.80202800  0.71878200  0.30763700  1
  C  C58  1  0.30202800  0.28121800  0.19236300  1
  C  C59  1  0.19797200  0.28121800  0.69236300  1
  C  C60  1  0.61043500  0.95415100  0.66685200  1
  C  C61  1  0.88956500  0.95415100  0.16685200  1
  C  C62  1  0.38956500  0.04584900  0.33314800  1
  C  C63  1  0.11043500  0.04584900  0.83314800  1
  C  C64  1  0.87067300  0.86504800  0.73563100  1
  C  C65  1  0.62932700  0.86504800  0.23563100  1
  C  C66  1  0.12932700  0.13495200  0.26436900  1
  C  C67  1  0.37067300  0.13495200  0.76436900  1
  C  C68  1  0.76223000  0.10350000  0.71780100  1
  C  C69  1  0.73777000  0.10350000  0.21780100  1
  C  C70  1  0.23777000  0.89650000  0.28219900  1
  C  C71  1  0.26223000  0.89650000  0.78219900  1
  C  C72  1  0.75531300  0.19483200  0.52142100  1
  C  C73  1  0.74468700  0.19483200  0.02142100  1
  C  C74  1  0.24468700  0.80516800  0.47857900  1
  C  C75  1  0.25531300  0.80516800  0.97857900  1
  C  C76  1  0.86761200  0.97018700  0.53602900  1
  C  C77  1  0.63238800  0.97018700  0.03602900  1
  C  C78  1  0.13238800  0.02981300  0.46397100  1
  C  C79  1  0.36761200  0.02981300  0.96397100  1
  C  C80  1  0.90612300  0.19373000  0.61009500  1
  C  C81  1  0.59387700  0.19373000  0.11009500  1
  C  C82  1  0.09387700  0.80627000  0.38990500  1
  C  C83  1  0.40612300  0.80627000  0.88990500  1
  C  C84  1  0.56934900  0.43035200  0.80884900  1
  C  C85  1  0.93065100  0.43035200  0.30884900  1
  C  C86  1  0.43065100  0.56964800  0.19115100  1
  C  C87  1  0.06934900  0.56964800  0.69115100  1
  C  C88  1  0.59982200  0.49766400  0.59868400  1
  C  C89  1  0.90017800  0.49766400  0.09868400  1
  C  C90  1  0.40017800  0.50233600  0.40131600  1
  C  C91  1  0.09982200  0.50233600  0.90131600  1
  C  C92  1  0.47829200  0.68845300  0.64613200  1
  C  C93  1  0.02170800  0.68845300  0.14613200  1
  C  C94  1  0.52170800  0.31154700  0.35386800  1
  C  C95  1  0.97829200  0.31154700  0.85386800  1
  O  O96  1  0.65760600  0.93658100  0.43776100  1
  O  O97  1  0.84239400  0.93658100  0.93776100  1
  O  O98  1  0.34239400  0.06341900  0.56223900  1
  O  O99  1  0.15760600  0.06341900  0.06223900  1
  O  O100  1  0.81762200  0.55024400  0.66564900  1
  O  O101  1  0.68237800  0.55024400  0.16564900  1
  O  O102  1  0.18237800  0.44975600  0.33435100  1
  O  O103  1  0.31762200  0.44975600  0.83435100  1
  O  O104  1  0.70358700  0.66772600  0.89707000  1
  O  O105  1  0.79641300  0.66772600  0.39707000  1
  O  O106  1  0.29641300  0.33227400  0.10293000  1
  O  O107  1  0.20358700  0.33227400  0.60293000  1
  O  O108  1  0.56016100  0.05186800  0.66600700  1
  O  O109  1  0.93983900  0.05186800  0.16600700  1
  O  O110  1  0.43983900  0.94813200  0.33399300  1
  O  O111  1  0.06016100  0.94813200  0.83399300  1
  O  O112  1  0.90367800  0.75194400  0.80274900  1
  O  O113  1  0.59632200  0.75194400  0.30274900  1
  O  O114  1  0.09632200  0.24805600  0.19725100  1
  O  O115  1  0.40367800  0.24805600  0.69725100  1
  O  O116  1  0.72504300  0.14707100  0.77181400  1
  O  O117  1  0.77495700  0.14707100  0.27181400  1
  O  O118  1  0.27495700  0.85292900  0.22818600  1
  O  O119  1  0.22504300  0.85292900  0.72818600  1
  O  O120  1  0.71499900  0.29215800  0.45425000  1
  O  O121  1  0.78500100  0.29215800  0.95425000  1
  O  O122  1  0.28500100  0.70784200  0.54575000  1
  O  O123  1  0.21499900  0.70784200  0.04575000  1
  O  O124  1  0.89856400  0.92635800  0.47833200  1
  O  O125  1  0.60143600  0.92635800  0.97833200  1
  O  O126  1  0.10143600  0.07364200  0.52166800  1
  O  O127  1  0.39856400  0.07364200  0.02166800  1
  O  O128  1  0.96076500  0.28853800  0.59948000  1
  O  O129  1  0.53923500  0.28853800  0.09948000  1
  O  O130  1  0.03923500  0.71146200  0.40052000  1
  O  O131  1  0.46076500  0.71146200  0.90052000  1
