# generated using pymatgen
data_CoNiH12C4(N2O3)2
_symmetry_space_group_name_H-M   'P 1'
_cell_length_a   6.94181700
_cell_length_b   13.13197100
_cell_length_c   14.79789800
_cell_angle_alpha   90.00000000
_cell_angle_beta   90.00000000
_cell_angle_gamma   90.00000000
_symmetry_Int_Tables_number   1
_chemical_formula_structural   CoNiH12C4(N2O3)2
_chemical_formula_sum   'Co4 Ni4 H48 C16 N16 O24'
_cell_volume   1348.97252729
_cell_formula_units_Z   4
loop_
 _symmetry_equiv_pos_site_id
 _symmetry_equiv_pos_as_xyz
  1  'x, y, z'
loop_
 _atom_site_type_symbol
 _atom_site_label
 _atom_site_symmetry_multiplicity
 _atom_site_fract_x
 _atom_site_fract_y
 _atom_site_fract_z
 _atom_site_occupancy
  Co  Co0  1  0.00000000  0.00000000  0.50000000  1
  Co  Co1  1  0.50000000  0.50000000  0.00000000  1
  Co  Co2  1  0.00000000  0.00000000  0.00000000  1
  Co  Co3  1  0.50000000  0.50000000  0.50000000  1
  Ni  Ni4  1  0.50315400  0.05546900  0.75000000  1
  Ni  Ni5  1  0.99684600  0.55546900  0.75000000  1
  Ni  Ni6  1  0.49684600  0.94453100  0.25000000  1
  Ni  Ni7  1  0.00315400  0.44453100  0.25000000  1
  H  H8  1  0.02867300  0.78938800  0.52507600  1
  H  H9  1  0.47132700  0.28938800  0.97492400  1
  H  H10  1  0.97132700  0.21061200  0.02507600  1
  H  H11  1  0.52867300  0.71061200  0.47492400  1
  H  H12  1  0.97132700  0.21061200  0.47492400  1
  H  H13  1  0.52867300  0.71061200  0.02507600  1
  H  H14  1  0.02867300  0.78938800  0.97492400  1
  H  H15  1  0.47132700  0.28938800  0.52507600  1
  H  H16  1  0.31125400  0.27225100  0.75000000  1
  H  H17  1  0.18874600  0.77225100  0.75000000  1
  H  H18  1  0.68874600  0.72774900  0.25000000  1
  H  H19  1  0.81125400  0.22774900  0.25000000  1
  H  H20  1  0.91811000  0.67332400  0.41933600  1
  H  H21  1  0.58189000  0.17332400  0.08066400  1
  H  H22  1  0.08189000  0.32667600  0.91933600  1
  H  H23  1  0.41811000  0.82667600  0.58066400  1
  H  H24  1  0.08189000  0.32667600  0.58066400  1
  H  H25  1  0.41811000  0.82667600  0.91933600  1
  H  H26  1  0.91811000  0.67332400  0.08066400  1
  H  H27  1  0.58189000  0.17332400  0.41933600  1
  H  H28  1  0.85963900  0.83204600  0.58397800  1
  H  H29  1  0.64036100  0.33204600  0.91602200  1
  H  H30  1  0.14036100  0.16795400  0.08397800  1
  H  H31  1  0.35963900  0.66795400  0.41602200  1
  H  H32  1  0.14036100  0.16795400  0.41602200  1
  H  H33  1  0.35963900  0.66795400  0.08397800  1
  H  H34  1  0.85963900  0.83204600  0.91602200  1
  H  H35  1  0.64036100  0.33204600  0.58397800  1
  H  H36  1  0.06515100  0.60614900  0.46888400  1
  H  H37  1  0.43484900  0.10614900  0.03111600  1
  H  H38  1  0.93484900  0.39385100  0.96888400  1
  H  H39  1  0.56515100  0.89385100  0.53111600  1
  H  H40  1  0.93484900  0.39385100  0.53111600  1
  H  H41  1  0.56515100  0.89385100  0.96888400  1
  H  H42  1  0.06515100  0.60614900  0.03111600  1
  H  H43  1  0.43484900  0.10614900  0.46888400  1
  H  H44  1  0.05607500  0.71713300  0.30233600  1
  H  H45  1  0.44392500  0.21713300  0.19766400  1
  H  H46  1  0.94392500  0.28286700  0.80233600  1
  H  H47  1  0.55607500  0.78286700  0.69766400  1
  H  H48  1  0.94392500  0.28286700  0.69766400  1
  H  H49  1  0.55607500  0.78286700  0.80233600  1
  H  H50  1  0.05607500  0.71713300  0.19766400  1
  H  H51  1  0.44392500  0.21713300  0.30233600  1
  H  H52  1  0.48908600  0.34387300  0.75000000  1
  H  H53  1  0.01091400  0.84387300  0.75000000  1
  H  H54  1  0.51091400  0.65612700  0.25000000  1
  H  H55  1  0.98908600  0.15612700  0.25000000  1
  C  C56  1  0.69016800  0.05156000  0.65806900  1
  C  C57  1  0.80983200  0.55156000  0.84193100  1
  C  C58  1  0.30983200  0.94844000  0.15806900  1
  C  C59  1  0.19016800  0.44844000  0.34193100  1
  C  C60  1  0.30983200  0.94844000  0.34193100  1
  C  C61  1  0.19016800  0.44844000  0.15806900  1
  C  C62  1  0.69016800  0.05156000  0.84193100  1
  C  C63  1  0.80983200  0.55156000  0.65806900  1
  C  C64  1  0.31961700  0.04556000  0.65703400  1
  C  C65  1  0.18038300  0.54556000  0.84296600  1
  C  C66  1  0.68038300  0.95444000  0.15703400  1
  C  C67  1  0.81961700  0.45444000  0.34296600  1
  C  C68  1  0.68038300  0.95444000  0.34296600  1
  C  C69  1  0.81961700  0.45444000  0.15703400  1
  C  C70  1  0.31961700  0.04556000  0.84296600  1
  C  C71  1  0.18038300  0.54556000  0.65703400  1
  N  N72  1  0.79419800  0.04207100  0.59621600  1
  N  N73  1  0.70580200  0.54207200  0.90378400  1
  N  N74  1  0.20580200  0.95792800  0.09621600  1
  N  N75  1  0.29419800  0.45792900  0.40378400  1
  N  N76  1  0.20580200  0.95792800  0.40378400  1
  N  N77  1  0.29419800  0.45792900  0.09621600  1
  N  N78  1  0.79419800  0.04207100  0.90378400  1
  N  N79  1  0.70580200  0.54207200  0.59621600  1
  N  N80  1  0.77974900  0.96686300  0.40611200  1
  N  N81  1  0.72025100  0.46686300  0.09388800  1
  N  N82  1  0.22025100  0.03313700  0.90611200  1
  N  N83  1  0.27974900  0.53313700  0.59388800  1
  N  N84  1  0.22025100  0.03313700  0.59388800  1
  N  N85  1  0.27974900  0.53313700  0.90611200  1
  N  N86  1  0.77974900  0.96686300  0.09388800  1
  N  N87  1  0.72025100  0.46686300  0.40611200  1
  O  O88  1  0.98433200  0.85034800  0.55806800  1
  O  O89  1  0.51566800  0.35034800  0.94193200  1
  O  O90  1  0.01566800  0.14965200  0.05806800  1
  O  O91  1  0.48433200  0.64965200  0.44193200  1
  O  O92  1  0.01566800  0.14965200  0.44193200  1
  O  O93  1  0.48433200  0.64965200  0.05806800  1
  O  O94  1  0.98433200  0.85034800  0.94193200  1
  O  O95  1  0.51566800  0.35034800  0.55806800  1
  O  O96  1  0.04831500  0.67475300  0.44425500  1
  O  O97  1  0.45168500  0.17475300  0.05574500  1
  O  O98  1  0.95168500  0.32524700  0.94425500  1
  O  O99  1  0.54831500  0.82524700  0.55574500  1
  O  O100  1  0.95168500  0.32524700  0.55574500  1
  O  O101  1  0.54831500  0.82524700  0.94425500  1
  O  O102  1  0.04831500  0.67475300  0.05574500  1
  O  O103  1  0.45168500  0.17475300  0.44425500  1
  O  O104  1  0.45315300  0.27212800  0.75000000  1
  O  O105  1  0.04684700  0.77212800  0.75000000  1
  O  O106  1  0.54684700  0.72787200  0.25000000  1
  O  O107  1  0.95315300  0.22787200  0.25000000  1
  O  O108  1  0.97147300  0.72432200  0.25000000  1
  O  O109  1  0.52852700  0.22432200  0.25000000  1
  O  O110  1  0.02852700  0.27567800  0.75000000  1
  O  O111  1  0.47147300  0.77567800  0.75000000  1
