# generated using pymatgen
data_NaCa3AlFe3(SiO3)8
_symmetry_space_group_name_H-M   'P 1'
_cell_length_a   17.95311800
_cell_length_b   5.34867000
_cell_length_c   9.80940569
_cell_angle_alpha   74.66747203
_cell_angle_beta   90.00000000
_cell_angle_gamma   90.00000000
_symmetry_Int_Tables_number   1
_chemical_formula_structural   NaCa3AlFe3(SiO3)8
_chemical_formula_sum   'Na2 Ca6 Al2 Fe6 Si16 O48'
_cell_volume   908.42472324
_cell_formula_units_Z   2
loop_
 _symmetry_equiv_pos_site_id
 _symmetry_equiv_pos_as_xyz
  1  'x, y, z'
loop_
 _atom_site_type_symbol
 _atom_site_label
 _atom_site_symmetry_multiplicity
 _atom_site_fract_x
 _atom_site_fract_y
 _atom_site_fract_z
 _atom_site_occupancy
  Na  Na0  1  0.52719600  0.50000000  0.75000000  1
  Na  Na1  1  0.47280400  0.50000000  0.25000000  1
  Ca  Ca2  1  0.27913900  0.00000000  0.25000000  1
  Ca  Ca3  1  0.02340200  0.50000000  0.75000000  1
  Ca  Ca4  1  0.76979500  0.00000000  0.25000000  1
  Ca  Ca5  1  0.23020500  0.00000000  0.75000000  1
  Ca  Ca6  1  0.97659800  0.50000000  0.25000000  1
  Ca  Ca7  1  0.72086100  0.00000000  0.75000000  1
  Al  Al8  1  0.57201000  0.00000000  0.25000000  1
  Al  Al9  1  0.42799000  0.00000000  0.75000000  1
  Fe  Fe10  1  0.33575000  0.50000000  0.75000000  1
  Fe  Fe11  1  0.08004000  0.00000000  0.25000000  1
  Fe  Fe12  1  0.17631500  0.50000000  0.25000000  1
  Fe  Fe13  1  0.82368500  0.50000000  0.75000000  1
  Fe  Fe14  1  0.91996000  0.00000000  0.75000000  1
  Fe  Fe15  1  0.66425000  0.50000000  0.25000000  1
  Si  Si16  1  0.17412000  0.69493400  0.54015400  1
  Si  Si17  1  0.17412000  0.30506600  0.95984600  1
  Si  Si18  1  0.91968200  0.19679500  0.03908200  1
  Si  Si19  1  0.33609900  0.70107000  0.03447600  1
  Si  Si20  1  0.91968200  0.80320500  0.46091800  1
  Si  Si21  1  0.66390100  0.70107000  0.53447600  1
  Si  Si22  1  0.33609900  0.29893000  0.46552400  1
  Si  Si23  1  0.08031800  0.19679500  0.53908200  1
  Si  Si24  1  0.66390100  0.29893000  0.96552400  1
  Si  Si25  1  0.42670600  0.19122500  0.03717900  1
  Si  Si26  1  0.08031800  0.80320500  0.96091800  1
  Si  Si27  1  0.82588000  0.69493400  0.04015400  1
  Si  Si28  1  0.42670600  0.80877500  0.46282100  1
  Si  Si29  1  0.82588000  0.30506600  0.45984600  1
  Si  Si30  1  0.57329400  0.19122500  0.53717900  1
  Si  Si31  1  0.57329400  0.80877500  0.96282100  1
  O  O32  1  0.37148700  0.40259000  0.08995200  1
  O  O33  1  0.11913100  0.90152700  0.60170700  1
  O  O34  1  0.25318100  0.70822200  0.61526700  1
  O  O35  1  0.86501800  0.40061700  0.10298700  1
  O  O36  1  0.17365600  0.78132600  0.36971300  1
  O  O37  1  0.17365600  0.21867400  0.13028700  1
  O  O38  1  0.99921000  0.21068700  0.11183400  1
  O  O39  1  0.61361500  0.90219700  0.60467600  1
  O  O40  1  0.37148700  0.59741000  0.41004800  1
  O  O41  1  0.25318100  0.29177800  0.88473300  1
  O  O42  1  0.91808200  0.28575900  0.86860000  1
  O  O43  1  0.25533700  0.71088900  0.10333700  1
  O  O44  1  0.13498200  0.40061700  0.60298700  1
  O  O45  1  0.34243600  0.80073500  0.86190700  1
  O  O46  1  0.91808200  0.71424100  0.63140000  1
  O  O47  1  0.74466300  0.71088900  0.60333700  1
  O  O48  1  0.11913100  0.09847300  0.89829300  1
  O  O49  1  0.99921000  0.78931300  0.38816600  1
  O  O50  1  0.34243600  0.19926500  0.63809300  1
  O  O51  1  0.65756400  0.80073500  0.36190700  1
  O  O52  1  0.00079000  0.21068700  0.61183400  1
  O  O53  1  0.88086900  0.90152700  0.10170700  1
  O  O54  1  0.25533700  0.28911100  0.39666300  1
  O  O55  1  0.08191800  0.28575900  0.36860000  1
  O  O56  1  0.65756400  0.19926500  0.13809300  1
  O  O57  1  0.50478200  0.19749800  0.11719400  1
  O  O58  1  0.86501800  0.59938300  0.39701300  1
  O  O59  1  0.74466300  0.28911100  0.89666300  1
  O  O60  1  0.08191800  0.71424100  0.13140000  1
  O  O61  1  0.42351100  0.25111500  0.86475000  1
  O  O62  1  0.74681900  0.70822200  0.11526700  1
  O  O63  1  0.62851300  0.40259000  0.58995200  1
  O  O64  1  0.00079000  0.78931300  0.88816600  1
  O  O65  1  0.82634400  0.78132600  0.86971300  1
  O  O66  1  0.42351100  0.74888500  0.63525000  1
  O  O67  1  0.61361500  0.09780300  0.89532400  1
  O  O68  1  0.50478200  0.80250200  0.38280600  1
  O  O69  1  0.82634400  0.21867400  0.63028700  1
  O  O70  1  0.49521800  0.19749800  0.61719400  1
  O  O71  1  0.38638500  0.90219700  0.10467600  1
  O  O72  1  0.13498200  0.59938300  0.89701300  1
  O  O73  1  0.74681900  0.29177800  0.38473300  1
  O  O74  1  0.57648900  0.25111500  0.36475000  1
  O  O75  1  0.57648900  0.74888500  0.13525000  1
  O  O76  1  0.88086900  0.09847300  0.39829300  1
  O  O77  1  0.49521800  0.80250200  0.88280600  1
  O  O78  1  0.62851300  0.59741000  0.91004800  1
  O  O79  1  0.38638500  0.09780300  0.39532400  1
