# generated using pymatgen
data_Ca8V7ZnBiO28
_symmetry_space_group_name_H-M   'P 1'
_cell_length_a   10.93807201
_cell_length_b   10.93807201
_cell_length_c   14.17421067
_cell_angle_alpha   67.29166339
_cell_angle_beta   67.29166339
_cell_angle_gamma   60.13055852
_symmetry_Int_Tables_number   1
_chemical_formula_structural   Ca8V7ZnBiO28
_chemical_formula_sum   'Ca16 V14 Zn2 Bi2 O56'
_cell_volume   1316.15412200
_cell_formula_units_Z   2
loop_
 _symmetry_equiv_pos_site_id
 _symmetry_equiv_pos_as_xyz
  1  'x, y, z'
loop_
 _atom_site_type_symbol
 _atom_site_label
 _atom_site_symmetry_multiplicity
 _atom_site_fract_x
 _atom_site_fract_y
 _atom_site_fract_z
 _atom_site_occupancy
  Ca  Ca0  1  0.93173000  0.42830600  0.79752100  1
  Ca  Ca1  1  0.93380600  0.83738200  0.79837800  1
  Ca  Ca2  1  0.94366000  0.03159700  0.97506500  1
  Ca  Ca3  1  0.34061100  0.43432500  0.79858200  1
  Ca  Ca4  1  0.55108800  0.44516600  0.97738100  1
  Ca  Ca5  1  0.52570800  0.05314000  0.98115800  1
  Ca  Ca6  1  0.83738200  0.93380600  0.29837800  1
  Ca  Ca7  1  0.43432500  0.34061100  0.29858200  1
  Ca  Ca8  1  0.42830600  0.93173000  0.29752100  1
  Ca  Ca9  1  0.55841700  0.65113700  0.69826400  1
  Ca  Ca10  1  0.14984200  0.08929300  0.69866500  1
  Ca  Ca11  1  0.65113700  0.55841700  0.19826400  1
  Ca  Ca12  1  0.08929300  0.14984200  0.19866500  1
  Ca  Ca13  1  0.44516600  0.55108800  0.47738100  1
  Ca  Ca14  1  0.05314000  0.52570800  0.48115800  1
  Ca  Ca15  1  0.03159700  0.94366000  0.47506500  1
  V  V16  1  0.73283600  0.23596000  0.79694300  1
  V  V17  1  0.81363900  0.27631000  0.09515700  1
  V  V18  1  0.77628100  0.81384700  0.09443100  1
  V  V19  1  0.31287800  0.31519600  0.09525700  1
  V  V20  1  0.72412200  0.19095600  0.40771000  1
  V  V21  1  0.68906200  0.67857800  0.40714800  1
  V  V22  1  0.81384700  0.77628100  0.59443100  1
  V  V23  1  0.17805600  0.22398100  0.40815800  1
  V  V24  1  0.31519600  0.31287800  0.59525700  1
  V  V25  1  0.27631000  0.81363900  0.59515700  1
  V  V26  1  0.67857800  0.68906200  0.90714800  1
  V  V27  1  0.22398100  0.17805600  0.90815800  1
  V  V28  1  0.19095600  0.72412200  0.90771000  1
  V  V29  1  0.23596000  0.73283600  0.29694300  1
  Zn  Zn30  1  0.99825000  0.49744600  0.00231100  1
  Zn  Zn31  1  0.49744600  0.99825000  0.50231100  1
  Bi  Bi32  1  0.59437300  0.06057300  0.70204600  1
  Bi  Bi33  1  0.06057300  0.59437300  0.20204600  1
  O  O34  1  0.90061100  0.24224200  0.76071900  1
  O  O35  1  0.73899300  0.09336100  0.75958500  1
  O  O36  1  0.59499700  0.40214900  0.76060000  1
  O  O37  1  0.82602000  0.31422700  0.96261200  1
  O  O38  1  0.81427800  0.89798400  0.96265700  1
  O  O39  1  0.68784100  0.18862100  0.93383200  1
  O  O40  1  0.88347800  0.37079900  0.11989500  1
  O  O41  1  0.86878900  0.62427900  0.11750700  1
  O  O42  1  0.91699200  0.09126700  0.13334400  1
  O  O43  1  0.83578100  0.87212600  0.15912200  1
  O  O44  1  0.39694200  0.32700700  0.96343800  1
  O  O45  1  0.63081400  0.33020400  0.15650800  1
  O  O46  1  0.59103700  0.85889100  0.13297200  1
  O  O47  1  0.90037100  0.09909800  0.33680400  1
  O  O48  1  0.38195300  0.13337300  0.15718200  1
  O  O49  1  0.34971500  0.42440300  0.13431000  1
  O  O50  1  0.88088700  0.61314500  0.36252300  1
  O  O51  1  0.12438000  0.38077100  0.11880600  1
  O  O52  1  0.59909100  0.66352900  0.33602700  1
  O  O53  1  0.89798400  0.81427800  0.46265700  1
  O  O54  1  0.61964700  0.12107800  0.39320300  1
  O  O55  1  0.62120000  0.86708300  0.39134100  1
  O  O56  1  0.64353100  0.37804700  0.36299100  1
  O  O57  1  0.36655100  0.11975100  0.39192300  1
  O  O58  1  0.16489100  0.40468100  0.33710700  1
  O  O59  1  0.73806800  0.13486300  0.53605400  1
  O  O60  1  0.87212600  0.83578100  0.65912200  1
  O  O61  1  0.85889100  0.59103700  0.63297200  1
  O  O62  1  0.63173400  0.59694100  0.53375500  1
  O  O63  1  0.32700700  0.39694200  0.46343800  1
  O  O64  1  0.62427900  0.86878900  0.61750700  1
  O  O65  1  0.31422700  0.82602000  0.46261200  1
  O  O66  1  0.11348400  0.14492700  0.36441300  1
  O  O67  1  0.38077100  0.12438000  0.61880600  1
  O  O68  1  0.37079900  0.88347800  0.61989500  1
  O  O69  1  0.42440300  0.34971500  0.63431000  1
  O  O70  1  0.33020400  0.63081400  0.65650800  1
  O  O71  1  0.86708300  0.62120000  0.89134100  1
  O  O72  1  0.09680200  0.23652400  0.53489700  1
  O  O73  1  0.66352900  0.59909100  0.83602700  1
  O  O74  1  0.13337300  0.38195300  0.65718200  1
  O  O75  1  0.09126700  0.91699200  0.63334400  1
  O  O76  1  0.61314500  0.88088700  0.86252300  1
  O  O77  1  0.40468100  0.16489100  0.83710700  1
  O  O78  1  0.37804700  0.64353100  0.86299100  1
  O  O79  1  0.09909800  0.90037100  0.83680400  1
  O  O80  1  0.59694100  0.63173400  0.03375500  1
  O  O81  1  0.11975100  0.36655100  0.89192300  1
  O  O82  1  0.12107800  0.61964700  0.89320300  1
  O  O83  1  0.14492700  0.11348400  0.86441300  1
  O  O84  1  0.23652400  0.09680200  0.03489700  1
  O  O85  1  0.13486300  0.73806800  0.03605400  1
  O  O86  1  0.40214900  0.59499700  0.26060000  1
  O  O87  1  0.24224200  0.90061100  0.26071900  1
  O  O88  1  0.09336100  0.73899300  0.25958500  1
  O  O89  1  0.18862100  0.68784100  0.43383200  1
