# generated using pymatgen
data_ZrH8(NF3)2
_symmetry_space_group_name_H-M   'P 1'
_cell_length_a   8.11205500
_cell_length_b   13.16853600
_cell_length_c   14.66715800
_cell_angle_alpha   90.00000000
_cell_angle_beta   90.00000000
_cell_angle_gamma   90.00000000
_symmetry_Int_Tables_number   1
_chemical_formula_structural   ZrH8(NF3)2
_chemical_formula_sum   'Zr8 H64 N16 F48'
_cell_volume   1566.80284789
_cell_formula_units_Z   8
loop_
 _symmetry_equiv_pos_site_id
 _symmetry_equiv_pos_as_xyz
  1  'x, y, z'
loop_
 _atom_site_type_symbol
 _atom_site_label
 _atom_site_symmetry_multiplicity
 _atom_site_fract_x
 _atom_site_fract_y
 _atom_site_fract_z
 _atom_site_occupancy
  Zr  Zr0  1  0.92734600  0.26732400  0.83334200  1
  Zr  Zr1  1  0.07265400  0.76732400  0.16665800  1
  Zr  Zr2  1  0.92734600  0.76732400  0.66665800  1
  Zr  Zr3  1  0.07265400  0.26732400  0.33334200  1
  Zr  Zr4  1  0.43227400  0.23115400  0.91201500  1
  Zr  Zr5  1  0.56772600  0.73115400  0.08798500  1
  Zr  Zr6  1  0.43227400  0.73115400  0.58798500  1
  Zr  Zr7  1  0.56772600  0.23115400  0.41201500  1
  H  H8  1  0.75937100  0.07711100  0.71422200  1
  H  H9  1  0.24062900  0.57711100  0.28577800  1
  H  H10  1  0.75937100  0.57711100  0.78577800  1
  H  H11  1  0.24062900  0.07711100  0.21422200  1
  H  H12  1  0.76404800  0.99373400  0.61629000  1
  H  H13  1  0.23595200  0.49373400  0.38371000  1
  H  H14  1  0.76404800  0.49373400  0.88371000  1
  H  H15  1  0.23595200  0.99373400  0.11629000  1
  H  H16  1  0.80147000  0.99513300  0.45201900  1
  H  H17  1  0.19853000  0.49513300  0.54798100  1
  H  H18  1  0.80147000  0.49513300  0.04798100  1
  H  H19  1  0.19853000  0.99513300  0.95201900  1
  H  H20  1  0.90300200  0.20899800  0.51934200  1
  H  H21  1  0.09699800  0.70899800  0.48065800  1
  H  H22  1  0.90300200  0.70899800  0.98065800  1
  H  H23  1  0.09699800  0.20899800  0.01934200  1
  H  H24  1  0.83747000  0.15853100  0.10861900  1
  H  H25  1  0.16253000  0.65853100  0.89138100  1
  H  H26  1  0.83747000  0.65853100  0.39138100  1
  H  H27  1  0.16253000  0.15853100  0.60861900  1
  H  H28  1  0.68427600  0.13777400  0.18815400  1
  H  H29  1  0.31572400  0.63777400  0.81184600  1
  H  H30  1  0.68427600  0.63777400  0.31184600  1
  H  H31  1  0.31572400  0.13777400  0.68815400  1
  H  H32  1  0.66997200  0.09204400  0.07998900  1
  H  H33  1  0.33002800  0.59204400  0.92001100  1
  H  H34  1  0.66997200  0.59204400  0.42001100  1
  H  H35  1  0.33002800  0.09204400  0.57998900  1
  H  H36  1  0.80883700  0.04288000  0.15524200  1
  H  H37  1  0.19116300  0.54288000  0.84475800  1
  H  H38  1  0.80883700  0.54288000  0.34475800  1
  H  H39  1  0.19116300  0.04288000  0.65524200  1
  H  H40  1  0.76569000  0.33021900  0.09709100  1
  H  H41  1  0.23431000  0.83021900  0.90290900  1
  H  H42  1  0.76569000  0.83021900  0.40290900  1
  H  H43  1  0.23431000  0.33021900  0.59709100  1
  H  H44  1  0.84295600  0.32987900  0.12556300  1
  H  H45  1  0.15704400  0.82987900  0.87443700  1
  H  H46  1  0.84295600  0.82987900  0.37443700  1
  H  H47  1  0.15704400  0.32987900  0.62556300  1
  H  H48  1  0.85526700  0.54183400  0.04827800  1
  H  H49  1  0.14473300  0.04183400  0.95172200  1
  H  H50  1  0.85526700  0.04183400  0.45172200  1
  H  H51  1  0.14473300  0.54183400  0.54827800  1
  H  H52  1  0.24585800  0.39411600  0.81554700  1
  H  H53  1  0.75414200  0.89411600  0.18445300  1
  H  H54  1  0.24585800  0.89411600  0.68445300  1
  H  H55  1  0.75414200  0.39411600  0.31554700  1
  H  H56  1  0.48110200  0.43740900  0.68569600  1
  H  H57  1  0.51889800  0.93740900  0.31430400  1
  H  H58  1  0.48110200  0.93740900  0.81430400  1
  H  H59  1  0.51889800  0.43740900  0.18569600  1
  H  H60  1  0.55147700  0.35026000  0.61346900  1
  H  H61  1  0.44852300  0.85026000  0.38653100  1
  H  H62  1  0.55147700  0.85026000  0.88653100  1
  H  H63  1  0.44852300  0.35026000  0.11346900  1
  H  H64  1  0.82111000  0.45164000  0.69860700  1
  H  H65  1  0.17889000  0.95164000  0.30139300  1
  H  H66  1  0.82111000  0.95164000  0.80139300  1
  H  H67  1  0.17889000  0.45164000  0.19860700  1
  H  H68  1  0.62215600  0.46676700  0.60998500  1
  H  H69  1  0.37784400  0.96676700  0.39001500  1
  H  H70  1  0.62215600  0.96676700  0.89001500  1
  H  H71  1  0.37784400  0.46676700  0.10998500  1
  N  N72  1  0.77151000  0.00644000  0.68565100  1
  N  N73  1  0.22849000  0.50644000  0.31434900  1
  N  N74  1  0.77151000  0.50644000  0.81434900  1
  N  N75  1  0.22849000  0.00644000  0.18565100  1
  N  N76  1  0.75002000  0.10812200  0.13333800  1
  N  N77  1  0.24998000  0.60812200  0.86666200  1
  N  N78  1  0.75002000  0.60812200  0.36666200  1
  N  N79  1  0.24998000  0.10812200  0.63333800  1
  N  N80  1  0.58424300  0.41080800  0.65379300  1
  N  N81  1  0.41575700  0.91080800  0.34620700  1
  N  N82  1  0.58424300  0.91080800  0.84620700  1
  N  N83  1  0.41575700  0.41080800  0.15379300  1
  N  N84  1  0.80419400  0.43123100  0.76544200  1
  N  N85  1  0.19580600  0.93123100  0.23455800  1
  N  N86  1  0.80419400  0.93123100  0.73455800  1
  N  N87  1  0.19580600  0.43123100  0.26544200  1
  F  F88  1  0.67420700  0.26471400  0.85289200  1
  F  F89  1  0.32579300  0.76471400  0.14710800  1
  F  F90  1  0.67420700  0.76471400  0.64710800  1
  F  F91  1  0.32579300  0.26471400  0.35289200  1
  F  F92  1  0.44465800  0.14754600  0.79356900  1
  F  F93  1  0.55534200  0.64754600  0.20643100  1
  F  F94  1  0.44465800  0.64754600  0.70643100  1
  F  F95  1  0.55534200  0.14754600  0.29356900  1
  F  F96  1  0.38400300  0.37699600  0.85237100  1
  F  F97  1  0.61599700  0.87699600  0.14762900  1
  F  F98  1  0.38400300  0.87699600  0.64762900  1
  F  F99  1  0.61599700  0.37699600  0.35237100  1
  F  F100  1  0.52653300  0.10978900  0.97828400  1
  F  F101  1  0.47346700  0.60978900  0.02171600  1
  F  F102  1  0.52653300  0.60978900  0.52171600  1
  F  F103  1  0.47346700  0.10978900  0.47828400  1
  F  F104  1  0.55261300  0.31759200  0.00224100  1
  F  F105  1  0.44738700  0.81759200  0.99775900  1
  F  F106  1  0.55261300  0.81759200  0.49775900  1
  F  F107  1  0.44738700  0.31759200  0.50224100  1
  F  F108  1  0.17264400  0.22331000  0.85178800  1
  F  F109  1  0.82735600  0.72331000  0.14821200  1
  F  F110  1  0.17264400  0.72331000  0.64821200  1
  F  F111  1  0.82735600  0.22331000  0.35178800  1
  F  F112  1  0.25979100  0.23564400  0.01755400  1
  F  F113  1  0.74020900  0.73564400  0.98244600  1
  F  F114  1  0.25979100  0.73564400  0.48244600  1
  F  F115  1  0.74020900  0.23564400  0.51755400  1
  F  F116  1  0.13047500  0.41593000  0.78755300  1
  F  F117  1  0.86952500  0.91593000  0.21244700  1
  F  F118  1  0.13047500  0.91593000  0.71244700  1
  F  F119  1  0.86952500  0.41593000  0.28755300  1
  F  F120  1  0.93908100  0.26072900  0.69881900  1
  F  F121  1  0.06091900  0.76072900  0.30118100  1
  F  F122  1  0.93908100  0.76072900  0.80118100  1
  F  F123  1  0.06091900  0.26072900  0.19881900  1
  F  F124  1  0.93657100  0.37302200  0.92861200  1
  F  F125  1  0.06342900  0.87302200  0.07138800  1
  F  F126  1  0.93657100  0.87302200  0.57138800  1
  F  F127  1  0.06342900  0.37302200  0.42861200  1
  F  F128  1  0.87956500  0.11631300  0.83130900  1
  F  F129  1  0.12043500  0.61631300  0.16869100  1
  F  F130  1  0.87956500  0.61631300  0.66869100  1
  F  F131  1  0.12043500  0.11631300  0.33130900  1
  F  F132  1  0.98072600  0.18336600  0.01146200  1
  F  F133  1  0.01927400  0.68336600  0.98853800  1
  F  F134  1  0.98072600  0.68336600  0.48853800  1
  F  F135  1  0.01927400  0.18336600  0.51146200  1
