# generated using pymatgen
data_NiH20Se2(NO7)2
_symmetry_space_group_name_H-M   'P 1'
_cell_length_a   14.50199200
_cell_length_b   7.34498600
_cell_length_c   9.55322109
_cell_angle_alpha   75.05680926
_cell_angle_beta   90.00000000
_cell_angle_gamma   90.00000000
_symmetry_Int_Tables_number   1
_chemical_formula_structural   NiH20Se2(NO7)2
_chemical_formula_sum   'Ni2 H40 Se4 N4 O28'
_cell_volume   983.16722494
_cell_formula_units_Z   2
loop_
 _symmetry_equiv_pos_site_id
 _symmetry_equiv_pos_as_xyz
  1  'x, y, z'
loop_
 _atom_site_type_symbol
 _atom_site_label
 _atom_site_symmetry_multiplicity
 _atom_site_fract_x
 _atom_site_fract_y
 _atom_site_fract_z
 _atom_site_occupancy
  Ni  Ni0  1  0.50000000  0.00000000  0.50000000  1
  Ni  Ni1  1  0.00000000  0.00000000  0.00000000  1
  H  H2  1  0.16837500  0.81027300  0.57744000  1
  H  H3  1  0.66837500  0.18972700  0.92256000  1
  H  H4  1  0.83162500  0.18972700  0.42256000  1
  H  H5  1  0.33162500  0.81027300  0.07744000  1
  H  H6  1  0.29117200  0.69501100  0.78528000  1
  H  H7  1  0.79117200  0.30498900  0.71472000  1
  H  H8  1  0.70882800  0.30498900  0.21472000  1
  H  H9  1  0.20882800  0.69501100  0.28528000  1
  H  H10  1  0.15752800  0.59868900  0.55264200  1
  H  H11  1  0.65752800  0.40131100  0.94735800  1
  H  H12  1  0.84247200  0.40131100  0.44735800  1
  H  H13  1  0.34247200  0.59868900  0.05264200  1
  H  H14  1  0.03550500  0.59627500  0.70976900  1
  H  H15  1  0.53550500  0.40372500  0.79023100  1
  H  H16  1  0.96449500  0.40372500  0.29023100  1
  H  H17  1  0.46449500  0.59627500  0.20976900  1
  H  H18  1  0.47246000  0.07017400  0.85088500  1
  H  H19  1  0.97246000  0.92982600  0.64911500  1
  H  H20  1  0.52754000  0.92982600  0.14911500  1
  H  H21  1  0.02754000  0.07017400  0.35088500  1
  H  H22  1  0.37555800  0.93610500  0.66607200  1
  H  H23  1  0.87555800  0.06389500  0.83392800  1
  H  H24  1  0.62444200  0.06389500  0.33392800  1
  H  H25  1  0.12444200  0.93610500  0.16607200  1
  H  H26  1  0.39982500  0.11396200  0.14079400  1
  H  H27  1  0.89982500  0.88603800  0.35920600  1
  H  H28  1  0.60017500  0.88603800  0.85920600  1
  H  H29  1  0.10017500  0.11396200  0.64079400  1
  H  H30  1  0.04299300  0.97109900  0.38578600  1
  H  H31  1  0.54299300  0.02890100  0.11421400  1
  H  H32  1  0.95700700  0.02890100  0.61421400  1
  H  H33  1  0.45700700  0.97109900  0.88578600  1
  H  H34  1  0.54060500  0.61624200  0.32402400  1
  H  H35  1  0.04060500  0.38375800  0.17597600  1
  H  H36  1  0.45939500  0.38375800  0.67597600  1
  H  H37  1  0.95939500  0.61624200  0.82402400  1
  H  H38  1  0.70062900  0.93774900  0.49163300  1
  H  H39  1  0.20062900  0.06225100  0.00836700  1
  H  H40  1  0.29937100  0.06225100  0.50836700  1
  H  H41  1  0.79937100  0.93774900  0.99163300  1
  Se  Se42  1  0.32114700  0.27972400  0.93156900  1
  Se  Se43  1  0.82114700  0.72027600  0.56843100  1
  Se  Se44  1  0.67885300  0.72027600  0.06843100  1
  Se  Se45  1  0.17885300  0.27972400  0.43156900  1
  N  N46  1  0.12814400  0.68969300  0.60646900  1
  N  N47  1  0.62814400  0.31030700  0.89353100  1
  N  N48  1  0.87185600  0.31030700  0.39353100  1
  N  N49  1  0.37185600  0.68969300  0.10646900  1
  O  O50  1  0.24336000  0.43254600  0.95510100  1
  O  O51  1  0.74336000  0.56745400  0.54489900  1
  O  O52  1  0.75664000  0.56745400  0.04489900  1
  O  O53  1  0.25664000  0.43254600  0.45510100  1
  O  O54  1  0.38336900  0.24741000  0.10558200  1
  O  O55  1  0.88336900  0.75259000  0.39441800  1
  O  O56  1  0.61663100  0.75259000  0.89441800  1
  O  O57  1  0.11663100  0.24741000  0.60558200  1
  O  O58  1  0.47551300  0.45757300  0.74384000  1
  O  O59  1  0.97551300  0.54242700  0.75616000  1
  O  O60  1  0.52448700  0.54242700  0.25616000  1
  O  O61  1  0.02448700  0.45757300  0.24384000  1
  O  O62  1  0.26556500  0.05194900  0.96807500  1
  O  O63  1  0.76556500  0.94805100  0.53192500  1
  O  O64  1  0.73443500  0.94805100  0.03192500  1
  O  O65  1  0.23443500  0.05194900  0.46807500  1
  O  O66  1  0.37118200  0.72098000  0.48330700  1
  O  O67  1  0.87118200  0.27902000  0.01669300  1
  O  O68  1  0.62881800  0.27902000  0.51669300  1
  O  O69  1  0.12881800  0.72098000  0.98330700  1
  O  O70  1  0.60458400  0.94993200  0.40710700  1
  O  O71  1  0.10458400  0.05006800  0.09289300  1
  O  O72  1  0.39541600  0.05006800  0.59289300  1
  O  O73  1  0.89541600  0.94993200  0.90710700  1
  O  O74  1  0.45429400  0.73821100  0.50950300  1
  O  O75  1  0.95429400  0.26178900  0.99049700  1
  O  O76  1  0.54570600  0.26178900  0.49049700  1
  O  O77  1  0.04570600  0.73821100  0.00950300  1
