# generated using pymatgen
data_SiH12N2(O2F3)2
_symmetry_space_group_name_H-M   'P 1'
_cell_length_a   9.56584021
_cell_length_b   9.56584021
_cell_length_c   12.06226339
_cell_angle_alpha   56.41039727
_cell_angle_beta   56.41039727
_cell_angle_gamma   47.47418620
_symmetry_Int_Tables_number   1
_chemical_formula_structural   SiH12N2(O2F3)2
_chemical_formula_sum   'Si2 H24 N4 O8 F12'
_cell_volume   648.07308922
_cell_formula_units_Z   2
loop_
 _symmetry_equiv_pos_site_id
 _symmetry_equiv_pos_as_xyz
  1  'x, y, z'
loop_
 _atom_site_type_symbol
 _atom_site_label
 _atom_site_symmetry_multiplicity
 _atom_site_fract_x
 _atom_site_fract_y
 _atom_site_fract_z
 _atom_site_occupancy
  Si  Si0  1  0.62283200  0.37716800  0.75000000  1
  Si  Si1  1  0.37716800  0.62283200  0.25000000  1
  H  H2  1  0.05004400  0.70327300  0.06997300  1
  H  H3  1  0.29672700  0.94995600  0.43002700  1
  H  H4  1  0.94995600  0.29672700  0.93002700  1
  H  H5  1  0.70327300  0.05004400  0.56997300  1
  H  H6  1  0.97669800  0.54159200  0.47124600  1
  H  H7  1  0.45840800  0.02330200  0.02875400  1
  H  H8  1  0.02330200  0.45840800  0.52875400  1
  H  H9  1  0.54159200  0.97669800  0.97124600  1
  H  H10  1  0.63000700  0.57843400  0.34122000  1
  H  H11  1  0.42156600  0.36999300  0.15878000  1
  H  H12  1  0.36999300  0.42156600  0.65878000  1
  H  H13  1  0.57843400  0.63000700  0.84122000  1
  H  H14  1  0.86666600  0.09620300  0.46690200  1
  H  H15  1  0.90379700  0.13333400  0.03309800  1
  H  H16  1  0.13333400  0.90379700  0.53309800  1
  H  H17  1  0.09620300  0.86666600  0.96690200  1
  H  H18  1  0.93557200  0.86334300  0.90194200  1
  H  H19  1  0.13665700  0.06442800  0.59805800  1
  H  H20  1  0.06442800  0.13665700  0.09805800  1
  H  H21  1  0.86334300  0.93557200  0.40194200  1
  H  H22  1  0.11003600  0.61639900  0.79988000  1
  H  H23  1  0.38360100  0.88996400  0.70012000  1
  H  H24  1  0.88996400  0.38360100  0.20012000  1
  H  H25  1  0.61639900  0.11003600  0.29988000  1
  N  N26  1  0.84644900  0.45798000  0.26417700  1
  N  N27  1  0.54202000  0.15355100  0.23582300  1
  N  N28  1  0.15355100  0.54202000  0.73582300  1
  N  N29  1  0.45798000  0.84644900  0.76417700  1
  O  O30  1  0.98278300  0.46052400  0.24601700  1
  O  O31  1  0.53947600  0.01721700  0.25398300  1
  O  O32  1  0.01721700  0.53947600  0.75398300  1
  O  O33  1  0.46052400  0.98278300  0.74601700  1
  O  O34  1  0.99259600  0.83959800  0.00916300  1
  O  O35  1  0.16040200  0.00740400  0.49083700  1
  O  O36  1  0.00740400  0.16040200  0.99083700  1
  O  O37  1  0.83959800  0.99259600  0.50916300  1
  F  F38  1  0.39540500  0.43898100  0.86092600  1
  F  F39  1  0.56101900  0.60459500  0.63907400  1
  F  F40  1  0.60459500  0.56101900  0.13907400  1
  F  F41  1  0.43898100  0.39540500  0.36092600  1
  F  F42  1  0.66921100  0.47853100  0.87213900  1
  F  F43  1  0.52146900  0.33078900  0.62786100  1
  F  F44  1  0.33078900  0.52146900  0.12786100  1
  F  F45  1  0.47853100  0.66921100  0.37213900  1
  F  F46  1  0.90681000  0.86070300  0.83586100  1
  F  F47  1  0.13929700  0.09319000  0.66413900  1
  F  F48  1  0.09319000  0.13929700  0.16413900  1
  F  F49  1  0.86070300  0.90681000  0.33586100  1
