# generated using pymatgen
data_Ge7H18O23
_symmetry_space_group_name_H-M   'P 1'
_cell_length_a   7.71432000
_cell_length_b   7.83254799
_cell_length_c   7.83679368
_cell_angle_alpha   90.31505660
_cell_angle_beta   90.51883378
_cell_angle_gamma   92.89555676
_symmetry_Int_Tables_number   1
_chemical_formula_structural   Ge7H18O23
_chemical_formula_sum   'Ge7 H18 O23'
_cell_volume   472.88851828
_cell_formula_units_Z   1
loop_
 _symmetry_equiv_pos_site_id
 _symmetry_equiv_pos_as_xyz
  1  'x, y, z'
loop_
 _atom_site_type_symbol
 _atom_site_label
 _atom_site_symmetry_multiplicity
 _atom_site_fract_x
 _atom_site_fract_y
 _atom_site_fract_z
 _atom_site_occupancy
  Ge  Ge0  1  0.84098000  0.87409400  0.12981600  1
  Ge  Ge1  1  0.13139000  0.13639900  0.11656400  1
  Ge  Ge2  1  0.84453600  0.13386600  0.85433400  1
  Ge  Ge3  1  0.11017000  0.85933000  0.84880300  1
  Ge  Ge4  1  0.98883200  0.48809200  0.99703600  1
  Ge  Ge5  1  0.48031700  0.98975300  0.99487300  1
  Ge  Ge6  1  0.97617300  0.00038700  0.50012200  1
  H  H7  1  0.08368200  0.27388400  0.40778500  1
  H  H8  1  0.10612100  0.57304500  0.47981700  1
  H  H9  1  0.96145200  0.47310200  0.58860300  1
  H  H10  1  0.48349400  0.61649900  0.96512100  1
  H  H11  1  0.37230000  0.45277500  0.03058200  1
  H  H12  1  0.55248700  0.01299700  0.65201500  1
  H  H13  1  0.63321600  0.95600700  0.46089200  1
  H  H14  1  0.44092700  0.87071000  0.50772000  1
  H  H15  1  0.71042700  0.63639600  0.71299300  1
  H  H16  1  0.73663500  0.69913300  0.52679200  1
  H  H17  1  0.65310100  0.38035900  0.40987700  1
  H  H18  1  0.76163400  0.54235600  0.19687400  1
  H  H19  1  0.55781400  0.31230800  0.24172200  1
  H  H20  1  0.44479200  0.60875600  0.43979600  1
  H  H21  1  0.36119900  0.71207500  0.29429900  1
  H  H22  1  0.41053700  0.44459400  0.80905500  1
  H  H23  1  0.33501500  0.25712900  0.70441100  1
  H  H24  1  0.23662900  0.42120100  0.64278500  1
  O  O25  1  0.86382300  0.87306800  0.87887900  1
  O  O26  1  0.86187900  0.11920400  0.10218700  1
  O  O27  1  0.09027000  0.89318300  0.13149100  1
  O  O28  1  0.10749300  0.11257800  0.87323000  1
  O  O29  1  0.86005300  0.61474900  0.14358200  1
  O  O30  1  0.60183000  0.84254600  0.11245000  1
  O  O31  1  0.81922200  0.88453600  0.37152200  1
  O  O32  1  0.14265600  0.37529600  0.11600700  1
  O  O33  1  0.37298600  0.13221600  0.12985800  1
  O  O34  1  0.10824200  0.15364000  0.37075900  1
  O  O35  1  0.84646200  0.36756400  0.86534000  1
  O  O36  1  0.60292300  0.09908200  0.83373600  1
  O  O37  1  0.85459100  0.13818700  0.61937500  1
  O  O38  1  0.10327300  0.62681200  0.86385600  1
  O  O39  1  0.34558100  0.85681300  0.86550300  1
  O  O40  1  0.10671200  0.86476400  0.61132400  1
  O  O41  1  0.06646300  0.45934100  0.52030300  1
  O  O42  1  0.46702200  0.49109600  0.95206000  1
  O  O43  1  0.52289300  0.97721900  0.52606800  1
  O  O44  1  0.68483700  0.60460400  0.59457800  1
  O  O45  1  0.61635100  0.41335300  0.29557000  1
  O  O46  1  0.35809500  0.69405100  0.41738800  1
  O  O47  1  0.35348600  0.37953900  0.68159900  1
