# generated using pymatgen
data_HfPbO3
_symmetry_space_group_name_H-M   'P 1'
_cell_length_a   5.81973500
_cell_length_b   11.47525400
_cell_length_c   9.21014800
_cell_angle_alpha   90.00000000
_cell_angle_beta   90.00000000
_cell_angle_gamma   90.00000000
_symmetry_Int_Tables_number   1
_chemical_formula_structural   HfPbO3
_chemical_formula_sum   'Hf8 Pb8 O24'
_cell_volume   615.08073675
_cell_formula_units_Z   8
loop_
 _symmetry_equiv_pos_site_id
 _symmetry_equiv_pos_as_xyz
  1  'x, y, z'
loop_
 _atom_site_type_symbol
 _atom_site_label
 _atom_site_symmetry_multiplicity
 _atom_site_fract_x
 _atom_site_fract_y
 _atom_site_fract_z
 _atom_site_occupancy
  Hf  Hf0  1  0.75382400  0.37722500  0.21659500  1
  Hf  Hf1  1  0.24617600  0.62277500  0.21659500  1
  Hf  Hf2  1  0.25382400  0.12277500  0.78340400  1
  Hf  Hf3  1  0.74617600  0.87722500  0.78340400  1
  Hf  Hf4  1  0.24617600  0.62277500  0.78340400  1
  Hf  Hf5  1  0.75382400  0.37722500  0.78340400  1
  Hf  Hf6  1  0.74617600  0.87722500  0.21659500  1
  Hf  Hf7  1  0.25382400  0.12277500  0.21659500  1
  Pb  Pb8  1  0.25653600  0.36361600  0.00000000  1
  Pb  Pb9  1  0.74346400  0.63638400  0.00000000  1
  Pb  Pb10  1  0.75653600  0.13638400  0.00000000  1
  Pb  Pb11  1  0.24346400  0.86361600  0.00000000  1
  Pb  Pb12  1  0.24971500  0.39069000  0.50000000  1
  Pb  Pb13  1  0.75028500  0.60931000  0.50000000  1
  Pb  Pb14  1  0.74971500  0.10931000  0.50000000  1
  Pb  Pb15  1  0.25028500  0.89069000  0.50000000  1
  O  O16  1  0.76204500  0.40642800  0.00000000  1
  O  O17  1  0.23795500  0.59357200  0.00000000  1
  O  O18  1  0.26204500  0.09357200  0.00000000  1
  O  O19  1  0.73795500  0.90642800  0.00000000  1
  O  O20  1  0.50210900  0.25058800  0.50000000  1
  O  O21  1  0.49789100  0.74941200  0.50000000  1
  O  O22  1  0.00210900  0.24941200  0.50000000  1
  O  O23  1  0.99789100  0.75058800  0.50000000  1
  O  O24  1  0.51031600  0.24788300  0.17936000  1
  O  O25  1  0.48968400  0.75211700  0.17936000  1
  O  O26  1  0.01031600  0.25211700  0.82064000  1
  O  O27  1  0.98968400  0.74788300  0.82064000  1
  O  O28  1  0.48968400  0.75211700  0.82064000  1
  O  O29  1  0.51031600  0.24788300  0.82064000  1
  O  O30  1  0.98968400  0.74788300  0.17936000  1
  O  O31  1  0.01031600  0.25211700  0.17936000  1
  O  O32  1  0.50000000  0.00000000  0.26626500  1
  O  O33  1  0.00000000  0.50000000  0.73373500  1
  O  O34  1  0.50000000  0.00000000  0.73373500  1
  O  O35  1  0.00000000  0.50000000  0.26626500  1
  O  O36  1  0.50000000  0.50000000  0.25171300  1
  O  O37  1  0.00000000  0.00000000  0.74828700  1
  O  O38  1  0.50000000  0.50000000  0.74828700  1
  O  O39  1  0.00000000  0.00000000  0.25171300  1
