# generated using pymatgen
data_CsMnH24(SO10)2
_symmetry_space_group_name_H-M   'P 1'
_cell_length_a   12.48457100
_cell_length_b   12.48457100
_cell_length_c   12.48457100
_cell_angle_alpha   90.00000000
_cell_angle_beta   90.00000000
_cell_angle_gamma   90.00000000
_symmetry_Int_Tables_number   1
_chemical_formula_structural   CsMnH24(SO10)2
_chemical_formula_sum   'Cs4 Mn4 H96 S8 O80'
_cell_volume   1945.90157960
_cell_formula_units_Z   4
loop_
 _symmetry_equiv_pos_site_id
 _symmetry_equiv_pos_as_xyz
  1  'x, y, z'
loop_
 _atom_site_type_symbol
 _atom_site_label
 _atom_site_symmetry_multiplicity
 _atom_site_fract_x
 _atom_site_fract_y
 _atom_site_fract_z
 _atom_site_occupancy
  Cs  Cs0  1  0.00000000  0.00000000  0.50000000  1
  Cs  Cs1  1  0.00000000  0.50000000  0.00000000  1
  Cs  Cs2  1  0.50000000  0.00000000  0.00000000  1
  Cs  Cs3  1  0.50000000  0.50000000  0.50000000  1
  Mn  Mn4  1  0.50000000  0.50000000  0.00000000  1
  Mn  Mn5  1  0.50000000  0.00000000  0.50000000  1
  Mn  Mn6  1  0.00000000  0.50000000  0.50000000  1
  Mn  Mn7  1  0.00000000  0.00000000  0.00000000  1
  H  H8  1  0.22213900  0.50908100  0.23147500  1
  H  H9  1  0.77786100  0.00908100  0.26852500  1
  H  H10  1  0.27786100  0.49091900  0.73147500  1
  H  H11  1  0.72213900  0.99091900  0.76852500  1
  H  H12  1  0.23147500  0.22213900  0.50908100  1
  H  H13  1  0.26852500  0.77786100  0.00908100  1
  H  H14  1  0.73147500  0.27786100  0.49091900  1
  H  H15  1  0.76852500  0.72213900  0.99091900  1
  H  H16  1  0.50908100  0.23147500  0.22213900  1
  H  H17  1  0.00908100  0.26852500  0.77786100  1
  H  H18  1  0.49091900  0.73147500  0.27786100  1
  H  H19  1  0.99091900  0.76852500  0.72213900  1
  H  H20  1  0.77786100  0.49091900  0.76852500  1
  H  H21  1  0.22213900  0.99091900  0.73147500  1
  H  H22  1  0.72213900  0.50908100  0.26852500  1
  H  H23  1  0.27786100  0.00908100  0.23147500  1
  H  H24  1  0.76852500  0.77786100  0.49091900  1
  H  H25  1  0.73147500  0.22213900  0.99091900  1
  H  H26  1  0.26852500  0.72213900  0.50908100  1
  H  H27  1  0.23147500  0.27786100  0.00908100  1
  H  H28  1  0.49091900  0.76852500  0.77786100  1
  H  H29  1  0.99091900  0.73147500  0.22213900  1
  H  H30  1  0.50908100  0.26852500  0.72213900  1
  H  H31  1  0.00908100  0.23147500  0.27786100  1
  H  H32  1  0.18224900  0.62718500  0.22303500  1
  H  H33  1  0.81775100  0.12718500  0.27696500  1
  H  H34  1  0.31775100  0.37281500  0.72303500  1
  H  H35  1  0.68224900  0.87281500  0.77696500  1
  H  H36  1  0.22303500  0.18224900  0.62718500  1
  H  H37  1  0.27696500  0.81775100  0.12718500  1
  H  H38  1  0.72303500  0.31775100  0.37281500  1
  H  H39  1  0.77696500  0.68224900  0.87281500  1
  H  H40  1  0.62718500  0.22303500  0.18224900  1
  H  H41  1  0.12718500  0.27696500  0.81775100  1
  H  H42  1  0.37281500  0.72303500  0.31775100  1
  H  H43  1  0.87281500  0.77696500  0.68224900  1
  H  H44  1  0.81775100  0.37281500  0.77696500  1
  H  H45  1  0.18224900  0.87281500  0.72303500  1
  H  H46  1  0.68224900  0.62718500  0.27696500  1
  H  H47  1  0.31775100  0.12718500  0.22303500  1
  H  H48  1  0.77696500  0.81775100  0.37281500  1
  H  H49  1  0.72303500  0.18224900  0.87281500  1
  H  H50  1  0.27696500  0.68224900  0.62718500  1
  H  H51  1  0.22303500  0.31775100  0.12718500  1
  H  H52  1  0.37281500  0.77696500  0.81775100  1
  H  H53  1  0.87281500  0.72303500  0.18224900  1
  H  H54  1  0.62718500  0.27696500  0.68224900  1
  H  H55  1  0.12718500  0.22303500  0.31775100  1
  H  H56  1  0.47812400  0.70811000  0.93485500  1
  H  H57  1  0.52187600  0.20811000  0.56514500  1
  H  H58  1  0.02187600  0.29189000  0.43485500  1
  H  H59  1  0.97812400  0.79189000  0.06514500  1
  H  H60  1  0.93485500  0.47812400  0.70811000  1
  H  H61  1  0.56514500  0.52187600  0.20811000  1
  H  H62  1  0.43485500  0.02187600  0.29189000  1
  H  H63  1  0.06514500  0.97812400  0.79189000  1
  H  H64  1  0.70811000  0.93485500  0.47812400  1
  H  H65  1  0.20811000  0.56514500  0.52187600  1
  H  H66  1  0.29189000  0.43485500  0.02187600  1
  H  H67  1  0.79189000  0.06514500  0.97812400  1
  H  H68  1  0.52187600  0.29189000  0.06514500  1
  H  H69  1  0.47812400  0.79189000  0.43485500  1
  H  H70  1  0.97812400  0.70811000  0.56514500  1
  H  H71  1  0.02187600  0.20811000  0.93485500  1
  H  H72  1  0.06514500  0.52187600  0.29189000  1
  H  H73  1  0.43485500  0.47812400  0.79189000  1
  H  H74  1  0.56514500  0.97812400  0.70811000  1
  H  H75  1  0.93485500  0.02187600  0.20811000  1
  H  H76  1  0.29189000  0.06514500  0.52187600  1
  H  H77  1  0.79189000  0.43485500  0.47812400  1
  H  H78  1  0.70811000  0.56514500  0.97812400  1
  H  H79  1  0.20811000  0.93485500  0.02187600  1
  H  H80  1  0.52389400  0.70440400  0.06054500  1
  H  H81  1  0.47610600  0.20440400  0.43945500  1
  H  H82  1  0.97610600  0.29559600  0.56054500  1
  H  H83  1  0.02389400  0.79559600  0.93945500  1
  H  H84  1  0.06054500  0.52389400  0.70440400  1
  H  H85  1  0.43945500  0.47610600  0.20440400  1
  H  H86  1  0.56054500  0.97610600  0.29559600  1
  H  H87  1  0.93945500  0.02389400  0.79559600  1
  H  H88  1  0.70440400  0.06054500  0.52389400  1
  H  H89  1  0.20440400  0.43945500  0.47610600  1
  H  H90  1  0.29559600  0.56054500  0.97610600  1
  H  H91  1  0.79559600  0.93945500  0.02389400  1
  H  H92  1  0.47610600  0.29559600  0.93945500  1
  H  H93  1  0.52389400  0.79559600  0.56054500  1
  H  H94  1  0.02389400  0.70440400  0.43945500  1
  H  H95  1  0.97610600  0.20440400  0.06054500  1
  H  H96  1  0.93945500  0.47610600  0.29559600  1
  H  H97  1  0.56054500  0.52389400  0.79559600  1
  H  H98  1  0.43945500  0.02389400  0.70440400  1
  H  H99  1  0.06054500  0.97610600  0.20440400  1
  H  H100  1  0.29559600  0.93945500  0.47610600  1
  H  H101  1  0.79559600  0.56054500  0.52389400  1
  H  H102  1  0.70440400  0.43945500  0.02389400  1
  H  H103  1  0.20440400  0.06054500  0.97610600  1
  S  S104  1  0.17209900  0.82790100  0.32790100  1
  S  S105  1  0.82790100  0.32790100  0.17209900  1
  S  S106  1  0.32790100  0.17209900  0.82790100  1
  S  S107  1  0.67209900  0.67209900  0.67209900  1
  S  S108  1  0.82790100  0.17209900  0.67209900  1
  S  S109  1  0.17209900  0.67209900  0.82790100  1
  S  S110  1  0.67209900  0.82790100  0.17209900  1
  S  S111  1  0.32790100  0.32790100  0.32790100  1
  O  O112  1  0.24160000  0.75840000  0.25840000  1
  O  O113  1  0.75840000  0.25840000  0.24160000  1
  O  O114  1  0.25840000  0.24160000  0.75840000  1
  O  O115  1  0.74160000  0.74160000  0.74160000  1
  O  O116  1  0.75840000  0.24160000  0.74160000  1
  O  O117  1  0.24160000  0.74160000  0.75840000  1
  O  O118  1  0.74160000  0.75840000  0.24160000  1
  O  O119  1  0.25840000  0.25840000  0.25840000  1
  O  O120  1  0.06293200  0.77976200  0.33676100  1
  O  O121  1  0.93706800  0.27976200  0.16323900  1
  O  O122  1  0.43706800  0.22023800  0.83676100  1
  O  O123  1  0.56293200  0.72023800  0.66323900  1
  O  O124  1  0.33676100  0.06293200  0.77976200  1
  O  O125  1  0.16323900  0.93706800  0.27976200  1
  O  O126  1  0.83676100  0.43706800  0.22023800  1
  O  O127  1  0.66323900  0.56293200  0.72023800  1
  O  O128  1  0.77976200  0.33676100  0.06293200  1
  O  O129  1  0.27976200  0.16323900  0.93706800  1
  O  O130  1  0.22023800  0.83676100  0.43706800  1
  O  O131  1  0.72023800  0.66323900  0.56293200  1
  O  O132  1  0.93706800  0.22023800  0.66323900  1
  O  O133  1  0.06293200  0.72023800  0.83676100  1
  O  O134  1  0.56293200  0.77976200  0.16323900  1
  O  O135  1  0.43706800  0.27976200  0.33676100  1
  O  O136  1  0.66323900  0.93706800  0.22023800  1
  O  O137  1  0.83676100  0.06293200  0.72023800  1
  O  O138  1  0.16323900  0.56293200  0.77976200  1
  O  O139  1  0.33676100  0.43706800  0.27976200  1
  O  O140  1  0.22023800  0.66323900  0.93706800  1
  O  O141  1  0.72023800  0.83676100  0.06293200  1
  O  O142  1  0.77976200  0.16323900  0.56293200  1
  O  O143  1  0.27976200  0.33676100  0.43706800  1
  O  O144  1  0.15876800  0.55257100  0.21146300  1
  O  O145  1  0.84123200  0.05257100  0.28853700  1
  O  O146  1  0.34123200  0.44742900  0.71146300  1
  O  O147  1  0.65876800  0.94742900  0.78853700  1
  O  O148  1  0.21146300  0.15876800  0.55257100  1
  O  O149  1  0.28853700  0.84123200  0.05257100  1
  O  O150  1  0.71146300  0.34123200  0.44742900  1
  O  O151  1  0.78853700  0.65876800  0.94742900  1
  O  O152  1  0.55257100  0.21146300  0.15876800  1
  O  O153  1  0.05257100  0.28853700  0.84123200  1
  O  O154  1  0.44742900  0.71146300  0.34123200  1
  O  O155  1  0.94742900  0.78853700  0.65876800  1
  O  O156  1  0.84123200  0.44742900  0.78853700  1
  O  O157  1  0.15876800  0.94742900  0.71146300  1
  O  O158  1  0.65876800  0.55257100  0.28853700  1
  O  O159  1  0.34123200  0.05257100  0.21146300  1
  O  O160  1  0.78853700  0.84123200  0.44742900  1
  O  O161  1  0.71146300  0.15876800  0.94742900  1
  O  O162  1  0.28853700  0.65876800  0.55257100  1
  O  O163  1  0.21146300  0.34123200  0.05257100  1
  O  O164  1  0.44742900  0.78853700  0.84123200  1
  O  O165  1  0.94742900  0.71146300  0.15876800  1
  O  O166  1  0.55257100  0.28853700  0.65876800  1
  O  O167  1  0.05257100  0.21146300  0.34123200  1
  O  O168  1  0.50048500  0.66108800  0.99769000  1
  O  O169  1  0.49951500  0.16108800  0.50231000  1
  O  O170  1  0.99951500  0.33891200  0.49769000  1
  O  O171  1  0.00048500  0.83891200  0.00231000  1
  O  O172  1  0.99769000  0.50048500  0.66108800  1
  O  O173  1  0.50231000  0.49951500  0.16108800  1
  O  O174  1  0.49769000  0.99951500  0.33891200  1
  O  O175  1  0.00231000  0.00048500  0.83891200  1
  O  O176  1  0.66108800  0.99769000  0.50048500  1
  O  O177  1  0.16108800  0.50231000  0.49951500  1
  O  O178  1  0.33891200  0.49769000  0.99951500  1
  O  O179  1  0.83891200  0.00231000  0.00048500  1
  O  O180  1  0.49951500  0.33891200  0.00231000  1
  O  O181  1  0.50048500  0.83891200  0.49769000  1
  O  O182  1  0.00048500  0.66108800  0.50231000  1
  O  O183  1  0.99951500  0.16108800  0.99769000  1
  O  O184  1  0.00231000  0.49951500  0.33891200  1
  O  O185  1  0.49769000  0.50048500  0.83891200  1
  O  O186  1  0.50231000  0.00048500  0.66108800  1
  O  O187  1  0.99769000  0.99951500  0.16108800  1
  O  O188  1  0.33891200  0.00231000  0.49951500  1
  O  O189  1  0.83891200  0.49769000  0.50048500  1
  O  O190  1  0.66108800  0.50231000  0.00048500  1
  O  O191  1  0.16108800  0.99769000  0.99951500  1
