# generated using pymatgen
data_Gd3YO6
_symmetry_space_group_name_H-M   'P 1'
_cell_length_a   6.82312088
_cell_length_b   6.82312088
_cell_length_c   6.82312093
_cell_angle_alpha   91.70978567
_cell_angle_beta   91.70978567
_cell_angle_gamma   91.70978965
_symmetry_Int_Tables_number   1
_chemical_formula_structural   Gd3YO6
_chemical_formula_sum   'Gd6 Y2 O12'
_cell_volume   317.21733607
_cell_formula_units_Z   2
loop_
 _symmetry_equiv_pos_site_id
 _symmetry_equiv_pos_as_xyz
  1  'x, y, z'
loop_
 _atom_site_type_symbol
 _atom_site_label
 _atom_site_symmetry_multiplicity
 _atom_site_fract_x
 _atom_site_fract_y
 _atom_site_fract_z
 _atom_site_occupancy
  Gd  Gd0  1  0.74814400  0.93717500  0.44349900  1
  Gd  Gd1  1  0.44349900  0.74814400  0.93717500  1
  Gd  Gd2  1  0.06282500  0.55650100  0.25185600  1
  Gd  Gd3  1  0.93717500  0.44349900  0.74814400  1
  Gd  Gd4  1  0.55650100  0.25185600  0.06282500  1
  Gd  Gd5  1  0.25185600  0.06282500  0.55650100  1
  Y  Y6  1  0.00000000  0.00000000  0.00000000  1
  Y  Y7  1  0.50000000  0.50000000  0.50000000  1
  O  O8  1  0.06884300  0.90730500  0.31398600  1
  O  O9  1  0.68601400  0.93115700  0.09269500  1
  O  O10  1  0.46854400  0.81559800  0.60004600  1
  O  O11  1  0.09269500  0.68601400  0.93115700  1
  O  O12  1  0.81559800  0.60004600  0.46854400  1
  O  O13  1  0.39995400  0.53145600  0.18440200  1
  O  O14  1  0.60004600  0.46854400  0.81559800  1
  O  O15  1  0.18440200  0.39995400  0.53145600  1
  O  O16  1  0.90730500  0.31398600  0.06884300  1
  O  O17  1  0.53145600  0.18440200  0.39995400  1
  O  O18  1  0.31398600  0.06884300  0.90730500  1
  O  O19  1  0.93115700  0.09269500  0.68601400  1
