# generated using pymatgen
data_FeH10S2NO11
_symmetry_space_group_name_H-M   'P 1'
_cell_length_a   11.93349700
_cell_length_b   10.02034700
_cell_length_c   11.16580539
_cell_angle_alpha   84.71545485
_cell_angle_beta   90.00000000
_cell_angle_gamma   90.00000000
_symmetry_Int_Tables_number   1
_chemical_formula_structural   FeH10S2NO11
_chemical_formula_sum   'Fe4 H40 S8 N4 O44'
_cell_volume   1329.50714155
_cell_formula_units_Z   4
loop_
 _symmetry_equiv_pos_site_id
 _symmetry_equiv_pos_as_xyz
  1  'x, y, z'
loop_
 _atom_site_type_symbol
 _atom_site_label
 _atom_site_symmetry_multiplicity
 _atom_site_fract_x
 _atom_site_fract_y
 _atom_site_fract_z
 _atom_site_occupancy
  Fe  Fe0  1  0.63133900  0.96190600  0.16538100  1
  Fe  Fe1  1  0.13133900  0.53809400  0.83461900  1
  Fe  Fe2  1  0.36866100  0.03809400  0.83461900  1
  Fe  Fe3  1  0.86866100  0.46190600  0.16538100  1
  H  H4  1  0.48846500  0.57816900  0.18882200  1
  H  H5  1  0.98846500  0.92183100  0.81117800  1
  H  H6  1  0.51153500  0.42183100  0.81117800  1
  H  H7  1  0.01153500  0.07816900  0.18882200  1
  H  H8  1  0.45165700  0.23367600  0.41714200  1
  H  H9  1  0.95165700  0.26632400  0.58285800  1
  H  H10  1  0.54834300  0.76632400  0.58285800  1
  H  H11  1  0.04834300  0.73367600  0.41714200  1
  H  H12  1  0.57235400  0.52673000  0.31378500  1
  H  H13  1  0.07235400  0.97327000  0.68621500  1
  H  H14  1  0.42764600  0.47327000  0.68621500  1
  H  H15  1  0.92764600  0.02673000  0.31378500  1
  H  H16  1  0.52580900  0.41060800  0.21048700  1
  H  H17  1  0.02580900  0.08939200  0.78951300  1
  H  H18  1  0.47419100  0.58939200  0.78951300  1
  H  H19  1  0.97419100  0.91060800  0.21048700  1
  H  H20  1  0.47970700  0.02342800  0.31422900  1
  H  H21  1  0.97970700  0.47657200  0.68577100  1
  H  H22  1  0.52029300  0.97657200  0.68577100  1
  H  H23  1  0.02029300  0.52342800  0.31422900  1
  H  H24  1  0.49789900  0.95743900  0.34598200  1
  H  H25  1  0.99789900  0.54256100  0.65401800  1
  H  H26  1  0.50210100  0.04256100  0.65401800  1
  H  H27  1  0.00210100  0.45743900  0.34598200  1
  H  H28  1  0.79407700  0.07815400  0.90164200  1
  H  H29  1  0.29407700  0.42184600  0.09835800  1
  H  H30  1  0.20592300  0.92184600  0.09835800  1
  H  H31  1  0.70592300  0.57815400  0.90164200  1
  H  H32  1  0.78520100  0.87722800  0.03645200  1
  H  H33  1  0.28520100  0.62277200  0.96354800  1
  H  H34  1  0.21479900  0.12277200  0.96354800  1
  H  H35  1  0.71479900  0.37722800  0.03645200  1
  H  H36  1  0.76463200  0.07357400  0.84292400  1
  H  H37  1  0.26463200  0.42642600  0.15707600  1
  H  H38  1  0.23536800  0.92642600  0.15707600  1
  H  H39  1  0.73536800  0.57357400  0.84292400  1
  H  H40  1  0.71604900  0.29923100  0.52554600  1
  H  H41  1  0.21604900  0.20076900  0.47445400  1
  H  H42  1  0.28395100  0.70076900  0.47445400  1
  H  H43  1  0.78395100  0.79923100  0.52554600  1
  S  S44  1  0.53241600  0.22058500  0.98935100  1
  S  S45  1  0.03241600  0.27941500  0.01064900  1
  S  S46  1  0.46758400  0.77941500  0.01064900  1
  S  S47  1  0.96758400  0.72058500  0.98935100  1
  S  S48  1  0.76098500  0.22421200  0.35751200  1
  S  S49  1  0.26098500  0.27578800  0.64248800  1
  S  S50  1  0.23901500  0.77578800  0.64248800  1
  S  S51  1  0.73901500  0.72421200  0.35751200  1
  N  N52  1  0.52806600  0.50350900  0.23976500  1
  N  N53  1  0.02806600  0.99649100  0.76023500  1
  N  N54  1  0.47193400  0.49649100  0.76023500  1
  N  N55  1  0.97193400  0.00350900  0.23976500  1
  O  O56  1  0.46634200  0.32760300  0.03541200  1
  O  O57  1  0.96634200  0.17239700  0.96458800  1
  O  O58  1  0.53365800  0.67239700  0.96458800  1
  O  O59  1  0.03365800  0.82760300  0.03541200  1
  O  O60  1  0.64587200  0.26619600  0.95424200  1
  O  O61  1  0.14587200  0.23380400  0.04575800  1
  O  O62  1  0.35412800  0.73380400  0.04575800  1
  O  O63  1  0.85412800  0.76619600  0.95424200  1
  O  O64  1  0.47629400  0.17626700  0.87614100  1
  O  O65  1  0.97629400  0.32373300  0.12385900  1
  O  O66  1  0.52370600  0.82373300  0.12385900  1
  O  O67  1  0.02370600  0.67626700  0.87614100  1
  O  O68  1  0.53464400  0.10115700  0.08281200  1
  O  O69  1  0.03464400  0.39884300  0.91718800  1
  O  O70  1  0.46535600  0.89884300  0.91718800  1
  O  O71  1  0.96535600  0.60115700  0.08281200  1
  O  O72  1  0.67587800  0.25533100  0.46280400  1
  O  O73  1  0.17587800  0.24466900  0.53719600  1
  O  O74  1  0.32412200  0.74466900  0.53719600  1
  O  O75  1  0.82412200  0.75533100  0.46280400  1
  O  O76  1  0.68673900  0.17554900  0.26771200  1
  O  O77  1  0.18673900  0.32445100  0.73228800  1
  O  O78  1  0.31326100  0.82445100  0.73228800  1
  O  O79  1  0.81326100  0.67554900  0.26771200  1
  O  O80  1  0.81336700  0.35798800  0.32031500  1
  O  O81  1  0.31336700  0.14201200  0.67968500  1
  O  O82  1  0.18663300  0.64201200  0.67968500  1
  O  O83  1  0.68663300  0.85798800  0.32031500  1
  O  O84  1  0.84443600  0.13012500  0.40877500  1
  O  O85  1  0.34443600  0.36987500  0.59122500  1
  O  O86  1  0.15556400  0.86987500  0.59122500  1
  O  O87  1  0.65556400  0.63012500  0.40877500  1
  O  O88  1  0.75930600  0.95251600  0.08136900  1
  O  O89  1  0.25930600  0.54748400  0.91863100  1
  O  O90  1  0.24069400  0.04748400  0.91863100  1
  O  O91  1  0.74069400  0.45251600  0.08136900  1
  O  O92  1  0.26513100  0.06309400  0.36968900  1
  O  O93  1  0.76513100  0.43690600  0.63031100  1
  O  O94  1  0.73486900  0.93690600  0.63031100  1
  O  O95  1  0.23486900  0.56309400  0.36968900  1
  O  O96  1  0.70116700  0.52796900  0.65184100  1
  O  O97  1  0.20116700  0.97203100  0.34815900  1
  O  O98  1  0.29883300  0.47203100  0.34815900  1
  O  O99  1  0.79883300  0.02796900  0.65184100  1
