# generated using pymatgen
data_Mn4Si3AsHO13
_symmetry_space_group_name_H-M   'P 1'
_cell_length_a   20.24475600
_cell_length_b   6.77434200
_cell_length_c   9.70953964
_cell_angle_alpha   51.84714732
_cell_angle_beta   90.00000000
_cell_angle_gamma   90.00000000
_symmetry_Int_Tables_number   1
_chemical_formula_structural   Mn4Si3AsHO13
_chemical_formula_sum   'Mn16 Si12 As4 H4 O52'
_cell_volume   1047.13519278
_cell_formula_units_Z   4
loop_
 _symmetry_equiv_pos_site_id
 _symmetry_equiv_pos_as_xyz
  1  'x, y, z'
loop_
 _atom_site_type_symbol
 _atom_site_label
 _atom_site_symmetry_multiplicity
 _atom_site_fract_x
 _atom_site_fract_y
 _atom_site_fract_z
 _atom_site_occupancy
  Mn  Mn0  1  0.14801900  0.59551100  0.64645300  1
  Mn  Mn1  1  0.35198100  0.59551100  0.14645300  1
  Mn  Mn2  1  0.85198100  0.40448900  0.35354700  1
  Mn  Mn3  1  0.64801900  0.40448900  0.85354700  1
  Mn  Mn4  1  0.08415300  0.00142500  0.95471300  1
  Mn  Mn5  1  0.41584700  0.00142500  0.45471300  1
  Mn  Mn6  1  0.91584700  0.99857500  0.04528700  1
  Mn  Mn7  1  0.58415300  0.99857500  0.54528700  1
  Mn  Mn8  1  0.00833600  0.48464200  0.25158800  1
  Mn  Mn9  1  0.49166400  0.48464200  0.75158800  1
  Mn  Mn10  1  0.99166400  0.51535800  0.74841200  1
  Mn  Mn11  1  0.50833600  0.51535800  0.24841200  1
  Mn  Mn12  1  0.24550600  0.08595900  0.36212900  1
  Mn  Mn13  1  0.25449400  0.08595900  0.86212900  1
  Mn  Mn14  1  0.75449400  0.91404100  0.63787100  1
  Mn  Mn15  1  0.74550600  0.91404100  0.13787100  1
  Si  Si16  1  0.86721200  0.84965400  0.41742900  1
  Si  Si17  1  0.63278800  0.84965400  0.91742900  1
  Si  Si18  1  0.13278800  0.15034600  0.58257100  1
  Si  Si19  1  0.36721200  0.15034600  0.08257100  1
  Si  Si20  1  0.01962700  0.89419300  0.33873400  1
  Si  Si21  1  0.48037300  0.89419300  0.83873400  1
  Si  Si22  1  0.98037300  0.10580700  0.66126600  1
  Si  Si23  1  0.51962700  0.10580700  0.16126600  1
  Si  Si24  1  0.09790000  0.38710500  0.06255500  1
  Si  Si25  1  0.40210000  0.38710500  0.56255500  1
  Si  Si26  1  0.90210000  0.61289500  0.93744500  1
  Si  Si27  1  0.59790000  0.61289500  0.43744500  1
  As  As28  1  0.80088000  0.35788000  0.70932400  1
  As  As29  1  0.69912000  0.35788000  0.20932400  1
  As  As30  1  0.19912000  0.64212000  0.29067600  1
  As  As31  1  0.30088000  0.64212000  0.79067600  1
  H  H32  1  0.20325600  0.35896100  0.01627000  1
  H  H33  1  0.29674400  0.35896100  0.51627000  1
  H  H34  1  0.79674400  0.64103900  0.98373000  1
  H  H35  1  0.70325600  0.64103900  0.48373000  1
  O  O36  1  0.73679100  0.55251700  0.67476000  1
  O  O37  1  0.76320900  0.55251700  0.17476000  1
  O  O38  1  0.26320900  0.44748300  0.32524000  1
  O  O39  1  0.23679100  0.44748300  0.82524000  1
  O  O40  1  0.81946900  0.12021600  0.92093000  1
  O  O41  1  0.68053100  0.12021600  0.42093000  1
  O  O42  1  0.18053100  0.87978400  0.07907000  1
  O  O43  1  0.31946900  0.87978400  0.57907000  1
  O  O44  1  0.79068900  0.25791300  0.58690700  1
  O  O45  1  0.70931100  0.25791300  0.08690700  1
  O  O46  1  0.20931100  0.74208700  0.41309300  1
  O  O47  1  0.29068900  0.74208700  0.91309300  1
  O  O48  1  0.87009700  0.56377000  0.61917700  1
  O  O49  1  0.62990300  0.56377000  0.11917700  1
  O  O50  1  0.12990300  0.43623000  0.38082300  1
  O  O51  1  0.37009700  0.43623000  0.88082300  1
  O  O52  1  0.84252700  0.80529800  0.27763700  1
  O  O53  1  0.65747300  0.80529800  0.77763700  1
  O  O54  1  0.15747300  0.19470200  0.72236300  1
  O  O55  1  0.34252700  0.19470200  0.22236300  1
  O  O56  1  0.82377000  0.04065200  0.42650800  1
  O  O57  1  0.67623000  0.04065200  0.92650800  1
  O  O58  1  0.17623000  0.95934800  0.57349200  1
  O  O59  1  0.32377000  0.95934800  0.07349200  1
  O  O60  1  0.94466900  0.93834700  0.38187500  1
  O  O61  1  0.55533100  0.93834700  0.88187500  1
  O  O62  1  0.05533100  0.06165300  0.61812500  1
  O  O63  1  0.44466900  0.06165300  0.11812500  1
  O  O64  1  0.05266100  0.67600800  0.52645000  1
  O  O65  1  0.44733900  0.67600800  0.02645000  1
  O  O66  1  0.94733900  0.32399200  0.47355000  1
  O  O67  1  0.55266100  0.32399200  0.97355000  1
  O  O68  1  0.01534400  0.84901800  0.19158600  1
  O  O69  1  0.48465600  0.84901800  0.69158600  1
  O  O70  1  0.98465600  0.15098200  0.80841400  1
  O  O71  1  0.51534400  0.15098200  0.30841400  1
  O  O72  1  0.05695000  0.16803300  0.24594300  1
  O  O73  1  0.44305000  0.16803300  0.74594300  1
  O  O74  1  0.94305000  0.83196700  0.75405700  1
  O  O75  1  0.55695000  0.83196700  0.25405700  1
  O  O76  1  0.17772300  0.31974200  0.11906100  1
  O  O77  1  0.32227700  0.31974200  0.61906100  1
  O  O78  1  0.82227700  0.68025800  0.88093900  1
  O  O79  1  0.67772300  0.68025800  0.38093900  1
  O  O80  1  0.08582500  0.37723600  0.89967800  1
  O  O81  1  0.41417500  0.37723600  0.39967800  1
  O  O82  1  0.91417500  0.62276400  0.10032200  1
  O  O83  1  0.58582500  0.62276400  0.60032200  1
  O  O84  1  0.07058900  0.63944500  0.02623500  1
  O  O85  1  0.42941100  0.63944500  0.52623500  1
  O  O86  1  0.92941100  0.36055500  0.97376500  1
  O  O87  1  0.57058900  0.36055500  0.47376500  1
