# generated using pymatgen
data_NiH44C12(N5O8)2
_symmetry_space_group_name_H-M   'P 1'
_cell_length_a   9.16861700
_cell_length_b   9.44777383
_cell_length_c   9.78135174
_cell_angle_alpha   87.68023399
_cell_angle_beta   104.33553370
_cell_angle_gamma   118.73187785
_symmetry_Int_Tables_number   1
_chemical_formula_structural   NiH44C12(N5O8)2
_chemical_formula_sum   'Ni1 H44 C12 N10 O16'
_cell_volume   716.75334269
_cell_formula_units_Z   1
loop_
 _symmetry_equiv_pos_site_id
 _symmetry_equiv_pos_as_xyz
  1  'x, y, z'
loop_
 _atom_site_type_symbol
 _atom_site_label
 _atom_site_symmetry_multiplicity
 _atom_site_fract_x
 _atom_site_fract_y
 _atom_site_fract_z
 _atom_site_occupancy
  Ni  Ni0  1  0.50000000  0.50000000  0.50000000  1
  H  H1  1  0.46085300  0.34849900  0.73139100  1
  H  H2  1  0.53914700  0.65150100  0.26860900  1
  H  H3  1  0.27163400  0.27864600  0.62687000  1
  H  H4  1  0.72836600  0.72135400  0.37313000  1
  H  H5  1  0.46794200  0.65686200  0.71385200  1
  H  H6  1  0.53205800  0.34313800  0.28614800  1
  H  H7  1  0.58679000  0.79575500  0.62929100  1
  H  H8  1  0.41321000  0.20424500  0.37070900  1
  H  H9  1  0.18703000  0.37203500  0.30915100  1
  H  H10  1  0.81297000  0.62796500  0.69084900  1
  H  H11  1  0.23105800  0.54085100  0.38433600  1
  H  H12  1  0.76894200  0.45914900  0.61566400  1
  H  H13  1  0.91137000  0.18204800  0.20034100  1
  H  H14  1  0.08863000  0.81795200  0.79965900  1
  H  H15  1  0.00706000  0.22759400  0.07559100  1
  H  H16  1  0.99294000  0.77240600  0.92440900  1
  H  H17  1  0.33742000  0.83172100  0.79953200  1
  H  H18  1  0.66258000  0.16827900  0.20046800  1
  H  H19  1  0.36537500  0.00908800  0.81222600  1
  H  H20  1  0.63462500  0.99091200  0.18777400  1
  H  H21  1  0.13040500  0.13084400  0.85523000  1
  H  H22  1  0.86959500  0.86915600  0.14477000  1
  H  H23  1  0.20393500  0.34531700  0.85674600  1
  H  H24  1  0.79606500  0.65468300  0.14325400  1
  H  H25  1  0.95477900  0.31509300  0.49447000  1
  H  H26  1  0.04522100  0.68490700  0.50553000  1
  H  H27  1  0.10232600  0.45043800  0.64914500  1
  H  H28  1  0.89767400  0.54956200  0.35085500  1
  H  H29  1  0.85741500  0.03387900  0.49456900  1
  H  H30  1  0.14258500  0.96612100  0.50543100  1
  H  H31  1  0.93459500  0.95327300  0.64955800  1
  H  H32  1  0.06540500  0.04672700  0.35044200  1
  H  H33  1  0.84193600  0.94796300  0.85791600  1
  H  H34  1  0.15806400  0.05203700  0.14208400  1
  H  H35  1  0.69470600  0.02189300  0.86016000  1
  H  H36  1  0.30529400  0.97810700  0.13984000  1
  H  H37  1  0.01040600  0.44517800  0.85635700  1
  H  H38  1  0.98959400  0.55482200  0.14364300  1
  H  H39  1  0.79171500  0.30826000  0.85938900  1
  H  H40  1  0.20828500  0.69174000  0.14061100  1
  H  H41  1  0.66564700  0.13161700  0.49693300  1
  H  H42  1  0.33435300  0.86838300  0.50306700  1
  H  H43  1  0.59297700  0.12684200  0.65294600  1
  H  H44  1  0.40702300  0.87315800  0.34705400  1
  C  C45  1  0.09480500  0.22395900  0.81806400  1
  C  C46  1  0.90519500  0.77604100  0.18193600  1
  C  C47  1  0.99304200  0.32919400  0.61069500  1
  C  C48  1  0.00695800  0.67080600  0.38930500  1
  C  C49  1  0.89789700  0.04520200  0.61082600  1
  C  C50  1  0.10210300  0.95479800  0.38917400  1
  C  C51  1  0.80365000  0.03930800  0.82049300  1
  C  C52  1  0.19635000  0.96069200  0.17950700  1
  C  C53  1  0.89993300  0.32386500  0.81958600  1
  C  C54  1  0.10006700  0.67613500  0.18041400  1
  C  C55  1  0.70164900  0.14339700  0.61323900  1
  C  C56  1  0.29835100  0.85660300  0.38676100  1
  N  N57  1  0.04739400  0.20804400  0.66109600  1
  N  N58  1  0.95260600  0.79195600  0.33890400  1
  N  N59  1  0.95073900  0.20187500  0.87482700  1
  N  N60  1  0.04926100  0.79812500  0.12517300  1
  N  N61  1  0.84643500  0.30865900  0.66300200  1
  N  N62  1  0.15356500  0.69134100  0.33699800  1
  N  N63  1  0.74911300  0.01771500  0.66378500  1
  N  N64  1  0.25088700  0.98228500  0.33621500  1
  N  N65  1  0.56632300  0.31879200  0.00405700  1
  N  N66  1  0.43367700  0.68120800  0.99594300  1
  O  O67  1  0.59841500  0.42794900  0.91854100  1
  O  O68  1  0.40158500  0.57205100  0.08145900  1
  O  O69  1  0.63877600  0.35808300  0.13687100  1
  O  O70  1  0.36122400  0.64191700  0.86312900  1
  O  O71  1  0.46618300  0.17103500  0.96062500  1
  O  O72  1  0.53381700  0.82896500  0.03937500  1
  O  O73  1  0.39454000  0.31558100  0.63062900  1
  O  O74  1  0.60546000  0.68441900  0.36937100  1
  O  O75  1  0.50225200  0.67783000  0.62406900  1
  O  O76  1  0.49774800  0.32217000  0.37593100  1
  O  O77  1  0.25634600  0.44865400  0.39697400  1
  O  O78  1  0.74365400  0.55134600  0.60302600  1
  O  O79  1  0.02648600  0.23045700  0.18071800  1
  O  O80  1  0.97351400  0.76954300  0.81928200  1
  O  O81  1  0.29186200  0.90343600  0.75573500  1
  O  O82  1  0.70813800  0.09656400  0.24426500  1
