# generated using pymatgen
data_TiFe(PO4)2
_symmetry_space_group_name_H-M   'P 1'
_cell_length_a   8.52223921
_cell_length_b   8.52223921
_cell_length_c   8.52223932
_cell_angle_alpha   61.42866991
_cell_angle_beta   61.42866991
_cell_angle_gamma   61.42866818
_symmetry_Int_Tables_number   1
_chemical_formula_structural   TiFe(PO4)2
_chemical_formula_sum   'Ti3 Fe3 P6 O24'
_cell_volume   451.71242585
_cell_formula_units_Z   3
loop_
 _symmetry_equiv_pos_site_id
 _symmetry_equiv_pos_as_xyz
  1  'x, y, z'
loop_
 _atom_site_type_symbol
 _atom_site_label
 _atom_site_symmetry_multiplicity
 _atom_site_fract_x
 _atom_site_fract_y
 _atom_site_fract_z
 _atom_site_occupancy
  Ti  Ti0  1  0.35681200  0.35681200  0.35681200  1
  Ti  Ti1  1  0.14134600  0.14134600  0.14134600  1
  Ti  Ti2  1  0.64407800  0.64407800  0.64407800  1
  Fe  Fe3  1  0.99667200  0.99667200  0.99667200  1
  Fe  Fe4  1  0.85789700  0.85789700  0.85789700  1
  Fe  Fe5  1  0.49886700  0.49886700  0.49886700  1
  P  P6  1  0.75313000  0.04389200  0.45785600  1
  P  P7  1  0.04389200  0.45785600  0.75313000  1
  P  P8  1  0.45785600  0.75313000  0.04389200  1
  P  P9  1  0.54089500  0.25201800  0.95655000  1
  P  P10  1  0.95655000  0.54089500  0.25201800  1
  P  P11  1  0.25201800  0.95655000  0.54089500  1
  O  O12  1  0.87978100  0.50397400  0.68664400  1
  O  O13  1  0.50397400  0.68664400  0.87978100  1
  O  O14  1  0.68664400  0.87978100  0.50397400  1
  O  O15  1  0.90887100  0.05666600  0.25849600  1
  O  O16  1  0.81685200  0.01268900  0.60958000  1
  O  O17  1  0.59154400  0.24018600  0.43363000  1
  O  O18  1  0.05666600  0.25849600  0.90887100  1
  O  O19  1  0.24018600  0.43363000  0.59154400  1
  O  O20  1  0.37979800  0.18458200  0.00106600  1
  O  O21  1  0.43363000  0.59154400  0.24018600  1
  O  O22  1  0.73377300  0.09804100  0.94845800  1
  O  O23  1  0.00106600  0.37979800  0.18458200  1
  O  O24  1  0.01268900  0.60958000  0.81685200  1
  O  O25  1  0.25849600  0.90887100  0.05666600  1
  O  O26  1  0.55194600  0.41275000  0.76125500  1
  O  O27  1  0.60958000  0.81685200  0.01268900  1
  O  O28  1  0.76125500  0.55194600  0.41275000  1
  O  O29  1  0.94845800  0.73377300  0.09804100  1
  O  O30  1  0.41275000  0.76125500  0.55194600  1
  O  O31  1  0.18458200  0.00106600  0.37979800  1
  O  O32  1  0.09804100  0.94845800  0.73377300  1
  O  O33  1  0.32947700  0.11364300  0.48627600  1
  O  O34  1  0.48627600  0.32947700  0.11364300  1
  O  O35  1  0.11364300  0.48627600  0.32947700  1
