# generated using pymatgen
data_FeP3H18C6(SO)6
_symmetry_space_group_name_H-M   'P 1'
_cell_length_a   9.21827962
_cell_length_b   9.21827962
_cell_length_c   13.33573846
_cell_angle_alpha   84.09943526
_cell_angle_beta   84.09943526
_cell_angle_gamma   75.68317455
_symmetry_Int_Tables_number   1
_chemical_formula_structural   FeP3H18C6(SO)6
_chemical_formula_sum   'Fe2 P6 H36 C12 S12 O12'
_cell_volume   1088.68886314
_cell_formula_units_Z   2
loop_
 _symmetry_equiv_pos_site_id
 _symmetry_equiv_pos_as_xyz
  1  'x, y, z'
loop_
 _atom_site_type_symbol
 _atom_site_label
 _atom_site_symmetry_multiplicity
 _atom_site_fract_x
 _atom_site_fract_y
 _atom_site_fract_z
 _atom_site_occupancy
  Fe  Fe0  1  0.16323600  0.83676400  0.75000000  1
  Fe  Fe1  1  0.83676400  0.16323600  0.25000000  1
  P  P2  1  0.43216900  0.56783100  0.75000000  1
  P  P3  1  0.56783100  0.43216900  0.25000000  1
  P  P4  1  0.85781700  0.79455400  0.85121100  1
  P  P5  1  0.20544600  0.14218300  0.64878900  1
  P  P6  1  0.14218300  0.20544600  0.14878900  1
  P  P7  1  0.79455400  0.85781700  0.35121100  1
  H  H8  1  0.43722200  0.31185400  0.96596200  1
  H  H9  1  0.68814600  0.56277800  0.53403800  1
  H  H10  1  0.56277800  0.68814600  0.03403800  1
  H  H11  1  0.31185400  0.43722200  0.46596200  1
  H  H12  1  0.32205700  0.49865700  0.95134200  1
  H  H13  1  0.50134300  0.67794300  0.54865800  1
  H  H14  1  0.67794300  0.50134300  0.04865800  1
  H  H15  1  0.49865700  0.32205700  0.45134200  1
  H  H16  1  0.28221900  0.35047900  0.88862800  1
  H  H17  1  0.64952100  0.71778100  0.61137200  1
  H  H18  1  0.71778100  0.64952100  0.11137200  1
  H  H19  1  0.35047900  0.28221900  0.38862800  1
  H  H20  1  0.80782600  0.42786100  0.84073100  1
  H  H21  1  0.57213900  0.19217400  0.65926900  1
  H  H22  1  0.19217400  0.57213900  0.15926900  1
  H  H23  1  0.42786100  0.80782600  0.34073100  1
  H  H24  1  0.97891100  0.46353800  0.87321000  1
  H  H25  1  0.53646200  0.02108900  0.62679000  1
  H  H26  1  0.02108900  0.53646200  0.12679000  1
  H  H27  1  0.46353800  0.97891100  0.37321000  1
  H  H28  1  0.91772000  0.51997800  0.74810800  1
  H  H29  1  0.48002200  0.08228000  0.75189200  1
  H  H30  1  0.08228000  0.48002200  0.25189200  1
  H  H31  1  0.51997800  0.91772000  0.24810800  1
  H  H32  1  0.71649400  0.12149300  0.85198700  1
  H  H33  1  0.87850700  0.28350600  0.64801300  1
  H  H34  1  0.28350600  0.87850700  0.14801300  1
  H  H35  1  0.12149300  0.71649400  0.35198700  1
  H  H36  1  0.80822800  0.05289900  0.96639800  1
  H  H37  1  0.94710100  0.19177200  0.53360200  1
  H  H38  1  0.19177200  0.94710100  0.03360200  1
  H  H39  1  0.05289900  0.80822800  0.46639800  1
  H  H40  1  0.60726100  0.09460500  0.96916400  1
  H  H41  1  0.90539500  0.39273900  0.53083600  1
  H  H42  1  0.39273900  0.90539500  0.03083600  1
  H  H43  1  0.09460500  0.60726100  0.46916400  1
  C  C44  1  0.37113900  0.39534800  0.91360100  1
  C  C45  1  0.60465200  0.62886100  0.58639900  1
  C  C46  1  0.62886100  0.60465200  0.08639900  1
  C  C47  1  0.39534800  0.37113900  0.41360100  1
  C  C48  1  0.88100200  0.50657400  0.82874900  1
  C  C49  1  0.49342600  0.11899800  0.67125100  1
  C  C50  1  0.11899800  0.49342600  0.17125100  1
  C  C51  1  0.50657400  0.88100200  0.32874900  1
  C  C52  1  0.71236900  0.05158600  0.92373100  1
  C  C53  1  0.94841400  0.28763100  0.57626900  1
  C  C54  1  0.28763100  0.94841400  0.07626900  1
  C  C55  1  0.05158600  0.71236900  0.42373100  1
  S  S56  1  0.23863000  0.59224200  0.68595100  1
  S  S57  1  0.40775800  0.76137000  0.81404900  1
  S  S58  1  0.76137000  0.40775800  0.31404900  1
  S  S59  1  0.59224200  0.23863000  0.18595100  1
  S  S60  1  0.03998200  0.76857500  0.92530200  1
  S  S61  1  0.23142500  0.96001800  0.57469800  1
  S  S62  1  0.96001800  0.23142500  0.07469800  1
  S  S63  1  0.76857500  0.03998200  0.42530200  1
  S  S64  1  0.89817300  0.86406100  0.70565900  1
  S  S65  1  0.13593900  0.10182700  0.79434100  1
  S  S66  1  0.10182700  0.13593900  0.29434100  1
  S  S67  1  0.86406100  0.89817300  0.20565900  1
  O  O68  1  0.47468900  0.42221300  0.82712700  1
  O  O69  1  0.57778700  0.52531100  0.67287300  1
  O  O70  1  0.52531100  0.57778700  0.17287300  1
  O  O71  1  0.42221300  0.47468900  0.32712700  1
  O  O72  1  0.79147200  0.64713900  0.86308300  1
  O  O73  1  0.35286100  0.20852800  0.63691700  1
  O  O74  1  0.20852800  0.35286100  0.13691700  1
  O  O75  1  0.64713900  0.79147200  0.36308300  1
  O  O76  1  0.71151000  0.90028900  0.90526600  1
  O  O77  1  0.09971100  0.28849000  0.59473400  1
  O  O78  1  0.28849000  0.09971100  0.09473400  1
  O  O79  1  0.90028900  0.71151000  0.40526600  1
