# generated using pymatgen
data_SmTh4O10
_symmetry_space_group_name_H-M   'P 1'
_cell_length_a   6.87108111
_cell_length_b   6.87108111
_cell_length_c   6.87108111
_cell_angle_alpha   99.59899832
_cell_angle_beta   99.59899832
_cell_angle_gamma   131.79727252
_symmetry_Int_Tables_number   1
_chemical_formula_structural   SmTh4O10
_chemical_formula_sum   'Sm1 Th4 O10'
_cell_volume   220.75708117
_cell_formula_units_Z   1
loop_
 _symmetry_equiv_pos_site_id
 _symmetry_equiv_pos_as_xyz
  1  'x, y, z'
loop_
 _atom_site_type_symbol
 _atom_site_label
 _atom_site_symmetry_multiplicity
 _atom_site_fract_x
 _atom_site_fract_y
 _atom_site_fract_z
 _atom_site_occupancy
  Sm  Sm0  1  0.50000000  0.50000000  0.00000000  1
  Th  Th1  1  0.10079800  0.29863700  0.39943500  1
  Th  Th2  1  0.89920200  0.70136300  0.60056500  1
  Th  Th3  1  0.29863700  0.89920200  0.19783800  1
  Th  Th4  1  0.70136300  0.10079800  0.80216200  1
  O  O5  1  0.55059800  0.65196500  0.69778800  1
  O  O6  1  0.04582300  0.14719000  0.69778800  1
  O  O7  1  0.85281000  0.55059800  0.89863400  1
  O  O8  1  0.34803500  0.04582300  0.89863400  1
  O  O9  1  0.75000000  0.25000000  0.50000000  1
  O  O10  1  0.25000000  0.75000000  0.50000000  1
  O  O11  1  0.44940200  0.34803500  0.30221200  1
  O  O12  1  0.95417700  0.85281000  0.30221200  1
  O  O13  1  0.65196500  0.95417700  0.10136600  1
  O  O14  1  0.14719000  0.44940200  0.10136600  1
