# generated using pymatgen
data_NiH10C2(N2O3)2
_symmetry_space_group_name_H-M   'P 1'
_cell_length_a   6.79805351
_cell_length_b   6.79805351
_cell_length_c   10.46150220
_cell_angle_alpha   73.04685202
_cell_angle_beta   73.04685202
_cell_angle_gamma   61.92979974
_symmetry_Int_Tables_number   1
_chemical_formula_structural   NiH10C2(N2O3)2
_chemical_formula_sum   'Ni2 H20 C4 N8 O12'
_cell_volume   401.17170506
_cell_formula_units_Z   2
loop_
 _symmetry_equiv_pos_site_id
 _symmetry_equiv_pos_as_xyz
  1  'x, y, z'
loop_
 _atom_site_type_symbol
 _atom_site_label
 _atom_site_symmetry_multiplicity
 _atom_site_fract_x
 _atom_site_fract_y
 _atom_site_fract_z
 _atom_site_occupancy
  Ni  Ni0  1  0.00000000  0.00000000  0.00000000  1
  Ni  Ni1  1  0.00000000  0.00000000  0.50000000  1
  H  H2  1  0.48480700  0.14996700  0.78463600  1
  H  H3  1  0.85003300  0.51519300  0.71536400  1
  H  H4  1  0.51519300  0.85003300  0.21536400  1
  H  H5  1  0.14996700  0.48480700  0.28463600  1
  H  H6  1  0.40057200  0.82794100  0.84596600  1
  H  H7  1  0.17205900  0.59942800  0.65403400  1
  H  H8  1  0.59942800  0.17205900  0.15403400  1
  H  H9  1  0.82794100  0.40057200  0.34596600  1
  H  H10  1  0.22787400  0.03205100  0.74245700  1
  H  H11  1  0.96794900  0.77212600  0.75754300  1
  H  H12  1  0.77212600  0.96794900  0.25754300  1
  H  H13  1  0.03205100  0.22787400  0.24245700  1
  H  H14  1  0.24845400  0.55664100  0.06271000  1
  H  H15  1  0.44335900  0.75154600  0.43729000  1
  H  H16  1  0.75154600  0.44335900  0.93729000  1
  H  H17  1  0.55664100  0.24845400  0.56271000  1
  H  H18  1  0.36305300  0.68618400  0.09500600  1
  H  H19  1  0.31381600  0.63694700  0.40499400  1
  H  H20  1  0.63694700  0.31381600  0.90499400  1
  H  H21  1  0.68618400  0.36305300  0.59500600  1
  C  C22  1  0.27321300  0.22205700  0.96832400  1
  C  C23  1  0.77794300  0.72678700  0.53167600  1
  C  C24  1  0.72678700  0.77794300  0.03167600  1
  C  C25  1  0.22205700  0.27321300  0.46832400  1
  N  N26  1  0.34134400  0.14288400  0.84916800  1
  N  N27  1  0.85711600  0.65865600  0.65083200  1
  N  N28  1  0.65865600  0.85711600  0.15083200  1
  N  N29  1  0.14288400  0.34134400  0.34916800  1
  N  N30  1  0.26867300  0.98612900  0.83785000  1
  N  N31  1  0.01387100  0.73132700  0.66215000  1
  N  N32  1  0.73132700  0.01387100  0.16215000  1
  N  N33  1  0.98612900  0.26867300  0.33785000  1
  O  O34  1  0.11838400  0.17920200  0.05924400  1
  O  O35  1  0.82079800  0.88161600  0.44075600  1
  O  O36  1  0.88161600  0.82079800  0.94075600  1
  O  O37  1  0.17920200  0.11838400  0.55924400  1
  O  O38  1  0.36917600  0.33770100  0.97933600  1
  O  O39  1  0.66229900  0.63082400  0.52066400  1
  O  O40  1  0.63082400  0.66229900  0.02066400  1
  O  O41  1  0.33770100  0.36917600  0.47933600  1
  O  O42  1  0.21288500  0.68121400  0.11056300  1
  O  O43  1  0.31878600  0.78711500  0.38943700  1
  O  O44  1  0.78711500  0.31878600  0.88943700  1
  O  O45  1  0.68121400  0.21288500  0.61056300  1
