# generated using pymatgen
data_Cs2NiH12(SO7)2
_symmetry_space_group_name_H-M   'P 1'
_cell_length_a   13.78080400
_cell_length_b   6.82355400
_cell_length_c   9.84289681
_cell_angle_alpha   69.22912137
_cell_angle_beta   90.00000000
_cell_angle_gamma   90.00000000
_symmetry_Int_Tables_number   1
_chemical_formula_structural   Cs2NiH12(SO7)2
_chemical_formula_sum   'Cs4 Ni2 H24 S4 O28'
_cell_volume   865.41125427
_cell_formula_units_Z   2
loop_
 _symmetry_equiv_pos_site_id
 _symmetry_equiv_pos_as_xyz
  1  'x, y, z'
loop_
 _atom_site_type_symbol
 _atom_site_label
 _atom_site_symmetry_multiplicity
 _atom_site_fract_x
 _atom_site_fract_y
 _atom_site_fract_z
 _atom_site_occupancy
  Cs  Cs0  1  0.14364800  0.62076500  0.63748800  1
  Cs  Cs1  1  0.64364800  0.37923500  0.86251200  1
  Cs  Cs2  1  0.85635200  0.37923500  0.36251200  1
  Cs  Cs3  1  0.35635200  0.62076500  0.13748800  1
  Ni  Ni4  1  0.50000000  0.00000000  0.50000000  1
  Ni  Ni5  1  0.00000000  0.00000000  0.00000000  1
  H  H6  1  0.39359400  0.73583900  0.70930800  1
  H  H7  1  0.89359400  0.26416100  0.79069200  1
  H  H8  1  0.60640600  0.26416100  0.29069200  1
  H  H9  1  0.10640600  0.73583900  0.20930800  1
  H  H10  1  0.40183300  0.95997100  0.72658800  1
  H  H11  1  0.90183300  0.04002900  0.77341200  1
  H  H12  1  0.59816700  0.04002900  0.27341200  1
  H  H13  1  0.09816700  0.95997100  0.22658800  1
  H  H14  1  0.36551400  0.06417200  0.18222400  1
  H  H15  1  0.86551400  0.93582800  0.31777600  1
  H  H16  1  0.63448600  0.93582800  0.81777600  1
  H  H17  1  0.13448600  0.06417200  0.68222400  1
  H  H18  1  0.33301600  0.05686000  0.33328000  1
  H  H19  1  0.83301600  0.94314000  0.16672000  1
  H  H20  1  0.66698400  0.94314000  0.66672000  1
  H  H21  1  0.16698400  0.05686000  0.83328000  1
  H  H22  1  0.56761800  0.72394600  0.32876800  1
  H  H23  1  0.06761800  0.27605400  0.17123200  1
  H  H24  1  0.43238200  0.27605400  0.67123200  1
  H  H25  1  0.93238200  0.72394600  0.82876800  1
  H  H26  1  0.68210600  0.72675000  0.48341100  1
  H  H27  1  0.18210600  0.27325000  0.01658900  1
  H  H28  1  0.31789400  0.27325000  0.51658900  1
  H  H29  1  0.81789400  0.72675000  0.98341100  1
  S  S30  1  0.36640500  0.26058100  0.88120900  1
  S  S31  1  0.86640500  0.73941900  0.61879100  1
  S  S32  1  0.63359500  0.73941900  0.11879100  1
  S  S33  1  0.13359500  0.26058100  0.38120900  1
  O  O34  1  0.05162000  0.19079700  0.27478200  1
  O  O35  1  0.55162000  0.80920300  0.22521800  1
  O  O36  1  0.94838000  0.80920300  0.72521800  1
  O  O37  1  0.44838000  0.19079700  0.77478200  1
  O  O38  1  0.42868300  0.23471600  0.01092900  1
  O  O39  1  0.92868300  0.76528400  0.48907100  1
  O  O40  1  0.57131700  0.76528400  0.98907100  1
  O  O41  1  0.07131700  0.23471600  0.51092900  1
  O  O42  1  0.34930600  0.48818200  0.79309000  1
  O  O43  1  0.84930600  0.51181800  0.70691000  1
  O  O44  1  0.65069400  0.51181800  0.20691000  1
  O  O45  1  0.15069400  0.48818200  0.29309000  1
  O  O46  1  0.57158700  0.74849300  0.60020800  1
  O  O47  1  0.07158700  0.25150700  0.89979200  1
  O  O48  1  0.42841300  0.25150700  0.39979200  1
  O  O49  1  0.92841300  0.74849300  0.10020800  1
  O  O50  1  0.39506800  0.89032400  0.65457800  1
  O  O51  1  0.89506800  0.10967600  0.84542200  1
  O  O52  1  0.60493200  0.10967600  0.34542200  1
  O  O53  1  0.10493200  0.89032400  0.15457800  1
  O  O54  1  0.32139100  0.98789500  0.26272600  1
  O  O55  1  0.82139100  0.01210500  0.23727400  1
  O  O56  1  0.67860900  0.01210500  0.73727400  1
  O  O57  1  0.17860900  0.98789500  0.76272600  1
  O  O58  1  0.62016600  0.65097800  0.50537800  1
  O  O59  1  0.12016600  0.34902200  0.99462200  1
  O  O60  1  0.37983400  0.34902200  0.49462200  1
  O  O61  1  0.87983400  0.65097800  0.00537800  1
