# generated using pymatgen
data_Rb2Ga2Ge3O10
_symmetry_space_group_name_H-M   'P 1'
_cell_length_a   9.55747423
_cell_length_b   9.55747423
_cell_length_c   12.89159997
_cell_angle_alpha   50.80018630
_cell_angle_beta   50.80018630
_cell_angle_gamma   41.94549469
_symmetry_Int_Tables_number   1
_chemical_formula_structural   Rb2Ga2Ge3O10
_chemical_formula_sum   'Rb4 Ga4 Ge6 O20'
_cell_volume   579.40693234
_cell_formula_units_Z   2
loop_
 _symmetry_equiv_pos_site_id
 _symmetry_equiv_pos_as_xyz
  1  'x, y, z'
loop_
 _atom_site_type_symbol
 _atom_site_label
 _atom_site_symmetry_multiplicity
 _atom_site_fract_x
 _atom_site_fract_y
 _atom_site_fract_z
 _atom_site_occupancy
  Rb  Rb0  1  0.42429400  0.12289000  0.83464900  1
  Rb  Rb1  1  0.73333900  0.98823900  0.37691300  1
  Rb  Rb2  1  0.01176100  0.26666100  0.62308700  1
  Rb  Rb3  1  0.87711000  0.57570600  0.16535100  1
  Ga  Ga4  1  0.04230600  0.69214100  0.74038500  1
  Ga  Ga5  1  0.30761900  0.56939700  0.19301100  1
  Ga  Ga6  1  0.43060300  0.69238100  0.80698900  1
  Ga  Ga7  1  0.30785900  0.95769400  0.25961500  1
  Ge  Ge8  1  0.99775300  0.00224700  0.00000000  1
  Ge  Ge9  1  0.75128300  0.50599300  0.93841300  1
  Ge  Ge10  1  0.31744500  0.52601100  0.44716800  1
  Ge  Ge11  1  0.98876600  0.01123400  0.50000000  1
  Ge  Ge12  1  0.47398900  0.68255500  0.55283200  1
  Ge  Ge13  1  0.49400700  0.24871700  0.06158700  1
  O  O14  1  0.96914700  0.25975900  0.88735000  1
  O  O15  1  0.58308300  0.72324100  0.82847100  1
  O  O16  1  0.89591200  0.58483000  0.91130300  1
  O  O17  1  0.06814600  0.72704700  0.55866800  1
  O  O18  1  0.19123500  0.53171500  0.38413600  1
  O  O19  1  0.46783600  0.27323200  0.55031100  1
  O  O20  1  0.86851600  0.00959600  0.67279000  1
  O  O21  1  0.32317600  0.56713400  0.70966900  1
  O  O22  1  0.56467900  0.38863800  0.88178200  1
  O  O23  1  0.13641000  0.87288800  0.11133700  1
  O  O24  1  0.12711200  0.86359000  0.88866300  1
  O  O25  1  0.61136200  0.43532100  0.11821800  1
  O  O26  1  0.43286600  0.67682400  0.29033100  1
  O  O27  1  0.99040400  0.13148400  0.32721000  1
  O  O28  1  0.72676800  0.53216400  0.44968900  1
  O  O29  1  0.46828500  0.80876500  0.61586400  1
  O  O30  1  0.27295300  0.93185400  0.44133200  1
  O  O31  1  0.41517000  0.10408800  0.08869700  1
  O  O32  1  0.27675900  0.41691700  0.17152900  1
  O  O33  1  0.74024100  0.03085300  0.11265000  1
