# generated using pymatgen
data_V2OF5
_symmetry_space_group_name_H-M   'P 1'
_cell_length_a   5.19835421
_cell_length_b   11.48830099
_cell_length_c   5.41789326
_cell_angle_alpha   79.51256667
_cell_angle_beta   89.99581953
_cell_angle_gamma   103.10665990
_symmetry_Int_Tables_number   1
_chemical_formula_structural   V2OF5
_chemical_formula_sum   'V6 O3 F15'
_cell_volume   309.57594064
_cell_formula_units_Z   3
loop_
 _symmetry_equiv_pos_site_id
 _symmetry_equiv_pos_as_xyz
  1  'x, y, z'
loop_
 _atom_site_type_symbol
 _atom_site_label
 _atom_site_symmetry_multiplicity
 _atom_site_fract_x
 _atom_site_fract_y
 _atom_site_fract_z
 _atom_site_occupancy
  V  V0  1  0.83022900  0.66319000  0.16885700  1
  V  V1  1  0.66908100  0.31434600  0.34290300  1
  V  V2  1  0.48829900  0.99065500  0.50479700  1
  V  V3  1  0.33119100  0.67506900  0.66231400  1
  V  V4  1  0.00028600  0.00348600  0.99775400  1
  V  V5  1  0.18800100  0.35225200  0.82375200  1
  O  O6  1  0.66637900  0.16762700  0.41588800  1
  O  O7  1  0.33182500  0.49921700  0.75077600  1
  O  O8  1  0.33840300  0.83338200  0.58336200  1
  F  F9  1  0.98829200  0.17247600  0.91359900  1
  F  F10  1  0.98273700  0.36708400  0.11822800  1
  F  F11  1  0.88080800  0.36658200  0.61700300  1
  F  F12  1  0.64939700  0.49433600  0.25309300  1
  F  F13  1  0.78850100  0.96841000  0.71613700  1
  F  F14  1  0.44917000  0.29961200  0.04842500  1
  F  F15  1  0.65354200  0.69839300  0.45012800  1
  F  F16  1  0.31725000  0.03563100  0.78351700  1
  F  F17  1  0.68477600  0.96705300  0.21414900  1
  F  F18  1  0.21338900  0.03453300  0.28318200  1
  F  F19  1  0.55114300  0.69981200  0.95243200  1
  F  F20  1  0.34762900  0.30011600  0.54953200  1
  F  F21  1  0.11503400  0.63113100  0.38310100  1
  F  F22  1  0.01210200  0.63228000  0.88356900  1
  F  F23  1  0.02253800  0.83332700  0.08350100  1
