# generated using pymatgen
data_Fe3(OF2)2
_symmetry_space_group_name_H-M   'P 1'
_cell_length_a   4.78518600
_cell_length_b   5.72292121
_cell_length_c   7.87266419
_cell_angle_alpha   85.25833664
_cell_angle_beta   89.47358836
_cell_angle_gamma   88.99223726
_symmetry_Int_Tables_number   1
_chemical_formula_structural   Fe3(OF2)2
_chemical_formula_sum   'Fe6 O4 F8'
_cell_volume   214.81724886
_cell_formula_units_Z   2
loop_
 _symmetry_equiv_pos_site_id
 _symmetry_equiv_pos_as_xyz
  1  'x, y, z'
loop_
 _atom_site_type_symbol
 _atom_site_label
 _atom_site_symmetry_multiplicity
 _atom_site_fract_x
 _atom_site_fract_y
 _atom_site_fract_z
 _atom_site_occupancy
  Fe  Fe0  1  0.50520900  0.82774500  0.66146000  1
  Fe  Fe1  1  0.52773200  0.50744100  0.00072200  1
  Fe  Fe2  1  0.46232500  0.18827700  0.35207300  1
  Fe  Fe3  1  0.00053100  0.33808800  0.67382300  1
  Fe  Fe4  1  0.00808300  0.64945100  0.30619300  1
  Fe  Fe5  1  0.98980800  0.99135800  0.00373700  1
  O  O6  1  0.79778900  0.69409900  0.10592400  1
  O  O7  1  0.67877600  0.54418000  0.76616300  1
  O  O8  1  0.31192700  0.12225600  0.57110500  1
  O  O9  1  0.30710200  0.46042200  0.22745100  1
  F  F10  1  0.79846500  0.37699200  0.42435000  1
  F  F11  1  0.79353000  0.02368200  0.76550900  1
  F  F12  1  0.69308200  0.19808700  0.11213300  1
  F  F13  1  0.70715300  0.87494800  0.42979500  1
  F  F14  1  0.30295700  0.79946000  0.89553000  1
  F  F15  1  0.20935600  0.95912200  0.24288800  1
  F  F16  1  0.19515500  0.64764600  0.54842100  1
  F  F17  1  0.21101900  0.29674300  0.91272500  1
