# generated using pymatgen
data_KCoO2
_symmetry_space_group_name_H-M   'P 1'
_cell_length_a   6.51671266
_cell_length_b   6.92872000
_cell_length_c   6.51205221
_cell_angle_alpha   66.88609718
_cell_angle_beta   75.26874199
_cell_angle_gamma   76.41286571
_symmetry_Int_Tables_number   1
_chemical_formula_structural   KCoO2
_chemical_formula_sum   'K4 Co4 O8'
_cell_volume   258.50825632
_cell_formula_units_Z   4
loop_
 _symmetry_equiv_pos_site_id
 _symmetry_equiv_pos_as_xyz
  1  'x, y, z'
loop_
 _atom_site_type_symbol
 _atom_site_label
 _atom_site_symmetry_multiplicity
 _atom_site_fract_x
 _atom_site_fract_y
 _atom_site_fract_z
 _atom_site_occupancy
  K  K0  1  0.40571600  0.73038000  0.65173300  1
  K  K1  1  0.90572800  0.73048800  0.65148000  1
  K  K2  1  0.09428200  0.26962100  0.34827300  1
  K  K3  1  0.59427600  0.26952000  0.34851300  1
  Co  Co4  1  0.97645700  0.20472700  0.89198200  1
  Co  Co5  1  0.52354200  0.79527300  0.10802000  1
  Co  Co6  1  0.47642600  0.20480200  0.89209200  1
  Co  Co7  1  0.02357400  0.79519600  0.10790700  1
  O  O8  1  0.44035700  0.03179400  0.20529500  1
  O  O9  1  0.94033600  0.03178300  0.20523700  1
  O  O10  1  0.05964000  0.96820700  0.79470700  1
  O  O11  1  0.55966500  0.96821400  0.79476700  1
  O  O12  1  0.28987700  0.65396600  0.18284000  1
  O  O13  1  0.78983600  0.65393200  0.18283000  1
  O  O14  1  0.21012200  0.34603200  0.81716200  1
  O  O15  1  0.71016700  0.34606500  0.81716100  1
