# generated using pymatgen
data_Rb6Co2O7
_symmetry_space_group_name_H-M   'P 1'
_cell_length_a   9.68276348
_cell_length_b   9.68276348
_cell_length_c   10.01862700
_cell_angle_alpha   90.00000000
_cell_angle_beta   90.00000000
_cell_angle_gamma   119.99999643
_symmetry_Int_Tables_number   1
_chemical_formula_structural   Rb6Co2O7
_chemical_formula_sum   'Rb12 Co4 O14'
_cell_volume   813.46243424
_cell_formula_units_Z   2
loop_
 _symmetry_equiv_pos_site_id
 _symmetry_equiv_pos_as_xyz
  1  'x, y, z'
loop_
 _atom_site_type_symbol
 _atom_site_label
 _atom_site_symmetry_multiplicity
 _atom_site_fract_x
 _atom_site_fract_y
 _atom_site_fract_z
 _atom_site_occupancy
  Rb  Rb0  1  0.33854300  0.96822000  0.87580700  1
  Rb  Rb1  1  0.35205400  0.96222300  0.37311100  1
  Rb  Rb2  1  0.03178000  0.37032400  0.87580700  1
  Rb  Rb3  1  0.03777700  0.38983100  0.37311100  1
  Rb  Rb4  1  0.37032400  0.33854300  0.12419300  1
  Rb  Rb5  1  0.38983100  0.35205400  0.62688900  1
  Rb  Rb6  1  0.61016900  0.64794600  0.37311100  1
  Rb  Rb7  1  0.62967600  0.66145700  0.87580700  1
  Rb  Rb8  1  0.96222300  0.61016900  0.62688900  1
  Rb  Rb9  1  0.96822000  0.62967600  0.12419300  1
  Rb  Rb10  1  0.64794600  0.03777700  0.62688900  1
  Rb  Rb11  1  0.66145700  0.03178000  0.12419300  1
  Co  Co12  1  0.33333300  0.66666700  0.68427300  1
  Co  Co13  1  0.33333300  0.66666700  0.06461800  1
  Co  Co14  1  0.66666700  0.33333300  0.31572700  1
  Co  Co15  1  0.66666700  0.33333300  0.93538200  1
  O  O16  1  0.16971500  0.48012600  0.12145800  1
  O  O17  1  0.17486500  0.47569300  0.62728300  1
  O  O18  1  0.30082800  0.82513500  0.62728300  1
  O  O19  1  0.31041100  0.83028500  0.12145800  1
  O  O20  1  0.33333300  0.66666700  0.87340100  1
  O  O21  1  0.51987400  0.68958900  0.12145800  1
  O  O22  1  0.52430700  0.69917200  0.62728300  1
  O  O23  1  0.47569300  0.30082800  0.37271700  1
  O  O24  1  0.48012600  0.31041100  0.87854200  1
  O  O25  1  0.66666700  0.33333300  0.12659900  1
  O  O26  1  0.68958900  0.16971500  0.87854200  1
  O  O27  1  0.69917200  0.17486500  0.37271700  1
  O  O28  1  0.82513500  0.52430700  0.37271700  1
  O  O29  1  0.83028500  0.51987400  0.87854200  1
