# generated using pymatgen
data_BaTm2O4
_symmetry_space_group_name_H-M   'P 1'
_cell_length_a   5.86264161
_cell_length_b   5.86264161
_cell_length_c   11.39981000
_cell_angle_alpha   90.00000000
_cell_angle_beta   90.00000000
_cell_angle_gamma   146.20994386
_symmetry_Int_Tables_number   1
_chemical_formula_structural   BaTm2O4
_chemical_formula_sum   'Ba2 Tm4 O8'
_cell_volume   217.91008479
_cell_formula_units_Z   2
loop_
 _symmetry_equiv_pos_site_id
 _symmetry_equiv_pos_as_xyz
  1  'x, y, z'
loop_
 _atom_site_type_symbol
 _atom_site_label
 _atom_site_symmetry_multiplicity
 _atom_site_fract_x
 _atom_site_fract_y
 _atom_site_fract_z
 _atom_site_occupancy
  Ba  Ba0  1  0.88936200  0.11063800  0.25000000  1
  Ba  Ba1  1  0.11063800  0.88936200  0.75000000  1
  Tm  Tm2  1  0.63537300  0.36462700  0.42972700  1
  Tm  Tm3  1  0.63537300  0.36462700  0.07027300  1
  Tm  Tm4  1  0.36462700  0.63537300  0.57027300  1
  Tm  Tm5  1  0.36462700  0.63537300  0.92972700  1
  O  O6  1  0.00000000  0.00000000  0.00000000  1
  O  O7  1  0.00000000  0.00000000  0.50000000  1
  O  O8  1  0.56672300  0.43327700  0.25000000  1
  O  O9  1  0.74001500  0.25998500  0.60064200  1
  O  O10  1  0.74001500  0.25998500  0.89935800  1
  O  O11  1  0.43327700  0.56672300  0.75000000  1
  O  O12  1  0.25998500  0.74001500  0.39935800  1
  O  O13  1  0.25998500  0.74001500  0.10064200  1
