# generated using pymatgen
data_VAsO4
_symmetry_space_group_name_H-M   'P 1'
_cell_length_a   6.15560226
_cell_length_b   6.51809185
_cell_length_c   7.89417984
_cell_angle_alpha   113.57572692
_cell_angle_beta   89.97491855
_cell_angle_gamma   89.99031449
_symmetry_Int_Tables_number   1
_chemical_formula_structural   VAsO4
_chemical_formula_sum   'V4 As4 O16'
_cell_volume   290.29912211
_cell_formula_units_Z   4
loop_
 _symmetry_equiv_pos_site_id
 _symmetry_equiv_pos_as_xyz
  1  'x, y, z'
loop_
 _atom_site_type_symbol
 _atom_site_label
 _atom_site_symmetry_multiplicity
 _atom_site_fract_x
 _atom_site_fract_y
 _atom_site_fract_z
 _atom_site_occupancy
  V  V0  1  0.61941400  0.08240500  0.20965700  1
  V  V1  1  0.38052400  0.91757200  0.79035200  1
  V  V2  1  0.11903900  0.41710200  0.29014700  1
  V  V3  1  0.88101400  0.58283900  0.70976700  1
  As  As4  1  0.11064000  0.84972000  0.14593300  1
  As  As5  1  0.61069600  0.65029800  0.35416200  1
  As  As6  1  0.38932100  0.34971200  0.64584900  1
  As  As7  1  0.88934300  0.15028900  0.85407400  1
  O  O8  1  0.02196100  0.65401900  0.94127500  1
  O  O9  1  0.52199700  0.84613200  0.55884700  1
  O  O10  1  0.47800900  0.15385200  0.44114700  1
  O  O11  1  0.97804800  0.34596700  0.05872000  1
  O  O12  1  0.33133800  0.96460000  0.06952100  1
  O  O13  1  0.83158900  0.53576700  0.43034600  1
  O  O14  1  0.16845000  0.46426300  0.56966800  1
  O  O15  1  0.66863400  0.03541700  0.93049000  1
  O  O16  1  0.67860800  0.76402700  0.20234700  1
  O  O17  1  0.17870000  0.73598900  0.29762100  1
  O  O18  1  0.82130200  0.26404300  0.70239700  1
  O  O19  1  0.32138800  0.23595800  0.79764900  1
  O  O20  1  0.45873800  0.40397300  0.24972900  1
  O  O21  1  0.95866000  0.09629200  0.25067800  1
  O  O22  1  0.04131700  0.90372100  0.74933700  1
  O  O23  1  0.54127100  0.59604300  0.75028800  1
