# generated using pymatgen
data_LiMn(CO3)2
_symmetry_space_group_name_H-M   'P 1'
_cell_length_a   4.95565141
_cell_length_b   12.71580013
_cell_length_c   7.91543004
_cell_angle_alpha   90.00741533
_cell_angle_beta   89.99116825
_cell_angle_gamma   85.64064239
_symmetry_Int_Tables_number   1
_chemical_formula_structural   LiMn(CO3)2
_chemical_formula_sum   'Li4 Mn4 C8 O24'
_cell_volume   497.34834704
_cell_formula_units_Z   4
loop_
 _symmetry_equiv_pos_site_id
 _symmetry_equiv_pos_as_xyz
  1  'x, y, z'
loop_
 _atom_site_type_symbol
 _atom_site_label
 _atom_site_symmetry_multiplicity
 _atom_site_fract_x
 _atom_site_fract_y
 _atom_site_fract_z
 _atom_site_occupancy
  Li  Li0  1  0.03255600  0.30527600  0.05009800  1
  Li  Li1  1  0.53349600  0.80532400  0.04996400  1
  Li  Li2  1  0.21638700  0.44466500  0.54998300  1
  Li  Li3  1  0.71776700  0.94470800  0.55012100  1
  Mn  Mn4  1  0.50228500  0.50643700  0.99834800  1
  Mn  Mn5  1  0.24735700  0.74366700  0.49829100  1
  Mn  Mn6  1  0.00343000  0.00649800  0.99841200  1
  Mn  Mn7  1  0.74674000  0.24369100  0.49825500  1
  C  C8  1  0.81055700  0.05934400  0.26243200  1
  C  C9  1  0.31031300  0.55932100  0.26231200  1
  C  C10  1  0.93955900  0.19061300  0.76223000  1
  C  C11  1  0.43984900  0.69068400  0.76229100  1
  C  C12  1  0.52536000  0.31664400  0.24480100  1
  C  C13  1  0.02611800  0.81654400  0.24498500  1
  C  C14  1  0.72349400  0.43336100  0.74501700  1
  C  C15  1  0.22472700  0.93335600  0.74489200  1
  O  O16  1  0.07202000  0.04036100  0.23641200  1
  O  O17  1  0.57176700  0.54016300  0.23621300  1
  O  O18  1  0.67813100  0.20964700  0.73636100  1
  O  O19  1  0.17833400  0.70979200  0.73624700  1
  O  O20  1  0.66587300  0.05314200  0.12594700  1
  O  O21  1  0.16553600  0.55321300  0.12580200  1
  O  O22  1  0.08416900  0.19682900  0.62573800  1
  O  O23  1  0.58457500  0.69682000  0.62579800  1
  O  O24  1  0.71215400  0.07941800  0.40870400  1
  O  O25  1  0.21214600  0.57938400  0.40859700  1
  O  O26  1  0.03797500  0.17057700  0.90856000  1
  O  O27  1  0.53794100  0.67061600  0.90858300  1
  O  O28  1  0.78712600  0.28907000  0.25155600  1
  O  O29  1  0.28779400  0.78884600  0.25145800  1
  O  O30  1  0.46178700  0.46119500  0.75141300  1
  O  O31  1  0.96304200  0.96096700  0.75160000  1
  O  O32  1  0.40512900  0.31276200  0.39316100  1
  O  O33  1  0.90576100  0.81271700  0.39330100  1
  O  O34  1  0.84399000  0.43737600  0.89323100  1
  O  O35  1  0.34487500  0.93725900  0.89320600  1
  O  O36  1  0.40218900  0.34284400  0.10972900  1
  O  O37  1  0.90266400  0.84297500  0.11005100  1
  O  O38  1  0.84707100  0.40675900  0.61011800  1
  O  O39  1  0.34795900  0.90713400  0.60974100  1
