# generated using pymatgen
data_Na2NiO2
_symmetry_space_group_name_H-M   'P 1'
_cell_length_a   5.52341800
_cell_length_b   5.52341800
_cell_length_c   5.52341800
_cell_angle_alpha   149.88702553
_cell_angle_beta   131.34169245
_cell_angle_gamma   58.29229922
_symmetry_Int_Tables_number   1
_chemical_formula_structural   Na2NiO2
_chemical_formula_sum   'Na2 Ni1 O2'
_cell_volume   63.00168714
_cell_formula_units_Z   1
loop_
 _symmetry_equiv_pos_site_id
 _symmetry_equiv_pos_as_xyz
  1  'x, y, z'
loop_
 _atom_site_type_symbol
 _atom_site_label
 _atom_site_symmetry_multiplicity
 _atom_site_fract_x
 _atom_site_fract_y
 _atom_site_fract_z
 _atom_site_occupancy
  Na  Na0  1  0.32114200  0.32114200  0.00000000  1
  Na  Na1  1  0.67885800  0.67885800  0.00000000  1
  Ni  Ni2  1  0.00000000  0.00000000  0.00000000  1
  O  O3  1  0.13078400  0.63078400  0.50000000  1
  O  O4  1  0.86921600  0.36921600  0.50000000  1
