# generated using pymatgen
data_VIO4
_symmetry_space_group_name_H-M   'P 1'
_cell_length_a   7.03820153
_cell_length_b   7.03820153
_cell_length_c   9.27971373
_cell_angle_alpha   80.29762356
_cell_angle_beta   80.29762356
_cell_angle_gamma   84.98379135
_symmetry_Int_Tables_number   1
_chemical_formula_structural   VIO4
_chemical_formula_sum   'V4 I4 O16'
_cell_volume   445.80118707
_cell_formula_units_Z   4
loop_
 _symmetry_equiv_pos_site_id
 _symmetry_equiv_pos_as_xyz
  1  'x, y, z'
loop_
 _atom_site_type_symbol
 _atom_site_label
 _atom_site_symmetry_multiplicity
 _atom_site_fract_x
 _atom_site_fract_y
 _atom_site_fract_z
 _atom_site_occupancy
  V  V0  1  0.72730100  0.72730100  0.41804900  1
  V  V1  1  0.75487100  0.24512900  0.00000000  1
  V  V2  1  0.24512900  0.75487100  0.00000000  1
  V  V3  1  0.27269900  0.27269900  0.58195100  1
  I  I4  1  0.76054400  0.76054400  0.89315000  1
  I  I5  1  0.19601700  0.80398300  0.50000000  1
  I  I6  1  0.80398300  0.19601700  0.50000000  1
  I  I7  1  0.23945600  0.23945600  0.10685000  1
  O  O8  1  0.86226100  0.86226100  0.50880100  1
  O  O9  1  0.78444600  0.78444600  0.23857400  1
  O  O10  1  0.76563400  0.46339900  0.87675600  1
  O  O11  1  0.46339900  0.76563400  0.87675600  1
  O  O12  1  0.48108000  0.79449000  0.48299500  1
  O  O13  1  0.79449000  0.48108000  0.48299500  1
  O  O14  1  0.06262500  0.76153900  0.89287900  1
  O  O15  1  0.76153900  0.06262500  0.89287900  1
  O  O16  1  0.93737600  0.23846100  0.10712100  1
  O  O17  1  0.23846100  0.93737600  0.10712100  1
  O  O18  1  0.51892000  0.20551000  0.51700500  1
  O  O19  1  0.20551000  0.51892000  0.51700500  1
  O  O20  1  0.53660100  0.23436600  0.12324400  1
  O  O21  1  0.23436600  0.53660100  0.12324400  1
  O  O22  1  0.21555400  0.21555400  0.76142600  1
  O  O23  1  0.13773900  0.13773900  0.49119900  1
