# generated using pymatgen
data_CdCN2
_symmetry_space_group_name_H-M   'P 1'
_cell_length_a   4.20571363
_cell_length_b   4.20571363
_cell_length_c   4.20571402
_cell_angle_alpha   75.91750648
_cell_angle_beta   75.91750648
_cell_angle_gamma   75.91749407
_symmetry_Int_Tables_number   1
_chemical_formula_structural   CdCN2
_chemical_formula_sum   'Cd1 C1 N2'
_cell_volume   68.63326412
_cell_formula_units_Z   1
loop_
 _symmetry_equiv_pos_site_id
 _symmetry_equiv_pos_as_xyz
  1  'x, y, z'
loop_
 _atom_site_type_symbol
 _atom_site_label
 _atom_site_symmetry_multiplicity
 _atom_site_fract_x
 _atom_site_fract_y
 _atom_site_fract_z
 _atom_site_occupancy
  Cd  Cd0  1  0.96699000  0.96699000  0.96699000  1
  C  C1  1  0.72369800  0.72369800  0.72369800  1
  N  N2  1  0.20703500  0.20703500  0.20703500  1
  N  N3  1  0.59127700  0.59127700  0.59127700  1
