# generated using pymatgen
data_Mn2OF3
_symmetry_space_group_name_H-M   'P 1'
_cell_length_a   4.80875700
_cell_length_b   10.63198400
_cell_length_c   6.03189900
_cell_angle_alpha   90.00011088
_cell_angle_beta   89.99983111
_cell_angle_gamma   89.99980229
_symmetry_Int_Tables_number   1
_chemical_formula_structural   Mn2OF3
_chemical_formula_sum   'Mn8 O4 F12'
_cell_volume   308.39065319
_cell_formula_units_Z   4
loop_
 _symmetry_equiv_pos_site_id
 _symmetry_equiv_pos_as_xyz
  1  'x, y, z'
loop_
 _atom_site_type_symbol
 _atom_site_label
 _atom_site_symmetry_multiplicity
 _atom_site_fract_x
 _atom_site_fract_y
 _atom_site_fract_z
 _atom_site_occupancy
  Mn  Mn0  1  0.49992700  0.49999100  0.50006100  1
  Mn  Mn1  1  0.50004900  0.49995200  0.99988200  1
  Mn  Mn2  1  0.04445400  0.28221700  0.25001800  1
  Mn  Mn3  1  0.95549700  0.71784300  0.75001300  1
  Mn  Mn4  1  0.00008700  0.00000800  0.99994100  1
  Mn  Mn5  1  0.00004000  0.00001100  0.50003500  1
  Mn  Mn6  1  0.45554600  0.78219200  0.25000600  1
  Mn  Mn7  1  0.54463800  0.21773300  0.74999600  1
  O  O8  1  0.19430100  0.93294600  0.25000300  1
  O  O9  1  0.30591100  0.43285400  0.24999100  1
  O  O10  1  0.69413300  0.56717300  0.74998800  1
  O  O11  1  0.80565100  0.06705700  0.75000300  1
  F  F12  1  0.20291800  0.89807300  0.75000400  1
  F  F13  1  0.29730300  0.39796700  0.75000100  1
  F  F14  1  0.70260700  0.60201600  0.25000200  1
  F  F15  1  0.79707800  0.10193100  0.25000600  1
  F  F16  1  0.25269100  0.66140600  0.99881300  1
  F  F17  1  0.25268100  0.66141000  0.50119700  1
  F  F18  1  0.24749900  0.16131900  0.99895400  1
  F  F19  1  0.24749800  0.16131800  0.50106000  1
  F  F20  1  0.75247000  0.83869600  0.49898500  1
  F  F21  1  0.75247400  0.83869700  0.00102900  1
  F  F22  1  0.74726800  0.33859800  0.49885400  1
  F  F23  1  0.74728000  0.33859200  0.00115900  1
