# generated using pymatgen
data_MnV4O12
_symmetry_space_group_name_H-M   'P 1'
_cell_length_a   7.72222456
_cell_length_b   7.72264458
_cell_length_c   9.95433416
_cell_angle_alpha   112.06513210
_cell_angle_beta   112.07141670
_cell_angle_gamma   69.34507173
_symmetry_Int_Tables_number   1
_chemical_formula_structural   MnV4O12
_chemical_formula_sum   'Mn2 V8 O24'
_cell_volume   494.12608685
_cell_formula_units_Z   2
loop_
 _symmetry_equiv_pos_site_id
 _symmetry_equiv_pos_as_xyz
  1  'x, y, z'
loop_
 _atom_site_type_symbol
 _atom_site_label
 _atom_site_symmetry_multiplicity
 _atom_site_fract_x
 _atom_site_fract_y
 _atom_site_fract_z
 _atom_site_occupancy
  Mn  Mn0  1  0.70573700  0.54438900  0.62498300  1
  Mn  Mn1  1  0.20543300  0.04434900  0.12477100  1
  V  V2  1  0.95969600  0.78079000  0.58452900  1
  V  V3  1  0.45961200  0.28089300  0.08457500  1
  V  V4  1  0.96917800  0.79034500  0.16551100  1
  V  V5  1  0.46918000  0.29045900  0.66552800  1
  V  V6  1  0.54493800  0.72020600  0.33175900  1
  V  V7  1  0.04502600  0.22018300  0.83172300  1
  V  V8  1  0.52980200  0.70501100  0.91819100  1
  V  V9  1  0.02988900  0.20503500  0.41824500  1
  O  O10  1  0.86866100  0.71054300  0.68587200  1
  O  O11  1  0.36851500  0.21056900  0.18583500  1
  O  O12  1  0.03935600  0.88137400  0.06410900  1
  O  O13  1  0.53945000  0.38140900  0.56417600  1
  O  O14  1  0.15034400  0.61420500  0.55297100  1
  O  O15  1  0.65032800  0.11432600  0.05304000  1
  O  O16  1  0.13572300  0.59966600  0.19704800  1
  O  O17  1  0.63575300  0.09974600  0.69716200  1
  O  O18  1  0.51791000  0.68455700  0.48162000  1
  O  O19  1  0.01785200  0.18462100  0.98159000  1
  O  O20  1  0.56541700  0.73201800  0.76833600  1
  O  O21  1  0.06540000  0.23207000  0.26834500  1
  O  O22  1  0.77653600  0.76880500  0.40101400  1
  O  O23  1  0.27654300  0.26881500  0.90097000  1
  O  O24  1  0.98129100  0.97346000  0.34906400  1
  O  O25  1  0.48117100  0.47352200  0.84908800  1
  O  O26  1  0.53581700  0.50967800  0.17912700  1
  O  O27  1  0.03590700  0.00959500  0.67912700  1
  O  O28  1  0.74034800  0.71416200  0.07089500  1
  O  O29  1  0.24035600  0.21422200  0.57095800  1
  O  O30  1  0.37338200  0.91707600  0.27813900  1
  O  O31  1  0.87347700  0.41702900  0.77813500  1
  O  O32  1  0.33286700  0.87655700  0.97177600  1
  O  O33  1  0.83291800  0.37649900  0.47179100  1
