# generated using pymatgen
data_CrOF
_symmetry_space_group_name_H-M   'P 1'
_cell_length_a   3.04802100
_cell_length_b   13.57382600
_cell_length_c   3.94994200
_cell_angle_alpha   90.00000422
_cell_angle_beta   90.00000000
_cell_angle_gamma   90.00000000
_symmetry_Int_Tables_number   1
_chemical_formula_structural   CrOF
_chemical_formula_sum   'Cr4 O4 F4'
_cell_volume   163.42216181
_cell_formula_units_Z   4
loop_
 _symmetry_equiv_pos_site_id
 _symmetry_equiv_pos_as_xyz
  1  'x, y, z'
loop_
 _atom_site_type_symbol
 _atom_site_label
 _atom_site_symmetry_multiplicity
 _atom_site_fract_x
 _atom_site_fract_y
 _atom_site_fract_z
 _atom_site_occupancy
  Cr  Cr0  1  0.25000100  0.56482900  0.25000200  1
  Cr  Cr1  1  0.74999700  0.43517700  0.74999900  1
  Cr  Cr2  1  0.25000300  0.06482400  0.24999500  1
  Cr  Cr3  1  0.74999800  0.93517500  0.75000100  1
  O  O4  1  0.75000100  0.46620700  0.25000000  1
  O  O5  1  0.75000000  0.96620700  0.25000100  1
  O  O6  1  0.25000000  0.03379300  0.75000000  1
  O  O7  1  0.25000000  0.53379100  0.75000100  1
  F  F8  1  0.75000100  0.15756600  0.25000100  1
  F  F9  1  0.75000000  0.65757500  0.25000000  1
  F  F10  1  0.25000000  0.34242300  0.75000000  1
  F  F11  1  0.25000000  0.84243300  0.75000000  1
