# generated using pymatgen
data_K4N2O5
_symmetry_space_group_name_H-M   'P 1'
_cell_length_a   8.83709335
_cell_length_b   8.83709335
_cell_length_c   7.39843200
_cell_angle_alpha   90.00000000
_cell_angle_beta   90.00000000
_cell_angle_gamma   130.45693427
_symmetry_Int_Tables_number   1
_chemical_formula_structural   K4N2O5
_chemical_formula_sum   'K8 N4 O10'
_cell_volume   439.62529674
_cell_formula_units_Z   2
loop_
 _symmetry_equiv_pos_site_id
 _symmetry_equiv_pos_as_xyz
  1  'x, y, z'
loop_
 _atom_site_type_symbol
 _atom_site_label
 _atom_site_symmetry_multiplicity
 _atom_site_fract_x
 _atom_site_fract_y
 _atom_site_fract_z
 _atom_site_occupancy
  K  K0  1  0.33761700  0.66238300  0.00000000  1
  K  K1  1  0.75000000  0.75000000  0.25000000  1
  K  K2  1  0.25000000  0.25000000  0.25000000  1
  K  K3  1  0.16238300  0.83761700  0.50000000  1
  K  K4  1  0.66238300  0.33761700  0.00000000  1
  K  K5  1  0.75000000  0.75000000  0.75000000  1
  K  K6  1  0.25000000  0.25000000  0.75000000  1
  K  K7  1  0.83761700  0.16238300  0.50000000  1
  N  N8  1  0.12049000  0.87951000  0.00000000  1
  N  N9  1  0.87951000  0.12049000  0.00000000  1
  N  N10  1  0.37951000  0.62049000  0.50000000  1
  N  N11  1  0.62049000  0.37951000  0.50000000  1
  O  O12  1  0.26820200  0.94249000  0.10102600  1
  O  O13  1  0.50000000  0.50000000  0.00000000  1
  O  O14  1  0.44249000  0.76820200  0.60102600  1
  O  O15  1  0.23179800  0.55751000  0.39897400  1
  O  O16  1  0.73179800  0.05751000  0.10102600  1
  O  O17  1  0.76820200  0.44249000  0.39897400  1
  O  O18  1  0.00000000  0.00000000  0.50000000  1
  O  O19  1  0.05751000  0.73179800  0.89897400  1
  O  O20  1  0.55751000  0.23179800  0.60102600  1
  O  O21  1  0.94249000  0.26820200  0.89897400  1
