# generated using pymatgen
data_VF5
_symmetry_space_group_name_H-M   'P 1'
_cell_length_a   9.96408100
_cell_length_b   5.58127200
_cell_length_c   7.34184184
_cell_angle_alpha   89.97263135
_cell_angle_beta   90.00000000
_cell_angle_gamma   90.00000000
_symmetry_Int_Tables_number   1
_chemical_formula_structural   VF5
_chemical_formula_sum   'V4 F20'
_cell_volume   408.29626992
_cell_formula_units_Z   4
loop_
 _symmetry_equiv_pos_site_id
 _symmetry_equiv_pos_as_xyz
  1  'x, y, z'
loop_
 _atom_site_type_symbol
 _atom_site_label
 _atom_site_symmetry_multiplicity
 _atom_site_fract_x
 _atom_site_fract_y
 _atom_site_fract_z
 _atom_site_occupancy
  V  V0  1  0.39006400  0.98367600  0.57706600  1
  V  V1  1  0.78032600  0.51577100  0.11376500  1
  V  V2  1  0.28032600  0.48422900  0.88623500  1
  V  V3  1  0.89006400  0.01632400  0.42293400  1
  F  F4  1  0.26335200  0.98756100  0.40921600  1
  F  F5  1  0.46957600  0.97382600  0.79251600  1
  F  F6  1  0.76853600  0.77828800  0.29932300  1
  F  F7  1  0.48943000  0.76521900  0.47498500  1
  F  F8  1  0.98098400  0.77483100  0.50871800  1
  F  F9  1  0.78847300  0.72965900  0.94116600  1
  F  F10  1  0.28941100  0.72574500  0.03619600  1
  F  F11  1  0.27302800  0.72694300  0.68281200  1
  F  F12  1  0.95228700  0.52494000  0.17269300  1
  F  F13  1  0.60493900  0.51711100  0.14382900  1
  F  F14  1  0.10493900  0.48288900  0.85617100  1
  F  F15  1  0.45228700  0.47506000  0.82730700  1
  F  F16  1  0.77302800  0.27305700  0.31718800  1
  F  F17  1  0.78941100  0.27425500  0.96380400  1
  F  F18  1  0.28847300  0.27034100  0.05883400  1
  F  F19  1  0.48098400  0.22516900  0.49128200  1
  F  F20  1  0.98943000  0.23478100  0.52501500  1
  F  F21  1  0.26853600  0.22171200  0.70067700  1
  F  F22  1  0.96957600  0.02617400  0.20748400  1
  F  F23  1  0.76335200  0.01243900  0.59078400  1
