# generated using pymatgen
data_Li4Cr3Fe2Co3O16
_symmetry_space_group_name_H-M   'P 1'
_cell_length_a   5.70699902
_cell_length_b   5.73045878
_cell_length_c   9.41636174
_cell_angle_alpha   89.98963684
_cell_angle_beta   89.72550909
_cell_angle_gamma   120.13411936
_symmetry_Int_Tables_number   1
_chemical_formula_structural   Li4Cr3Fe2Co3O16
_chemical_formula_sum   'Li4 Cr3 Fe2 Co3 O16'
_cell_volume   266.32718926
_cell_formula_units_Z   1
loop_
 _symmetry_equiv_pos_site_id
 _symmetry_equiv_pos_as_xyz
  1  'x, y, z'
loop_
 _atom_site_type_symbol
 _atom_site_label
 _atom_site_symmetry_multiplicity
 _atom_site_fract_x
 _atom_site_fract_y
 _atom_site_fract_z
 _atom_site_occupancy
  Li  Li0  1  0.33871200  0.66909300  0.89068800  1
  Li  Li1  1  0.98808200  0.99421900  0.99539600  1
  Li  Li2  1  0.99038500  0.99502400  0.49769700  1
  Li  Li3  1  0.66723200  0.33381200  0.39572100  1
  Cr  Cr4  1  0.17328700  0.82699200  0.21452800  1
  Cr  Cr5  1  0.17248400  0.34561200  0.21456100  1
  Cr  Cr6  1  0.34755400  0.17307100  0.71500800  1
  Fe  Fe7  1  0.33829800  0.66895200  0.49886400  1
  Fe  Fe8  1  0.67565400  0.33824600  0.99191300  1
  Co  Co9  1  0.65780500  0.82919600  0.21316300  1
  Co  Co10  1  0.82935800  0.66008700  0.71296600  1
  Co  Co11  1  0.82846100  0.16924100  0.71302200  1
  O  O12  1  0.16495300  0.83858200  0.60229700  1
  O  O13  1  0.03253200  0.51614800  0.33445300  1
  O  O14  1  0.33728700  0.66856200  0.10091100  1
  O  O15  1  0.99731700  0.99838800  0.30735300  1
  O  O16  1  0.99672200  0.99857300  0.80648200  1
  O  O17  1  0.16478400  0.32605000  0.60268900  1
  O  O18  1  0.48002800  0.95993100  0.33769900  1
  O  O19  1  0.48010100  0.52052100  0.33756900  1
  O  O20  1  0.32467800  0.16229700  0.10216000  1
  O  O21  1  0.66889800  0.83455200  0.60571500  1
  O  O22  1  0.52172500  0.48209500  0.83639500  1
  O  O23  1  0.52105000  0.03907200  0.83666000  1
  O  O24  1  0.67346700  0.33727500  0.60515600  1
  O  O25  1  0.83525400  0.67031200  0.10326700  1
  O  O26  1  0.95895300  0.47960700  0.83251900  1
  O  O27  1  0.83493700  0.16479200  0.10299400  1
