# generated using pymatgen
data_V3(O2F)2
_symmetry_space_group_name_H-M   'P 1'
_cell_length_a   4.64558800
_cell_length_b   5.58625977
_cell_length_c   7.75028041
_cell_angle_alpha   86.36327885
_cell_angle_beta   88.71008033
_cell_angle_gamma   88.75122713
_symmetry_Int_Tables_number   1
_chemical_formula_structural   V3(O2F)2
_chemical_formula_sum   'V6 O8 F4'
_cell_volume   200.63340465
_cell_formula_units_Z   2
loop_
 _symmetry_equiv_pos_site_id
 _symmetry_equiv_pos_as_xyz
  1  'x, y, z'
loop_
 _atom_site_type_symbol
 _atom_site_label
 _atom_site_symmetry_multiplicity
 _atom_site_fract_x
 _atom_site_fract_y
 _atom_site_fract_z
 _atom_site_occupancy
  V  V0  1  0.50946100  0.83235100  0.65653000  1
  V  V1  1  0.47528800  0.50928700  0.98836100  1
  V  V2  1  0.50569200  0.18155800  0.35269200  1
  V  V3  1  0.00535000  0.33783200  0.67074300  1
  V  V4  1  0.96808400  0.64540800  0.31845400  1
  V  V5  1  0.01753900  0.98865800  0.99965600  1
  O  O6  1  0.80726400  0.37159800  0.43637100  1
  O  O7  1  0.79638700  0.69759100  0.09823200  1
  O  O8  1  0.69005900  0.53716300  0.77027600  1
  O  O9  1  0.71366400  0.86231000  0.42870200  1
  O  O10  1  0.30529300  0.13222300  0.57603100  1
  O  O11  1  0.29184500  0.47375000  0.23323500  1
  O  O12  1  0.30580400  0.79580300  0.89299600  1
  O  O13  1  0.20320800  0.29836300  0.91151800  1
  F  F14  1  0.80510700  0.03572600  0.77166000  1
  F  F15  1  0.69737800  0.20026300  0.10305700  1
  F  F16  1  0.20760500  0.96338400  0.23551200  1
  F  F17  1  0.19497100  0.63673400  0.55597300  1
