# generated using pymatgen
data_VOF3
_symmetry_space_group_name_H-M   'P 1'
_cell_length_a   5.33459600
_cell_length_b   7.31155100
_cell_length_c   8.57537400
_cell_angle_alpha   90.00000000
_cell_angle_beta   90.00000000
_cell_angle_gamma   90.00000000
_symmetry_Int_Tables_number   1
_chemical_formula_structural   VOF3
_chemical_formula_sum   'V4 O4 F12'
_cell_volume   334.47535147
_cell_formula_units_Z   4
loop_
 _symmetry_equiv_pos_site_id
 _symmetry_equiv_pos_as_xyz
  1  'x, y, z'
loop_
 _atom_site_type_symbol
 _atom_site_label
 _atom_site_symmetry_multiplicity
 _atom_site_fract_x
 _atom_site_fract_y
 _atom_site_fract_z
 _atom_site_occupancy
  V  V0  1  0.97268900  0.00338500  0.04284200  1
  V  V1  1  0.97268900  0.49661500  0.54284200  1
  V  V2  1  0.02731100  0.50338500  0.04284200  1
  V  V3  1  0.02731100  0.99661500  0.54284200  1
  O  O4  1  0.13171000  0.02318800  0.71621600  1
  O  O5  1  0.13171000  0.47681200  0.21621600  1
  O  O6  1  0.86829000  0.52318800  0.71621600  1
  O  O7  1  0.86829000  0.97681200  0.21621600  1
  F  F8  1  0.27424600  0.04458700  0.41181900  1
  F  F9  1  0.28060900  0.09213300  0.05543000  1
  F  F10  1  0.88038300  0.23462600  0.50835600  1
  F  F11  1  0.88038300  0.26537400  0.00835600  1
  F  F12  1  0.28060900  0.40786700  0.55543000  1
  F  F13  1  0.27424600  0.45541300  0.91181900  1
  F  F14  1  0.72575400  0.54458700  0.41181900  1
  F  F15  1  0.71939100  0.59213300  0.05543000  1
  F  F16  1  0.11961700  0.73462600  0.50835600  1
  F  F17  1  0.11961700  0.76537400  0.00835600  1
  F  F18  1  0.71939100  0.90786700  0.55543000  1
  F  F19  1  0.72575400  0.95541300  0.91181900  1
