# generated using pymatgen
data_HoBO3
_symmetry_space_group_name_H-M   'P 1'
_cell_length_a   3.92809569
_cell_length_b   3.92809569
_cell_length_c   8.61853900
_cell_angle_alpha   90.00000000
_cell_angle_beta   90.00000000
_cell_angle_gamma   116.97263901
_symmetry_Int_Tables_number   1
_chemical_formula_structural   HoBO3
_chemical_formula_sum   'Ho2 B2 O6'
_cell_volume   118.51798572
_cell_formula_units_Z   2
loop_
 _symmetry_equiv_pos_site_id
 _symmetry_equiv_pos_as_xyz
  1  'x, y, z'
loop_
 _atom_site_type_symbol
 _atom_site_label
 _atom_site_symmetry_multiplicity
 _atom_site_fract_x
 _atom_site_fract_y
 _atom_site_fract_z
 _atom_site_occupancy
  Ho  Ho0  1  0.05374900  0.05374900  0.00000000  1
  Ho  Ho1  1  0.05374900  0.05374900  0.50000000  1
  B  B2  1  0.50132100  0.75885800  0.25000000  1
  B  B3  1  0.75885800  0.50132100  0.75000000  1
  O  O4  1  0.33320900  0.67402400  0.10304900  1
  O  O5  1  0.33320900  0.67402400  0.39695100  1
  O  O6  1  0.89309700  0.96274000  0.25000000  1
  O  O7  1  0.67402400  0.33320900  0.60304900  1
  O  O8  1  0.67402400  0.33320900  0.89695100  1
  O  O9  1  0.96274000  0.89309700  0.75000000  1
