# generated using pymatgen
data_CaAsO5
_symmetry_space_group_name_H-M   'P 1'
_cell_length_a   6.65654000
_cell_length_b   8.62790300
_cell_length_c   13.90677800
_cell_angle_alpha   90.00000000
_cell_angle_beta   90.00000000
_cell_angle_gamma   90.00000000
_symmetry_Int_Tables_number   1
_chemical_formula_structural   CaAsO5
_chemical_formula_sum   'Ca8 As8 O40'
_cell_volume   798.69381593
_cell_formula_units_Z   8
loop_
 _symmetry_equiv_pos_site_id
 _symmetry_equiv_pos_as_xyz
  1  'x, y, z'
loop_
 _atom_site_type_symbol
 _atom_site_label
 _atom_site_symmetry_multiplicity
 _atom_site_fract_x
 _atom_site_fract_y
 _atom_site_fract_z
 _atom_site_occupancy
  Ca  Ca0  1  0.86230400  0.18819500  0.44472500  1
  Ca  Ca1  1  0.63769600  0.31180500  0.94472500  1
  Ca  Ca2  1  0.36230400  0.31180500  0.55527500  1
  Ca  Ca3  1  0.13769600  0.18819500  0.05527500  1
  Ca  Ca4  1  0.13769600  0.81180500  0.55527500  1
  Ca  Ca5  1  0.36230400  0.68819500  0.05527500  1
  Ca  Ca6  1  0.63769600  0.68819500  0.44472500  1
  Ca  Ca7  1  0.86230400  0.81180500  0.94472500  1
  As  As8  1  0.36009300  0.05380500  0.38256700  1
  As  As9  1  0.13990700  0.44619500  0.88256700  1
  As  As10  1  0.86009300  0.44619500  0.61743300  1
  As  As11  1  0.63990700  0.05380500  0.11743300  1
  As  As12  1  0.63990700  0.94619500  0.61743300  1
  As  As13  1  0.86009300  0.55380500  0.11743300  1
  As  As14  1  0.13990700  0.55380500  0.38256700  1
  As  As15  1  0.36009300  0.94619500  0.88256700  1
  O  O16  1  0.22366300  0.11429800  0.26931000  1
  O  O17  1  0.27633700  0.38570200  0.76931000  1
  O  O18  1  0.72366300  0.38570200  0.73069000  1
  O  O19  1  0.77633700  0.11429800  0.23069000  1
  O  O20  1  0.77633700  0.88570200  0.73069000  1
  O  O21  1  0.72366300  0.61429800  0.23069000  1
  O  O22  1  0.27633700  0.61429800  0.26931000  1
  O  O23  1  0.22366300  0.88570200  0.76931000  1
  O  O24  1  0.51452400  0.20639700  0.40600300  1
  O  O25  1  0.98547600  0.29360300  0.90600300  1
  O  O26  1  0.01452400  0.29360300  0.59399700  1
  O  O27  1  0.48547600  0.20639700  0.09399700  1
  O  O28  1  0.48547600  0.79360300  0.59399700  1
  O  O29  1  0.01452400  0.70639700  0.09399700  1
  O  O30  1  0.98547600  0.70639700  0.40600300  1
  O  O31  1  0.51452400  0.79360300  0.90600300  1
  O  O32  1  0.46543800  0.87929200  0.36841700  1
  O  O33  1  0.03456200  0.62070800  0.86841700  1
  O  O34  1  0.96543800  0.62070800  0.63158300  1
  O  O35  1  0.53456200  0.87929200  0.13158300  1
  O  O36  1  0.53456200  0.12070800  0.63158300  1
  O  O37  1  0.96543800  0.37929200  0.13158300  1
  O  O38  1  0.03456200  0.37929200  0.36841700  1
  O  O39  1  0.46543800  0.12070800  0.86841700  1
  O  O40  1  0.17944100  0.05821400  0.47084400  1
  O  O41  1  0.32055900  0.44178600  0.97084400  1
  O  O42  1  0.67944100  0.44178600  0.52915600  1
  O  O43  1  0.82055900  0.05821400  0.02915600  1
  O  O44  1  0.82055900  0.94178600  0.52915600  1
  O  O45  1  0.67944100  0.55821400  0.02915600  1
  O  O46  1  0.32055900  0.55821400  0.47084400  1
  O  O47  1  0.17944100  0.94178600  0.97084400  1
  O  O48  1  0.89878600  0.99091500  0.27098000  1
  O  O49  1  0.60121400  0.50908500  0.77098000  1
  O  O50  1  0.39878600  0.50908500  0.72902000  1
  O  O51  1  0.10121400  0.99091500  0.22902000  1
  O  O52  1  0.10121400  0.00908500  0.72902000  1
  O  O53  1  0.39878600  0.49091500  0.22902000  1
  O  O54  1  0.60121400  0.49091500  0.27098000  1
  O  O55  1  0.89878600  0.00908500  0.77098000  1
