# generated using pymatgen
data_Mn2OF4
_symmetry_space_group_name_H-M   'P 1'
_cell_length_a   5.30360001
_cell_length_b   5.30360001
_cell_length_c   12.11815700
_cell_angle_alpha   90.00000000
_cell_angle_beta   90.00000000
_cell_angle_gamma   146.71618339
_symmetry_Int_Tables_number   1
_chemical_formula_structural   Mn2OF4
_chemical_formula_sum   'Mn4 O2 F8'
_cell_volume   187.06032891
_cell_formula_units_Z   2
loop_
 _symmetry_equiv_pos_site_id
 _symmetry_equiv_pos_as_xyz
  1  'x, y, z'
loop_
 _atom_site_type_symbol
 _atom_site_label
 _atom_site_symmetry_multiplicity
 _atom_site_fract_x
 _atom_site_fract_y
 _atom_site_fract_z
 _atom_site_occupancy
  Mn  Mn0  1  0.91687700  0.08312300  0.19926400  1
  Mn  Mn1  1  0.74802100  0.25197900  0.90776600  1
  Mn  Mn2  1  0.25197900  0.74802100  0.40776600  1
  Mn  Mn3  1  0.08312300  0.91687700  0.69926400  1
  O  O4  1  0.67731400  0.32268600  0.76118000  1
  O  O5  1  0.32268600  0.67731400  0.26118000  1
  F  F6  1  0.81899700  0.18100300  0.05085400  1
  F  F7  1  0.87297500  0.12702500  0.44367600  1
  F  F8  1  0.52540500  0.47459500  0.14974700  1
  F  F9  1  0.63076900  0.36923100  0.36483600  1
  F  F10  1  0.36923100  0.63076900  0.86483600  1
  F  F11  1  0.47459500  0.52540500  0.64974700  1
  F  F12  1  0.18100300  0.81899700  0.55085400  1
  F  F13  1  0.12702500  0.87297500  0.94367600  1
