# generated using pymatgen
data_Fe4O5F3
_symmetry_space_group_name_H-M   'P 1'
_cell_length_a   6.13250200
_cell_length_b   4.70936000
_cell_length_c   9.40826298
_cell_angle_alpha   87.50693491
_cell_angle_beta   90.00000000
_cell_angle_gamma   90.00000000
_symmetry_Int_Tables_number   1
_chemical_formula_structural   Fe4O5F3
_chemical_formula_sum   'Fe8 O10 F6'
_cell_volume   271.45495935
_cell_formula_units_Z   2
loop_
 _symmetry_equiv_pos_site_id
 _symmetry_equiv_pos_as_xyz
  1  'x, y, z'
loop_
 _atom_site_type_symbol
 _atom_site_label
 _atom_site_symmetry_multiplicity
 _atom_site_fract_x
 _atom_site_fract_y
 _atom_site_fract_z
 _atom_site_occupancy
  Fe  Fe0  1  0.24988300  0.00042200  0.00094000  1
  Fe  Fe1  1  0.75003800  0.01398200  0.99161600  1
  Fe  Fe2  1  0.24996200  0.01398200  0.49161600  1
  Fe  Fe3  1  0.75011700  0.00042200  0.50094000  1
  Fe  Fe4  1  0.50470800  0.52512100  0.77180100  1
  Fe  Fe5  1  0.99172100  0.45600400  0.73756300  1
  Fe  Fe6  1  0.49529200  0.52512100  0.27180100  1
  Fe  Fe7  1  0.00827900  0.45600400  0.23756300  1
  O  O8  1  0.99764800  0.17599300  0.58944000  1
  O  O9  1  0.00235200  0.17599300  0.08944000  1
  O  O10  1  0.24809700  0.30469300  0.84761300  1
  O  O11  1  0.74820200  0.30774900  0.84690400  1
  O  O12  1  0.25179800  0.30774900  0.34690400  1
  O  O13  1  0.75190300  0.30469300  0.34761300  1
  O  O14  1  0.74831700  0.69753900  0.65231200  1
  O  O15  1  0.25168300  0.69753900  0.15231200  1
  O  O16  1  0.49476800  0.82174900  0.91154400  1
  O  O17  1  0.50523200  0.82174900  0.41154400  1
  F  F18  1  0.49344400  0.20451500  0.60246500  1
  F  F19  1  0.50655600  0.20451500  0.10246600  1
  F  F20  1  0.24852500  0.69654100  0.65015800  1
  F  F21  1  0.75147500  0.69654100  0.15015800  1
  F  F22  1  0.00150900  0.79569000  0.39764100  1
  F  F23  1  0.99849100  0.79569000  0.89764100  1
