# generated using pymatgen
data_Yb2TiO5
_symmetry_space_group_name_H-M   'P 1'
_cell_length_a   5.21799568
_cell_length_b   6.57750932
_cell_length_c   7.57283494
_cell_angle_alpha   66.93048293
_cell_angle_beta   90.07465924
_cell_angle_gamma   66.60791929
_symmetry_Int_Tables_number   1
_chemical_formula_structural   Yb2TiO5
_chemical_formula_sum   'Yb4 Ti2 O10'
_cell_volume   215.65087391
_cell_formula_units_Z   2
loop_
 _symmetry_equiv_pos_site_id
 _symmetry_equiv_pos_as_xyz
  1  'x, y, z'
loop_
 _atom_site_type_symbol
 _atom_site_label
 _atom_site_symmetry_multiplicity
 _atom_site_fract_x
 _atom_site_fract_y
 _atom_site_fract_z
 _atom_site_occupancy
  Yb  Yb0  1  0.63017900  0.72177900  0.77027800  1
  Yb  Yb1  1  0.64766700  0.72163700  0.26957900  1
  Yb  Yb2  1  0.35339900  0.27615200  0.72952100  1
  Yb  Yb3  1  0.36824100  0.27631300  0.23096500  1
  Ti  Ti4  1  0.99661500  0.00329000  0.50176600  1
  Ti  Ti5  1  0.99556300  0.00860900  0.00242300  1
  O  O6  1  0.73401800  0.87379700  0.96701500  1
  O  O7  1  0.39297700  0.87610200  0.46519600  1
  O  O8  1  0.03006700  0.67081000  0.62271900  1
  O  O9  1  0.69791800  0.32874100  0.87601300  1
  O  O10  1  0.30036400  0.67231800  0.11508000  1
  O  O11  1  0.97756300  0.32721300  0.38500800  1
  O  O12  1  0.60537700  0.12136700  0.53501300  1
  O  O13  1  0.14362000  0.99777900  0.75254200  1
  O  O14  1  0.27670600  0.11918900  0.03614900  1
  O  O15  1  0.85873500  0.99774900  0.25278900  1
