# generated using pymatgen
data_H18Se3(NO3)4
_symmetry_space_group_name_H-M   'P 1'
_cell_length_a   9.81618000
_cell_length_b   10.89406681
_cell_length_c   10.93957270
_cell_angle_alpha   64.37795907
_cell_angle_beta   75.81413254
_cell_angle_gamma   82.62372647
_symmetry_Int_Tables_number   1
_chemical_formula_structural   H18Se3(NO3)4
_chemical_formula_sum   'H36 Se6 N8 O24'
_cell_volume   1022.31891006
_cell_formula_units_Z   2
loop_
 _symmetry_equiv_pos_site_id
 _symmetry_equiv_pos_as_xyz
  1  'x, y, z'
loop_
 _atom_site_type_symbol
 _atom_site_label
 _atom_site_symmetry_multiplicity
 _atom_site_fract_x
 _atom_site_fract_y
 _atom_site_fract_z
 _atom_site_occupancy
  H  H0  1  0.96508500  0.29680000  0.01666600  1
  H  H1  1  0.03491500  0.70320000  0.98333400  1
  H  H2  1  0.20475800  0.15643700  0.29536200  1
  H  H3  1  0.79524200  0.84356300  0.70463800  1
  H  H4  1  0.42065700  0.40988000  0.61776600  1
  H  H5  1  0.57934300  0.59012000  0.38223400  1
  H  H6  1  0.17531900  0.69671500  0.61779300  1
  H  H7  1  0.82468100  0.30328500  0.38220700  1
  H  H8  1  0.49924400  0.61937800  0.26321000  1
  H  H9  1  0.50075600  0.38062200  0.73679000  1
  H  H10  1  0.14603700  0.51341000  0.55021700  1
  H  H11  1  0.85396300  0.48659000  0.44978300  1
  H  H12  1  0.36728900  0.70135000  0.02087500  1
  H  H13  1  0.63271100  0.29865000  0.97912500  1
  H  H14  1  0.53271500  0.80852000  0.08134900  1
  H  H15  1  0.46728500  0.19148000  0.91865100  1
  H  H16  1  0.28268800  0.88906900  0.92081400  1
  H  H17  1  0.71731200  0.11093100  0.07918600  1
  H  H18  1  0.57360400  0.90091100  0.62906300  1
  H  H19  1  0.42639600  0.09908900  0.37093700  1
  H  H20  1  0.89870100  0.02333300  0.91442200  1
  H  H21  1  0.10129900  0.97666700  0.08557800  1
  H  H22  1  0.04077000  0.19031900  0.49837500  1
  H  H23  1  0.95923000  0.80968100  0.50162500  1
  H  H24  1  0.89947500  0.78778700  0.80591000  1
  H  H25  1  0.10052500  0.21221300  0.19409000  1
  H  H26  1  0.43843400  0.10723300  0.59055600  1
  H  H27  1  0.56156600  0.89276700  0.40944400  1
  H  H28  1  0.32395200  0.42167600  0.07046800  1
  H  H29  1  0.67604800  0.57832400  0.92953200  1
  H  H30  1  0.44073400  0.91583900  0.87383200  1
  H  H31  1  0.55926600  0.08416100  0.12616800  1
  H  H32  1  0.30460900  0.58397100  0.66551700  1
  H  H33  1  0.69539100  0.41602900  0.33448300  1
  H  H34  1  0.17276500  0.60179800  0.78207700  1
  H  H35  1  0.82723500  0.39820200  0.21792300  1
  Se  Se36  1  0.22210800  0.50890100  0.13114300  1
  Se  Se37  1  0.77789200  0.49109900  0.86885700  1
  Se  Se38  1  0.42013000  0.88172700  0.37917500  1
  Se  Se39  1  0.57987000  0.11827300  0.62082500  1
  Se  Se40  1  0.15384900  0.19485300  0.90512800  1
  Se  Se41  1  0.84615100  0.80514700  0.09487200  1
  N  N42  1  0.26091100  0.37397900  0.51649400  1
  N  N43  1  0.73908900  0.62602100  0.48350600  1
  N  N44  1  0.06619400  0.83798400  0.45989800  1
  N  N45  1  0.93380600  0.16201600  0.54010200  1
  N  N46  1  0.89249900  0.08608600  0.65627900  1
  N  N47  1  0.10750100  0.91391400  0.34372100  1
  N  N48  1  0.19785500  0.60040800  0.68565800  1
  N  N49  1  0.80214500  0.39959200  0.31434200  1
  O  O50  1  0.35622300  0.61762600  0.11390700  1
  O  O51  1  0.64377700  0.38237400  0.88609300  1
  O  O52  1  0.15212500  0.46977400  0.48510500  1
  O  O53  1  0.84787500  0.53022600  0.51489500  1
  O  O54  1  0.14498600  0.59421100  0.99366800  1
  O  O55  1  0.85501400  0.40578900  0.00633200  1
  O  O56  1  0.13598100  0.22956800  0.26213400  1
  O  O57  1  0.86401900  0.77043200  0.73786600  1
  O  O58  1  0.72321100  0.69451100  0.54829100  1
  O  O59  1  0.27678900  0.30548900  0.45170900  1
  O  O60  1  0.46432000  0.93046200  0.20829800  1
  O  O61  1  0.53568000  0.06953800  0.79170200  1
  O  O62  1  0.35002700  0.03420600  0.41065300  1
  O  O63  1  0.64997300  0.96579400  0.58934700  1
  O  O64  1  0.62804200  0.15159500  0.11109700  1
  O  O65  1  0.37195800  0.84840500  0.88890300  1
  O  O66  1  0.48600400  0.44771000  0.64614100  1
  O  O67  1  0.51399600  0.55229000  0.35385900  1
  O  O68  1  0.17630500  0.01120700  0.00109900  1
  O  O69  1  0.82369500  0.98879300  0.99890100  1
  O  O70  1  0.05420200  0.21325400  0.79722600  1
  O  O71  1  0.94579800  0.78674600  0.20277400  1
  O  O72  1  0.03670100  0.21449800  0.05007100  1
  O  O73  1  0.96329900  0.78550200  0.94992900  1
