# generated using pymatgen
data_Mn4OF6
_symmetry_space_group_name_H-M   'P 1'
_cell_length_a   5.24337800
_cell_length_b   7.28236635
_cell_length_c   7.28234835
_cell_angle_alpha   90.06970828
_cell_angle_beta   90.00009089
_cell_angle_gamma   90.00009089
_symmetry_Int_Tables_number   1
_chemical_formula_structural   Mn4OF6
_chemical_formula_sum   'Mn8 O2 F12'
_cell_volume   278.07043628
_cell_formula_units_Z   2
loop_
 _symmetry_equiv_pos_site_id
 _symmetry_equiv_pos_as_xyz
  1  'x, y, z'
loop_
 _atom_site_type_symbol
 _atom_site_label
 _atom_site_symmetry_multiplicity
 _atom_site_fract_x
 _atom_site_fract_y
 _atom_site_fract_z
 _atom_site_occupancy
  Mn  Mn0  1  0.05404300  0.25011600  0.49995400  1
  Mn  Mn1  1  0.55400800  0.49995700  0.25011700  1
  Mn  Mn2  1  0.94597300  0.75011800  0.99994200  1
  Mn  Mn3  1  0.44596800  0.99994200  0.75012300  1
  Mn  Mn4  1  0.55403000  0.00005800  0.24987800  1
  Mn  Mn5  1  0.05404200  0.24986700  0.00006300  1
  Mn  Mn6  1  0.44596100  0.50005600  0.74987100  1
  Mn  Mn7  1  0.94596400  0.74987900  0.50006700  1
  O  O8  1  0.25000500  0.24999800  0.75000200  1
  O  O9  1  0.75000100  0.75000700  0.24999700  1
  F  F10  1  0.83245700  0.24999700  0.25000100  1
  F  F11  1  0.33245500  0.25000200  0.24999200  1
  F  F12  1  0.16754300  0.74999700  0.74999700  1
  F  F13  1  0.66754800  0.75000200  0.74999700  1
  F  F14  1  0.74999600  0.04045800  0.95954900  1
  F  F15  1  0.75000000  0.03992800  0.53992900  1
  F  F16  1  0.75000400  0.45955200  0.54046000  1
  F  F17  1  0.75000500  0.46006100  0.96006000  1
  F  F18  1  0.25000000  0.53992800  0.03992900  1
  F  F19  1  0.24999700  0.54046500  0.45955000  1
  F  F20  1  0.25000100  0.95955300  0.04046100  1
  F  F21  1  0.24999900  0.96005900  0.46006100  1
