# generated using pymatgen
data_VOF3
_symmetry_space_group_name_H-M   'P 1'
_cell_length_a   5.22677000
_cell_length_b   5.85777300
_cell_length_c   10.11571900
_cell_angle_alpha   90.00000000
_cell_angle_beta   90.00000000
_cell_angle_gamma   90.00000000
_symmetry_Int_Tables_number   1
_chemical_formula_structural   VOF3
_chemical_formula_sum   'V4 O4 F12'
_cell_volume   309.71531732
_cell_formula_units_Z   4
loop_
 _symmetry_equiv_pos_site_id
 _symmetry_equiv_pos_as_xyz
  1  'x, y, z'
loop_
 _atom_site_type_symbol
 _atom_site_label
 _atom_site_symmetry_multiplicity
 _atom_site_fract_x
 _atom_site_fract_y
 _atom_site_fract_z
 _atom_site_occupancy
  V  V0  1  0.22380100  0.11571100  0.10423300  1
  V  V1  1  0.27619900  0.88428900  0.60423300  1
  V  V2  1  0.72380100  0.38428900  0.89576700  1
  V  V3  1  0.77619900  0.61571100  0.39576700  1
  O  O4  1  0.11876100  0.68791300  0.52260800  1
  O  O5  1  0.38123900  0.31208700  0.02260800  1
  O  O6  1  0.61876100  0.81208700  0.47739200  1
  O  O7  1  0.88123900  0.18791300  0.97739200  1
  F  F8  1  0.00680100  0.23121800  0.22222100  1
  F  F9  1  0.04761000  0.97687600  0.71929800  1
  F  F10  1  0.28640600  0.13769500  0.51127500  1
  F  F11  1  0.21359400  0.86230500  0.01127500  1
  F  F12  1  0.45239000  0.02312400  0.21929800  1
  F  F13  1  0.49319900  0.76878200  0.72222100  1
  F  F14  1  0.50680100  0.26878200  0.77777900  1
  F  F15  1  0.54761000  0.52312400  0.28070200  1
  F  F16  1  0.78640600  0.36230500  0.48872500  1
  F  F17  1  0.71359400  0.63769500  0.98872500  1
  F  F18  1  0.95239000  0.47687600  0.78070200  1
  F  F19  1  0.99319900  0.73121800  0.27777900  1
