# generated using pymatgen
data_Bi2OF4
_symmetry_space_group_name_H-M   'P 1'
_cell_length_a   7.10502547
_cell_length_b   7.10502547
_cell_length_c   5.83137712
_cell_angle_alpha   78.88046482
_cell_angle_beta   78.88046482
_cell_angle_gamma   47.00409264
_symmetry_Int_Tables_number   1
_chemical_formula_structural   Bi2OF4
_chemical_formula_sum   'Bi4 O2 F8'
_cell_volume   210.49229134
_cell_formula_units_Z   2
loop_
 _symmetry_equiv_pos_site_id
 _symmetry_equiv_pos_as_xyz
  1  'x, y, z'
loop_
 _atom_site_type_symbol
 _atom_site_label
 _atom_site_symmetry_multiplicity
 _atom_site_fract_x
 _atom_site_fract_y
 _atom_site_fract_z
 _atom_site_occupancy
  Bi  Bi0  1  0.10872600  0.67971300  0.58150600  1
  Bi  Bi1  1  0.67971300  0.10872600  0.08150600  1
  Bi  Bi2  1  0.32028700  0.89127400  0.91849400  1
  Bi  Bi3  1  0.89127400  0.32028700  0.41849400  1
  O  O4  1  0.96121900  0.03878100  0.75000000  1
  O  O5  1  0.03878100  0.96121900  0.25000000  1
  F  F6  1  0.30439000  0.53859000  0.93957100  1
  F  F7  1  0.53859000  0.30439000  0.43957100  1
  F  F8  1  0.71920600  0.85218600  0.82282800  1
  F  F9  1  0.85218600  0.71920600  0.32282800  1
  F  F10  1  0.14781400  0.28079400  0.67717200  1
  F  F11  1  0.28079400  0.14781400  0.17717200  1
  F  F12  1  0.46141000  0.69561000  0.56042900  1
  F  F13  1  0.69561000  0.46141000  0.06042900  1
