# generated using pymatgen
data_V4O7F5
_symmetry_space_group_name_H-M   'P 1'
_cell_length_a   5.26960516
_cell_length_b   5.36717530
_cell_length_c   9.02109965
_cell_angle_alpha   73.73288326
_cell_angle_beta   89.93343636
_cell_angle_gamma   60.23558886
_symmetry_Int_Tables_number   1
_chemical_formula_structural   V4O7F5
_chemical_formula_sum   'V4 O7 F5'
_cell_volume   209.68475688
_cell_formula_units_Z   1
loop_
 _symmetry_equiv_pos_site_id
 _symmetry_equiv_pos_as_xyz
  1  'x, y, z'
loop_
 _atom_site_type_symbol
 _atom_site_label
 _atom_site_symmetry_multiplicity
 _atom_site_fract_x
 _atom_site_fract_y
 _atom_site_fract_z
 _atom_site_occupancy
  V  V0  1  0.73107900  0.52350900  0.26410800  1
  V  V1  1  0.45264600  0.04001400  0.50998300  1
  V  V2  1  0.24606700  0.54702100  0.75228800  1
  V  V3  1  0.04117800  0.00296100  0.01496000  1
  O  O4  1  0.95132000  0.23741600  0.11963700  1
  O  O5  1  0.56516100  0.74040600  0.37493400  1
  O  O6  1  0.40641400  0.75037600  0.08215400  1
  O  O7  1  0.41172100  0.74120300  0.66238100  1
  O  O8  1  0.44922700  0.23751700  0.62463200  1
  O  O9  1  0.05261900  0.74335200  0.86755900  1
  O  O10  1  0.10225400  0.24030800  0.41190300  1
  F  F11  1  0.92197100  0.73412200  0.58655800  1
  F  F12  1  0.92070000  0.74470200  0.15267900  1
  F  F13  1  0.59901800  0.22986100  0.33855300  1
  F  F14  1  0.57487100  0.23767400  0.90827400  1
  F  F15  1  0.07375500  0.24956100  0.82939500  1
