# generated using pymatgen
data_FeH2Cl5O3
_symmetry_space_group_name_H-M   'P 1'
_cell_length_a   6.55763800
_cell_length_b   8.53146500
_cell_length_c   19.09068200
_cell_angle_alpha   90.00000000
_cell_angle_beta   90.00000000
_cell_angle_gamma   90.00000000
_symmetry_Int_Tables_number   1
_chemical_formula_structural   FeH2Cl5O3
_chemical_formula_sum   'Fe4 H8 Cl20 O12'
_cell_volume   1068.05224118
_cell_formula_units_Z   4
loop_
 _symmetry_equiv_pos_site_id
 _symmetry_equiv_pos_as_xyz
  1  'x, y, z'
loop_
 _atom_site_type_symbol
 _atom_site_label
 _atom_site_symmetry_multiplicity
 _atom_site_fract_x
 _atom_site_fract_y
 _atom_site_fract_z
 _atom_site_occupancy
  Fe  Fe0  1  0.88427000  0.25000000  0.08850600  1
  Fe  Fe1  1  0.61573000  0.25000000  0.58850600  1
  Fe  Fe2  1  0.11573000  0.75000000  0.91149400  1
  Fe  Fe3  1  0.38427000  0.75000000  0.41149400  1
  H  H4  1  0.53305700  0.06000200  0.34623400  1
  H  H5  1  0.96694300  0.43999800  0.84623400  1
  H  H6  1  0.46694300  0.56000200  0.65376600  1
  H  H7  1  0.03305700  0.93999800  0.15376600  1
  H  H8  1  0.46694300  0.93999800  0.65376600  1
  H  H9  1  0.03305700  0.56000200  0.15376600  1
  H  H10  1  0.53305700  0.43999800  0.34623400  1
  H  H11  1  0.96694300  0.06000200  0.84623400  1
  Cl  Cl12  1  0.21591900  0.25000000  0.10943600  1
  Cl  Cl13  1  0.28408100  0.25000000  0.60943600  1
  Cl  Cl14  1  0.78408100  0.75000000  0.89056400  1
  Cl  Cl15  1  0.71591900  0.75000000  0.39056400  1
  Cl  Cl16  1  0.67938000  0.25000000  0.28923600  1
  Cl  Cl17  1  0.82062000  0.25000000  0.78923600  1
  Cl  Cl18  1  0.32062000  0.75000000  0.71076400  1
  Cl  Cl19  1  0.17938000  0.75000000  0.21076400  1
  Cl  Cl20  1  0.75666300  0.02981500  0.14263100  1
  Cl  Cl21  1  0.74333700  0.47018500  0.64263100  1
  Cl  Cl22  1  0.24333700  0.52981500  0.85736900  1
  Cl  Cl23  1  0.25666300  0.97018500  0.35736900  1
  Cl  Cl24  1  0.24333700  0.97018500  0.85736900  1
  Cl  Cl25  1  0.25666300  0.52981500  0.35736900  1
  Cl  Cl26  1  0.75666300  0.47018500  0.14263100  1
  Cl  Cl27  1  0.74333700  0.02981500  0.64263100  1
  Cl  Cl28  1  0.60291100  0.25000000  0.98485600  1
  Cl  Cl29  1  0.89708900  0.25000000  0.48485600  1
  Cl  Cl30  1  0.39708900  0.75000000  0.01514400  1
  Cl  Cl31  1  0.10291100  0.75000000  0.51514400  1
  O  O32  1  0.86052100  0.25000000  0.98998400  1
  O  O33  1  0.63947900  0.25000000  0.48998400  1
  O  O34  1  0.13947900  0.75000000  0.01001600  1
  O  O35  1  0.36052100  0.75000000  0.51001600  1
  O  O36  1  0.18185100  0.59437500  0.16229800  1
  O  O37  1  0.31814900  0.90562500  0.66229800  1
  O  O38  1  0.81814900  0.09437500  0.83770200  1
  O  O39  1  0.68185100  0.40562500  0.33770200  1
  O  O40  1  0.81814900  0.40562500  0.83770200  1
  O  O41  1  0.68185100  0.09437500  0.33770200  1
  O  O42  1  0.18185100  0.90562500  0.16229800  1
  O  O43  1  0.31814900  0.59437500  0.66229800  1
