# generated using pymatgen
data_K7Na(TeO8)4
_symmetry_space_group_name_H-M   'P 1'
_cell_length_a   11.83585060
_cell_length_b   11.83585060
_cell_length_c   11.83585060
_cell_angle_alpha   145.67572393
_cell_angle_beta   104.89443024
_cell_angle_gamma   85.24481994
_symmetry_Int_Tables_number   1
_chemical_formula_structural   K7Na(TeO8)4
_chemical_formula_sum   'K7 Na1 Te4 O32'
_cell_volume   877.68819953
_cell_formula_units_Z   1
loop_
 _symmetry_equiv_pos_site_id
 _symmetry_equiv_pos_as_xyz
  1  'x, y, z'
loop_
 _atom_site_type_symbol
 _atom_site_label
 _atom_site_symmetry_multiplicity
 _atom_site_fract_x
 _atom_site_fract_y
 _atom_site_fract_z
 _atom_site_occupancy
  K  K0  1  0.69564400  0.19564400  0.50000000  1
  K  K1  1  0.30435600  0.80435600  0.50000000  1
  K  K2  1  0.86568700  0.36568700  0.50000000  1
  K  K3  1  0.13431300  0.63431300  0.50000000  1
  K  K4  1  0.73416200  0.50000000  0.23416200  1
  K  K5  1  0.26583800  0.50000000  0.76583800  1
  K  K6  1  0.50000000  0.00000000  0.50000000  1
  Na  Na7  1  0.00000000  0.00000000  0.00000000  1
  Te  Te8  1  0.65986500  0.76974900  0.89011700  1
  Te  Te9  1  0.12036800  0.23025100  0.89011700  1
  Te  Te10  1  0.87963200  0.76974900  0.10988300  1
  Te  Te11  1  0.34013500  0.23025100  0.10988300  1
  O  O12  1  0.70054000  0.70054000  0.00000000  1
  O  O13  1  0.29946000  0.29946000  0.00000000  1
  O  O14  1  0.84990000  0.84990000  0.00000000  1
  O  O15  1  0.15010000  0.15010000  0.00000000  1
  O  O16  1  0.49496200  0.69124500  0.80371600  1
  O  O17  1  0.11247100  0.30875500  0.80371600  1
  O  O18  1  0.88752900  0.69124500  0.19628400  1
  O  O19  1  0.50503800  0.30875500  0.19628400  1
  O  O20  1  0.61750500  0.91945500  0.69805100  1
  O  O21  1  0.77859600  0.08054500  0.69805100  1
  O  O22  1  0.22140400  0.91945500  0.30194900  1
  O  O23  1  0.38249500  0.08054500  0.30194900  1
  O  O24  1  0.68340400  0.55866800  0.62840500  1
  O  O25  1  0.06973700  0.44133200  0.12473500  1
  O  O26  1  0.93026300  0.05499800  0.37159500  1
  O  O27  1  0.31659600  0.94500200  0.87526500  1
  O  O28  1  0.31659600  0.44133200  0.37159500  1
  O  O29  1  0.93026300  0.55866800  0.87526500  1
  O  O30  1  0.06973700  0.94500200  0.62840500  1
  O  O31  1  0.68340400  0.05499800  0.12473500  1
  O  O32  1  0.95511000  0.68427000  0.63938000  1
  O  O33  1  0.95511000  0.31573000  0.27084100  1
  O  O34  1  0.04489000  0.31573000  0.36062000  1
  O  O35  1  0.04489000  0.68427000  0.72915900  1
  O  O36  1  0.56475400  0.75518400  0.48756500  1
  O  O37  1  0.73238100  0.24481600  0.80957000  1
  O  O38  1  0.26761900  0.07718900  0.51243500  1
  O  O39  1  0.43524600  0.92281100  0.19043000  1
  O  O40  1  0.43524600  0.24481600  0.51243500  1
  O  O41  1  0.26761900  0.75518400  0.19043000  1
  O  O42  1  0.73238100  0.92281100  0.48756500  1
  O  O43  1  0.56475400  0.07718900  0.80957000  1
