# generated using pymatgen
data_CrOF
_symmetry_space_group_name_H-M   'P 1'
_cell_length_a   3.05411100
_cell_length_b   4.86381800
_cell_length_c   9.63838300
_cell_angle_alpha   90.00000000
_cell_angle_beta   90.00000000
_cell_angle_gamma   90.00000000
_symmetry_Int_Tables_number   1
_chemical_formula_structural   CrOF
_chemical_formula_sum   'Cr4 O4 F4'
_cell_volume   143.17471018
_cell_formula_units_Z   4
loop_
 _symmetry_equiv_pos_site_id
 _symmetry_equiv_pos_as_xyz
  1  'x, y, z'
loop_
 _atom_site_type_symbol
 _atom_site_label
 _atom_site_symmetry_multiplicity
 _atom_site_fract_x
 _atom_site_fract_y
 _atom_site_fract_z
 _atom_site_occupancy
  Cr  Cr0  1  0.25000000  0.91074300  0.37954500  1
  Cr  Cr1  1  0.75000000  0.08925700  0.62045500  1
  Cr  Cr2  1  0.75000000  0.41074300  0.12045500  1
  Cr  Cr3  1  0.25000000  0.58925700  0.87954500  1
  O  O4  1  0.75000000  0.78695700  0.48767600  1
  O  O5  1  0.25000000  0.21304300  0.51232400  1
  O  O6  1  0.25000000  0.28695700  0.01232400  1
  O  O7  1  0.75000000  0.71304300  0.98767600  1
  F  F8  1  0.75000000  0.07749200  0.25666800  1
  F  F9  1  0.25000000  0.92250800  0.74333200  1
  F  F10  1  0.25000000  0.57749200  0.24333200  1
  F  F11  1  0.75000000  0.42250800  0.75666800  1
