# generated using pymatgen
data_Li3V2P4(HO8)2
_symmetry_space_group_name_H-M   'P 1'
_cell_length_a   12.58730900
_cell_length_b   9.39435157
_cell_length_c   7.52766047
_cell_angle_alpha   97.69366522
_cell_angle_beta   101.15550285
_cell_angle_gamma   98.44069592
_symmetry_Int_Tables_number   1
_chemical_formula_structural   Li3V2P4(HO8)2
_chemical_formula_sum   'Li9 V6 P12 H6 O48'
_cell_volume   851.70232853
_cell_formula_units_Z   3
loop_
 _symmetry_equiv_pos_site_id
 _symmetry_equiv_pos_as_xyz
  1  'x, y, z'
loop_
 _atom_site_type_symbol
 _atom_site_label
 _atom_site_symmetry_multiplicity
 _atom_site_fract_x
 _atom_site_fract_y
 _atom_site_fract_z
 _atom_site_occupancy
  Li  Li0  1  0.17174500  0.03844000  0.84203800  1
  Li  Li1  1  0.15559400  0.29090500  0.15546000  1
  Li  Li2  1  0.42172200  0.05840100  0.34438100  1
  Li  Li3  1  0.24324900  0.61581600  0.64775800  1
  Li  Li4  1  0.50743800  0.37820600  0.84948800  1
  Li  Li5  1  0.75969500  0.39001800  0.34903700  1
  Li  Li6  1  0.58317800  0.94892200  0.65480200  1
  Li  Li7  1  0.84048600  0.70461100  0.84481700  1
  Li  Li8  1  0.82489100  0.96039300  0.15978200  1
  V  V9  1  0.99912000  0.50162800  0.00471100  1
  V  V10  1  0.33196200  0.33508900  0.49740400  1
  V  V11  1  0.00164900  0.99797600  0.49546300  1
  V  V12  1  0.66838200  0.16800000  0.00380600  1
  V  V13  1  0.33410100  0.82539300  0.00677400  1
  V  V14  1  0.66260200  0.66519100  0.48822100  1
  P  P15  1  0.17279900  0.01988500  0.23050700  1
  P  P16  1  0.15637600  0.31620400  0.76431600  1
  P  P17  1  0.40425700  0.05865800  0.74006700  1
  P  P18  1  0.07223000  0.72404100  0.73794600  1
  P  P19  1  0.25523800  0.61090600  0.26644800  1
  P  P20  1  0.50776700  0.35817200  0.23378900  1
  P  P21  1  0.49270700  0.64870400  0.76619900  1
  P  P22  1  0.74116500  0.39494000  0.73827800  1
  P  P23  1  0.92952200  0.27923000  0.26940100  1
  P  P24  1  0.59494800  0.94162100  0.26789100  1
  P  P25  1  0.84015800  0.68608000  0.22995800  1
  P  P26  1  0.82436300  0.97566000  0.75510200  1
  H  H27  1  0.00685900  0.51222700  0.50887400  1
  H  H28  1  0.31908400  0.33209500  0.98999000  1
  H  H29  1  0.33773500  0.84832000  0.50780900  1
  H  H30  1  0.67679800  0.18743700  0.51677500  1
  H  H31  1  0.65319900  0.66421500  0.99089100  1
  H  H32  1  0.98431700  0.99163300  0.98356500  1
  O  O33  1  0.11072400  0.15880700  0.66065500  1
  O  O34  1  0.06952600  0.39707600  0.82373700  1
  O  O35  1  0.09871700  0.03911500  0.04982200  1
  O  O36  1  0.00700500  0.33393400  0.14436100  1
  O  O37  1  0.23279800  0.29156000  0.94800200  1
  O  O38  1  0.22431000  0.17843500  0.33627100  1
  O  O39  1  0.06539400  0.61579600  0.56051200  1
  O  O40  1  0.22557000  0.40182600  0.65091800  1
  O  O41  1  0.38589900  0.20817800  0.69151200  1
  O  O42  1  0.05382100  0.87478200  0.69065400  1
  O  O43  1  0.52555100  0.06778300  0.84225000  1
  O  O44  1  0.19275900  0.73669600  0.84629900  1
  O  O45  1  0.13560000  0.59120300  0.15006800  1
  O  O46  1  0.27567600  0.45861100  0.30595000  1
  O  O47  1  0.44281200  0.27277200  0.35482700  1
  O  O48  1  0.10862200  0.93997600  0.35409300  1
  O  O49  1  0.27449500  0.71474300  0.44796100  1
  O  O50  1  0.60148300  0.04867400  0.44518200  1
  O  O51  1  0.44242700  0.49182700  0.66074600  1
  O  O52  1  0.73143700  0.05007200  0.80880300  1
  O  O53  1  0.39917000  0.72538700  0.81391500  1
  O  O54  1  0.43399800  0.37493600  0.05467100  1
  O  O55  1  0.67387800  0.00131300  0.14803000  1
  O  O56  1  0.33062800  0.67246100  0.14250000  1
  O  O57  1  0.65858100  0.33184400  0.84856200  1
  O  O58  1  0.32466800  0.99544000  0.85332200  1
  O  O59  1  0.56678700  0.62437500  0.94627800  1
  O  O60  1  0.26934600  0.94623900  0.18662400  1
  O  O61  1  0.60497100  0.28563900  0.19200600  1
  O  O62  1  0.55939700  0.51054500  0.35665300  1
  O  O63  1  0.72852500  0.28951300  0.55275100  1
  O  O64  1  0.39233000  0.95452800  0.55191700  1
  O  O65  1  0.55784700  0.73498500  0.64851400  1
  O  O66  1  0.89245200  0.05625700  0.64057100  1
  O  O67  1  0.72202900  0.54287900  0.68361100  1
  O  O68  1  0.85928400  0.41283300  0.85322700  1
  O  O69  1  0.47469100  0.92553800  0.15624000  1
  O  O70  1  0.80756300  0.26422800  0.15755500  1
  O  O71  1  0.94777200  0.12562200  0.30774000  1
  O  O72  1  0.62174900  0.79552400  0.31887200  1
  O  O73  1  0.77343000  0.60256800  0.35023800  1
  O  O74  1  0.93982200  0.38740500  0.44425900  1
  O  O75  1  0.77402100  0.81749600  0.65321500  1
  O  O76  1  0.76641600  0.70863900  0.05067900  1
  O  O77  1  0.99182500  0.66737900  0.85570900  1
  O  O78  1  0.89748900  0.95233400  0.94181500  1
  O  O79  1  0.92830200  0.60026800  0.18197300  1
  O  O80  1  0.89043600  0.84264900  0.33888300  1
