# generated using pymatgen
data_FeHO2
_symmetry_space_group_name_H-M   'P 1'
_cell_length_a   6.09504900
_cell_length_b   10.40736318
_cell_length_c   10.58116528
_cell_angle_alpha   88.20589286
_cell_angle_beta   89.79086048
_cell_angle_gamma   89.74487200
_symmetry_Int_Tables_number   1
_chemical_formula_structural   FeHO2
_chemical_formula_sum   'Fe16 H16 O32'
_cell_volume   670.85934747
_cell_formula_units_Z   16
loop_
 _symmetry_equiv_pos_site_id
 _symmetry_equiv_pos_as_xyz
  1  'x, y, z'
loop_
 _atom_site_type_symbol
 _atom_site_label
 _atom_site_symmetry_multiplicity
 _atom_site_fract_x
 _atom_site_fract_y
 _atom_site_fract_z
 _atom_site_occupancy
  Fe  Fe0  1  0.98783800  0.35107000  0.86670700  1
  Fe  Fe1  1  0.99530100  0.14338700  0.36882200  1
  Fe  Fe2  1  0.24751100  0.84533600  0.38259800  1
  Fe  Fe3  1  0.23265800  0.65525400  0.90690200  1
  Fe  Fe4  1  0.00418900  0.65946800  0.19395200  1
  Fe  Fe5  1  0.00004100  0.85739700  0.68837800  1
  Fe  Fe6  1  0.24241700  0.16050200  0.65776900  1
  Fe  Fe7  1  0.23903100  0.35337900  0.16001900  1
  Fe  Fe8  1  0.49303500  0.35865200  0.87285400  1
  Fe  Fe9  1  0.49362600  0.14878500  0.35897800  1
  Fe  Fe10  1  0.74622800  0.85183600  0.39233000  1
  Fe  Fe11  1  0.76030800  0.65462600  0.89076200  1
  Fe  Fe12  1  0.49016500  0.65626000  0.18845000  1
  Fe  Fe13  1  0.49513800  0.86768700  0.67194000  1
  Fe  Fe14  1  0.74292800  0.15884500  0.65767900  1
  Fe  Fe15  1  0.74163400  0.35495400  0.17214700  1
  H  H16  1  0.99108700  0.37082500  0.60670500  1
  H  H17  1  0.97499500  0.41114300  0.35285600  1
  H  H18  1  0.26408000  0.90676500  0.88078900  1
  H  H19  1  0.98524200  0.64225300  0.45970800  1
  H  H20  1  0.99701300  0.58283400  0.70818900  1
  H  H21  1  0.21869800  0.15275400  0.92231100  1
  H  H22  1  0.25491200  0.07252400  0.17872700  1
  H  H23  1  0.49165800  0.36470000  0.60055600  1
  H  H24  1  0.48359000  0.40613900  0.36209700  1
  H  H25  1  0.73464200  0.86008400  0.13752300  1
  H  H26  1  0.74847000  0.91331400  0.87575000  1
  H  H27  1  0.49892900  0.64979300  0.46728400  1
  H  H28  1  0.62461500  0.57495600  0.70443300  1
  H  H29  1  0.37104200  0.58161300  0.70716100  1
  H  H30  1  0.74905600  0.15704900  0.92613200  1
  H  H31  1  0.72656400  0.09380600  0.16100900  1
  O  O32  1  0.99177500  0.30473000  0.67358900  1
  O  O33  1  0.99516200  0.04244100  0.68961500  1
  O  O34  1  0.98602900  0.33728300  0.29913500  1
  O  O35  1  0.98394300  0.34038100  0.04917000  1
  O  O36  1  0.24992400  0.78942600  0.20112800  1
  O  O37  1  0.24577100  0.53440000  0.19984700  1
  O  O38  1  0.25622900  0.84050800  0.81800600  1
  O  O39  1  0.23991400  0.84151300  0.57119600  1
  O  O40  1  0.99106400  0.70060600  0.38645100  1
  O  O41  1  0.99327800  0.96049700  0.35926600  1
  O  O42  1  0.00916200  0.66548600  0.74838800  1
  O  O43  1  0.99350900  0.69174000  0.01055000  1
  O  O44  1  0.23376200  0.22183000  0.85885300  1
  O  O45  1  0.23685100  0.47465600  0.85377400  1
  O  O46  1  0.25091200  0.15096500  0.22682000  1
  O  O47  1  0.24840700  0.17351300  0.47587300  1
  O  O48  1  0.48986600  0.30508500  0.67321600  1
  O  O49  1  0.49263000  0.04958000  0.69859500  1
  O  O50  1  0.49512100  0.33657700  0.30307500  1
  O  O51  1  0.50268000  0.33908400  0.05514200  1
  O  O52  1  0.73931300  0.79317000  0.20363400  1
  O  O53  1  0.74744000  0.53556500  0.19996300  1
  O  O54  1  0.74676900  0.84501700  0.81510300  1
  O  O55  1  0.75932000  0.83912700  0.57572500  1
  O  O56  1  0.50238900  0.70262300  0.38935900  1
  O  O57  1  0.49436300  0.96622400  0.36854800  1
  O  O58  1  0.49980400  0.62912100  0.67267500  1
  O  O59  1  0.50188400  0.67090200  0.99613000  1
  O  O60  1  0.74777500  0.22031500  0.85644800  1
  O  O61  1  0.74311000  0.47338900  0.83772200  1
  O  O62  1  0.73682300  0.15847900  0.22514000  1
  O  O63  1  0.73705700  0.17062000  0.47582200  1
