# generated using pymatgen
data_VSn(PO4)2
_symmetry_space_group_name_H-M   'P 1'
_cell_length_a   6.02187400
_cell_length_b   10.03414802
_cell_length_c   10.18719879
_cell_angle_alpha   90.41729266
_cell_angle_beta   90.00024288
_cell_angle_gamma   90.00006798
_symmetry_Int_Tables_number   1
_chemical_formula_structural   VSn(PO4)2
_chemical_formula_sum   'V4 Sn4 P8 O32'
_cell_volume   615.53879470
_cell_formula_units_Z   4
loop_
 _symmetry_equiv_pos_site_id
 _symmetry_equiv_pos_as_xyz
  1  'x, y, z'
loop_
 _atom_site_type_symbol
 _atom_site_label
 _atom_site_symmetry_multiplicity
 _atom_site_fract_x
 _atom_site_fract_y
 _atom_site_fract_z
 _atom_site_occupancy
  V  V0  1  0.74999900  0.72528400  0.22820500  1
  V  V1  1  0.25000100  0.27475300  0.77169900  1
  V  V2  1  0.75001500  0.22528600  0.22836300  1
  V  V3  1  0.24999300  0.77450300  0.77175000  1
  Sn  Sn4  1  0.25000400  0.47664800  0.27762100  1
  Sn  Sn5  1  0.24999100  0.97665000  0.27772400  1
  Sn  Sn6  1  0.75000200  0.02337400  0.72233800  1
  Sn  Sn7  1  0.75000200  0.52330600  0.72228200  1
  P  P8  1  0.25000000  0.19168600  0.09577500  1
  P  P9  1  0.25000200  0.69166800  0.09575000  1
  P  P10  1  0.75000200  0.30833900  0.90427700  1
  P  P11  1  0.74999300  0.80830600  0.90422000  1
  P  P12  1  0.75000500  0.45337600  0.40861600  1
  P  P13  1  0.74999300  0.95340500  0.40860200  1
  P  P14  1  0.25000600  0.04666100  0.59140700  1
  P  P15  1  0.25000700  0.54663100  0.59140700  1
  O  O16  1  0.75000500  0.33096200  0.04982000  1
  O  O17  1  0.74999900  0.83091300  0.04976500  1
  O  O18  1  0.24999300  0.16900500  0.95024100  1
  O  O19  1  0.24999400  0.66907200  0.95020500  1
  O  O20  1  0.25000000  0.34294200  0.12737500  1
  O  O21  1  0.25000000  0.84292900  0.12736800  1
  O  O22  1  0.74999500  0.15704500  0.87265900  1
  O  O23  1  0.74999900  0.65704700  0.87262800  1
  O  O24  1  0.74999900  0.10229900  0.39493700  1
  O  O25  1  0.74999300  0.60226100  0.39489900  1
  O  O26  1  0.25000100  0.39771400  0.60499100  1
  O  O27  1  0.25000200  0.89777500  0.60509400  1
  O  O28  1  0.24999900  0.09038100  0.44551600  1
  O  O29  1  0.25000100  0.59037900  0.44557000  1
  O  O30  1  0.75001000  0.40963000  0.55445000  1
  O  O31  1  0.74999800  0.90970100  0.55444400  1
  O  O32  1  0.05136400  0.11840100  0.16988100  1
  O  O33  1  0.05133900  0.61839400  0.16988900  1
  O  O34  1  0.44863200  0.11839800  0.16988200  1
  O  O35  1  0.44866400  0.61838400  0.16988800  1
  O  O36  1  0.55139600  0.38161900  0.83013000  1
  O  O37  1  0.55133100  0.88162300  0.83010700  1
  O  O38  1  0.94860800  0.38160700  0.83013200  1
  O  O39  1  0.94866100  0.88161300  0.83010800  1
  O  O40  1  0.95225900  0.38181100  0.33612300  1
  O  O41  1  0.95229300  0.88183600  0.33614000  1
  O  O42  1  0.54774300  0.38181100  0.33612800  1
  O  O43  1  0.54769900  0.88183900  0.33614500  1
  O  O44  1  0.04772200  0.11820800  0.66384100  1
  O  O45  1  0.04765200  0.61816200  0.66388600  1
  O  O46  1  0.45228400  0.11820900  0.66383900  1
  O  O47  1  0.45234800  0.61815400  0.66388600  1
