# generated using pymatgen
data_VF5
_symmetry_space_group_name_H-M   'P 1'
_cell_length_a   9.20160800
_cell_length_b   5.36012900
_cell_length_c   9.54081961
_cell_angle_alpha   60.15612101
_cell_angle_beta   90.00000000
_cell_angle_gamma   90.00000000
_symmetry_Int_Tables_number   1
_chemical_formula_structural   VF5
_chemical_formula_sum   'V4 F20'
_cell_volume   408.16556393
_cell_formula_units_Z   4
loop_
 _symmetry_equiv_pos_site_id
 _symmetry_equiv_pos_as_xyz
  1  'x, y, z'
loop_
 _atom_site_type_symbol
 _atom_site_label
 _atom_site_symmetry_multiplicity
 _atom_site_fract_x
 _atom_site_fract_y
 _atom_site_fract_z
 _atom_site_occupancy
  V  V0  1  0.37703800  0.50000900  0.87750300  1
  V  V1  1  0.87703800  0.49999100  0.62249700  1
  V  V2  1  0.12296200  0.50000900  0.37750300  1
  V  V3  1  0.62296200  0.49999100  0.12249700  1
  F  F4  1  0.74869000  0.47305500  0.98974700  1
  F  F5  1  0.78515200  0.78054400  0.62505200  1
  F  F6  1  0.68788400  0.18827700  0.28930300  1
  F  F7  1  0.48898500  0.24579000  0.07340800  1
  F  F8  1  0.02814900  0.52428400  0.73062900  1
  F  F9  1  0.52814900  0.47571600  0.76937100  1
  F  F10  1  0.98898500  0.75421000  0.42659200  1
  F  F11  1  0.28515200  0.21945600  0.87494800  1
  F  F12  1  0.18788400  0.81172300  0.21069700  1
  F  F13  1  0.24869000  0.52694500  0.51025300  1
  F  F14  1  0.75131000  0.47305500  0.48974700  1
  F  F15  1  0.81211600  0.18827700  0.78930300  1
  F  F16  1  0.71484800  0.78054400  0.12505200  1
  F  F17  1  0.01101500  0.24579000  0.57340800  1
  F  F18  1  0.47185100  0.52428400  0.23062900  1
  F  F19  1  0.97185100  0.47571600  0.26937100  1
  F  F20  1  0.51101500  0.75421000  0.92659200  1
  F  F21  1  0.31211600  0.81172300  0.71069700  1
  F  F22  1  0.21484800  0.21945600  0.37494800  1
  F  F23  1  0.25131000  0.52694500  0.01025300  1
