# generated using pymatgen
data_Na5Mn2P2(CO7)2
_symmetry_space_group_name_H-M   'P 1'
_cell_length_a   6.84520800
_cell_length_b   5.20313000
_cell_length_c   9.01717391
_cell_angle_alpha   89.68427088
_cell_angle_beta   90.00000000
_cell_angle_gamma   90.00000000
_symmetry_Int_Tables_number   1
_chemical_formula_structural   Na5Mn2P2(CO7)2
_chemical_formula_sum   'Na5 Mn2 P2 C2 O14'
_cell_volume   321.15536234
_cell_formula_units_Z   1
loop_
 _symmetry_equiv_pos_site_id
 _symmetry_equiv_pos_as_xyz
  1  'x, y, z'
loop_
 _atom_site_type_symbol
 _atom_site_label
 _atom_site_symmetry_multiplicity
 _atom_site_fract_x
 _atom_site_fract_y
 _atom_site_fract_z
 _atom_site_occupancy
  Na  Na0  1  0.24383000  0.75712000  0.74984700  1
  Na  Na1  1  0.75617000  0.75712000  0.74984700  1
  Na  Na2  1  0.74327100  0.24711000  0.25378600  1
  Na  Na3  1  0.25672900  0.24711000  0.25378600  1
  Na  Na4  1  0.50000000  0.76167400  0.07864600  1
  Mn  Mn5  1  0.50000000  0.22295000  0.63825400  1
  Mn  Mn6  1  0.00000000  0.78144600  0.35373100  1
  P  P7  1  0.00000000  0.29239200  0.57854800  1
  P  P8  1  0.50000000  0.70154000  0.41279000  1
  C  C9  1  0.50000000  0.26803200  0.93655200  1
  C  C10  1  0.00000000  0.72703300  0.07696900  1
  O  O11  1  0.00000000  0.72293700  0.93846900  1
  O  O12  1  0.50000000  0.04339700  0.87338600  1
  O  O13  1  0.50000000  0.47378200  0.85369800  1
  O  O14  1  0.18542700  0.22740900  0.66631400  1
  O  O15  1  0.81457300  0.22740900  0.66631400  1
  O  O16  1  0.00000000  0.59445300  0.54361100  1
  O  O17  1  0.50000000  0.81937000  0.56999500  1
  O  O18  1  0.00000000  0.15574700  0.42411800  1
  O  O19  1  0.50000000  0.40265000  0.42538700  1
  O  O20  1  0.68246200  0.78679600  0.32038900  1
  O  O21  1  0.31753800  0.78679600  0.32038900  1
  O  O22  1  0.00000000  0.52542200  0.16487300  1
  O  O23  1  0.00000000  0.94535500  0.15295300  1
  O  O24  1  0.50000000  0.28638100  0.07977000  1
