# generated using pymatgen
data_FePO4
_symmetry_space_group_name_H-M   'P 1'
_cell_length_a   5.24396800
_cell_length_b   5.25249132
_cell_length_c   6.38644211
_cell_angle_alpha   86.32131737
_cell_angle_beta   106.78966509
_cell_angle_gamma   111.17333879
_symmetry_Int_Tables_number   1
_chemical_formula_structural   FePO4
_chemical_formula_sum   'Fe2 P2 O8'
_cell_volume   156.88082434
_cell_formula_units_Z   2
loop_
 _symmetry_equiv_pos_site_id
 _symmetry_equiv_pos_as_xyz
  1  'x, y, z'
loop_
 _atom_site_type_symbol
 _atom_site_label
 _atom_site_symmetry_multiplicity
 _atom_site_fract_x
 _atom_site_fract_y
 _atom_site_fract_z
 _atom_site_occupancy
  Fe  Fe0  1  0.25620700  0.79706400  0.29299500  1
  Fe  Fe1  1  0.74379300  0.20293600  0.70700500  1
  P  P2  1  0.86832000  0.17463900  0.22838000  1
  P  P3  1  0.13168000  0.82536100  0.77162000  1
  O  O4  1  0.13381700  0.41499600  0.35273500  1
  O  O5  1  0.35538700  0.90235900  0.63318800  1
  O  O6  1  0.94553600  0.92132600  0.21654100  1
  O  O7  1  0.72869700  0.25567300  0.00107000  1
  O  O8  1  0.27130300  0.74432700  0.99893000  1
  O  O9  1  0.05446400  0.07867400  0.78345900  1
  O  O10  1  0.64461300  0.09764100  0.36681200  1
  O  O11  1  0.86618300  0.58500400  0.64726500  1
