# generated using pymatgen
data_VFeP2(HO5)2
_symmetry_space_group_name_H-M   'P 1'
_cell_length_a   5.16710559
_cell_length_b   7.48528680
_cell_length_c   10.23559036
_cell_angle_alpha   75.41369147
_cell_angle_beta   80.87213884
_cell_angle_gamma   104.75697347
_symmetry_Int_Tables_number   1
_chemical_formula_structural   VFeP2(HO5)2
_chemical_formula_sum   'V2 Fe2 P4 H4 O20'
_cell_volume   359.83644951
_cell_formula_units_Z   2
loop_
 _symmetry_equiv_pos_site_id
 _symmetry_equiv_pos_as_xyz
  1  'x, y, z'
loop_
 _atom_site_type_symbol
 _atom_site_label
 _atom_site_symmetry_multiplicity
 _atom_site_fract_x
 _atom_site_fract_y
 _atom_site_fract_z
 _atom_site_occupancy
  V  V0  1  0.49991800  0.00017600  0.49997600  1
  V  V1  1  0.99981400  0.49984600  0.00015000  1
  Fe  Fe2  1  0.00054300  0.99997000  0.00010800  1
  Fe  Fe3  1  0.49975800  0.50000300  0.50009800  1
  P  P4  1  0.00504300  0.88168300  0.33871200  1
  P  P5  1  0.50522900  0.38178900  0.83871000  1
  P  P6  1  0.49484300  0.61839700  0.16127400  1
  P  P7  1  0.99472000  0.11832400  0.66131800  1
  H  H8  1  0.86409000  0.17224700  0.17159300  1
  H  H9  1  0.36421400  0.67249700  0.67154500  1
  H  H10  1  0.63594200  0.32778000  0.32836800  1
  H  H11  1  0.13585400  0.82753200  0.82845700  1
  O  O12  1  0.60055100  0.27760200  0.43073700  1
  O  O13  1  0.10065100  0.77747900  0.93078300  1
  O  O14  1  0.89940700  0.22232900  0.06925300  1
  O  O15  1  0.39929600  0.72244600  0.56918900  1
  O  O16  1  0.80838100  0.00848900  0.36262800  1
  O  O17  1  0.30838500  0.50839200  0.86274000  1
  O  O18  1  0.69150000  0.49152900  0.13726900  1
  O  O19  1  0.19159000  0.99163600  0.63717700  1
  O  O20  1  0.21636600  0.51884400  0.12805400  1
  O  O21  1  0.71630600  0.01880600  0.62800600  1
  O  O22  1  0.28361400  0.98117200  0.37191800  1
  O  O23  1  0.78376300  0.48118300  0.87192300  1
  O  O24  1  0.06480200  0.89625700  0.18582800  1
  O  O25  1  0.56468400  0.39634800  0.68581700  1
  O  O26  1  0.43527600  0.60362400  0.31419700  1
  O  O27  1  0.93536500  0.10356900  0.81423300  1
  O  O28  1  0.88290500  0.67663100  0.43764900  1
  O  O29  1  0.38324400  0.17661300  0.93764100  1
  O  O30  1  0.61715700  0.82345700  0.06230500  1
  O  O31  1  0.11679100  0.32334900  0.56234500  1
