# generated using pymatgen
data_MnCd4O5
_symmetry_space_group_name_H-M   'P 1'
_cell_length_a   6.67656234
_cell_length_b   11.11844167
_cell_length_c   7.49243676
_cell_angle_alpha   78.28663121
_cell_angle_beta   77.12145729
_cell_angle_gamma   89.99792282
_symmetry_Int_Tables_number   1
_chemical_formula_structural   MnCd4O5
_chemical_formula_sum   'Mn4 Cd16 O20'
_cell_volume   530.30798307
_cell_formula_units_Z   4
loop_
 _symmetry_equiv_pos_site_id
 _symmetry_equiv_pos_as_xyz
  1  'x, y, z'
loop_
 _atom_site_type_symbol
 _atom_site_label
 _atom_site_symmetry_multiplicity
 _atom_site_fract_x
 _atom_site_fract_y
 _atom_site_fract_z
 _atom_site_occupancy
  Mn  Mn0  1  0.60258900  0.60066600  0.59837600  1
  Mn  Mn1  1  0.49730800  0.00142000  0.00014700  1
  Mn  Mn2  1  0.10261700  0.60068700  0.59836000  1
  Mn  Mn3  1  0.99731900  0.00137300  0.00014500  1
  Cd  Cd4  1  0.30026100  0.80066800  0.79956000  1
  Cd  Cd5  1  0.80025800  0.80066700  0.79955800  1
  Cd  Cd6  1  0.05054200  0.30107600  0.79910800  1
  Cd  Cd7  1  0.55054500  0.30107800  0.79910500  1
  Cd  Cd8  1  0.14831100  0.89721800  0.40281500  1
  Cd  Cd9  1  0.64831800  0.89721500  0.40281900  1
  Cd  Cd10  1  0.45127300  0.70491100  0.19595100  1
  Cd  Cd11  1  0.95127200  0.70490900  0.19595300  1
  Cd  Cd12  1  0.34822000  0.09924100  0.60026400  1
  Cd  Cd13  1  0.84822500  0.09923900  0.60026300  1
  Cd  Cd14  1  0.25163200  0.50236000  0.99869400  1
  Cd  Cd15  1  0.75163600  0.50235700  0.99869200  1
  Cd  Cd16  1  0.40033800  0.40367100  0.39869400  1
  Cd  Cd17  1  0.90033600  0.40367100  0.39869400  1
  Cd  Cd18  1  0.19875200  0.19823300  0.19994300  1
  Cd  Cd19  1  0.69875900  0.19823600  0.19994200  1
  O  O20  1  0.02878900  0.64967800  0.89095300  1
  O  O21  1  0.52878500  0.64967200  0.89095600  1
  O  O22  1  0.07185700  0.95160400  0.70759700  1
  O  O23  1  0.57186000  0.95160500  0.70758900  1
  O  O24  1  0.37671500  0.74022200  0.50581200  1
  O  O25  1  0.87672000  0.74022800  0.50580800  1
  O  O26  1  0.22479400  0.86171200  0.09292600  1
  O  O27  1  0.72480400  0.86171500  0.09292300  1
  O  O28  1  0.27127500  0.14111800  0.90618000  1
  O  O29  1  0.77127800  0.14111600  0.90617900  1
  O  O30  1  0.32744400  0.46066100  0.69223600  1
  O  O31  1  0.82743700  0.46066000  0.69223600  1
  O  O32  1  0.12288400  0.25119600  0.50111900  1
  O  O33  1  0.62288500  0.25119800  0.50111800  1
  O  O34  1  0.47597400  0.35050600  0.09760000  1
  O  O35  1  0.97597900  0.35050700  0.09759600  1
  O  O36  1  0.17495700  0.55585500  0.30543700  1
  O  O37  1  0.67495800  0.55585400  0.30543200  1
  O  O38  1  0.42405900  0.04619000  0.29308900  1
  O  O39  1  0.92406400  0.04618800  0.29308200  1
