# generated using pymatgen
data_Ca3(PO4)2
_symmetry_space_group_name_H-M   'P 1'
_cell_length_a   5.27190972
_cell_length_b   5.27190972
_cell_length_c   7.23381342
_cell_angle_alpha   89.71337223
_cell_angle_beta   89.71337223
_cell_angle_gamma   115.55942578
_symmetry_Int_Tables_number   1
_chemical_formula_structural   Ca3(PO4)2
_chemical_formula_sum   'Ca3 P2 O8'
_cell_volume   181.36656506
_cell_formula_units_Z   1
loop_
 _symmetry_equiv_pos_site_id
 _symmetry_equiv_pos_as_xyz
  1  'x, y, z'
loop_
 _atom_site_type_symbol
 _atom_site_label
 _atom_site_symmetry_multiplicity
 _atom_site_fract_x
 _atom_site_fract_y
 _atom_site_fract_z
 _atom_site_occupancy
  Ca  Ca0  1  0.31171900  0.68828100  0.00000000  1
  Ca  Ca1  1  0.98664100  0.00297800  0.27298100  1
  Ca  Ca2  1  0.99702200  0.01335900  0.72701900  1
  P  P3  1  0.34851700  0.65148300  0.50000000  1
  P  P4  1  0.65267900  0.34732100  0.00000000  1
  O  O5  1  0.67450500  0.77793600  0.50594600  1
  O  O6  1  0.22206400  0.32549500  0.49405400  1
  O  O7  1  0.26408600  0.75953400  0.31942500  1
  O  O8  1  0.24046600  0.73591400  0.68057500  1
  O  O9  1  0.73112400  0.22981800  0.82850000  1
  O  O10  1  0.77018200  0.26887600  0.17149900  1
  O  O11  1  0.76971100  0.68066300  0.99155700  1
  O  O12  1  0.31933700  0.23028900  0.00844300  1
