# generated using pymatgen
data_Fe4OF6
_symmetry_space_group_name_H-M   'P 1'
_cell_length_a   5.18318708
_cell_length_b   7.09564471
_cell_length_c   7.09555984
_cell_angle_alpha   90.22933344
_cell_angle_beta   89.99970550
_cell_angle_gamma   90.02056961
_symmetry_Int_Tables_number   1
_chemical_formula_structural   Fe4OF6
_chemical_formula_sum   'Fe8 O2 F12'
_cell_volume   260.95877570
_cell_formula_units_Z   2
loop_
 _symmetry_equiv_pos_site_id
 _symmetry_equiv_pos_as_xyz
  1  'x, y, z'
loop_
 _atom_site_type_symbol
 _atom_site_label
 _atom_site_symmetry_multiplicity
 _atom_site_fract_x
 _atom_site_fract_y
 _atom_site_fract_z
 _atom_site_occupancy
  Fe  Fe0  1  0.05179700  0.25004600  0.00093000  1
  Fe  Fe1  1  0.55182400  0.49904100  0.25001500  1
  Fe  Fe2  1  0.94819900  0.74998900  0.50094300  1
  Fe  Fe3  1  0.44825500  0.99911000  0.75000100  1
  Fe  Fe4  1  0.55175600  0.00106700  0.25036800  1
  Fe  Fe5  1  0.05173400  0.24965800  0.49890400  1
  Fe  Fe6  1  0.44816500  0.50111500  0.75038700  1
  Fe  Fe7  1  0.94823400  0.74958200  0.99891200  1
  O  O8  1  0.25003800  0.25012400  0.74979500  1
  O  O9  1  0.74999900  0.75023900  0.24980600  1
  F  F10  1  0.82149300  0.24992300  0.24996300  1
  F  F11  1  0.32148600  0.24999700  0.25016400  1
  F  F12  1  0.17854800  0.74975700  0.74999000  1
  F  F13  1  0.67855700  0.75006200  0.75013800  1
  F  F14  1  0.75000600  0.04285500  0.95716900  1
  F  F15  1  0.74963100  0.04247300  0.54215400  1
  F  F16  1  0.74992500  0.45705600  0.54293300  1
  F  F17  1  0.75038600  0.45787100  0.95755800  1
  F  F18  1  0.25036800  0.54241400  0.04218400  1
  F  F19  1  0.24996600  0.54277900  0.45714300  1
  F  F20  1  0.25002700  0.95703500  0.04293800  1
  F  F21  1  0.24960600  0.95780500  0.45760700  1
