# generated using pymatgen
data_Bi(MoO5)2
_symmetry_space_group_name_H-M   'P 1'
_cell_length_a   5.86867628
_cell_length_b   11.68459800
_cell_length_c   6.47914491
_cell_angle_alpha   90.00000000
_cell_angle_beta   118.48321932
_cell_angle_gamma   90.00000000
_symmetry_Int_Tables_number   1
_chemical_formula_structural   Bi(MoO5)2
_chemical_formula_sum   'Bi2 Mo4 O20'
_cell_volume   390.51629908
_cell_formula_units_Z   2
loop_
 _symmetry_equiv_pos_site_id
 _symmetry_equiv_pos_as_xyz
  1  'x, y, z'
loop_
 _atom_site_type_symbol
 _atom_site_label
 _atom_site_symmetry_multiplicity
 _atom_site_fract_x
 _atom_site_fract_y
 _atom_site_fract_z
 _atom_site_occupancy
  Bi  Bi0  1  0.40385200  0.25000000  0.65621400  1
  Bi  Bi1  1  0.59614800  0.75000000  0.34378600  1
  Mo  Mo2  1  0.62024500  0.40477600  0.20663100  1
  Mo  Mo3  1  0.37975500  0.90477600  0.79336900  1
  Mo  Mo4  1  0.37975500  0.59522400  0.79336900  1
  Mo  Mo5  1  0.62024500  0.09522400  0.20663100  1
  O  O6  1  0.97071000  0.25000000  0.93979800  1
  O  O7  1  0.02929000  0.75000000  0.06020200  1
  O  O8  1  0.53354000  0.25000000  0.05689200  1
  O  O9  1  0.46646000  0.75000000  0.94310800  1
  O  O10  1  0.38107300  0.43229400  0.84135200  1
  O  O11  1  0.61892700  0.93229400  0.15864800  1
  O  O12  1  0.61892700  0.56770600  0.15864800  1
  O  O13  1  0.38107300  0.06770600  0.84135200  1
  O  O14  1  0.82143500  0.34609000  0.85790200  1
  O  O15  1  0.17856500  0.84609000  0.14209800  1
  O  O16  1  0.17856500  0.65391000  0.14209800  1
  O  O17  1  0.82143500  0.15391000  0.85790200  1
  O  O18  1  0.46632100  0.38526800  0.37861600  1
  O  O19  1  0.53367900  0.88526800  0.62138400  1
  O  O20  1  0.53367900  0.61473200  0.62138400  1
  O  O21  1  0.46632100  0.11473200  0.37861600  1
  O  O22  1  0.94698400  0.37490100  0.38646700  1
  O  O23  1  0.05301600  0.87490100  0.61353300  1
  O  O24  1  0.05301600  0.62509900  0.61353300  1
  O  O25  1  0.94698400  0.12509900  0.38646700  1
