# generated using pymatgen
data_BaO6
_symmetry_space_group_name_H-M   'P 1'
_cell_length_a   5.68570989
_cell_length_b   5.68570989
_cell_length_c   8.04637286
_cell_angle_alpha   87.80185725
_cell_angle_beta   87.80185725
_cell_angle_gamma   67.81044444
_symmetry_Int_Tables_number   1
_chemical_formula_structural   BaO6
_chemical_formula_sum   'Ba2 O12'
_cell_volume   240.59570879
_cell_formula_units_Z   2
loop_
 _symmetry_equiv_pos_site_id
 _symmetry_equiv_pos_as_xyz
  1  'x, y, z'
loop_
 _atom_site_type_symbol
 _atom_site_label
 _atom_site_symmetry_multiplicity
 _atom_site_fract_x
 _atom_site_fract_y
 _atom_site_fract_z
 _atom_site_occupancy
  Ba  Ba0  1  0.22703200  0.77296800  0.75000000  1
  Ba  Ba1  1  0.77296800  0.22703200  0.25000000  1
  O  O2  1  0.78992500  0.88012700  0.53461100  1
  O  O3  1  0.11987300  0.21007500  0.96538900  1
  O  O4  1  0.21007500  0.11987300  0.46538900  1
  O  O5  1  0.88012700  0.78992500  0.03461100  1
  O  O6  1  0.66164000  0.94949700  0.67247200  1
  O  O7  1  0.05050300  0.33836000  0.82752800  1
  O  O8  1  0.33836000  0.05050300  0.32752800  1
  O  O9  1  0.94949700  0.66164000  0.17247200  1
  O  O10  1  0.60550800  0.48184300  0.54249300  1
  O  O11  1  0.51815800  0.39449200  0.95750700  1
  O  O12  1  0.39449200  0.51815800  0.45750700  1
  O  O13  1  0.48184200  0.60550800  0.04249300  1
