# generated using pymatgen
data_Hf2P2O9
_symmetry_space_group_name_H-M   'P 1'
_cell_length_a   5.48797928
_cell_length_b   5.48797928
_cell_length_c   11.89418800
_cell_angle_alpha   90.00000000
_cell_angle_beta   90.00000000
_cell_angle_gamma   105.24191785
_symmetry_Int_Tables_number   1
_chemical_formula_structural   Hf2P2O9
_chemical_formula_sum   'Hf4 P4 O18'
_cell_volume   345.62727740
_cell_formula_units_Z   2
loop_
 _symmetry_equiv_pos_site_id
 _symmetry_equiv_pos_as_xyz
  1  'x, y, z'
loop_
 _atom_site_type_symbol
 _atom_site_label
 _atom_site_symmetry_multiplicity
 _atom_site_fract_x
 _atom_site_fract_y
 _atom_site_fract_z
 _atom_site_occupancy
  Hf  Hf0  1  0.20591100  0.79408900  0.56157700  1
  Hf  Hf1  1  0.79408900  0.20591100  0.43842300  1
  Hf  Hf2  1  0.29408900  0.70591100  0.06157700  1
  Hf  Hf3  1  0.70591100  0.29408900  0.93842300  1
  P  P4  1  0.10591300  0.89408700  0.85286500  1
  P  P5  1  0.89408700  0.10591300  0.14713500  1
  P  P6  1  0.39408700  0.60591300  0.35286500  1
  P  P7  1  0.60591300  0.39408700  0.64713500  1
  O  O8  1  0.63425000  0.01402500  0.08320600  1
  O  O9  1  0.13425000  0.51402500  0.41679400  1
  O  O10  1  0.51402500  0.13425000  0.58320600  1
  O  O11  1  0.01402500  0.63425000  0.91679400  1
  O  O12  1  0.50000000  0.50000000  0.00000000  1
  O  O13  1  0.85882100  0.14117900  0.27183300  1
  O  O14  1  0.64117900  0.35882100  0.77183300  1
  O  O15  1  0.00000000  0.00000000  0.50000000  1
  O  O16  1  0.56507000  0.43493000  0.37528200  1
  O  O17  1  0.93493000  0.06507000  0.87528200  1
  O  O18  1  0.43493000  0.56507000  0.62471800  1
  O  O19  1  0.06507000  0.93493000  0.12471800  1
  O  O20  1  0.14117900  0.85882100  0.72816700  1
  O  O21  1  0.35882100  0.64117900  0.22816700  1
  O  O22  1  0.48597500  0.86575000  0.41679400  1
  O  O23  1  0.36575000  0.98597500  0.91679400  1
  O  O24  1  0.98597500  0.36575000  0.08320600  1
  O  O25  1  0.86575000  0.48597500  0.58320600  1
