# generated using pymatgen
data_Bi3O5
_symmetry_space_group_name_H-M   'P 1'
_cell_length_a   6.72979664
_cell_length_b   6.72979664
_cell_length_c   8.30862702
_cell_angle_alpha   71.21979172
_cell_angle_beta   71.21979172
_cell_angle_gamma   50.36880005
_symmetry_Int_Tables_number   1
_chemical_formula_structural   Bi3O5
_chemical_formula_sum   'Bi6 O10'
_cell_volume   270.85290715
_cell_formula_units_Z   2
loop_
 _symmetry_equiv_pos_site_id
 _symmetry_equiv_pos_as_xyz
  1  'x, y, z'
loop_
 _atom_site_type_symbol
 _atom_site_label
 _atom_site_symmetry_multiplicity
 _atom_site_fract_x
 _atom_site_fract_y
 _atom_site_fract_z
 _atom_site_occupancy
  Bi  Bi0  1  0.68090000  0.68851000  0.15826700  1
  Bi  Bi1  1  0.68851000  0.68090000  0.65826700  1
  Bi  Bi2  1  0.00000000  0.00000000  0.00000000  1
  Bi  Bi3  1  0.00000000  0.00000000  0.50000000  1
  Bi  Bi4  1  0.31910000  0.31149000  0.84173300  1
  Bi  Bi5  1  0.31149000  0.31910000  0.34173300  1
  O  O6  1  0.91121600  0.41383600  0.88863900  1
  O  O7  1  0.92063600  0.39439100  0.45137900  1
  O  O8  1  0.39439100  0.92063600  0.95137900  1
  O  O9  1  0.41383600  0.91121600  0.38863900  1
  O  O10  1  0.60560900  0.07936400  0.04862100  1
  O  O11  1  0.89105300  0.10894700  0.25000000  1
  O  O12  1  0.58616400  0.08878400  0.61136100  1
  O  O13  1  0.10894700  0.89105300  0.75000000  1
  O  O14  1  0.07936400  0.60560900  0.54862100  1
  O  O15  1  0.08878400  0.58616400  0.11136100  1
