# generated using pymatgen
data_Bi3O4F
_symmetry_space_group_name_H-M   'P 1'
_cell_length_a   9.23033185
_cell_length_b   9.23033185
_cell_length_c   5.83210803
_cell_angle_alpha   81.62377079
_cell_angle_beta   81.62377079
_cell_angle_gamma   36.68697191
_symmetry_Int_Tables_number   1
_chemical_formula_structural   Bi3O4F
_chemical_formula_sum   'Bi6 O8 F2'
_cell_volume   293.34642662
_cell_formula_units_Z   2
loop_
 _symmetry_equiv_pos_site_id
 _symmetry_equiv_pos_as_xyz
  1  'x, y, z'
loop_
 _atom_site_type_symbol
 _atom_site_label
 _atom_site_symmetry_multiplicity
 _atom_site_fract_x
 _atom_site_fract_y
 _atom_site_fract_z
 _atom_site_occupancy
  Bi  Bi0  1  0.36028300  0.95159900  0.47340200  1
  Bi  Bi1  1  0.70378900  0.29621100  0.50000000  1
  Bi  Bi2  1  0.94499500  0.36637300  0.97207900  1
  Bi  Bi3  1  0.29155800  0.70844200  0.00000000  1
  Bi  Bi4  1  0.04840100  0.63971700  0.52659800  1
  Bi  Bi5  1  0.63362700  0.05500500  0.02792100  1
  O  O6  1  0.50400500  0.64084100  0.65247700  1
  O  O7  1  0.15316800  0.04832100  0.19127200  1
  O  O8  1  0.95167900  0.84683200  0.80872800  1
  O  O9  1  0.63700800  0.50726600  0.15343800  1
  O  O10  1  0.35915900  0.49599500  0.34752300  1
  O  O11  1  0.04480200  0.15413700  0.69437600  1
  O  O12  1  0.84586300  0.95519800  0.30562400  1
  O  O13  1  0.49273400  0.36299200  0.84656200  1
  F  F14  1  0.00650300  0.49453500  0.24905900  1
  F  F15  1  0.50546500  0.99349700  0.75094100  1
