# generated using pymatgen
data_Ta2MnO6
_symmetry_space_group_name_H-M   'P 1'
_cell_length_a   4.83343800
_cell_length_b   10.55222817
_cell_length_c   9.66739300
_cell_angle_alpha   62.74010879
_cell_angle_beta   90.00007112
_cell_angle_gamma   89.99996839
_symmetry_Int_Tables_number   1
_chemical_formula_structural   Ta2MnO6
_chemical_formula_sum   'Ta8 Mn4 O24'
_cell_volume   438.30983154
_cell_formula_units_Z   4
loop_
 _symmetry_equiv_pos_site_id
 _symmetry_equiv_pos_as_xyz
  1  'x, y, z'
loop_
 _atom_site_type_symbol
 _atom_site_label
 _atom_site_symmetry_multiplicity
 _atom_site_fract_x
 _atom_site_fract_y
 _atom_site_fract_z
 _atom_site_occupancy
  Ta  Ta0  1  0.99999500  0.00124400  0.49937600  1
  Ta  Ta1  1  0.99999400  0.00124900  0.99937500  1
  Ta  Ta2  1  0.00000700  0.66539300  0.16730000  1
  Ta  Ta3  1  0.00000900  0.66538900  0.66730000  1
  Ta  Ta4  1  0.49999200  0.16539000  0.16729900  1
  Ta  Ta5  1  0.49999300  0.16539500  0.66729900  1
  Ta  Ta6  1  0.50000400  0.50124200  0.99937800  1
  Ta  Ta7  1  0.50000500  0.50124700  0.49937700  1
  Mn  Mn8  1  0.99998100  0.33331200  0.33335000  1
  Mn  Mn9  1  0.50002100  0.83329600  0.83332900  1
  Mn  Mn10  1  0.99999800  0.33329200  0.83334300  1
  Mn  Mn11  1  0.50001300  0.83330200  0.33334600  1
  O  O12  1  0.18442600  0.83334100  0.67553500  1
  O  O13  1  0.18443800  0.83334200  0.17554700  1
  O  O14  1  0.31557100  0.33334200  0.17553500  1
  O  O15  1  0.31556000  0.33334200  0.67554700  1
  O  O16  1  0.68443800  0.33334100  0.99111500  1
  O  O17  1  0.68442600  0.33334200  0.49112500  1
  O  O18  1  0.81557200  0.83334100  0.99112600  1
  O  O19  1  0.81556400  0.83334200  0.49111500  1
  O  O20  1  0.20733400  0.15099000  0.02818200  1
  O  O21  1  0.20734200  0.15098400  0.52818900  1
  O  O22  1  0.20735800  0.51569300  0.84583400  1
  O  O23  1  0.20736200  0.51570200  0.34583500  1
  O  O24  1  0.29264100  0.01569300  0.34583400  1
  O  O25  1  0.29263700  0.01570200  0.84583500  1
  O  O26  1  0.29265600  0.65098300  0.02819000  1
  O  O27  1  0.29266300  0.65098900  0.52818300  1
  O  O28  1  0.70734100  0.65098600  0.82083900  1
  O  O29  1  0.70733600  0.65099400  0.32083900  1
  O  O30  1  0.70736400  0.01570100  0.13846600  1
  O  O31  1  0.70737600  0.01570500  0.63845800  1
  O  O32  1  0.79262600  0.51570700  0.13845900  1
  O  O33  1  0.79263400  0.51570200  0.63846400  1
  O  O34  1  0.79265900  0.15098700  0.32083800  1
  O  O35  1  0.79266400  0.15099500  0.82084000  1
