# generated using pymatgen
data_Cr4OF6
_symmetry_space_group_name_H-M   'P 1'
_cell_length_a   7.22125900
_cell_length_b   7.22125900
_cell_length_c   5.32049000
_cell_angle_alpha   90.00000000
_cell_angle_beta   90.00000000
_cell_angle_gamma   90.00000000
_symmetry_Int_Tables_number   1
_chemical_formula_structural   Cr4OF6
_chemical_formula_sum   'Cr8 O2 F12'
_cell_volume   277.44536564
_cell_formula_units_Z   2
loop_
 _symmetry_equiv_pos_site_id
 _symmetry_equiv_pos_as_xyz
  1  'x, y, z'
loop_
 _atom_site_type_symbol
 _atom_site_label
 _atom_site_symmetry_multiplicity
 _atom_site_fract_x
 _atom_site_fract_y
 _atom_site_fract_z
 _atom_site_occupancy
  Cr  Cr0  1  0.00000000  0.24796300  0.31314500  1
  Cr  Cr1  1  0.74796300  0.50000000  0.81314500  1
  Cr  Cr2  1  0.25203700  0.50000000  0.81314500  1
  Cr  Cr3  1  0.00000000  0.75203700  0.31314500  1
  Cr  Cr4  1  0.50000000  0.74796300  0.18685500  1
  Cr  Cr5  1  0.24796300  0.00000000  0.68685500  1
  Cr  Cr6  1  0.75203700  0.00000000  0.68685500  1
  Cr  Cr7  1  0.50000000  0.25203700  0.18685500  1
  O  O8  1  0.50000000  0.50000000  0.00000000  1
  O  O9  1  0.00000000  0.00000000  0.50000000  1
  F  F10  1  0.71606400  0.28393600  0.50000000  1
  F  F11  1  0.28393600  0.28393600  0.50000000  1
  F  F12  1  0.00000000  0.50000000  0.65164200  1
  F  F13  1  0.00000000  0.50000000  0.15164200  1
  F  F14  1  0.28393600  0.71606400  0.50000000  1
  F  F15  1  0.71606400  0.71606400  0.50000000  1
  F  F16  1  0.78393600  0.78393600  0.00000000  1
  F  F17  1  0.21606400  0.78393600  0.00000000  1
  F  F18  1  0.50000000  0.00000000  0.84835800  1
  F  F19  1  0.50000000  0.00000000  0.34835800  1
  F  F20  1  0.78393600  0.21606400  0.00000000  1
  F  F21  1  0.21606400  0.21606400  0.00000000  1
