# generated using pymatgen
data_Nb4VO12
_symmetry_space_group_name_H-M   'P 1'
_cell_length_a   7.65242834
_cell_length_b   9.20406841
_cell_length_c   7.69661956
_cell_angle_alpha   113.30749865
_cell_angle_beta   95.03286645
_cell_angle_gamma   66.35707744
_symmetry_Int_Tables_number   1
_chemical_formula_structural   Nb4VO12
_chemical_formula_sum   'Nb8 V2 O24'
_cell_volume   454.44753785
_cell_formula_units_Z   2
loop_
 _symmetry_equiv_pos_site_id
 _symmetry_equiv_pos_as_xyz
  1  'x, y, z'
loop_
 _atom_site_type_symbol
 _atom_site_label
 _atom_site_symmetry_multiplicity
 _atom_site_fract_x
 _atom_site_fract_y
 _atom_site_fract_z
 _atom_site_occupancy
  Nb  Nb0  1  0.01750600  0.98088900  0.00485300  1
  Nb  Nb1  1  0.51755800  0.98087700  0.50486100  1
  Nb  Nb2  1  0.25400000  0.50980300  0.23810100  1
  Nb  Nb3  1  0.75398800  0.50984900  0.73813500  1
  Nb  Nb4  1  0.74215500  0.50025100  0.24882800  1
  Nb  Nb5  1  0.24218000  0.50025500  0.74886000  1
  Nb  Nb6  1  0.02023300  0.98203000  0.49640700  1
  Nb  Nb7  1  0.52023500  0.98202200  0.99640500  1
  V  V8  1  0.55114400  0.28103600  0.43388900  1
  V  V9  1  0.05123400  0.28102800  0.93395400  1
  O  O10  1  0.55030500  0.42267600  0.71122500  1
  O  O11  1  0.05028900  0.42264700  0.21124200  1
  O  O12  1  0.20704100  0.72773500  0.90185900  1
  O  O13  1  0.70704800  0.72771600  0.40184500  1
  O  O14  1  0.05556200  0.03757500  0.25668100  1
  O  O15  1  0.55557700  0.03759700  0.75668800  1
  O  O16  1  0.23257300  0.40622100  0.93502400  1
  O  O17  1  0.73252500  0.40627500  0.43502900  1
  O  O18  1  0.29706000  0.94162900  0.50688000  1
  O  O19  1  0.79705700  0.94159100  0.00683900  1
  O  O20  1  0.08912200  0.74033900  0.30599700  1
  O  O21  1  0.58901800  0.74045400  0.80603400  1
  O  O22  1  0.98189000  0.24017600  0.69285200  1
  O  O23  1  0.48188800  0.24015600  0.19271800  1
  O  O24  1  0.73995600  0.07459700  0.45229900  1
  O  O25  1  0.23996400  0.07459700  0.95228300  1
  O  O26  1  0.80678900  0.51501300  0.98811400  1
  O  O27  1  0.30680700  0.51500300  0.48810000  1
  O  O28  1  0.00253500  0.93417400  0.70068600  1
  O  O29  1  0.50252500  0.93418500  0.20068300  1
  O  O30  1  0.87218300  0.23214000  0.03466500  1
  O  O31  1  0.37217600  0.23212900  0.53471100  1
  O  O32  1  0.49098400  0.53296900  0.18058400  1
  O  O33  1  0.99099600  0.53295900  0.68056100  1
