# generated using pymatgen
data_Mn4OF8
_symmetry_space_group_name_H-M   'P 1'
_cell_length_a   5.48593384
_cell_length_b   5.48593384
_cell_length_c   15.01527800
_cell_angle_alpha   87.36286180
_cell_angle_beta   87.36286180
_cell_angle_gamma   59.17519966
_symmetry_Int_Tables_number   1
_chemical_formula_structural   Mn4OF8
_chemical_formula_sum   'Mn8 O2 F16'
_cell_volume   387.51323174
_cell_formula_units_Z   2
loop_
 _symmetry_equiv_pos_site_id
 _symmetry_equiv_pos_as_xyz
  1  'x, y, z'
loop_
 _atom_site_type_symbol
 _atom_site_label
 _atom_site_symmetry_multiplicity
 _atom_site_fract_x
 _atom_site_fract_y
 _atom_site_fract_z
 _atom_site_occupancy
  Mn  Mn0  1  0.29799500  0.35806600  0.53341500  1
  Mn  Mn1  1  0.66796100  0.68415500  0.17832600  1
  Mn  Mn2  1  0.35806600  0.29799500  0.03341500  1
  Mn  Mn3  1  0.66657000  0.65750800  0.98614800  1
  Mn  Mn4  1  0.65750800  0.66657000  0.48614800  1
  Mn  Mn5  1  0.32385300  0.34555200  0.31959100  1
  Mn  Mn6  1  0.34555200  0.32385300  0.81959100  1
  Mn  Mn7  1  0.68415500  0.66796100  0.67832600  1
  O  O8  1  0.44218500  0.90889400  0.07888000  1
  O  O9  1  0.90889400  0.44218500  0.57888000  1
  F  F10  1  0.36167500  0.68532300  0.57331500  1
  F  F11  1  0.01695800  0.38521200  0.92342400  1
  F  F12  1  0.41896300  0.96109700  0.75416800  1
  F  F13  1  0.68532300  0.36167500  0.07331500  1
  F  F14  1  0.38521200  0.01695800  0.42342400  1
  F  F15  1  0.00002600  0.60195600  0.41990100  1
  F  F16  1  0.02463400  0.60649800  0.74149300  1
  F  F17  1  0.96109700  0.41896300  0.25416800  1
  F  F18  1  0.37829100  0.63378400  0.24176100  1
  F  F19  1  0.38700700  0.56207700  0.92742700  1
  F  F20  1  0.61649500  0.98854700  0.58750500  1
  F  F21  1  0.60195600  0.00002600  0.91990100  1
  F  F22  1  0.60649800  0.02463400  0.24149300  1
  F  F23  1  0.56207700  0.38700700  0.42742700  1
  F  F24  1  0.98854700  0.61649500  0.08750500  1
  F  F25  1  0.63378400  0.37829100  0.74176100  1
