# generated using pymatgen
data_LiVP2HO7
_symmetry_space_group_name_H-M   'P 1'
_cell_length_a   6.54231584
_cell_length_b   6.61277513
_cell_length_c   12.55739914
_cell_angle_alpha   98.33095517
_cell_angle_beta   87.62972523
_cell_angle_gamma   96.41402047
_symmetry_Int_Tables_number   1
_chemical_formula_structural   LiVP2HO7
_chemical_formula_sum   'Li4 V4 P8 H4 O28'
_cell_volume   533.99656804
_cell_formula_units_Z   4
loop_
 _symmetry_equiv_pos_site_id
 _symmetry_equiv_pos_as_xyz
  1  'x, y, z'
loop_
 _atom_site_type_symbol
 _atom_site_label
 _atom_site_symmetry_multiplicity
 _atom_site_fract_x
 _atom_site_fract_y
 _atom_site_fract_z
 _atom_site_occupancy
  Li  Li0  1  0.11974400  0.68699700  0.42530200  1
  Li  Li1  1  0.11973200  0.18697800  0.92531200  1
  Li  Li2  1  0.88030900  0.81299000  0.07472500  1
  Li  Li3  1  0.88014300  0.31296400  0.57467600  1
  V  V4  1  0.35077900  0.73916800  0.64120300  1
  V  V5  1  0.64931900  0.26088100  0.35878700  1
  V  V6  1  0.35057900  0.23915500  0.14120100  1
  V  V7  1  0.64964100  0.76087900  0.85875100  1
  P  P8  1  0.15465300  0.15646000  0.38304500  1
  P  P9  1  0.15487900  0.65642300  0.88305800  1
  P  P10  1  0.84521300  0.34354300  0.11695200  1
  P  P11  1  0.84530400  0.84355800  0.61693500  1
  P  P12  1  0.39036200  0.72861700  0.08998100  1
  P  P13  1  0.39028500  0.22867800  0.58994300  1
  P  P14  1  0.60963100  0.77139000  0.41003400  1
  P  P15  1  0.60965400  0.27131900  0.91004300  1
  H  H16  1  0.17228300  0.90532900  0.24888300  1
  H  H17  1  0.17234500  0.40534900  0.74887000  1
  H  H18  1  0.82763000  0.59467100  0.25111700  1
  H  H19  1  0.82766800  0.09464000  0.75113200  1
  O  O20  1  0.09450900  0.92999600  0.32463300  1
  O  O21  1  0.09464100  0.42998300  0.82463800  1
  O  O22  1  0.90539700  0.56999600  0.17536700  1
  O  O23  1  0.90539000  0.07002300  0.67537200  1
  O  O24  1  0.02991300  0.22275900  0.08891400  1
  O  O25  1  0.03003600  0.72285800  0.58888300  1
  O  O26  1  0.96993300  0.27717700  0.41109700  1
  O  O27  1  0.97020100  0.77723700  0.91110400  1
  O  O28  1  0.23761300  0.11041300  0.49308500  1
  O  O29  1  0.23780600  0.61029800  0.99308300  1
  O  O30  1  0.76226500  0.38963500  0.00692600  1
  O  O31  1  0.76224700  0.88962200  0.50693100  1
  O  O32  1  0.27166100  0.90915800  0.14249200  1
  O  O33  1  0.27171800  0.40926900  0.64248300  1
  O  O34  1  0.72823300  0.59082900  0.35750500  1
  O  O35  1  0.72831900  0.09075100  0.85754100  1
  O  O36  1  0.32438800  0.26618300  0.31872300  1
  O  O37  1  0.32465600  0.76606400  0.81873500  1
  O  O38  1  0.67542900  0.23388900  0.18127300  1
  O  O39  1  0.67557500  0.73383300  0.68126300  1
  O  O40  1  0.40192300  0.56641800  0.16124900  1
  O  O41  1  0.40202300  0.06646000  0.66118300  1
  O  O42  1  0.59795300  0.93367600  0.33879200  1
  O  O43  1  0.59803200  0.43351600  0.83877900  1
  O  O44  1  0.40894300  0.69843400  0.46665400  1
  O  O45  1  0.40892900  0.19836300  0.96666700  1
  O  O46  1  0.59111600  0.80154700  0.03337000  1
  O  O47  1  0.59099500  0.30161400  0.53330800  1
