# generated using pymatgen
data_VOF2
_symmetry_space_group_name_H-M   'P 1'
_cell_length_a   5.17174500
_cell_length_b   5.19499897
_cell_length_c   9.35071710
_cell_angle_alpha   89.21604663
_cell_angle_beta   106.00113504
_cell_angle_gamma   119.18429098
_symmetry_Int_Tables_number   1
_chemical_formula_structural   VOF2
_chemical_formula_sum   'V4 O4 F8'
_cell_volume   208.64469722
_cell_formula_units_Z   4
loop_
 _symmetry_equiv_pos_site_id
 _symmetry_equiv_pos_as_xyz
  1  'x, y, z'
loop_
 _atom_site_type_symbol
 _atom_site_label
 _atom_site_symmetry_multiplicity
 _atom_site_fract_x
 _atom_site_fract_y
 _atom_site_fract_z
 _atom_site_occupancy
  V  V0  1  0.00000000  0.00000000  0.00000000  1
  V  V1  1  0.55407200  0.26605900  0.75030800  1
  V  V2  1  0.00000000  0.50000000  0.50000000  1
  V  V3  1  0.44592800  0.73394100  0.24969200  1
  O  O4  1  0.82655000  0.20893100  0.87077500  1
  O  O5  1  0.25551900  0.54859500  0.37227600  1
  O  O6  1  0.74448100  0.45140500  0.62772400  1
  O  O7  1  0.17345000  0.79106900  0.12922500  1
  F  F8  1  0.16574600  0.27734500  0.62746400  1
  F  F9  1  0.35846400  0.39060100  0.12876700  1
  F  F10  1  0.64507700  0.11650000  0.36976300  1
  F  F11  1  0.24934800  0.03267900  0.87005300  1
  F  F12  1  0.75065200  0.96732100  0.12994700  1
  F  F13  1  0.35492300  0.88350000  0.63023700  1
  F  F14  1  0.64153600  0.60939900  0.87123300  1
  F  F15  1  0.83425400  0.72265500  0.37253600  1
