# generated using pymatgen
data_BaGaCu3Se4
_symmetry_space_group_name_H-M   'P 1'
_cell_length_a   6.22956600
_cell_length_b   6.22956600
_cell_length_c   6.22956600
_cell_angle_alpha   90.00000000
_cell_angle_beta   90.00000000
_cell_angle_gamma   90.00000000
_symmetry_Int_Tables_number   1
_chemical_formula_structural   BaGaCu3Se4
_chemical_formula_sum   'Ba1 Ga1 Cu3 Se4'
_cell_volume   241.75383612
_cell_formula_units_Z   1
loop_
 _symmetry_equiv_pos_site_id
 _symmetry_equiv_pos_as_xyz
  1  'x, y, z'
loop_
 _atom_site_type_symbol
 _atom_site_label
 _atom_site_symmetry_multiplicity
 _atom_site_fract_x
 _atom_site_fract_y
 _atom_site_fract_z
 _atom_site_occupancy
  Ba  Ba0  1  0.50000000  0.50000000  0.50000000  1
  Ga  Ga1  1  0.00000000  0.00000000  0.00000000  1
  Cu  Cu2  1  0.00000000  0.50000000  0.00000000  1
  Cu  Cu3  1  0.00000000  0.00000000  0.50000000  1
  Cu  Cu4  1  0.50000000  0.00000000  0.00000000  1
  Se  Se5  1  0.21999100  0.21999100  0.21999100  1
  Se  Se6  1  0.78000900  0.78000900  0.21999100  1
  Se  Se7  1  0.21999100  0.78000900  0.78000900  1
  Se  Se8  1  0.78000900  0.21999100  0.78000900  1
