# generated using pymatgen
data_Fe3O4
_symmetry_space_group_name_H-M   'P 1'
_cell_length_a   6.09223064
_cell_length_b   6.09147707
_cell_length_c   16.97859921
_cell_angle_alpha   90.09081534
_cell_angle_beta   89.84056848
_cell_angle_gamma   90.20343457
_symmetry_Int_Tables_number   1
_chemical_formula_structural   Fe3O4
_chemical_formula_sum   'Fe24 O32'
_cell_volume   630.08022461
_cell_formula_units_Z   8
loop_
 _symmetry_equiv_pos_site_id
 _symmetry_equiv_pos_as_xyz
  1  'x, y, z'
loop_
 _atom_site_type_symbol
 _atom_site_label
 _atom_site_symmetry_multiplicity
 _atom_site_fract_x
 _atom_site_fract_y
 _atom_site_fract_z
 _atom_site_occupancy
  Fe  Fe0  1  0.50023185  0.75263316  0.50338260  1
  Fe  Fe1  1  0.50484734  0.75261400  0.00456796  1
  Fe  Fe2  1  0.99741207  0.74894292  0.75721808  1
  Fe  Fe3  1  0.49818408  0.00031381  0.69365175  1
  Fe  Fe4  1  0.74832660  0.99910528  0.87708922  1
  Fe  Fe5  1  0.25178576  0.49350933  0.13171500  1
  Fe  Fe6  1  0.99553542  0.75709888  0.25274490  1
  Fe  Fe7  1  0.75558245  0.00473982  0.37665812  1
  Fe  Fe8  1  0.24706373  0.99973191  0.88120532  1
  Fe  Fe9  1  0.24420639  0.00430215  0.37583831  1
  Fe  Fe10  1  0.99814496  0.00105605  0.56923335  1
  Fe  Fe11  1  0.49369522  0.50011283  0.81738700  1
  Fe  Fe12  1  0.50155278  0.99669302  0.19083314  1
  Fe  Fe13  1  0.24482491  0.50245131  0.63034487  1
  Fe  Fe14  1  0.50118258  0.50308636  0.31405224  1
  Fe  Fe15  1  0.00015153  0.50065277  0.44416429  1
  Fe  Fe16  1  0.49822136  0.24948491  0.50400303  1
  Fe  Fe17  1  0.50606733  0.24582513  0.00492925  1
  Fe  Fe18  1  0.00644868  0.49836495  0.94481469  1
  Fe  Fe19  1  0.75156078  0.49742584  0.12942176  1
  Fe  Fe20  1  0.99892482  0.25312502  0.25395115  1
  Fe  Fe21  1  0.99845545  0.25101039  0.75681215  1
  Fe  Fe22  1  0.75244704  0.50114599  0.63135382  1
  Fe  Fe23  1  0.99501805  0.99745726  0.07099667  1
  O  O24  1  0.49088734  0.24185880  0.88477810  1
  O  O25  1  0.27240172  0.49657319  0.00996553  1
  O  O26  1  0.27454240  0.00047671  0.49638143  1
  O  O27  1  0.49714792  0.26422339  0.62504105  1
  O  O28  1  0.49991211  0.76624924  0.38002114  1
  O  O29  1  0.24583180  0.50254632  0.74878270  1
  O  O30  1  0.99097521  0.28575306  0.13185670  1
  O  O31  1  0.72236215  0.00024091  0.00115465  1
  O  O32  1  0.77070703  0.99534341  0.25819737  1
  O  O33  1  0.75217173  0.99741105  0.75618948  1
  O  O34  1  0.01614698  0.75732576  0.88309788  1
  O  O35  1  0.27939691  0.50208920  0.50923478  1
  O  O36  1  0.49878128  0.73677390  0.62482417  1
  O  O37  1  0.27824040  0.99736750  0.00134447  1
  O  O38  1  0.24048641  0.50401479  0.25101145  1
  O  O39  1  0.51020581  0.71718005  0.12388921  1
  O  O40  1  0.49206244  0.75362704  0.88588930  1
  O  O41  1  0.99949253  0.22537097  0.37542200  1
  O  O42  1  0.71944174  0.49960182  0.50963884  1
  O  O43  1  0.24881196  0.99932878  0.76180162  1
  O  O44  1  0.00032500  0.77504703  0.37326422  1
  O  O45  1  0.50535743  0.27598482  0.12432337  1
  O  O46  1  0.74705159  0.49992727  0.75032529  1
  O  O47  1  0.72329394  0.00149825  0.49683462  1
  O  O48  1  0.50002615  0.23767016  0.37952540  1
  O  O49  1  0.73734625  0.49697077  0.01008097  1
  O  O50  1  0.99741599  0.71695917  0.13474150  1
  O  O51  1  0.76005573  0.50529487  0.24806631  1
  O  O52  1  0.99896575  0.28026731  0.63026129  1
  O  O53  1  0.22771671  0.99490133  0.25664766  1
  O  O54  1  0.99826516  0.72286055  0.62922897  1
  O  O55  1  0.01430222  0.23838250  0.88180891  1
