# generated using pymatgen
data_CrOF
_symmetry_space_group_name_H-M   'P 1'
_cell_length_a   4.60051900
_cell_length_b   5.62605387
_cell_length_c   5.12339570
_cell_angle_alpha   91.46634025
_cell_angle_beta   90.00010820
_cell_angle_gamma   90.00007320
_symmetry_Int_Tables_number   1
_chemical_formula_structural   CrOF
_chemical_formula_sum   'Cr4 O4 F4'
_cell_volume   132.56423577
_cell_formula_units_Z   4
loop_
 _symmetry_equiv_pos_site_id
 _symmetry_equiv_pos_as_xyz
  1  'x, y, z'
loop_
 _atom_site_type_symbol
 _atom_site_label
 _atom_site_symmetry_multiplicity
 _atom_site_fract_x
 _atom_site_fract_y
 _atom_site_fract_z
 _atom_site_occupancy
  Cr  Cr0  1  0.98400100  0.14897300  0.27452400  1
  Cr  Cr1  1  0.48400100  0.35102700  0.72548100  1
  Cr  Cr2  1  0.51598900  0.64898000  0.27457700  1
  Cr  Cr3  1  0.01599000  0.85102100  0.72541500  1
  O  O4  1  0.77608300  0.88542100  0.41943900  1
  O  O5  1  0.72391200  0.38542100  0.41944500  1
  O  O6  1  0.27608400  0.61457900  0.58056000  1
  O  O7  1  0.22391100  0.11458000  0.58055700  1
  F  F8  1  0.24107900  0.88750200  0.07916300  1
  F  F9  1  0.25893600  0.38748500  0.07916400  1
  F  F10  1  0.74108000  0.61249700  0.92083700  1
  F  F11  1  0.75893400  0.11251500  0.92083800  1
