# generated using pymatgen
data_WOF4
_symmetry_space_group_name_H-M   'P 1'
_cell_length_a   5.25778500
_cell_length_b   6.14154656
_cell_length_c   6.43487009
_cell_angle_alpha   102.42066106
_cell_angle_beta   93.00685585
_cell_angle_gamma   98.96270589
_symmetry_Int_Tables_number   1
_chemical_formula_structural   WOF4
_chemical_formula_sum   'W2 O2 F8'
_cell_volume   199.64944149
_cell_formula_units_Z   2
loop_
 _symmetry_equiv_pos_site_id
 _symmetry_equiv_pos_as_xyz
  1  'x, y, z'
loop_
 _atom_site_type_symbol
 _atom_site_label
 _atom_site_symmetry_multiplicity
 _atom_site_fract_x
 _atom_site_fract_y
 _atom_site_fract_z
 _atom_site_occupancy
  W  W0  1  0.86521500  0.25739600  0.78535200  1
  W  W1  1  0.13478500  0.74260400  0.21464800  1
  O  O2  1  0.65857800  0.00451100  0.73969700  1
  O  O3  1  0.34142200  0.99548900  0.26030300  1
  F  F4  1  0.17805600  0.16483900  0.86277800  1
  F  F5  1  0.14524800  0.62304600  0.90514100  1
  F  F6  1  0.63173700  0.45352900  0.74588200  1
  F  F7  1  0.98143500  0.26269500  0.51392000  1
  F  F8  1  0.01856500  0.73730500  0.48608000  1
  F  F9  1  0.36826300  0.54647100  0.25411800  1
  F  F10  1  0.85475300  0.37695400  0.09485900  1
  F  F11  1  0.82194400  0.83516100  0.13722200  1
