# generated using pymatgen
data_Cu3P
_symmetry_space_group_name_H-M   'P 1'
_cell_length_a   4.05478627
_cell_length_b   4.05478627
_cell_length_c   7.15122400
_cell_angle_alpha   90.00000000
_cell_angle_beta   90.00000000
_cell_angle_gamma   120.00000448
_symmetry_Int_Tables_number   1
_chemical_formula_structural   Cu3P
_chemical_formula_sum   'Cu6 P2'
_cell_volume   101.82324405
_cell_formula_units_Z   2
loop_
 _symmetry_equiv_pos_site_id
 _symmetry_equiv_pos_as_xyz
  1  'x, y, z'
loop_
 _atom_site_type_symbol
 _atom_site_label
 _atom_site_symmetry_multiplicity
 _atom_site_fract_x
 _atom_site_fract_y
 _atom_site_fract_z
 _atom_site_occupancy
  Cu  Cu0  1  0.33333300  0.66666700  0.58663300  1
  Cu  Cu1  1  0.66666700  0.33333300  0.41336700  1
  Cu  Cu2  1  0.33333300  0.66666700  0.93790300  1
  Cu  Cu3  1  0.66666700  0.33333300  0.06209700  1
  Cu  Cu4  1  0.00000000  0.00000000  0.77969700  1
  Cu  Cu5  1  0.00000000  0.00000000  0.22030300  1
  P  P6  1  0.66666700  0.33333300  0.73788200  1
  P  P7  1  0.33333300  0.66666700  0.26211800  1
