# generated using pymatgen
data_Ho2V2O7
_symmetry_space_group_name_H-M   'P 1'
_cell_length_a   5.80145348
_cell_length_b   5.80145348
_cell_length_c   5.24298516
_cell_angle_alpha   83.94959239
_cell_angle_beta   83.94959239
_cell_angle_gamma   109.91476282
_symmetry_Int_Tables_number   1
_chemical_formula_structural   Ho2V2O7
_chemical_formula_sum   'Ho2 V2 O7'
_cell_volume   163.09067062
_cell_formula_units_Z   1
loop_
 _symmetry_equiv_pos_site_id
 _symmetry_equiv_pos_as_xyz
  1  'x, y, z'
loop_
 _atom_site_type_symbol
 _atom_site_label
 _atom_site_symmetry_multiplicity
 _atom_site_fract_x
 _atom_site_fract_y
 _atom_site_fract_z
 _atom_site_occupancy
  Ho  Ho0  1  0.68753400  0.31246600  0.50000000  1
  Ho  Ho1  1  0.31246600  0.68753400  0.50000000  1
  V  V2  1  0.75467200  0.75467200  0.89926600  1
  V  V3  1  0.24532800  0.24532800  0.10073400  1
  O  O4  1  0.93438000  0.60937800  0.70610700  1
  O  O5  1  0.60937800  0.93438000  0.70610700  1
  O  O6  1  0.57748500  0.57748500  0.22259000  1
  O  O7  1  0.42251500  0.42251500  0.77741000  1
  O  O8  1  0.00000000  0.00000000  0.00000000  1
  O  O9  1  0.39062200  0.06562000  0.29389300  1
  O  O10  1  0.06562000  0.39062200  0.29389300  1
