# generated using pymatgen
data_LuWO4
_symmetry_space_group_name_H-M   'P 1'
_cell_length_a   5.72255600
_cell_length_b   5.06676200
_cell_length_c   5.24400164
_cell_angle_alpha   84.87229991
_cell_angle_beta   90.00000000
_cell_angle_gamma   90.00000000
_symmetry_Int_Tables_number   1
_chemical_formula_structural   LuWO4
_chemical_formula_sum   'Lu2 W2 O8'
_cell_volume   151.44042827
_cell_formula_units_Z   2
loop_
 _symmetry_equiv_pos_site_id
 _symmetry_equiv_pos_as_xyz
  1  'x, y, z'
loop_
 _atom_site_type_symbol
 _atom_site_label
 _atom_site_symmetry_multiplicity
 _atom_site_fract_x
 _atom_site_fract_y
 _atom_site_fract_z
 _atom_site_occupancy
  Lu  Lu0  1  0.30184700  0.50000000  0.75000000  1
  Lu  Lu1  1  0.69815300  0.50000000  0.25000000  1
  W  W2  1  0.82464700  0.00000000  0.75000000  1
  W  W3  1  0.17535300  0.00000000  0.25000000  1
  O  O4  1  0.09389400  0.21839800  0.54156200  1
  O  O5  1  0.90610600  0.21839800  0.04156200  1
  O  O6  1  0.60731400  0.26636600  0.61289600  1
  O  O7  1  0.39268600  0.26636600  0.11289600  1
  O  O8  1  0.60731400  0.73363400  0.88710400  1
  O  O9  1  0.39268600  0.73363400  0.38710400  1
  O  O10  1  0.09389400  0.78160200  0.95843800  1
  O  O11  1  0.90610600  0.78160200  0.45843800  1
