# generated using pymatgen
data_NaLuO2
_symmetry_space_group_name_H-M   'P 1'
_cell_length_a   5.99042205
_cell_length_b   5.99042205
_cell_length_c   5.99042205
_cell_angle_alpha   135.52918234
_cell_angle_beta   135.52918234
_cell_angle_gamma   64.70907266
_symmetry_Int_Tables_number   1
_chemical_formula_structural   NaLuO2
_chemical_formula_sum   'Na2 Lu2 O4'
_cell_volume   104.01447609
_cell_formula_units_Z   2
loop_
 _symmetry_equiv_pos_site_id
 _symmetry_equiv_pos_as_xyz
  1  'x, y, z'
loop_
 _atom_site_type_symbol
 _atom_site_label
 _atom_site_symmetry_multiplicity
 _atom_site_fract_x
 _atom_site_fract_y
 _atom_site_fract_z
 _atom_site_occupancy
  Na  Na0  1  0.25000000  0.75000000  0.50000000  1
  Na  Na1  1  0.50000000  0.50000000  0.00000000  1
  Lu  Lu2  1  0.75000000  0.25000000  0.50000000  1
  Lu  Lu3  1  0.00000000  0.00000000  0.00000000  1
  O  O4  1  0.97017100  0.47017100  0.50000000  1
  O  O5  1  0.77982900  0.77982900  0.00000000  1
  O  O6  1  0.22017100  0.22017100  0.00000000  1
  O  O7  1  0.52982900  0.02982900  0.50000000  1
