# generated using pymatgen
data_CrFe2O5
_symmetry_space_group_name_H-M   'P 1'
_cell_length_a   5.68593956
_cell_length_b   5.68593956
_cell_length_c   7.06658146
_cell_angle_alpha   70.69410453
_cell_angle_beta   70.69410453
_cell_angle_gamma   53.50865458
_symmetry_Int_Tables_number   1
_chemical_formula_structural   CrFe2O5
_chemical_formula_sum   'Cr2 Fe4 O10'
_cell_volume   170.61821043
_cell_formula_units_Z   2
loop_
 _symmetry_equiv_pos_site_id
 _symmetry_equiv_pos_as_xyz
  1  'x, y, z'
loop_
 _atom_site_type_symbol
 _atom_site_label
 _atom_site_symmetry_multiplicity
 _atom_site_fract_x
 _atom_site_fract_y
 _atom_site_fract_z
 _atom_site_occupancy
  Cr  Cr0  1  0.00000000  0.00000000  0.50000000  1
  Cr  Cr1  1  0.00000000  0.00000000  0.00000000  1
  Fe  Fe2  1  0.63697100  0.62611600  0.77540200  1
  Fe  Fe3  1  0.62611600  0.63697100  0.27540200  1
  Fe  Fe4  1  0.37388400  0.36302900  0.72459800  1
  Fe  Fe5  1  0.36302900  0.37388400  0.22459800  1
  O  O6  1  0.67211900  0.96532100  0.64674100  1
  O  O7  1  0.96532100  0.67211900  0.14674100  1
  O  O8  1  0.74674700  0.41726400  0.55028500  1
  O  O9  1  0.18582100  0.81417900  0.75000000  1
  O  O10  1  0.58273600  0.25325300  0.94971500  1
  O  O11  1  0.41726400  0.74674700  0.05028500  1
  O  O12  1  0.81417900  0.18582100  0.25000000  1
  O  O13  1  0.25325300  0.58273600  0.44971500  1
  O  O14  1  0.03467900  0.32788100  0.85325900  1
  O  O15  1  0.32788100  0.03467900  0.35325900  1
