# generated using pymatgen
data_KGePCO7
_symmetry_space_group_name_H-M   'P 1'
_cell_length_a   6.24118600
_cell_length_b   5.12953000
_cell_length_c   10.43620431
_cell_angle_alpha   87.79643440
_cell_angle_beta   90.00000000
_cell_angle_gamma   90.00000000
_symmetry_Int_Tables_number   1
_chemical_formula_structural   KGePCO7
_chemical_formula_sum   'K2 Ge2 P2 C2 O14'
_cell_volume   333.86124137
_cell_formula_units_Z   2
loop_
 _symmetry_equiv_pos_site_id
 _symmetry_equiv_pos_as_xyz
  1  'x, y, z'
loop_
 _atom_site_type_symbol
 _atom_site_label
 _atom_site_symmetry_multiplicity
 _atom_site_fract_x
 _atom_site_fract_y
 _atom_site_fract_z
 _atom_site_occupancy
  K  K0  1  0.63889600  0.76523200  0.79964700  1
  K  K1  1  0.13889600  0.23476800  0.20035300  1
  Ge  Ge2  1  0.22106500  0.21999200  0.64061000  1
  Ge  Ge3  1  0.72106500  0.78000800  0.35939000  1
  P  P4  1  0.72484700  0.27296400  0.55391200  1
  P  P5  1  0.22484700  0.72703600  0.44608800  1
  C  C6  1  0.25543400  0.29468400  0.86145700  1
  C  C7  1  0.75543400  0.70531600  0.13854300  1
  O  O8  1  0.79132100  0.66787700  0.02460300  1
  O  O9  1  0.23334800  0.05991500  0.80968500  1
  O  O10  1  0.24039600  0.48257100  0.76765600  1
  O  O11  1  0.91686700  0.21690300  0.64475900  1
  O  O12  1  0.53204500  0.21134100  0.64231000  1
  O  O13  1  0.22661300  0.89098600  0.56610200  1
  O  O14  1  0.72131800  0.56890700  0.51266500  1
  O  O15  1  0.22131800  0.43109300  0.48733500  1
  O  O16  1  0.72661300  0.10901400  0.43389800  1
  O  O17  1  0.03204500  0.78865900  0.35769000  1
  O  O18  1  0.41686700  0.78309700  0.35524100  1
  O  O19  1  0.74039600  0.51742900  0.23234400  1
  O  O20  1  0.73334800  0.94008500  0.19031500  1
  O  O21  1  0.29132100  0.33212300  0.97539700  1
