# generated using pymatgen
data_Tm2TiO5
_symmetry_space_group_name_H-M   'P 1'
_cell_length_a   5.80540559
_cell_length_b   5.80540559
_cell_length_c   10.42510900
_cell_angle_alpha   90.00000000
_cell_angle_beta   90.00000000
_cell_angle_gamma   139.13475284
_symmetry_Int_Tables_number   1
_chemical_formula_structural   Tm2TiO5
_chemical_formula_sum   'Tm4 Ti2 O10'
_cell_volume   229.88512062
_cell_formula_units_Z   2
loop_
 _symmetry_equiv_pos_site_id
 _symmetry_equiv_pos_as_xyz
  1  'x, y, z'
loop_
 _atom_site_type_symbol
 _atom_site_label
 _atom_site_symmetry_multiplicity
 _atom_site_fract_x
 _atom_site_fract_y
 _atom_site_fract_z
 _atom_site_occupancy
  Tm  Tm0  1  0.14278100  0.85721900  0.93111500  1
  Tm  Tm1  1  0.14278100  0.85721900  0.56888500  1
  Tm  Tm2  1  0.85721900  0.14278100  0.06888500  1
  Tm  Tm3  1  0.85721900  0.14278100  0.43111500  1
  Ti  Ti4  1  0.17356200  0.82643800  0.25000000  1
  Ti  Ti5  1  0.82643800  0.17356200  0.75000000  1
  O  O6  1  0.05110500  0.94889500  0.37688400  1
  O  O7  1  0.05110500  0.94889500  0.12311600  1
  O  O8  1  0.70761000  0.29239000  0.91028300  1
  O  O9  1  0.70761000  0.29239000  0.58971700  1
  O  O10  1  0.27071800  0.72928200  0.75000000  1
  O  O11  1  0.72928200  0.27071800  0.25000000  1
  O  O12  1  0.29239000  0.70761000  0.08971700  1
  O  O13  1  0.29239000  0.70761000  0.41028300  1
  O  O14  1  0.94889500  0.05110500  0.62311600  1
  O  O15  1  0.94889500  0.05110500  0.87688400  1
