# generated using pymatgen
data_VOF
_symmetry_space_group_name_H-M   'P 1'
_cell_length_a   3.44077400
_cell_length_b   3.44079775
_cell_length_c   6.33959658
_cell_angle_alpha   74.25396436
_cell_angle_beta   90.00009302
_cell_angle_gamma   60.00044101
_symmetry_Int_Tables_number   1
_chemical_formula_structural   VOF
_chemical_formula_sum   'V2 O2 F2'
_cell_volume   61.72579060
_cell_formula_units_Z   2
loop_
 _symmetry_equiv_pos_site_id
 _symmetry_equiv_pos_as_xyz
  1  'x, y, z'
loop_
 _atom_site_type_symbol
 _atom_site_label
 _atom_site_symmetry_multiplicity
 _atom_site_fract_x
 _atom_site_fract_y
 _atom_site_fract_z
 _atom_site_occupancy
  V  V0  1  0.76053400  0.47893300  0.28160400  1
  V  V1  1  0.23946600  0.52106500  0.71839700  1
  O  O2  1  0.87509200  0.24981900  0.62525100  1
  O  O3  1  0.12490800  0.75018200  0.37474900  1
  F  F4  1  0.62666000  0.74668000  0.87994400  1
  F  F5  1  0.37334000  0.25332100  0.12005500  1
