# generated using pymatgen
data_Tl6WO12
_symmetry_space_group_name_H-M   'P 1'
_cell_length_a   6.54346204
_cell_length_b   6.54346204
_cell_length_c   6.54346118
_cell_angle_alpha   98.42520801
_cell_angle_beta   98.42520801
_cell_angle_gamma   98.42521192
_symmetry_Int_Tables_number   1
_chemical_formula_structural   Tl6WO12
_chemical_formula_sum   'Tl6 W1 O12'
_cell_volume   270.08605834
_cell_formula_units_Z   1
loop_
 _symmetry_equiv_pos_site_id
 _symmetry_equiv_pos_as_xyz
  1  'x, y, z'
loop_
 _atom_site_type_symbol
 _atom_site_label
 _atom_site_symmetry_multiplicity
 _atom_site_fract_x
 _atom_site_fract_y
 _atom_site_fract_z
 _atom_site_occupancy
  Tl  Tl0  1  0.30481000  0.60535200  0.13478900  1
  Tl  Tl1  1  0.86521100  0.69519000  0.39464800  1
  Tl  Tl2  1  0.39464800  0.86521100  0.69519000  1
  Tl  Tl3  1  0.60535200  0.13478900  0.30481000  1
  Tl  Tl4  1  0.13478900  0.30481000  0.60535200  1
  Tl  Tl5  1  0.69519000  0.39464800  0.86521100  1
  W  W6  1  0.00000000  0.00000000  0.00000000  1
  O  O7  1  0.29233000  0.96784100  0.08149100  1
  O  O8  1  0.91850900  0.70767000  0.03215900  1
  O  O9  1  0.58048500  0.82569000  0.39766500  1
  O  O10  1  0.60233500  0.41951500  0.17431000  1
  O  O11  1  0.03215900  0.91850900  0.70767000  1
  O  O12  1  0.17431000  0.60233500  0.41951500  1
  O  O13  1  0.82569000  0.39766500  0.58048500  1
  O  O14  1  0.96784100  0.08149100  0.29233000  1
  O  O15  1  0.39766500  0.58048500  0.82569000  1
  O  O16  1  0.41951500  0.17431000  0.60233500  1
  O  O17  1  0.08149100  0.29233000  0.96784100  1
  O  O18  1  0.70767000  0.03215900  0.91850900  1
