# generated using pymatgen
data_BaIO5
_symmetry_space_group_name_H-M   'P 1'
_cell_length_a   4.84441300
_cell_length_b   7.98789234
_cell_length_c   8.02003874
_cell_angle_alpha   111.32549739
_cell_angle_beta   90.93928825
_cell_angle_gamma   104.78587318
_symmetry_Int_Tables_number   1
_chemical_formula_structural   BaIO5
_chemical_formula_sum   'Ba2 I2 O10'
_cell_volume   277.46361246
_cell_formula_units_Z   2
loop_
 _symmetry_equiv_pos_site_id
 _symmetry_equiv_pos_as_xyz
  1  'x, y, z'
loop_
 _atom_site_type_symbol
 _atom_site_label
 _atom_site_symmetry_multiplicity
 _atom_site_fract_x
 _atom_site_fract_y
 _atom_site_fract_z
 _atom_site_occupancy
  Ba  Ba0  1  0.19583500  0.33852300  0.09872100  1
  Ba  Ba1  1  0.80416500  0.66147700  0.90127900  1
  I  I2  1  0.15449500  0.30156800  0.56382700  1
  I  I3  1  0.84550500  0.69843200  0.43617300  1
  O  O4  1  0.27794700  0.87116800  0.20361600  1
  O  O5  1  0.72205300  0.12883200  0.79638400  1
  O  O6  1  0.42031000  0.74804400  0.15989500  1
  O  O7  1  0.57969000  0.25195600  0.84010500  1
  O  O8  1  0.23569100  0.49626000  0.81438100  1
  O  O9  1  0.76430900  0.50374000  0.18561900  1
  O  O10  1  0.22817100  0.97166400  0.83228900  1
  O  O11  1  0.77182900  0.02833600  0.16771100  1
  O  O12  1  0.54365500  0.08274800  0.20819600  1
  O  O13  1  0.45634500  0.91725200  0.79180400  1
