# generated using pymatgen
data_NaLuO2
_symmetry_space_group_name_H-M   'P 1'
_cell_length_a   7.28611670
_cell_length_b   7.28611670
_cell_length_c   5.82255092
_cell_angle_alpha   75.89432882
_cell_angle_beta   75.89432882
_cell_angle_gamma   126.36326594
_symmetry_Int_Tables_number   1
_chemical_formula_structural   NaLuO2
_chemical_formula_sum   'Na4 Lu4 O8'
_cell_volume   209.47291978
_cell_formula_units_Z   4
loop_
 _symmetry_equiv_pos_site_id
 _symmetry_equiv_pos_as_xyz
  1  'x, y, z'
loop_
 _atom_site_type_symbol
 _atom_site_label
 _atom_site_symmetry_multiplicity
 _atom_site_fract_x
 _atom_site_fract_y
 _atom_site_fract_z
 _atom_site_occupancy
  Na  Na0  1  0.55582700  0.44417300  0.75000000  1
  Na  Na1  1  0.68055900  0.31944100  0.25000000  1
  Na  Na2  1  0.31944100  0.68055900  0.75000000  1
  Na  Na3  1  0.44417300  0.55582700  0.25000000  1
  Lu  Lu4  1  0.19311800  0.80688200  0.25000000  1
  Lu  Lu5  1  0.93324700  0.06675300  0.25000000  1
  Lu  Lu6  1  0.06675300  0.93324700  0.75000000  1
  Lu  Lu7  1  0.80688200  0.19311800  0.75000000  1
  O  O8  1  0.13809800  0.26521300  0.79453300  1
  O  O9  1  0.95933400  0.58330100  0.70771800  1
  O  O10  1  0.26521300  0.13809800  0.29453300  1
  O  O11  1  0.41669900  0.04066600  0.79228200  1
  O  O12  1  0.58330100  0.95933400  0.20771800  1
  O  O13  1  0.73478700  0.86190200  0.70546700  1
  O  O14  1  0.04066600  0.41669900  0.29228200  1
  O  O15  1  0.86190200  0.73478700  0.20546700  1
