# generated using pymatgen
data_La2Ti3O9
_symmetry_space_group_name_H-M   'P 1'
_cell_length_a   7.93799924
_cell_length_b   7.93799924
_cell_length_c   7.93799924
_cell_angle_alpha   109.47122063
_cell_angle_beta   109.47122063
_cell_angle_gamma   109.47122063
_symmetry_Int_Tables_number   1
_chemical_formula_structural   La2Ti3O9
_chemical_formula_sum   'La4 Ti6 O18'
_cell_volume   385.04480543
_cell_formula_units_Z   2
loop_
 _symmetry_equiv_pos_site_id
 _symmetry_equiv_pos_as_xyz
  1  'x, y, z'
loop_
 _atom_site_type_symbol
 _atom_site_label
 _atom_site_symmetry_multiplicity
 _atom_site_fract_x
 _atom_site_fract_y
 _atom_site_fract_z
 _atom_site_occupancy
  La  La0  1  0.59656700  0.00000000  0.00000000  1
  La  La1  1  0.40343300  0.40343300  0.40343300  1
  La  La2  1  0.00000000  0.59656700  0.00000000  1
  La  La3  1  0.00000000  0.00000000  0.59656700  1
  Ti  Ti4  1  0.84461100  0.50000000  0.34461100  1
  Ti  Ti5  1  0.65538900  0.15538900  0.50000000  1
  Ti  Ti6  1  0.50000000  0.65538900  0.15538900  1
  Ti  Ti7  1  0.50000000  0.34461100  0.84461100  1
  Ti  Ti8  1  0.34461100  0.84461100  0.50000000  1
  Ti  Ti9  1  0.15538900  0.50000000  0.65538900  1
  O  O10  1  0.73952100  0.34772500  0.03409700  1
  O  O11  1  0.60820400  0.26047900  0.29457600  1
  O  O12  1  0.35854300  0.00000000  0.35854300  1
  O  O13  1  0.64145700  0.00000000  0.64145700  1
  O  O14  1  0.35854300  0.35854300  0.00000000  1
  O  O15  1  0.64145700  0.64145700  0.00000000  1
  O  O16  1  0.96590300  0.31362800  0.70542400  1
  O  O17  1  0.68637200  0.65227500  0.39179600  1
  O  O18  1  0.65227500  0.39179600  0.68637200  1
  O  O19  1  0.34772500  0.03409700  0.73952100  1
  O  O20  1  0.29457600  0.60820400  0.26047900  1
  O  O21  1  0.70542400  0.96590300  0.31362800  1
  O  O22  1  0.26047900  0.29457600  0.60820400  1
  O  O23  1  0.00000000  0.35854300  0.35854300  1
  O  O24  1  0.39179600  0.68637200  0.65227500  1
  O  O25  1  0.03409700  0.73952100  0.34772500  1
  O  O26  1  0.00000000  0.64145700  0.64145700  1
  O  O27  1  0.31362800  0.70542400  0.96590300  1
