# generated using pymatgen
data_Fe8H10O17
_symmetry_space_group_name_H-M   'P 1'
_cell_length_a   6.16051800
_cell_length_b   10.55606682
_cell_length_c   10.72355882
_cell_angle_alpha   90.66989804
_cell_angle_beta   90.78172386
_cell_angle_gamma   90.29065228
_symmetry_Int_Tables_number   1
_chemical_formula_structural   Fe8H10O17
_chemical_formula_sum   'Fe16 H20 O34'
_cell_volume   697.23992101
_cell_formula_units_Z   2
loop_
 _symmetry_equiv_pos_site_id
 _symmetry_equiv_pos_as_xyz
  1  'x, y, z'
loop_
 _atom_site_type_symbol
 _atom_site_label
 _atom_site_symmetry_multiplicity
 _atom_site_fract_x
 _atom_site_fract_y
 _atom_site_fract_z
 _atom_site_occupancy
  Fe  Fe0  1  0.98298600  0.08947200  0.68661600  1
  Fe  Fe1  1  0.00078400  0.60293500  0.85448500  1
  Fe  Fe2  1  0.75255800  0.58443300  0.15596500  1
  Fe  Fe3  1  0.75591100  0.07676000  0.30058400  1
  Fe  Fe4  1  0.00611400  0.78838500  0.32777300  1
  Fe  Fe5  1  0.00601800  0.28787000  0.10959500  1
  Fe  Fe6  1  0.74246500  0.30969700  0.83219100  1
  Fe  Fe7  1  0.74934100  0.79898700  0.65760700  1
  Fe  Fe8  1  0.50323200  0.09017300  0.68006100  1
  Fe  Fe9  1  0.49714500  0.60517400  0.85636700  1
  Fe  Fe10  1  0.25106900  0.58861800  0.14395200  1
  Fe  Fe11  1  0.24388300  0.98067300  0.17579800  1
  Fe  Fe12  1  0.49333400  0.79000400  0.32793600  1
  Fe  Fe13  1  0.50002200  0.28314900  0.12512800  1
  Fe  Fe14  1  0.25145100  0.30712500  0.82853700  1
  Fe  Fe15  1  0.24827700  0.79465700  0.63561900  1
  H  H16  1  0.00382200  0.36406500  0.62807000  1
  H  H17  1  0.98789100  0.58960800  0.59818200  1
  H  H18  1  0.74517000  0.67347200  0.45622600  1
  H  H19  1  0.04780400  0.51880000  0.34648700  1
  H  H20  1  0.90483400  0.32672300  0.30881200  1
  H  H21  1  0.11997600  0.24170700  0.30643300  1
  H  H22  1  0.76040900  0.20254800  0.53543700  1
  H  H23  1  0.80394800  0.81702400  0.90401600  1
  H  H24  1  0.51043900  0.38359700  0.65034700  1
  H  H25  1  0.49173500  0.59266000  0.59872600  1
  H  H26  1  0.44074800  0.51822400  0.34180100  1
  H  H27  1  0.13882700  0.17813100  0.48529500  1
  H  H28  1  0.18401300  0.03710000  0.44920300  1
  H  H29  1  0.26959800  0.81460700  0.89757500  1
  H  H30  1  0.54952100  0.86599800  0.04719500  1
  H  H31  1  0.52897200  0.99693300  0.97542400  1
  H  H32  1  0.05529100  0.01339500  0.94821300  1
  H  H33  1  0.88391000  0.03581800  0.05347300  1
  H  H34  1  0.42910400  0.17500100  0.40834600  1
  H  H35  1  0.55758300  0.30626900  0.39703700  1
  O  O36  1  0.99089200  0.29446500  0.68580200  1
  O  O37  1  0.00010800  0.29491400  0.93628300  1
  O  O38  1  0.99652700  0.65967500  0.65709000  1
  O  O39  1  0.99966900  0.91051700  0.65970100  1
  O  O40  1  0.74774700  0.76673600  0.21405600  1
  O  O41  1  0.75015400  0.76579500  0.46379000  1
  O  O42  1  0.76022200  0.14892000  0.13798200  1
  O  O43  1  0.76093200  0.39185000  0.18256900  1
  O  O44  1  0.01148600  0.59100300  0.29487400  1
  O  O45  1  0.99547500  0.59910800  0.03649500  1
  O  O46  1  0.99274700  0.26323700  0.35956000  1
  O  O47  1  0.01749400  0.97935300  0.31351000  1
  O  O48  1  0.74121600  0.11423200  0.79794100  1
  O  O49  1  0.74873200  0.11064800  0.54019800  1
  O  O50  1  0.76044800  0.75037600  0.84445500  1
  O  O51  1  0.74457900  0.49542400  0.81521500  1
  O  O52  1  0.49552200  0.30001000  0.68608400  1
  O  O53  1  0.49879000  0.29561300  0.94618000  1
  O  O54  1  0.49980000  0.66155200  0.65901800  1
  O  O55  1  0.49926500  0.91105700  0.65755800  1
  O  O56  1  0.24617000  0.78750100  0.19977600  1
  O  O57  1  0.25114000  0.77972400  0.45416500  1
  O  O58  1  0.24533000  0.16046000  0.14951600  1
  O  O59  1  0.25419200  0.40122800  0.16543400  1
  O  O60  1  0.49772600  0.59022200  0.29688000  1
  O  O61  1  0.50429600  0.60558100  0.03781700  1
  O  O62  1  0.49789800  0.97611700  0.29914100  1
  O  O63  1  0.24851200  0.11692400  0.78183900  1
  O  O64  1  0.23659900  0.10754600  0.50655900  1
  O  O65  1  0.25172400  0.74426200  0.83798300  1
  O  O66  1  0.24927600  0.49318800  0.81582800  1
  O  O67  1  0.44611400  0.92939900  0.01567900  1
  O  O68  1  0.98985000  0.97072100  0.01969100  1
  O  O69  1  0.52004400  0.22832600  0.35253400  1
