# generated using pymatgen
data_Ca(NO4)2
_symmetry_space_group_name_H-M   'P 1'
_cell_length_a   5.09955202
_cell_length_b   5.09955202
_cell_length_c   14.56589381
_cell_angle_alpha   78.65866846
_cell_angle_beta   78.65866846
_cell_angle_gamma   81.78802445
_symmetry_Int_Tables_number   1
_chemical_formula_structural   Ca(NO4)2
_chemical_formula_sum   'Ca2 N4 O16'
_cell_volume   361.99954012
_cell_formula_units_Z   2
loop_
 _symmetry_equiv_pos_site_id
 _symmetry_equiv_pos_as_xyz
  1  'x, y, z'
loop_
 _atom_site_type_symbol
 _atom_site_label
 _atom_site_symmetry_multiplicity
 _atom_site_fract_x
 _atom_site_fract_y
 _atom_site_fract_z
 _atom_site_occupancy
  Ca  Ca0  1  0.90028800  0.09971200  0.75000000  1
  Ca  Ca1  1  0.09971200  0.90028800  0.25000000  1
  N  N2  1  0.46321200  0.06216800  0.65423900  1
  N  N3  1  0.93783200  0.53678800  0.84576100  1
  N  N4  1  0.53678800  0.93783200  0.34576100  1
  N  N5  1  0.06216800  0.46321200  0.15423900  1
  O  O6  1  0.40752200  0.16829100  0.73117100  1
  O  O7  1  0.83170900  0.59247800  0.76882900  1
  O  O8  1  0.59247800  0.83170900  0.26882900  1
  O  O9  1  0.16829100  0.40752200  0.23117100  1
  O  O10  1  0.70261500  0.03356300  0.61351400  1
  O  O11  1  0.96643700  0.29738500  0.88648600  1
  O  O12  1  0.29738500  0.96643700  0.38648600  1
  O  O13  1  0.03356300  0.70261500  0.11351400  1
  O  O14  1  0.27262600  0.98985600  0.62538500  1
  O  O15  1  0.01014400  0.72737400  0.87461500  1
  O  O16  1  0.72737400  0.01014400  0.37461500  1
  O  O17  1  0.98985600  0.27262600  0.12538500  1
  O  O18  1  0.99266500  0.52829400  0.53970800  1
  O  O19  1  0.47170600  0.00733500  0.96029200  1
  O  O20  1  0.00733500  0.47170600  0.46029200  1
  O  O21  1  0.52829400  0.99266500  0.03970800  1
