# generated using pymatgen
data_Zr3N4
_symmetry_space_group_name_H-M   'P 1'
_cell_length_a   8.72483703
_cell_length_b   8.72483703
_cell_length_c   8.72483660
_cell_angle_alpha   22.90867371
_cell_angle_beta   22.90867371
_cell_angle_gamma   22.90866934
_symmetry_Int_Tables_number   1
_chemical_formula_structural   Zr3N4
_chemical_formula_sum   'Zr3 N4'
_cell_volume   88.31499391
_cell_formula_units_Z   1
loop_
 _symmetry_equiv_pos_site_id
 _symmetry_equiv_pos_as_xyz
  1  'x, y, z'
loop_
 _atom_site_type_symbol
 _atom_site_label
 _atom_site_symmetry_multiplicity
 _atom_site_fract_x
 _atom_site_fract_y
 _atom_site_fract_z
 _atom_site_occupancy
  Zr  Zr0  1  0.77770400  0.77770400  0.77770400  1
  Zr  Zr1  1  0.22229600  0.22229600  0.22229600  1
  Zr  Zr2  1  0.00000000  0.00000000  0.00000000  1
  N  N3  1  0.37825800  0.37825800  0.37825800  1
  N  N4  1  0.13213600  0.13213600  0.13213600  1
  N  N5  1  0.86786400  0.86786400  0.86786400  1
  N  N6  1  0.62174200  0.62174200  0.62174200  1
