# generated using pymatgen
data_Nd3SbO7
_symmetry_space_group_name_H-M   'P 1'
_cell_length_a   6.68033976
_cell_length_b   6.68033976
_cell_length_c   7.73949800
_cell_angle_alpha   90.00000000
_cell_angle_beta   90.00000000
_cell_angle_gamma   110.43061183
_symmetry_Int_Tables_number   1
_chemical_formula_structural   Nd3SbO7
_chemical_formula_sum   'Nd6 Sb2 O14'
_cell_volume   323.66355786
_cell_formula_units_Z   2
loop_
 _symmetry_equiv_pos_site_id
 _symmetry_equiv_pos_as_xyz
  1  'x, y, z'
loop_
 _atom_site_type_symbol
 _atom_site_label
 _atom_site_symmetry_multiplicity
 _atom_site_fract_x
 _atom_site_fract_y
 _atom_site_fract_z
 _atom_site_occupancy
  Nd  Nd0  1  0.00000000  0.00000000  0.50000000  1
  Nd  Nd1  1  0.00000000  0.00000000  0.00000000  1
  Nd  Nd2  1  0.51824200  0.06332800  0.25000000  1
  Nd  Nd3  1  0.93667200  0.48175800  0.75000000  1
  Nd  Nd4  1  0.48175800  0.93667200  0.75000000  1
  Nd  Nd5  1  0.06332800  0.51824200  0.25000000  1
  Sb  Sb6  1  0.50000000  0.50000000  0.50000000  1
  Sb  Sb7  1  0.50000000  0.50000000  0.00000000  1
  O  O8  1  0.43949600  0.18681700  0.53275100  1
  O  O9  1  0.81318300  0.56050400  0.46724900  1
  O  O10  1  0.43949600  0.18681700  0.96724900  1
  O  O11  1  0.81318300  0.56050400  0.03275100  1
  O  O12  1  0.56050400  0.81318300  0.46724900  1
  O  O13  1  0.18681700  0.43949600  0.53275100  1
  O  O14  1  0.56050400  0.81318300  0.03275100  1
  O  O15  1  0.18681700  0.43949600  0.96724900  1
  O  O16  1  0.15183700  0.88794600  0.25000000  1
  O  O17  1  0.11205400  0.84816300  0.75000000  1
  O  O18  1  0.84816300  0.11205400  0.75000000  1
  O  O19  1  0.88794600  0.15183700  0.25000000  1
  O  O20  1  0.42039600  0.42039600  0.25000000  1
  O  O21  1  0.57960400  0.57960400  0.75000000  1
