# generated using pymatgen
data_BCl(OF2)2
_symmetry_space_group_name_H-M   'P 1'
_cell_length_a   5.17852097
_cell_length_b   5.17852097
_cell_length_c   9.96566960
_cell_angle_alpha   85.29371256
_cell_angle_beta   85.29371256
_cell_angle_gamma   118.84641460
_symmetry_Int_Tables_number   1
_chemical_formula_structural   BCl(OF2)2
_chemical_formula_sum   'B2 Cl2 O4 F8'
_cell_volume   231.02374740
_cell_formula_units_Z   2
loop_
 _symmetry_equiv_pos_site_id
 _symmetry_equiv_pos_as_xyz
  1  'x, y, z'
loop_
 _atom_site_type_symbol
 _atom_site_label
 _atom_site_symmetry_multiplicity
 _atom_site_fract_x
 _atom_site_fract_y
 _atom_site_fract_z
 _atom_site_occupancy
  B  B0  1  0.58230100  0.44691800  0.52008400  1
  B  B1  1  0.44691800  0.58230100  0.02008400  1
  Cl  Cl2  1  0.14486700  0.67398900  0.75286100  1
  Cl  Cl3  1  0.67398900  0.14486700  0.25286100  1
  O  O4  1  0.91558200  0.38033700  0.80613900  1
  O  O5  1  0.13563600  0.91819400  0.80537700  1
  O  O6  1  0.38033700  0.91558200  0.30613900  1
  O  O7  1  0.91819400  0.13563600  0.30537700  1
  F  F8  1  0.81225000  0.69164900  0.56876000  1
  F  F9  1  0.50272200  0.63896300  0.87060400  1
  F  F10  1  0.69164900  0.81225000  0.06876000  1
  F  F11  1  0.63896300  0.50272200  0.37060400  1
  F  F12  1  0.58587600  0.18262600  0.56104600  1
  F  F13  1  0.30532500  0.42254600  0.56055900  1
  F  F14  1  0.18262600  0.58587600  0.06104600  1
  F  F15  1  0.42254600  0.30532500  0.06055900  1
