# generated using pymatgen
data_Fe5(OF2)4
_symmetry_space_group_name_H-M   'P 1'
_cell_length_a   4.67640571
_cell_length_b   4.67640571
_cell_length_c   8.93748900
_cell_angle_alpha   90.00000000
_cell_angle_beta   90.00000000
_cell_angle_gamma   93.68723299
_symmetry_Int_Tables_number   1
_chemical_formula_structural   Fe5(OF2)4
_chemical_formula_sum   'Fe5 O4 F8'
_cell_volume   195.04730422
_cell_formula_units_Z   1
loop_
 _symmetry_equiv_pos_site_id
 _symmetry_equiv_pos_as_xyz
  1  'x, y, z'
loop_
 _atom_site_type_symbol
 _atom_site_label
 _atom_site_symmetry_multiplicity
 _atom_site_fract_x
 _atom_site_fract_y
 _atom_site_fract_z
 _atom_site_occupancy
  Fe  Fe0  1  0.00000000  0.00000000  0.68072000  1
  Fe  Fe1  1  0.00000000  0.00000000  0.31928000  1
  Fe  Fe2  1  0.50000000  0.50000000  0.50000000  1
  Fe  Fe3  1  0.50000000  0.50000000  0.17297500  1
  Fe  Fe4  1  0.50000000  0.50000000  0.82702500  1
  O  O5  1  0.30312400  0.30312400  0.34560900  1
  O  O6  1  0.30312400  0.30312400  0.65439100  1
  O  O7  1  0.69687600  0.69687600  0.34560900  1
  O  O8  1  0.69687600  0.69687600  0.65439100  1
  F  F9  1  0.20797100  0.79202900  0.50000000  1
  F  F10  1  0.20873500  0.79126500  0.82527300  1
  F  F11  1  0.20873500  0.79126500  0.17472700  1
  F  F12  1  0.30620000  0.30620000  0.00000000  1
  F  F13  1  0.69380000  0.69380000  0.00000000  1
  F  F14  1  0.79126500  0.20873500  0.17472700  1
  F  F15  1  0.79126500  0.20873500  0.82527300  1
  F  F16  1  0.79202900  0.20797100  0.50000000  1
