# generated using pymatgen
data_CaTm2O4
_symmetry_space_group_name_H-M   'P 1'
_cell_length_a   5.68786651
_cell_length_b   5.68786651
_cell_length_c   10.84274900
_cell_angle_alpha   90.00000000
_cell_angle_beta   90.00000000
_cell_angle_gamma   146.53258647
_symmetry_Int_Tables_number   1
_chemical_formula_structural   CaTm2O4
_chemical_formula_sum   'Ca2 Tm4 O8'
_cell_volume   193.44356318
_cell_formula_units_Z   2
loop_
 _symmetry_equiv_pos_site_id
 _symmetry_equiv_pos_as_xyz
  1  'x, y, z'
loop_
 _atom_site_type_symbol
 _atom_site_label
 _atom_site_symmetry_multiplicity
 _atom_site_fract_x
 _atom_site_fract_y
 _atom_site_fract_z
 _atom_site_occupancy
  Ca  Ca0  1  0.88851200  0.11148800  0.25000000  1
  Ca  Ca1  1  0.11148800  0.88851200  0.75000000  1
  Tm  Tm2  1  0.63254800  0.36745200  0.42616900  1
  Tm  Tm3  1  0.63254800  0.36745200  0.07383100  1
  Tm  Tm4  1  0.36745200  0.63254800  0.57383100  1
  Tm  Tm5  1  0.36745200  0.63254800  0.92616900  1
  O  O6  1  0.00000000  0.00000000  0.00000000  1
  O  O7  1  0.00000000  0.00000000  0.50000000  1
  O  O8  1  0.53624000  0.46376000  0.25000000  1
  O  O9  1  0.73478000  0.26522000  0.61203900  1
  O  O10  1  0.73478000  0.26522000  0.88796100  1
  O  O11  1  0.46376000  0.53624000  0.75000000  1
  O  O12  1  0.26522000  0.73478000  0.38796100  1
  O  O13  1  0.26522000  0.73478000  0.11203900  1
