# generated using pymatgen
data_BaYb2O4
_symmetry_space_group_name_H-M   'P 1'
_cell_length_a   7.15884025
_cell_length_b   7.15884025
_cell_length_c   7.15884025
_cell_angle_alpha   121.42741704
_cell_angle_beta   121.42741704
_cell_angle_gamma   87.54492549
_symmetry_Int_Tables_number   1
_chemical_formula_structural   BaYb2O4
_chemical_formula_sum   'Ba2 Yb4 O8'
_cell_volume   253.57554886
_cell_formula_units_Z   2
loop_
 _symmetry_equiv_pos_site_id
 _symmetry_equiv_pos_as_xyz
  1  'x, y, z'
loop_
 _atom_site_type_symbol
 _atom_site_label
 _atom_site_symmetry_multiplicity
 _atom_site_fract_x
 _atom_site_fract_y
 _atom_site_fract_z
 _atom_site_occupancy
  Ba  Ba0  1  0.75000000  0.25000000  0.50000000  1
  Ba  Ba1  1  0.00000000  0.00000000  0.00000000  1
  Yb  Yb2  1  0.87500000  0.62500000  0.25000000  1
  Yb  Yb3  1  0.37500000  0.12500000  0.75000000  1
  Yb  Yb4  1  0.37500000  0.62500000  0.25000000  1
  Yb  Yb5  1  0.37500000  0.62500000  0.75000000  1
  O  O6  1  0.15051400  0.43358100  0.28306700  1
  O  O7  1  0.18358100  0.40051400  0.78306700  1
  O  O8  1  0.61744700  0.40051400  0.21693300  1
  O  O9  1  0.59948600  0.38255300  0.78306700  1
  O  O10  1  0.15051400  0.86744700  0.71693300  1
  O  O11  1  0.13255300  0.84948600  0.28306700  1
  O  O12  1  0.56641900  0.84948600  0.71693300  1
  O  O13  1  0.59948600  0.81641900  0.21693300  1
