# generated using pymatgen
data_Mn3O5F
_symmetry_space_group_name_H-M   'P 1'
_cell_length_a   3.01623500
_cell_length_b   6.42920700
_cell_length_c   10.17295160
_cell_angle_alpha   71.62146410
_cell_angle_beta   90.00000000
_cell_angle_gamma   90.00000000
_symmetry_Int_Tables_number   1
_chemical_formula_structural   Mn3O5F
_chemical_formula_sum   'Mn6 O10 F2'
_cell_volume   187.21175627
_cell_formula_units_Z   2
loop_
 _symmetry_equiv_pos_site_id
 _symmetry_equiv_pos_as_xyz
  1  'x, y, z'
loop_
 _atom_site_type_symbol
 _atom_site_label
 _atom_site_symmetry_multiplicity
 _atom_site_fract_x
 _atom_site_fract_y
 _atom_site_fract_z
 _atom_site_occupancy
  Mn  Mn0  1  0.00000000  0.99298700  0.01432500  1
  Mn  Mn1  1  0.50000000  0.81319100  0.33954700  1
  Mn  Mn2  1  0.50000000  0.50101600  0.99946800  1
  Mn  Mn3  1  0.00000000  0.66482700  0.66796700  1
  Mn  Mn4  1  0.00000000  0.34791300  0.32841500  1
  Mn  Mn5  1  0.50000000  0.17370400  0.65222000  1
  O  O6  1  0.50000000  0.93318600  0.13671800  1
  O  O7  1  0.00000000  0.30552100  0.99889700  1
  O  O8  1  0.00000000  0.69681900  0.99854400  1
  O  O9  1  0.00000000  0.35914600  0.66607300  1
  O  O10  1  0.50000000  0.73521500  0.53895200  1
  O  O11  1  0.50000000  0.39750100  0.20180700  1
  O  O12  1  0.50000000  0.26888900  0.45704600  1
  O  O13  1  0.50000000  0.60229300  0.79539100  1
  O  O14  1  0.00000000  0.97456700  0.66677900  1
  O  O15  1  0.00000000  0.63548300  0.33511000  1
  F  F16  1  0.00000000  0.03189800  0.33384900  1
  F  F17  1  0.50000000  0.06584600  0.86889200  1
