# generated using pymatgen
data_TiPHO5
_symmetry_space_group_name_H-M   'P 1'
_cell_length_a   5.25680304
_cell_length_b   7.47984715
_cell_length_c   5.20516385
_cell_angle_alpha   109.59663197
_cell_angle_beta   97.66188742
_cell_angle_gamma   106.17687450
_symmetry_Int_Tables_number   1
_chemical_formula_structural   TiPHO5
_chemical_formula_sum   'Ti2 P2 H2 O10'
_cell_volume   179.26774844
_cell_formula_units_Z   2
loop_
 _symmetry_equiv_pos_site_id
 _symmetry_equiv_pos_as_xyz
  1  'x, y, z'
loop_
 _atom_site_type_symbol
 _atom_site_label
 _atom_site_symmetry_multiplicity
 _atom_site_fract_x
 _atom_site_fract_y
 _atom_site_fract_z
 _atom_site_occupancy
  Ti  Ti0  1  0.00000000  0.50000000  0.00000000  1
  Ti  Ti1  1  0.00000000  0.00000000  0.00000000  1
  P  P2  1  0.35367900  0.22849400  0.67446400  1
  P  P3  1  0.64632100  0.77150600  0.32553600  1
  H  H4  1  0.02758300  0.33418100  0.34920300  1
  H  H5  1  0.97241700  0.66581900  0.65079700  1
  O  O6  1  0.03268000  0.72131700  0.85887300  1
  O  O7  1  0.19820100  0.38330200  0.72853500  1
  O  O8  1  0.33972600  0.66077300  0.28734000  1
  O  O9  1  0.23127600  0.07733000  0.36476700  1
  O  O10  1  0.31822400  0.11838500  0.87553900  1
  O  O11  1  0.68177600  0.88161500  0.12446100  1
  O  O12  1  0.76872400  0.92267000  0.63523300  1
  O  O13  1  0.66027400  0.33922700  0.71266000  1
  O  O14  1  0.80179900  0.61669800  0.27146500  1
  O  O15  1  0.96732000  0.27868300  0.14112700  1
