# generated using pymatgen
data_Na4MgO3
_symmetry_space_group_name_H-M   'P 1'
_cell_length_a   6.33277671
_cell_length_b   6.33277671
_cell_length_c   8.11418985
_cell_angle_alpha   70.29970501
_cell_angle_beta   70.29970501
_cell_angle_gamma   55.94072811
_symmetry_Int_Tables_number   1
_chemical_formula_structural   Na4MgO3
_chemical_formula_sum   'Na8 Mg2 O6'
_cell_volume   249.18038294
_cell_formula_units_Z   2
loop_
 _symmetry_equiv_pos_site_id
 _symmetry_equiv_pos_as_xyz
  1  'x, y, z'
loop_
 _atom_site_type_symbol
 _atom_site_label
 _atom_site_symmetry_multiplicity
 _atom_site_fract_x
 _atom_site_fract_y
 _atom_site_fract_z
 _atom_site_occupancy
  Na  Na0  1  0.48591600  0.92173500  0.83900500  1
  Na  Na1  1  0.92173500  0.48591600  0.33900500  1
  Na  Na2  1  0.26812600  0.97183300  0.53802500  1
  Na  Na3  1  0.03115500  0.73260900  0.93182700  1
  Na  Na4  1  0.97183300  0.26812600  0.03802500  1
  Na  Na5  1  0.73260900  0.03115500  0.43182700  1
  Na  Na6  1  0.12095400  0.44826500  0.63756900  1
  Na  Na7  1  0.44826500  0.12095400  0.13756900  1
  Mg  Mg8  1  0.66329300  0.38055800  0.75274400  1
  Mg  Mg9  1  0.38055800  0.66329300  0.25274400  1
  O  O10  1  0.67892200  0.68587200  0.60210300  1
  O  O11  1  0.68587200  0.67892200  0.10210300  1
  O  O12  1  0.35856400  0.34664500  0.84774100  1
  O  O13  1  0.34664500  0.35856400  0.34774100  1
  O  O14  1  0.00630100  0.11413100  0.80335600  1
  O  O15  1  0.11413100  0.00630100  0.30335600  1
