# generated using pymatgen
data_CuC4(NO2)4
_symmetry_space_group_name_H-M   'P 1'
_cell_length_a   10.16235200
_cell_length_b   7.53402300
_cell_length_c   11.10823476
_cell_angle_alpha   81.98270421
_cell_angle_beta   90.00000000
_cell_angle_gamma   90.00000000
_symmetry_Int_Tables_number   1
_chemical_formula_structural   CuC4(NO2)4
_chemical_formula_sum   'Cu2 C8 N8 O16'
_cell_volume   842.17152886
_cell_formula_units_Z   2
loop_
 _symmetry_equiv_pos_site_id
 _symmetry_equiv_pos_as_xyz
  1  'x, y, z'
loop_
 _atom_site_type_symbol
 _atom_site_label
 _atom_site_symmetry_multiplicity
 _atom_site_fract_x
 _atom_site_fract_y
 _atom_site_fract_z
 _atom_site_occupancy
  Cu  Cu0  1  0.50000000  0.00000000  0.50000000  1
  Cu  Cu1  1  0.00000000  0.00000000  0.00000000  1
  C  C2  1  0.81514000  0.06560700  0.69194000  1
  C  C3  1  0.31514000  0.93439300  0.80806000  1
  C  C4  1  0.18486000  0.93439300  0.30806000  1
  C  C5  1  0.68486000  0.06560700  0.19194000  1
  C  C6  1  0.52682100  0.38702900  0.83398000  1
  C  C7  1  0.02682100  0.61297100  0.66602000  1
  C  C8  1  0.47317900  0.61297100  0.16602000  1
  C  C9  1  0.97317900  0.38702900  0.33398000  1
  N  N10  1  0.64289800  0.34070200  0.89816100  1
  N  N11  1  0.14289800  0.65929800  0.60183900  1
  N  N12  1  0.35710200  0.65929800  0.10183900  1
  N  N13  1  0.85710200  0.34070200  0.39816100  1
  N  N14  1  0.53004900  0.28117800  0.94800700  1
  N  N15  1  0.03004900  0.71882200  0.55199300  1
  N  N16  1  0.46995100  0.71882200  0.05199300  1
  N  N17  1  0.96995100  0.28117800  0.44800700  1
  O  O18  1  0.71936000  0.09435900  0.63306500  1
  O  O19  1  0.21936000  0.90564100  0.86693500  1
  O  O20  1  0.28064000  0.90564100  0.36693500  1
  O  O21  1  0.78064000  0.09435900  0.13306500  1
  O  O22  1  0.91107000  0.03731200  0.75073400  1
  O  O23  1  0.41107000  0.96268800  0.74926600  1
  O  O24  1  0.08893000  0.96268800  0.24926600  1
  O  O25  1  0.58893000  0.03731200  0.25073400  1
  O  O26  1  0.46812700  0.46095800  0.74785200  1
  O  O27  1  0.96812700  0.53904200  0.75214800  1
  O  O28  1  0.53187300  0.53904200  0.25214800  1
  O  O29  1  0.03187300  0.46095800  0.24785200  1
  O  O30  1  0.57668400  0.79119100  0.51110000  1
  O  O31  1  0.07668400  0.20880900  0.98890000  1
  O  O32  1  0.42331600  0.20880900  0.48890000  1
  O  O33  1  0.92331600  0.79119100  0.01110000  1
