# generated using pymatgen
data_Ca2Mn(AsO5)2
_symmetry_space_group_name_H-M   'P 1'
_cell_length_a   13.56285100
_cell_length_b   5.46326200
_cell_length_c   5.77224635
_cell_angle_alpha   75.67207611
_cell_angle_beta   90.00000000
_cell_angle_gamma   90.00000000
_symmetry_Int_Tables_number   1
_chemical_formula_structural   Ca2Mn(AsO5)2
_chemical_formula_sum   'Ca4 Mn2 As4 O20'
_cell_volume   414.40472460
_cell_formula_units_Z   2
loop_
 _symmetry_equiv_pos_site_id
 _symmetry_equiv_pos_as_xyz
  1  'x, y, z'
loop_
 _atom_site_type_symbol
 _atom_site_label
 _atom_site_symmetry_multiplicity
 _atom_site_fract_x
 _atom_site_fract_y
 _atom_site_fract_z
 _atom_site_occupancy
  Ca  Ca0  1  0.35780100  0.29923400  0.54914800  1
  Ca  Ca1  1  0.85780100  0.20076600  0.45085200  1
  Ca  Ca2  1  0.64219900  0.70076600  0.45085200  1
  Ca  Ca3  1  0.14219900  0.79923400  0.54914800  1
  Mn  Mn4  1  0.50000000  0.50000000  0.00000000  1
  Mn  Mn5  1  0.00000000  0.00000000  0.00000000  1
  As  As6  1  0.37717000  0.95210200  0.17560900  1
  As  As7  1  0.87717000  0.54789800  0.82439100  1
  As  As8  1  0.62283000  0.04789800  0.82439100  1
  As  As9  1  0.12283000  0.45210200  0.17560900  1
  O  O10  1  0.33082400  0.01060400  0.89826700  1
  O  O11  1  0.83082400  0.48939600  0.10173300  1
  O  O12  1  0.66917600  0.98939600  0.10173300  1
  O  O13  1  0.16917600  0.51060400  0.89826700  1
  O  O14  1  0.44713300  0.67030200  0.24736200  1
  O  O15  1  0.94713300  0.82969800  0.75263800  1
  O  O16  1  0.55286700  0.32969800  0.75263800  1
  O  O17  1  0.05286700  0.17030200  0.24736200  1
  O  O18  1  0.45822100  0.18597700  0.22866400  1
  O  O19  1  0.95822100  0.31402300  0.77133600  1
  O  O20  1  0.54177900  0.81402300  0.77133600  1
  O  O21  1  0.04177900  0.68597700  0.22866400  1
  O  O22  1  0.29706700  0.93816800  0.40611000  1
  O  O23  1  0.79706700  0.56183200  0.59389000  1
  O  O24  1  0.70293300  0.06183200  0.59389000  1
  O  O25  1  0.20293300  0.43816800  0.40611000  1
  O  O26  1  0.38977600  0.52481000  0.84508600  1
  O  O27  1  0.88977600  0.97519000  0.15491400  1
  O  O28  1  0.61022400  0.47519000  0.15491400  1
  O  O29  1  0.11022400  0.02481000  0.84508600  1
