# generated using pymatgen
data_Rb5FeO4
_symmetry_space_group_name_H-M   'P 1'
_cell_length_a   10.45730940
_cell_length_b   10.45735405
_cell_length_c   11.07551994
_cell_angle_alpha   67.49554327
_cell_angle_beta   67.49618449
_cell_angle_gamma   100.90925941
_symmetry_Int_Tables_number   1
_chemical_formula_structural   Rb5FeO4
_chemical_formula_sum   'Rb20 Fe4 O16'
_cell_volume   950.39362102
_cell_formula_units_Z   4
loop_
 _symmetry_equiv_pos_site_id
 _symmetry_equiv_pos_as_xyz
  1  'x, y, z'
loop_
 _atom_site_type_symbol
 _atom_site_label
 _atom_site_symmetry_multiplicity
 _atom_site_fract_x
 _atom_site_fract_y
 _atom_site_fract_z
 _atom_site_occupancy
  Rb  Rb0  1  0.32404100  0.57404400  0.25000000  1
  Rb  Rb1  1  0.82403500  0.07403400  0.25000400  1
  Rb  Rb2  1  0.17596900  0.92596600  0.74999500  1
  Rb  Rb3  1  0.67596400  0.42596200  0.75000100  1
  Rb  Rb4  1  0.34515800  0.33383700  0.05880000  1
  Rb  Rb5  1  0.84517100  0.83383900  0.05880500  1
  Rb  Rb6  1  0.58383000  0.09515500  0.05880600  1
  Rb  Rb7  1  0.08384100  0.59516100  0.05880000  1
  Rb  Rb8  1  0.15394800  0.14263200  0.44119400  1
  Rb  Rb9  1  0.65395400  0.64263800  0.44120100  1
  Rb  Rb10  1  0.39263700  0.90394800  0.44120500  1
  Rb  Rb11  1  0.89263900  0.40396400  0.44119600  1
  Rb  Rb12  1  0.34604500  0.35736400  0.55880300  1
  Rb  Rb13  1  0.84604600  0.85735800  0.55879700  1
  Rb  Rb14  1  0.10736000  0.59604900  0.55880100  1
  Rb  Rb15  1  0.60736300  0.09604000  0.55880300  1
  Rb  Rb16  1  0.15483900  0.16615700  0.94120000  1
  Rb  Rb17  1  0.65482900  0.66615500  0.94120100  1
  Rb  Rb18  1  0.91616700  0.40484500  0.94119600  1
  Rb  Rb19  1  0.41616100  0.90484300  0.94120300  1
  Fe  Fe20  1  0.60408000  0.35409400  0.25001000  1
  Fe  Fe21  1  0.89590500  0.14591800  0.74999300  1
  Fe  Fe22  1  0.10410600  0.85409700  0.24999600  1
  Fe  Fe23  1  0.39589600  0.64589500  0.74999600  1
  O  O24  1  0.11696900  0.86696700  0.06352100  1
  O  O25  1  0.61695700  0.36696300  0.06351800  1
  O  O26  1  0.93048800  0.68048700  0.43647300  1
  O  O27  1  0.43048600  0.18048700  0.43646900  1
  O  O28  1  0.56951200  0.81950600  0.56353100  1
  O  O29  1  0.06951800  0.31952100  0.56352300  1
  O  O30  1  0.38303500  0.63303000  0.93648200  1
  O  O31  1  0.88304000  0.13303800  0.93647800  1
  O  O32  1  0.08147500  0.03561600  0.25000300  1
  O  O33  1  0.58147400  0.53560900  0.25000500  1
  O  O34  1  0.28561400  0.83147700  0.25000100  1
  O  O35  1  0.78560900  0.33147900  0.24999900  1
  O  O36  1  0.41852600  0.46438400  0.74999600  1
  O  O37  1  0.91853000  0.96439200  0.74999300  1
  O  O38  1  0.21439100  0.66852300  0.75000000  1
  O  O39  1  0.71439000  0.16852500  0.75000100  1
