# generated using pymatgen
data_Li4Mn(BO3)2
_symmetry_space_group_name_H-M   'P 1'
_cell_length_a   6.74571400
_cell_length_b   9.33399700
_cell_length_c   8.65438905
_cell_angle_alpha   89.99894463
_cell_angle_beta   112.93739933
_cell_angle_gamma   90.00000000
_symmetry_Int_Tables_number   1
_chemical_formula_structural   Li4Mn(BO3)2
_chemical_formula_sum   'Li16 Mn4 B8 O24'
_cell_volume   501.83296719
_cell_formula_units_Z   4
loop_
 _symmetry_equiv_pos_site_id
 _symmetry_equiv_pos_as_xyz
  1  'x, y, z'
loop_
 _atom_site_type_symbol
 _atom_site_label
 _atom_site_symmetry_multiplicity
 _atom_site_fract_x
 _atom_site_fract_y
 _atom_site_fract_z
 _atom_site_occupancy
  Li  Li0  1  0.33653400  0.05375600  0.17304500  1
  Li  Li1  1  0.83645600  0.05375100  0.17301000  1
  Li  Li2  1  0.33647900  0.44629300  0.67307800  1
  Li  Li3  1  0.83645100  0.44627800  0.67297400  1
  Li  Li4  1  0.16351300  0.55377100  0.32705200  1
  Li  Li5  1  0.66347200  0.55375500  0.32693300  1
  Li  Li6  1  0.66348800  0.94627900  0.82697600  1
  Li  Li7  1  0.16355900  0.94627200  0.82700600  1
  Li  Li8  1  0.00440900  0.20067000  0.00898100  1
  Li  Li9  1  0.50441900  0.20071900  0.00897700  1
  Li  Li10  1  0.50443600  0.29928000  0.50896700  1
  Li  Li11  1  0.00441300  0.29929000  0.50898000  1
  Li  Li12  1  0.49553500  0.70071700  0.49100200  1
  Li  Li13  1  0.99555800  0.70071200  0.49100800  1
  Li  Li14  1  0.49553100  0.79926000  0.99102000  1
  Li  Li15  1  0.99554500  0.79931200  0.99099600  1
  Mn  Mn16  1  0.25017400  0.99999300  0.50001800  1
  Mn  Mn17  1  0.75000400  0.49998600  0.99998400  1
  Mn  Mn18  1  0.75020500  0.99989700  0.50007200  1
  Mn  Mn19  1  0.24996000  0.49988600  0.00011300  1
  B  B20  1  0.63484800  0.20267700  0.76974000  1
  B  B21  1  0.13483700  0.20267400  0.76974200  1
  B  B22  1  0.13480600  0.29732100  0.26976000  1
  B  B23  1  0.63483500  0.29733800  0.26974600  1
  B  B24  1  0.36514800  0.70266300  0.73025500  1
  B  B25  1  0.86515600  0.70267500  0.73024300  1
  B  B26  1  0.36515800  0.79735000  0.23024200  1
  B  B27  1  0.86518900  0.79733900  0.23022900  1
  O  O28  1  0.56221700  0.11530800  0.62420800  1
  O  O29  1  0.06220300  0.11531600  0.62420400  1
  O  O30  1  0.06205700  0.38465000  0.12421300  1
  O  O31  1  0.56208100  0.38468900  0.12420100  1
  O  O32  1  0.43782300  0.61529200  0.87578500  1
  O  O33  1  0.93785800  0.61533100  0.87578000  1
  O  O34  1  0.43797500  0.88468800  0.37579200  1
  O  O35  1  0.93798400  0.88467800  0.37577600  1
  O  O36  1  0.12634200  0.14878600  0.25279500  1
  O  O37  1  0.62636300  0.14881800  0.25277200  1
  O  O38  1  0.62631100  0.35119600  0.75273900  1
  O  O39  1  0.12627500  0.35119500  0.75275700  1
  O  O40  1  0.37359300  0.64882400  0.24721400  1
  O  O41  1  0.87364900  0.64881400  0.24720900  1
  O  O42  1  0.37367300  0.85117900  0.74724700  1
  O  O43  1  0.87367600  0.85120700  0.74721600  1
  O  O44  1  0.71207900  0.13834000  0.92435200  1
  O  O45  1  0.21210700  0.13833800  0.92435800  1
  O  O46  1  0.21210800  0.36166700  0.42437500  1
  O  O47  1  0.71211500  0.36169400  0.42435100  1
  O  O48  1  0.28786500  0.63833600  0.57563700  1
  O  O49  1  0.78784500  0.63835200  0.57561800  1
  O  O50  1  0.28784400  0.86170300  0.07563600  1
  O  O51  1  0.78783900  0.86168400  0.07561500  1
