# generated using pymatgen
data_Cd(AgO2)2
_symmetry_space_group_name_H-M   'P 1'
_cell_length_a   7.26728171
_cell_length_b   7.26728171
_cell_length_c   7.26728171
_cell_angle_alpha   131.12632012
_cell_angle_beta   131.12632012
_cell_angle_gamma   71.61245961
_symmetry_Int_Tables_number   1
_chemical_formula_structural   Cd(AgO2)2
_chemical_formula_sum   'Cd2 Ag4 O8'
_cell_volume   213.08200200
_cell_formula_units_Z   2
loop_
 _symmetry_equiv_pos_site_id
 _symmetry_equiv_pos_as_xyz
  1  'x, y, z'
loop_
 _atom_site_type_symbol
 _atom_site_label
 _atom_site_symmetry_multiplicity
 _atom_site_fract_x
 _atom_site_fract_y
 _atom_site_fract_z
 _atom_site_occupancy
  Cd  Cd0  1  0.00000000  0.00000000  0.00000000  1
  Cd  Cd1  1  0.75000000  0.25000000  0.50000000  1
  Ag  Ag2  1  0.37500000  0.62500000  0.75000000  1
  Ag  Ag3  1  0.87500000  0.62500000  0.25000000  1
  Ag  Ag4  1  0.37500000  0.12500000  0.75000000  1
  Ag  Ag5  1  0.37500000  0.62500000  0.25000000  1
  O  O6  1  0.13072400  0.40005900  0.26933500  1
  O  O7  1  0.61927600  0.38861100  0.76933500  1
  O  O8  1  0.59994100  0.86927600  0.73066500  1
  O  O9  1  0.13861100  0.86927600  0.26933500  1
  O  O10  1  0.61927600  0.84994100  0.23066500  1
  O  O11  1  0.13072400  0.86138900  0.73066500  1
  O  O12  1  0.15005900  0.38072400  0.76933500  1
  O  O13  1  0.61138900  0.38072400  0.23066500  1
