# generated using pymatgen
data_Ca(SO5)2
_symmetry_space_group_name_H-M   'P 1'
_cell_length_a   6.70166240
_cell_length_b   6.70166240
_cell_length_c   17.02009800
_cell_angle_alpha   90.00000000
_cell_angle_beta   90.00000000
_cell_angle_gamma   120.00000394
_symmetry_Int_Tables_number   1
_chemical_formula_structural   Ca(SO5)2
_chemical_formula_sum   'Ca3 S6 O30'
_cell_volume   661.99965503
_cell_formula_units_Z   3
loop_
 _symmetry_equiv_pos_site_id
 _symmetry_equiv_pos_as_xyz
  1  'x, y, z'
loop_
 _atom_site_type_symbol
 _atom_site_label
 _atom_site_symmetry_multiplicity
 _atom_site_fract_x
 _atom_site_fract_y
 _atom_site_fract_z
 _atom_site_occupancy
  Ca  Ca0  1  0.00000000  0.00000000  0.33282200  1
  Ca  Ca1  1  0.00000000  0.00000000  0.99948900  1
  Ca  Ca2  1  0.00000000  0.00000000  0.66615600  1
  S  S3  1  0.39539400  0.30519900  0.16536800  1
  S  S4  1  0.90980500  0.60460600  0.83203500  1
  S  S5  1  0.69480100  0.09019500  0.49870100  1
  S  S6  1  0.60460600  0.69480100  0.16536800  1
  S  S7  1  0.09019500  0.39539400  0.83203500  1
  S  S8  1  0.30519900  0.90980500  0.49870100  1
  O  O9  1  0.25368600  0.23657200  0.23793100  1
  O  O10  1  0.98288600  0.74631400  0.90459800  1
  O  O11  1  0.76342800  0.01711400  0.57126500  1
  O  O12  1  0.74631400  0.76342800  0.23793100  1
  O  O13  1  0.01711400  0.25368600  0.90459800  1
  O  O14  1  0.23657200  0.98288600  0.57126500  1
  O  O15  1  0.24341400  0.25221800  0.09555100  1
  O  O16  1  0.00880400  0.75658600  0.76221800  1
  O  O17  1  0.74778200  0.99119600  0.42888400  1
  O  O18  1  0.75658600  0.74778200  0.09555100  1
  O  O19  1  0.99119600  0.24341400  0.76221800  1
  O  O20  1  0.25221800  0.00880400  0.42888400  1
  O  O21  1  0.56434700  0.23304700  0.16183300  1
  O  O22  1  0.66869900  0.43565300  0.82849900  1
  O  O23  1  0.76695300  0.33130100  0.49516600  1
  O  O24  1  0.43565300  0.76695300  0.16183300  1
  O  O25  1  0.33130100  0.56434700  0.82849900  1
  O  O26  1  0.23304700  0.66869900  0.49516600  1
  O  O27  1  0.18447200  0.68524600  0.32628500  1
  O  O28  1  0.50077500  0.81552800  0.99295200  1
  O  O29  1  0.31475400  0.49922500  0.65961900  1
  O  O30  1  0.81552800  0.31475400  0.32628500  1
  O  O31  1  0.49922500  0.18447200  0.99295200  1
  O  O32  1  0.68524600  0.50077500  0.65961900  1
  O  O33  1  0.81274200  0.49544700  0.33248200  1
  O  O34  1  0.68270600  0.18725800  0.99914800  1
  O  O35  1  0.50455300  0.31729400  0.66581500  1
  O  O36  1  0.18725800  0.50455300  0.33248200  1
  O  O37  1  0.31729400  0.81274200  0.99914800  1
  O  O38  1  0.49544700  0.68270600  0.66581500  1
