# generated using pymatgen
data_HoBiO3
_symmetry_space_group_name_H-M   'P 1'
_cell_length_a   6.12732323
_cell_length_b   6.12732323
_cell_length_c   6.12732411
_cell_angle_alpha   58.51664743
_cell_angle_beta   58.51664743
_cell_angle_gamma   58.51664936
_symmetry_Int_Tables_number   1
_chemical_formula_structural   HoBiO3
_chemical_formula_sum   'Ho2 Bi2 O6'
_cell_volume   157.14701425
_cell_formula_units_Z   2
loop_
 _symmetry_equiv_pos_site_id
 _symmetry_equiv_pos_as_xyz
  1  'x, y, z'
loop_
 _atom_site_type_symbol
 _atom_site_label
 _atom_site_symmetry_multiplicity
 _atom_site_fract_x
 _atom_site_fract_y
 _atom_site_fract_z
 _atom_site_occupancy
  Ho  Ho0  1  0.85815000  0.85815000  0.85815000  1
  Ho  Ho1  1  0.14185000  0.14185000  0.14185000  1
  Bi  Bi2  1  0.64341500  0.64341500  0.64341500  1
  Bi  Bi3  1  0.35658500  0.35658500  0.35658500  1
  O  O4  1  0.21853400  0.54415500  0.98780600  1
  O  O5  1  0.01219400  0.78146600  0.45584500  1
  O  O6  1  0.45584500  0.01219400  0.78146600  1
  O  O7  1  0.54415500  0.98780600  0.21853400  1
  O  O8  1  0.98780600  0.21853400  0.54415500  1
  O  O9  1  0.78146600  0.45584500  0.01219400  1
