# generated using pymatgen
data_HgPtO2
_symmetry_space_group_name_H-M   'P 1'
_cell_length_a   7.96125045
_cell_length_b   7.96125045
_cell_length_c   7.96125127
_cell_angle_alpha   23.19899086
_cell_angle_beta   23.19899086
_cell_angle_gamma   23.19899067
_symmetry_Int_Tables_number   1
_chemical_formula_structural   HgPtO2
_chemical_formula_sum   'Hg1 Pt1 O2'
_cell_volume   68.73744318
_cell_formula_units_Z   1
loop_
 _symmetry_equiv_pos_site_id
 _symmetry_equiv_pos_as_xyz
  1  'x, y, z'
loop_
 _atom_site_type_symbol
 _atom_site_label
 _atom_site_symmetry_multiplicity
 _atom_site_fract_x
 _atom_site_fract_y
 _atom_site_fract_z
 _atom_site_occupancy
  Hg  Hg0  1  0.00000000  0.00000000  0.00000000  1
  Pt  Pt1  1  0.50000000  0.50000000  0.50000000  1
  O  O2  1  0.12579400  0.12579400  0.12579400  1
  O  O3  1  0.87420600  0.87420600  0.87420600  1
