# generated using pymatgen
data_NiSnO3
_symmetry_space_group_name_H-M   'P 1'
_cell_length_a   5.31704273
_cell_length_b   5.31691587
_cell_length_c   9.92470082
_cell_angle_alpha   90.00262946
_cell_angle_beta   74.45697111
_cell_angle_gamma   119.99823294
_symmetry_Int_Tables_number   1
_chemical_formula_structural   NiSnO3
_chemical_formula_sum   'Ni4 Sn4 O12'
_cell_volume   231.06681765
_cell_formula_units_Z   4
loop_
 _symmetry_equiv_pos_site_id
 _symmetry_equiv_pos_as_xyz
  1  'x, y, z'
loop_
 _atom_site_type_symbol
 _atom_site_label
 _atom_site_symmetry_multiplicity
 _atom_site_fract_x
 _atom_site_fract_y
 _atom_site_fract_z
 _atom_site_occupancy
  Ni  Ni0  1  0.64652500  0.32326800  0.03021700  1
  Ni  Ni1  1  0.35347500  0.67673200  0.96978200  1
  Ni  Ni2  1  0.64654200  0.82327700  0.53019200  1
  Ni  Ni3  1  0.35345800  0.17672300  0.46980800  1
  Sn  Sn4  1  0.85382800  0.92693700  0.21929000  1
  Sn  Sn5  1  0.85382000  0.42693300  0.71930400  1
  Sn  Sn6  1  0.14618000  0.57306700  0.28069600  1
  Sn  Sn7  1  0.14617200  0.07306300  0.78071000  1
  O  O8  1  0.95047000  0.82360500  0.62591300  1
  O  O9  1  0.95044300  0.32359200  0.12590200  1
  O  O10  1  0.55049300  0.12688900  0.62592200  1
  O  O11  1  0.55051500  0.62687500  0.12591200  1
  O  O12  1  0.75275100  0.07633400  0.87408500  1
  O  O13  1  0.75277500  0.57637000  0.37407400  1
  O  O14  1  0.24722500  0.42363000  0.62592600  1
  O  O15  1  0.24724900  0.92366600  0.12591500  1
  O  O16  1  0.44948500  0.37312500  0.87408800  1
  O  O17  1  0.44950700  0.87311100  0.37407800  1
  O  O18  1  0.04955700  0.67640800  0.87409800  1
  O  O19  1  0.04953000  0.17639500  0.37408700  1
