# generated using pymatgen
data_Li4Ti2Cr3Co3O16
_symmetry_space_group_name_H-M   'P 1'
_cell_length_a   5.74915058
_cell_length_b   5.78049995
_cell_length_c   9.40792992
_cell_angle_alpha   90.01845044
_cell_angle_beta   89.33407610
_cell_angle_gamma   120.13004885
_symmetry_Int_Tables_number   1
_chemical_formula_structural   Li4Ti2Cr3Co3O16
_chemical_formula_sum   'Li4 Ti2 Cr3 Co3 O16'
_cell_volume   270.38650916
_cell_formula_units_Z   1
loop_
 _symmetry_equiv_pos_site_id
 _symmetry_equiv_pos_as_xyz
  1  'x, y, z'
loop_
 _atom_site_type_symbol
 _atom_site_label
 _atom_site_symmetry_multiplicity
 _atom_site_fract_x
 _atom_site_fract_y
 _atom_site_fract_z
 _atom_site_occupancy
  Li  Li0  1  0.33286400  0.66683800  0.88900000  1
  Li  Li1  1  0.99238300  0.99362400  0.99396200  1
  Li  Li2  1  0.99745200  0.99832600  0.49708100  1
  Li  Li3  1  0.66489000  0.33369000  0.39441500  1
  Ti  Ti4  1  0.33887800  0.66866300  0.50025000  1
  Ti  Ti5  1  0.67084600  0.33564200  0.99529500  1
  Cr  Cr6  1  0.17261100  0.82538500  0.21856800  1
  Cr  Cr7  1  0.17257200  0.34764000  0.21704000  1
  Cr  Cr8  1  0.34950000  0.17441400  0.72039400  1
  Co  Co9  1  0.65764900  0.82968200  0.21347300  1
  Co  Co10  1  0.82658600  0.65736800  0.71428400  1
  Co  Co11  1  0.82651300  0.16932600  0.71403600  1
  O  O12  1  0.16753700  0.83432800  0.59905600  1
  O  O13  1  0.03476100  0.51713700  0.34120100  1
  O  O14  1  0.33634100  0.66929800  0.10369400  1
  O  O15  1  0.99689500  0.99906100  0.30395100  1
  O  O16  1  0.99583800  0.99800600  0.80137400  1
  O  O17  1  0.16710000  0.33198100  0.59877000  1
  O  O18  1  0.48268100  0.96154300  0.33851300  1
  O  O19  1  0.48284500  0.52297100  0.33743600  1
  O  O20  1  0.33076800  0.16530800  0.09720400  1
  O  O21  1  0.66697100  0.83335800  0.60164000  1
  O  O22  1  0.51977500  0.48196300  0.84007000  1
  O  O23  1  0.51987800  0.03723600  0.84021900  1
  O  O24  1  0.67125900  0.33615600  0.60708700  1
  O  O25  1  0.83316000  0.66566500  0.09940800  1
  O  O26  1  0.95647500  0.47799500  0.83211500  1
  O  O27  1  0.83497300  0.16769400  0.09830500  1
