# generated using pymatgen
data_As
_symmetry_space_group_name_H-M   'P 1'
_cell_length_a   11.54842568
_cell_length_b   4.61658797
_cell_length_c   7.83293330
_cell_angle_alpha   107.13900044
_cell_angle_beta   137.49099468
_cell_angle_gamma   66.43688002
_symmetry_Int_Tables_number   1
_chemical_formula_structural   As
_chemical_formula_sum   As2
_cell_volume   258.65185324
_cell_formula_units_Z   2
loop_
 _symmetry_equiv_pos_site_id
 _symmetry_equiv_pos_as_xyz
  1  'x, y, z'
loop_
 _atom_site_type_symbol
 _atom_site_label
 _atom_site_symmetry_multiplicity
 _atom_site_fract_x
 _atom_site_fract_y
 _atom_site_fract_z
 _atom_site_occupancy
  As  As0  1  0.50000000  0.75000000  0.00000000  1
  As  As1  1  0.50000000  0.25000000  0.00000000  1
