# generated using pymatgen
data_Sr3CaI8
_symmetry_space_group_name_H-M   'P 1'
_cell_length_a   7.99726664
_cell_length_b   7.99726664
_cell_length_c   9.77098475
_cell_angle_alpha   66.07116189
_cell_angle_beta   66.07116189
_cell_angle_gamma   90.18632794
_symmetry_Int_Tables_number   1
_chemical_formula_structural   Sr3CaI8
_chemical_formula_sum   'Sr3 Ca1 I8'
_cell_volume   511.47512354
_cell_formula_units_Z   1
loop_
 _symmetry_equiv_pos_site_id
 _symmetry_equiv_pos_as_xyz
  1  'x, y, z'
loop_
 _atom_site_type_symbol
 _atom_site_label
 _atom_site_symmetry_multiplicity
 _atom_site_fract_x
 _atom_site_fract_y
 _atom_site_fract_z
 _atom_site_occupancy
  Sr  Sr0  1  0.74953200  0.24661400  0.49803600  1
  Sr  Sr1  1  0.49823000  0.49823000  0.00034300  1
  Sr  Sr2  1  0.24661400  0.74953200  0.49803600  1
  Ca  Ca3  1  0.99947200  0.99947200  0.00047900  1
  I  I4  1  0.87627200  0.87627200  0.74981400  1
  I  I5  1  0.87272600  0.36455200  0.75514800  1
  I  I6  1  0.62956500  0.62956500  0.24606200  1
  I  I7  1  0.62485500  0.11897500  0.24742600  1
  I  I8  1  0.37062400  0.37062400  0.75060300  1
  I  I9  1  0.36455200  0.87272600  0.75514800  1
  I  I10  1  0.12023600  0.12023600  0.24264400  1
  I  I11  1  0.11897500  0.62485500  0.24742600  1
