# generated using pymatgen
data_Fe3OF5
_symmetry_space_group_name_H-M   'P 1'
_cell_length_a   4.80227400
_cell_length_b   5.78049180
_cell_length_c   8.04882509
_cell_angle_alpha   87.89645692
_cell_angle_beta   89.29309809
_cell_angle_gamma   88.37252122
_symmetry_Int_Tables_number   1
_chemical_formula_structural   Fe3OF5
_chemical_formula_sum   'Fe6 O2 F10'
_cell_volume   223.17650195
_cell_formula_units_Z   2
loop_
 _symmetry_equiv_pos_site_id
 _symmetry_equiv_pos_as_xyz
  1  'x, y, z'
loop_
 _atom_site_type_symbol
 _atom_site_label
 _atom_site_symmetry_multiplicity
 _atom_site_fract_x
 _atom_site_fract_y
 _atom_site_fract_z
 _atom_site_occupancy
  Fe  Fe0  1  0.50384300  0.16655300  0.33510000  1
  Fe  Fe1  1  0.51661700  0.48990200  0.99297200  1
  Fe  Fe2  1  0.50910200  0.82361000  0.66083900  1
  Fe  Fe3  1  0.99449600  0.66704600  0.34533300  1
  Fe  Fe4  1  0.96242900  0.35188700  0.67461100  1
  Fe  Fe5  1  0.99695900  0.01028400  0.99295800  1
  O  O6  1  0.80452400  0.61571700  0.57349300  1
  O  O7  1  0.79253900  0.30601900  0.89325300  1
  F  F8  1  0.80951900  0.97209000  0.23046800  1
  F  F9  1  0.68376400  0.79291300  0.91494500  1
  F  F10  1  0.69425300  0.47333400  0.22107600  1
  F  F11  1  0.71501700  0.12765500  0.56465800  1
  F  F12  1  0.30828800  0.86461000  0.42518200  1
  F  F13  1  0.28983200  0.52817600  0.78181000  1
  F  F14  1  0.30604700  0.21592400  0.09418700  1
  F  F15  1  0.20192000  0.04559500  0.75428700  1
  F  F16  1  0.20079900  0.35224000  0.44893100  1
  F  F17  1  0.21005300  0.69644500  0.09589700  1
