# generated using pymatgen
data_ZnCoO2
_symmetry_space_group_name_H-M   'P 1'
_cell_length_a   3.05265184
_cell_length_b   8.62523984
_cell_length_c   6.09261980
_cell_angle_alpha   90.16869158
_cell_angle_beta   90.00000468
_cell_angle_gamma   90.00000490
_symmetry_Int_Tables_number   1
_chemical_formula_structural   ZnCoO2
_chemical_formula_sum   'Zn4 Co4 O8'
_cell_volume   160.41709630
_cell_formula_units_Z   4
loop_
 _symmetry_equiv_pos_site_id
 _symmetry_equiv_pos_as_xyz
  1  'x, y, z'
loop_
 _atom_site_type_symbol
 _atom_site_label
 _atom_site_symmetry_multiplicity
 _atom_site_fract_x
 _atom_site_fract_y
 _atom_site_fract_z
 _atom_site_occupancy
  Zn  Zn0  1  0.00000000  0.00000000  0.00000000  1
  Zn  Zn1  1  0.50000000  0.25000000  0.75000000  1
  Zn  Zn2  1  0.00000000  0.50000000  0.50000000  1
  Zn  Zn3  1  0.50000000  0.75000000  0.25000000  1
  Co  Co4  1  0.00000000  0.00000000  0.50000000  1
  Co  Co5  1  0.50000000  0.25000000  0.25000000  1
  Co  Co6  1  0.00000000  0.50000000  0.00000000  1
  Co  Co7  1  0.50000000  0.75000000  0.75000000  1
  O  O8  1  0.00000000  0.24939500  0.49878900  1
  O  O9  1  0.50000000  0.49939500  0.24878900  1
  O  O10  1  0.00000000  0.74939500  0.99878900  1
  O  O11  1  0.50000000  0.99939500  0.74878900  1
  O  O12  1  0.00000000  0.75060500  0.50121100  1
  O  O13  1  0.50000000  0.00060500  0.25121100  1
  O  O14  1  0.00000000  0.25060500  0.00121100  1
  O  O15  1  0.50000000  0.50060500  0.75121100  1
