# generated using pymatgen
data_Na4Ti3O8
_symmetry_space_group_name_H-M   'P 1'
_cell_length_a   6.11380306
_cell_length_b   6.11380306
_cell_length_c   6.54064166
_cell_angle_alpha   61.70783070
_cell_angle_beta   61.70783070
_cell_angle_gamma   60.49963370
_symmetry_Int_Tables_number   1
_chemical_formula_structural   Na4Ti3O8
_chemical_formula_sum   'Na4 Ti3 O8'
_cell_volume   177.89448536
_cell_formula_units_Z   1
loop_
 _symmetry_equiv_pos_site_id
 _symmetry_equiv_pos_as_xyz
  1  'x, y, z'
loop_
 _atom_site_type_symbol
 _atom_site_label
 _atom_site_symmetry_multiplicity
 _atom_site_fract_x
 _atom_site_fract_y
 _atom_site_fract_z
 _atom_site_occupancy
  Na  Na0  1  0.00000000  0.00000000  0.00000000  1
  Na  Na1  1  0.50000000  0.00000000  0.00000000  1
  Na  Na2  1  0.00000000  0.50000000  0.00000000  1
  Na  Na3  1  0.50000000  0.50000000  0.50000000  1
  Ti  Ti4  1  0.50000000  0.00000000  0.50000000  1
  Ti  Ti5  1  0.00000000  0.50000000  0.50000000  1
  Ti  Ti6  1  0.00000000  0.00000000  0.50000000  1
  O  O7  1  0.76631700  0.76631700  0.70024600  1
  O  O8  1  0.25177100  0.25177100  0.69353500  1
  O  O9  1  0.19292800  0.75044000  0.31256100  1
  O  O10  1  0.75044000  0.19292800  0.31256100  1
  O  O11  1  0.80707200  0.24956000  0.68743900  1
  O  O12  1  0.24956000  0.80707200  0.68743900  1
  O  O13  1  0.74822900  0.74822900  0.30646500  1
  O  O14  1  0.23368300  0.23368300  0.29975400  1
