# generated using pymatgen
data_K2Be2O3
_symmetry_space_group_name_H-M   'P 1'
_cell_length_a   8.18779800
_cell_length_b   4.95622900
_cell_length_c   6.43718520
_cell_angle_alpha   64.96583837
_cell_angle_beta   90.00000000
_cell_angle_gamma   90.00000000
_symmetry_Int_Tables_number   1
_chemical_formula_structural   K2Be2O3
_chemical_formula_sum   'K4 Be4 O6'
_cell_volume   236.68425035
_cell_formula_units_Z   2
loop_
 _symmetry_equiv_pos_site_id
 _symmetry_equiv_pos_as_xyz
  1  'x, y, z'
loop_
 _atom_site_type_symbol
 _atom_site_label
 _atom_site_symmetry_multiplicity
 _atom_site_fract_x
 _atom_site_fract_y
 _atom_site_fract_z
 _atom_site_occupancy
  K  K0  1  0.35424200  0.78546300  0.92068500  1
  K  K1  1  0.14575800  0.78546300  0.42068500  1
  K  K2  1  0.85424200  0.21453700  0.57931500  1
  K  K3  1  0.64575800  0.21453700  0.07931500  1
  Be  Be4  1  0.50941700  0.69717300  0.50382200  1
  Be  Be5  1  0.00941700  0.30282700  0.99617800  1
  Be  Be6  1  0.99058300  0.69717300  0.00382200  1
  Be  Be7  1  0.49058300  0.30282700  0.49617800  1
  O  O8  1  0.50000000  0.00000000  0.50000000  1
  O  O9  1  0.00000000  0.00000000  0.00000000  1
  O  O10  1  0.95888800  0.61084500  0.79693600  1
  O  O11  1  0.45888800  0.38915500  0.70306400  1
  O  O12  1  0.54111200  0.61084500  0.29693600  1
  O  O13  1  0.04111200  0.38915500  0.20306400  1
