# generated using pymatgen
data_Ta2CrNO5
_symmetry_space_group_name_H-M   'P 1'
_cell_length_a   4.76166709
_cell_length_b   9.24916823
_cell_length_c   4.76300503
_cell_angle_alpha   90.16804155
_cell_angle_beta   89.70383265
_cell_angle_gamma   90.08149987
_symmetry_Int_Tables_number   1
_chemical_formula_structural   Ta2CrNO5
_chemical_formula_sum   'Ta4 Cr2 N2 O10'
_cell_volume   209.76578331
_cell_formula_units_Z   2
loop_
 _symmetry_equiv_pos_site_id
 _symmetry_equiv_pos_as_xyz
  1  'x, y, z'
loop_
 _atom_site_type_symbol
 _atom_site_label
 _atom_site_symmetry_multiplicity
 _atom_site_fract_x
 _atom_site_fract_y
 _atom_site_fract_z
 _atom_site_occupancy
  Ta  Ta0  1  0.00924500  0.33985300  0.98879400  1
  Ta  Ta1  1  0.00026400  0.66462400  0.97628000  1
  Ta  Ta2  1  0.50105300  0.16381300  0.49197600  1
  Ta  Ta3  1  0.51250300  0.82181700  0.50236400  1
  Cr  Cr4  1  0.49889200  0.50029000  0.50182100  1
  Cr  Cr5  1  0.99766200  0.00158000  0.00391500  1
  N  N6  1  0.69565900  0.66921200  0.69982100  1
  N  N7  1  0.19675400  0.49869900  0.80603100  1
  O  O8  1  0.80911300  0.49864300  0.19694600  1
  O  O9  1  0.80407500  0.83585600  0.20206300  1
  O  O10  1  0.79827800  0.16693400  0.20086800  1
  O  O11  1  0.30033100  0.32645900  0.30509400  1
  O  O12  1  0.30073300  0.67209200  0.30689600  1
  O  O13  1  0.29932700  0.00604600  0.30730600  1
  O  O14  1  0.69007400  0.00246000  0.69645600  1
  O  O15  1  0.69491400  0.32768900  0.69927900  1
  O  O16  1  0.19393100  0.16846600  0.80597100  1
  O  O17  1  0.19719100  0.83546400  0.80811900  1
