# generated using pymatgen
data_NaTi2O3
_symmetry_space_group_name_H-M   'P 1'
_cell_length_a   5.15602420
_cell_length_b   5.15602420
_cell_length_c   10.47920900
_cell_angle_alpha   90.00000000
_cell_angle_beta   90.00000000
_cell_angle_gamma   120.00000259
_symmetry_Int_Tables_number   1
_chemical_formula_structural   NaTi2O3
_chemical_formula_sum   'Na4 Ti8 O12'
_cell_volume   241.26205182
_cell_formula_units_Z   4
loop_
 _symmetry_equiv_pos_site_id
 _symmetry_equiv_pos_as_xyz
  1  'x, y, z'
loop_
 _atom_site_type_symbol
 _atom_site_label
 _atom_site_symmetry_multiplicity
 _atom_site_fract_x
 _atom_site_fract_y
 _atom_site_fract_z
 _atom_site_occupancy
  Na  Na0  1  0.33333300  0.66666700  0.50000000  1
  Na  Na1  1  0.66666700  0.33333300  0.50000000  1
  Na  Na2  1  0.66666700  0.33333300  0.00000000  1
  Na  Na3  1  0.33333300  0.66666700  0.00000000  1
  Ti  Ti4  1  0.00000000  0.66670400  0.75000000  1
  Ti  Ti5  1  0.33329600  0.00000000  0.25000000  1
  Ti  Ti6  1  0.00000000  0.33329600  0.25000000  1
  Ti  Ti7  1  0.00000000  0.00000000  0.50000000  1
  Ti  Ti8  1  0.00000000  0.00000000  0.00000000  1
  Ti  Ti9  1  0.33329600  0.33329600  0.75000000  1
  Ti  Ti10  1  0.66670400  0.00000000  0.75000000  1
  Ti  Ti11  1  0.66670400  0.66670400  0.25000000  1
  O  O12  1  0.00000000  0.68504000  0.12726400  1
  O  O13  1  0.00000000  0.68504000  0.37273600  1
  O  O14  1  0.00000000  0.31496000  0.62726400  1
  O  O15  1  0.00000000  0.31496000  0.87273600  1
  O  O16  1  0.31496000  0.00000000  0.62726400  1
  O  O17  1  0.31496000  0.00000000  0.87273600  1
  O  O18  1  0.68504000  0.00000000  0.12726400  1
  O  O19  1  0.68504000  0.00000000  0.37273600  1
  O  O20  1  0.31496000  0.31496000  0.12726400  1
  O  O21  1  0.31496000  0.31496000  0.37273600  1
  O  O22  1  0.68504000  0.68504000  0.62726400  1
  O  O23  1  0.68504000  0.68504000  0.87273600  1
