# generated using pymatgen
data_BaNaY(BO3)2
_symmetry_space_group_name_H-M   'P 1'
_cell_length_a   12.49739643
_cell_length_b   12.49739643
_cell_length_c   12.49739683
_cell_angle_alpha   25.05518987
_cell_angle_beta   25.05518987
_cell_angle_gamma   25.05519271
_symmetry_Int_Tables_number   1
_chemical_formula_structural   BaNaY(BO3)2
_chemical_formula_sum   'Ba2 Na2 Y2 B4 O12'
_cell_volume   307.99187823
_cell_formula_units_Z   2
loop_
 _symmetry_equiv_pos_site_id
 _symmetry_equiv_pos_as_xyz
  1  'x, y, z'
loop_
 _atom_site_type_symbol
 _atom_site_label
 _atom_site_symmetry_multiplicity
 _atom_site_fract_x
 _atom_site_fract_y
 _atom_site_fract_z
 _atom_site_occupancy
  Ba  Ba0  1  0.89820000  0.89820000  0.89820000  1
  Ba  Ba1  1  0.10180000  0.10180000  0.10180000  1
  Na  Na2  1  0.61473600  0.61473600  0.61473600  1
  Na  Na3  1  0.38526400  0.38526400  0.38526400  1
  Y  Y4  1  0.00000000  0.00000000  0.00000000  1
  Y  Y5  1  0.50000000  0.50000000  0.50000000  1
  B  B6  1  0.29332900  0.29332900  0.29332900  1
  B  B7  1  0.70667100  0.70667100  0.70667100  1
  B  B8  1  0.20601700  0.20601700  0.20601700  1
  B  B9  1  0.79398300  0.79398300  0.79398300  1
  O  O10  1  0.15929100  0.13125900  0.58947000  1
  O  O11  1  0.58947000  0.15929100  0.13125900  1
  O  O12  1  0.13125900  0.58947000  0.15929100  1
  O  O13  1  0.84070900  0.86874100  0.41053000  1
  O  O14  1  0.41053000  0.84070900  0.86874100  1
  O  O15  1  0.86874100  0.41053000  0.84070900  1
  O  O16  1  0.35367100  0.35406900  0.91072800  1
  O  O17  1  0.91072800  0.35367100  0.35406900  1
  O  O18  1  0.35406900  0.91072800  0.35367100  1
  O  O19  1  0.64632900  0.64593100  0.08927200  1
  O  O20  1  0.08927200  0.64632900  0.64593100  1
  O  O21  1  0.64593100  0.08927200  0.64632900  1
