# generated using pymatgen
data_ErBiO3
_symmetry_space_group_name_H-M   'P 1'
_cell_length_a   6.11548164
_cell_length_b   6.11548164
_cell_length_c   6.11548154
_cell_angle_alpha   58.60150668
_cell_angle_beta   58.60150668
_cell_angle_gamma   58.60151704
_symmetry_Int_Tables_number   1
_chemical_formula_structural   ErBiO3
_chemical_formula_sum   'Er2 Bi2 O6'
_cell_volume   156.55404848
_cell_formula_units_Z   2
loop_
 _symmetry_equiv_pos_site_id
 _symmetry_equiv_pos_as_xyz
  1  'x, y, z'
loop_
 _atom_site_type_symbol
 _atom_site_label
 _atom_site_symmetry_multiplicity
 _atom_site_fract_x
 _atom_site_fract_y
 _atom_site_fract_z
 _atom_site_occupancy
  Er  Er0  1  0.14232200  0.14232200  0.14232200  1
  Er  Er1  1  0.85767800  0.85767800  0.85767800  1
  Bi  Bi2  1  0.35695300  0.35695300  0.35695300  1
  Bi  Bi3  1  0.64304700  0.64304700  0.64304700  1
  O  O4  1  0.45533700  0.78269200  0.01167800  1
  O  O5  1  0.78269100  0.01167800  0.45533700  1
  O  O6  1  0.01167800  0.45533700  0.78269100  1
  O  O7  1  0.98832200  0.54466300  0.21730900  1
  O  O8  1  0.21730900  0.98832200  0.54466300  1
  O  O9  1  0.54466300  0.21730900  0.98832200  1
