# generated using pymatgen
data_K3VPCO7
_symmetry_space_group_name_H-M   'P 1'
_cell_length_a   5.69644773
_cell_length_b   9.67365409
_cell_length_c   13.99066900
_cell_angle_alpha   89.99900283
_cell_angle_beta   90.00185964
_cell_angle_gamma   89.95474988
_symmetry_Int_Tables_number   1
_chemical_formula_structural   K3VPCO7
_chemical_formula_sum   'K12 V4 P4 C4 O28'
_cell_volume   770.96207810
_cell_formula_units_Z   4
loop_
 _symmetry_equiv_pos_site_id
 _symmetry_equiv_pos_as_xyz
  1  'x, y, z'
loop_
 _atom_site_type_symbol
 _atom_site_label
 _atom_site_symmetry_multiplicity
 _atom_site_fract_x
 _atom_site_fract_y
 _atom_site_fract_z
 _atom_site_occupancy
  K  K0  1  0.75776600  0.07174800  0.12498900  1
  K  K1  1  0.75775300  0.07174200  0.62496800  1
  K  K2  1  0.24223500  0.92825100  0.37501400  1
  K  K3  1  0.24223300  0.92826400  0.87501900  1
  K  K4  1  0.25701100  0.28727800  0.00484500  1
  K  K5  1  0.25695300  0.28730200  0.50482500  1
  K  K6  1  0.25698800  0.28725900  0.24516300  1
  K  K7  1  0.25697500  0.28727800  0.74516300  1
  K  K8  1  0.74304100  0.71274100  0.25483700  1
  K  K9  1  0.74301600  0.71273500  0.75483200  1
  K  K10  1  0.74299300  0.71271000  0.49515600  1
  K  K11  1  0.74304700  0.71270000  0.99517500  1
  V  V12  1  0.76221000  0.34808300  0.87502100  1
  V  V13  1  0.23778400  0.65192400  0.62497800  1
  V  V14  1  0.76219700  0.34812000  0.37497500  1
  V  V15  1  0.23782500  0.65186200  0.12502600  1
  P  P16  1  0.73241200  0.41694700  0.12504800  1
  P  P17  1  0.73238600  0.41693500  0.62500600  1
  P  P18  1  0.26760100  0.58304700  0.37495200  1
  P  P19  1  0.26760300  0.58307100  0.87499400  1
  C  C20  1  0.74285900  0.07868100  0.37500300  1
  C  C21  1  0.74286900  0.07868300  0.87499900  1
  C  C22  1  0.25714500  0.92131000  0.12500000  1
  C  C23  1  0.25711600  0.92132700  0.62500100  1
  O  O24  1  0.26351900  0.05420700  0.12500800  1
  O  O25  1  0.26351000  0.05422500  0.62499800  1
  O  O26  1  0.73647500  0.94578600  0.37499500  1
  O  O27  1  0.73648000  0.94578300  0.87500400  1
  O  O28  1  0.94212000  0.14669600  0.37501000  1
  O  O29  1  0.94213600  0.14669800  0.87499900  1
  O  O30  1  0.05789000  0.85329100  0.12499400  1
  O  O31  1  0.05784800  0.85331200  0.62500100  1
  O  O32  1  0.55027600  0.15377000  0.37500700  1
  O  O33  1  0.55029600  0.15377700  0.87500100  1
  O  O34  1  0.44973300  0.84622600  0.12499600  1
  O  O35  1  0.44968700  0.84623100  0.62499700  1
  O  O36  1  0.47975400  0.47931200  0.12511700  1
  O  O37  1  0.47976400  0.47931800  0.62509100  1
  O  O38  1  0.52025800  0.52068100  0.37488600  1
  O  O39  1  0.52022400  0.52068700  0.87490400  1
  O  O40  1  0.08318200  0.46534500  0.37494200  1
  O  O41  1  0.08318300  0.46537600  0.87498000  1
  O  O42  1  0.91682700  0.53465000  0.12505800  1
  O  O43  1  0.91680600  0.53463000  0.62502200  1
  O  O44  1  0.76315000  0.32352600  0.03462900  1
  O  O45  1  0.76307500  0.32355000  0.53460900  1
  O  O46  1  0.76333700  0.32337600  0.21535500  1
  O  O47  1  0.76329900  0.32337300  0.71532700  1
  O  O48  1  0.23669100  0.67661800  0.28464300  1
  O  O49  1  0.23668000  0.67663100  0.78467400  1
  O  O50  1  0.23686300  0.67647100  0.46537100  1
  O  O51  1  0.23692200  0.67645500  0.96539200  1
