# generated using pymatgen
data_Al2O3
_symmetry_space_group_name_H-M   'P 1'
_cell_length_a   5.31609103
_cell_length_b   5.31609103
_cell_length_c   5.31609045
_cell_angle_alpha   54.26495925
_cell_angle_beta   54.26495925
_cell_angle_gamma   54.26494660
_symmetry_Int_Tables_number   1
_chemical_formula_structural   Al2O3
_chemical_formula_sum   'Al4 O6'
_cell_volume   92.01703735
_cell_formula_units_Z   2
loop_
 _symmetry_equiv_pos_site_id
 _symmetry_equiv_pos_as_xyz
  1  'x, y, z'
loop_
 _atom_site_type_symbol
 _atom_site_label
 _atom_site_symmetry_multiplicity
 _atom_site_fract_x
 _atom_site_fract_y
 _atom_site_fract_z
 _atom_site_occupancy
  Al  Al0  1  0.00000000  0.00000000  0.00000000  1
  Al  Al1  1  0.50000000  0.50000000  0.50000000  1
  Al  Al2  1  0.69326600  0.69326600  0.69326600  1
  Al  Al3  1  0.30673400  0.30673400  0.30673400  1
  O  O4  1  0.72060000  0.10747300  0.39635700  1
  O  O5  1  0.60364300  0.27940000  0.89252700  1
  O  O6  1  0.89252700  0.60364300  0.27940000  1
  O  O7  1  0.10747300  0.39635700  0.72060000  1
  O  O8  1  0.39635700  0.72060000  0.10747300  1
  O  O9  1  0.27940000  0.89252700  0.60364300  1
