# generated using pymatgen
data_Ca2B5ClO10
_symmetry_space_group_name_H-M   'P 1'
_cell_length_a   6.26707500
_cell_length_b   6.54853927
_cell_length_c   6.54979383
_cell_angle_alpha   80.31218584
_cell_angle_beta   118.27743930
_cell_angle_gamma   117.31399590
_symmetry_Int_Tables_number   1
_chemical_formula_structural   Ca2B5ClO10
_chemical_formula_sum   'Ca2 B5 Cl1 O10'
_cell_volume   209.91828929
_cell_formula_units_Z   1
loop_
 _symmetry_equiv_pos_site_id
 _symmetry_equiv_pos_as_xyz
  1  'x, y, z'
loop_
 _atom_site_type_symbol
 _atom_site_label
 _atom_site_symmetry_multiplicity
 _atom_site_fract_x
 _atom_site_fract_y
 _atom_site_fract_z
 _atom_site_occupancy
  Ca  Ca0  1  0.99014200  0.95185400  0.00045500  1
  Ca  Ca1  1  0.67121900  0.54928700  0.47980600  1
  B  B2  1  0.34598100  0.87197300  0.48265600  1
  B  B3  1  0.69086400  0.08930200  0.33229000  1
  B  B4  1  0.10054300  0.03436200  0.55277900  1
  B  B5  1  0.49538400  0.01613000  0.88663900  1
  B  B6  1  0.12637900  0.42311700  0.43515200  1
  Cl  Cl7  1  0.15021600  0.49468700  0.93764900  1
  O  O8  1  0.90534100  0.57097900  0.87871100  1
  O  O9  1  0.32040800  0.64250900  0.45214100  1
  O  O10  1  0.55033200  0.95907700  0.72970900  1
  O  O11  1  0.08424400  0.85305800  0.43342900  1
  O  O12  1  0.43033100  0.02811400  0.31543400  1
  O  O13  1  0.68056300  0.03375900  0.11418400  1
  O  O14  1  0.86196000  0.35126100  0.38585500  1
  O  O15  1  0.83170000  0.97181000  0.51798400  1
  O  O16  1  0.26814100  0.04818600  0.81263100  1
  O  O17  1  0.22585400  0.26233400  0.46899500  1
