# generated using pymatgen
data_V2OF5
_symmetry_space_group_name_H-M   'P 1'
_cell_length_a   5.23900400
_cell_length_b   5.41388218
_cell_length_c   11.86559473
_cell_angle_alpha   100.33905445
_cell_angle_beta   102.53814742
_cell_angle_gamma   90.28114178
_symmetry_Int_Tables_number   1
_chemical_formula_structural   V2OF5
_chemical_formula_sum   'V6 O3 F15'
_cell_volume   322.85028774
_cell_formula_units_Z   3
loop_
 _symmetry_equiv_pos_site_id
 _symmetry_equiv_pos_as_xyz
  1  'x, y, z'
loop_
 _atom_site_type_symbol
 _atom_site_label
 _atom_site_symmetry_multiplicity
 _atom_site_fract_x
 _atom_site_fract_y
 _atom_site_fract_z
 _atom_site_occupancy
  V  V0  1  0.16833600  0.16876800  0.33437300  1
  V  V1  1  0.31905300  0.31196200  0.67038300  1
  V  V2  1  0.51937500  0.47691200  0.00333000  1
  V  V3  1  0.65221300  0.64353800  0.33571800  1
  V  V4  1  0.99990100  0.00049800  0.00019400  1
  V  V5  1  0.83490400  0.83406900  0.66622800  1
  O  O6  1  0.14691700  0.06713500  0.69207900  1
  O  O7  1  0.70976100  0.23357600  0.02454500  1
  O  O8  1  0.47921300  0.39910200  0.35780000  1
  F  F9  1  0.81870500  0.91455800  0.83306700  1
  F  F10  1  0.61650900  0.11859200  0.63346900  1
  F  F11  1  0.51677000  0.60356900  0.63685900  1
  F  F12  1  0.51491600  0.42836200  0.83319700  1
  F  F13  1  0.15563500  0.26368700  0.50079800  1
  F  F14  1  0.81423600  0.72259800  0.03593100  1
  F  F15  1  0.94765200  0.45071800  0.29763900  1
  F  F16  1  0.28867300  0.77103600  0.97181300  1
  F  F17  1  0.18266600  0.28535700  0.96465500  1
  F  F18  1  0.85088200  0.93818500  0.30579700  1
  F  F19  1  0.05601500  0.55646100  0.70139400  1
  F  F20  1  0.85045300  0.74506200  0.49896800  1
  F  F21  1  0.48569800  0.59248200  0.16596700  1
  F  F22  1  0.39070500  0.89006700  0.36912300  1
  F  F23  1  0.18080900  0.08370400  0.16667200  1
