# generated using pymatgen
data_Na2SnO3
_symmetry_space_group_name_H-M   'P 1'
_cell_length_a   10.73412786
_cell_length_b   10.22829568
_cell_length_c   5.71588272
_cell_angle_alpha   79.12126036
_cell_angle_beta   69.34996875
_cell_angle_gamma   31.52877089
_symmetry_Int_Tables_number   1
_chemical_formula_structural   Na2SnO3
_chemical_formula_sum   'Na8 Sn4 O12'
_cell_volume   298.94995227
_cell_formula_units_Z   4
loop_
 _symmetry_equiv_pos_site_id
 _symmetry_equiv_pos_as_xyz
  1  'x, y, z'
loop_
 _atom_site_type_symbol
 _atom_site_label
 _atom_site_symmetry_multiplicity
 _atom_site_fract_x
 _atom_site_fract_y
 _atom_site_fract_z
 _atom_site_occupancy
  Na  Na0  1  0.99519200  0.99519200  0.50480800  1
  Na  Na1  1  0.42192000  0.42192000  0.57808000  1
  Na  Na2  1  0.82808000  0.82808000  0.67192000  1
  Na  Na3  1  0.25480800  0.25480800  0.74519200  1
  Na  Na4  1  0.74519200  0.74519200  0.25480800  1
  Na  Na5  1  0.67192000  0.67192000  0.82808000  1
  Na  Na6  1  0.57808000  0.57808000  0.42192000  1
  Na  Na7  1  0.50480800  0.50480800  0.99519200  1
  Sn  Sn8  1  0.91573900  0.91573900  0.08426100  1
  Sn  Sn9  1  0.33426100  0.33426100  0.16573900  1
  Sn  Sn10  1  0.16573900  0.16573900  0.33426100  1
  Sn  Sn11  1  0.08426100  0.08426100  0.91573900  1
  O  O12  1  0.15186300  0.66450700  0.30719700  1
  O  O13  1  0.66450700  0.15186300  0.87643200  1
  O  O14  1  0.09813700  0.58549300  0.94280300  1
  O  O15  1  0.58549300  0.09813700  0.37356800  1
  O  O16  1  0.04154900  0.45845100  0.45845100  1
  O  O17  1  0.45845100  0.04154900  0.04154900  1
  O  O18  1  0.37356800  0.94280300  0.58549300  1
  O  O19  1  0.94280300  0.37356800  0.09813700  1
  O  O20  1  0.87643200  0.30719700  0.66450700  1
  O  O21  1  0.30719700  0.87643200  0.15186300  1
  O  O22  1  0.20845100  0.79154900  0.79154900  1
  O  O23  1  0.79154900  0.20845100  0.20845100  1
