# generated using pymatgen
data_Cr(PO3)2
_symmetry_space_group_name_H-M   'P 1'
_cell_length_a   5.01532936
_cell_length_b   6.91409296
_cell_length_c   13.52888229
_cell_angle_alpha   90.61755972
_cell_angle_beta   97.09160655
_cell_angle_gamma   103.97898346
_symmetry_Int_Tables_number   1
_chemical_formula_structural   Cr(PO3)2
_chemical_formula_sum   'Cr4 P8 O24'
_cell_volume   451.35568942
_cell_formula_units_Z   4
loop_
 _symmetry_equiv_pos_site_id
 _symmetry_equiv_pos_as_xyz
  1  'x, y, z'
loop_
 _atom_site_type_symbol
 _atom_site_label
 _atom_site_symmetry_multiplicity
 _atom_site_fract_x
 _atom_site_fract_y
 _atom_site_fract_z
 _atom_site_occupancy
  Cr  Cr0  1  0.69367300  0.88722300  0.94367900  1
  Cr  Cr1  1  0.80642800  0.11287800  0.55632800  1
  Cr  Cr2  1  0.19365500  0.88728800  0.44358100  1
  Cr  Cr3  1  0.30638500  0.11273700  0.05643300  1
  P  P4  1  0.16289400  0.37634200  0.40136000  1
  P  P5  1  0.66292200  0.37633600  0.90140800  1
  P  P6  1  0.57342000  0.19715200  0.31181800  1
  P  P7  1  0.07339800  0.19710500  0.81183000  1
  P  P8  1  0.92657200  0.80283900  0.18818000  1
  P  P9  1  0.42659300  0.80288300  0.68817100  1
  P  P10  1  0.33710100  0.62365600  0.09864000  1
  P  P11  1  0.83707200  0.62365900  0.59858900  1
  O  O12  1  0.13140500  0.20648400  0.47342900  1
  O  O13  1  0.63147900  0.20653400  0.97346300  1
  O  O14  1  0.55467400  0.05300900  0.39670500  1
  O  O15  1  0.05466700  0.05303900  0.89671300  1
  O  O16  1  0.94532400  0.94698400  0.10329200  1
  O  O17  1  0.44531800  0.94695000  0.60328800  1
  O  O18  1  0.36857800  0.79351300  0.02657100  1
  O  O19  1  0.86851500  0.79345800  0.52653500  1
  O  O20  1  0.25503800  0.58602300  0.44166500  1
  O  O21  1  0.75502000  0.58598700  0.94171300  1
  O  O22  1  0.52052700  0.11659400  0.20702300  1
  O  O23  1  0.02052600  0.11659900  0.70703600  1
  O  O24  1  0.97946500  0.88339600  0.29297400  1
  O  O25  1  0.47946600  0.88338800  0.79296500  1
  O  O26  1  0.24495400  0.41397700  0.05833200  1
  O  O27  1  0.74497000  0.41400700  0.55828600  1
  O  O28  1  0.87295100  0.35193400  0.32948200  1
  O  O29  1  0.37295400  0.35187600  0.82951000  1
  O  O30  1  0.36749300  0.34106100  0.32402900  1
  O  O31  1  0.86749900  0.34102600  0.82406300  1
  O  O32  1  0.13249600  0.65892800  0.17596800  1
  O  O33  1  0.63249100  0.65896300  0.67593500  1
  O  O34  1  0.62704100  0.64805800  0.17051700  1
  O  O35  1  0.12703700  0.64811200  0.67048800  1
