# generated using pymatgen
data_Al2O3
_symmetry_space_group_name_H-M   'P 1'
_cell_length_a   5.37529722
_cell_length_b   5.37529722
_cell_length_c   7.26821141
_cell_angle_alpha   73.77835716
_cell_angle_beta   73.77835716
_cell_angle_gamma   34.62995831
_symmetry_Int_Tables_number   1
_chemical_formula_structural   Al2O3
_chemical_formula_sum   'Al4 O6'
_cell_volume   114.11769176
_cell_formula_units_Z   2
loop_
 _symmetry_equiv_pos_site_id
 _symmetry_equiv_pos_as_xyz
  1  'x, y, z'
loop_
 _atom_site_type_symbol
 _atom_site_label
 _atom_site_symmetry_multiplicity
 _atom_site_fract_x
 _atom_site_fract_y
 _atom_site_fract_z
 _atom_site_occupancy
  Al  Al0  1  0.90662600  0.90662600  0.90644300  1
  Al  Al1  1  0.24991800  0.24991800  0.65666400  1
  Al  Al2  1  0.09337400  0.09337400  0.09355700  1
  Al  Al3  1  0.75008200  0.75008200  0.34333600  1
  O  O4  1  0.08983700  0.08983700  0.84373600  1
  O  O5  1  0.65485200  0.65485200  0.14690400  1
  O  O6  1  0.34514800  0.34514800  0.85309600  1
  O  O7  1  0.81759400  0.81759400  0.56882600  1
  O  O8  1  0.18240600  0.18240600  0.43117400  1
  O  O9  1  0.91016300  0.91016300  0.15626400  1
