# generated using pymatgen
data_BaO10
_symmetry_space_group_name_H-M   'P 1'
_cell_length_a   5.71081600
_cell_length_b   5.71081600
_cell_length_c   10.25408600
_cell_angle_alpha   90.00000000
_cell_angle_beta   90.00000000
_cell_angle_gamma   90.00000000
_symmetry_Int_Tables_number   1
_chemical_formula_structural   BaO10
_chemical_formula_sum   'Ba2 O20'
_cell_volume   334.42080714
_cell_formula_units_Z   2
loop_
 _symmetry_equiv_pos_site_id
 _symmetry_equiv_pos_as_xyz
  1  'x, y, z'
loop_
 _atom_site_type_symbol
 _atom_site_label
 _atom_site_symmetry_multiplicity
 _atom_site_fract_x
 _atom_site_fract_y
 _atom_site_fract_z
 _atom_site_occupancy
  Ba  Ba0  1  0.00000000  0.00000000  0.25000000  1
  Ba  Ba1  1  0.00000000  0.00000000  0.75000000  1
  O  O2  1  0.50000000  0.50000000  0.55938200  1
  O  O3  1  0.50000000  0.50000000  0.05938200  1
  O  O4  1  0.50000000  0.50000000  0.44061800  1
  O  O5  1  0.50000000  0.50000000  0.94061800  1
  O  O6  1  0.06841300  0.41066100  0.39865000  1
  O  O7  1  0.93158700  0.58933900  0.39865000  1
  O  O8  1  0.58933900  0.06841300  0.39865000  1
  O  O9  1  0.41066100  0.93158700  0.39865000  1
  O  O10  1  0.93158700  0.41066100  0.89865000  1
  O  O11  1  0.06841300  0.58933900  0.89865000  1
  O  O12  1  0.41066100  0.06841300  0.89865000  1
  O  O13  1  0.58933900  0.93158700  0.89865000  1
  O  O14  1  0.93158700  0.58933900  0.60135000  1
  O  O15  1  0.06841300  0.41066100  0.60135000  1
  O  O16  1  0.41066100  0.93158700  0.60135000  1
  O  O17  1  0.58933900  0.06841300  0.60135000  1
  O  O18  1  0.06841300  0.58933900  0.10135000  1
  O  O19  1  0.93158700  0.41066100  0.10135000  1
  O  O20  1  0.58933900  0.93158700  0.10135000  1
  O  O21  1  0.41066100  0.06841300  0.10135000  1
