# generated using pymatgen
data_Ca2SiO5
_symmetry_space_group_name_H-M   'P 1'
_cell_length_a   9.59766800
_cell_length_b   9.67859400
_cell_length_c   10.37764100
_cell_angle_alpha   90.00000000
_cell_angle_beta   90.00000000
_cell_angle_gamma   90.00000000
_symmetry_Int_Tables_number   1
_chemical_formula_structural   Ca2SiO5
_chemical_formula_sum   'Ca16 Si8 O40'
_cell_volume   963.99912125
_cell_formula_units_Z   8
loop_
 _symmetry_equiv_pos_site_id
 _symmetry_equiv_pos_as_xyz
  1  'x, y, z'
loop_
 _atom_site_type_symbol
 _atom_site_label
 _atom_site_symmetry_multiplicity
 _atom_site_fract_x
 _atom_site_fract_y
 _atom_site_fract_z
 _atom_site_occupancy
  Ca  Ca0  1  0.30443600  0.47025400  0.92223400  1
  Ca  Ca1  1  0.69556400  0.02974600  0.42223400  1
  Ca  Ca2  1  0.19556400  0.97025400  0.07776600  1
  Ca  Ca3  1  0.80443600  0.52974600  0.57776600  1
  Ca  Ca4  1  0.69556400  0.52974600  0.07776600  1
  Ca  Ca5  1  0.30443600  0.97025400  0.57776600  1
  Ca  Ca6  1  0.80443600  0.02974600  0.92223400  1
  Ca  Ca7  1  0.19556400  0.47025400  0.42223400  1
  Ca  Ca8  1  0.48793700  0.33933900  0.60236400  1
  Ca  Ca9  1  0.51206300  0.16066100  0.10236400  1
  Ca  Ca10  1  0.01206300  0.83933900  0.39763600  1
  Ca  Ca11  1  0.98793700  0.66066100  0.89763600  1
  Ca  Ca12  1  0.51206300  0.66066100  0.39763600  1
  Ca  Ca13  1  0.48793700  0.83933900  0.89763600  1
  Ca  Ca14  1  0.98793700  0.16066100  0.60236400  1
  Ca  Ca15  1  0.01206300  0.33933900  0.10236400  1
  Si  Si16  1  0.27231900  0.16460000  0.84820400  1
  Si  Si17  1  0.72768100  0.33540000  0.34820400  1
  Si  Si18  1  0.22768100  0.66460000  0.15179600  1
  Si  Si19  1  0.77231900  0.83540000  0.65179600  1
  Si  Si20  1  0.72768100  0.83540000  0.15179600  1
  Si  Si21  1  0.27231900  0.66460000  0.65179600  1
  Si  Si22  1  0.77231900  0.33540000  0.84820400  1
  Si  Si23  1  0.22768100  0.16460000  0.34820400  1
  O  O24  1  0.36418900  0.04812100  0.92791600  1
  O  O25  1  0.63581100  0.45187900  0.42791600  1
  O  O26  1  0.13581100  0.54812100  0.07208400  1
  O  O27  1  0.86418900  0.95187900  0.57208400  1
  O  O28  1  0.63581100  0.95187900  0.07208400  1
  O  O29  1  0.36418900  0.54812100  0.57208400  1
  O  O30  1  0.86418900  0.45187900  0.92791600  1
  O  O31  1  0.13581100  0.04812100  0.42791600  1
  O  O32  1  0.17422000  0.24456100  0.95740100  1
  O  O33  1  0.82578000  0.25543900  0.45740100  1
  O  O34  1  0.32578000  0.74456100  0.04259900  1
  O  O35  1  0.67422000  0.75543900  0.54259900  1
  O  O36  1  0.82578000  0.75543900  0.04259900  1
  O  O37  1  0.17422000  0.74456100  0.54259900  1
  O  O38  1  0.67422000  0.25543900  0.95740100  1
  O  O39  1  0.32578000  0.24456100  0.45740100  1
  O  O40  1  0.37045100  0.28882300  0.79056500  1
  O  O41  1  0.62954900  0.21117700  0.29056500  1
  O  O42  1  0.12954900  0.78882300  0.20943500  1
  O  O43  1  0.87045100  0.71117700  0.70943500  1
  O  O44  1  0.62954900  0.71117700  0.20943500  1
  O  O45  1  0.37045100  0.78882300  0.70943500  1
  O  O46  1  0.87045100  0.21117700  0.79056500  1
  O  O47  1  0.12954900  0.28882300  0.29056500  1
  O  O48  1  0.18525000  0.09923800  0.72741800  1
  O  O49  1  0.81475000  0.40076200  0.22741800  1
  O  O50  1  0.31475000  0.59923800  0.27258200  1
  O  O51  1  0.68525000  0.90076200  0.77258200  1
  O  O52  1  0.81475000  0.90076200  0.27258200  1
  O  O53  1  0.18525000  0.59923800  0.77258200  1
  O  O54  1  0.68525000  0.40076200  0.72741800  1
  O  O55  1  0.31475000  0.09923800  0.22741800  1
  O  O56  1  0.01119300  0.40751700  0.56527900  1
  O  O57  1  0.98880700  0.09248300  0.06527900  1
  O  O58  1  0.48880700  0.90751700  0.43472100  1
  O  O59  1  0.51119300  0.59248300  0.93472100  1
  O  O60  1  0.98880700  0.59248300  0.43472100  1
  O  O61  1  0.01119300  0.90751700  0.93472100  1
  O  O62  1  0.51119300  0.09248300  0.56527900  1
  O  O63  1  0.48880700  0.40751700  0.06527900  1
