# generated using pymatgen
data_Fe3(OF2)2
_symmetry_space_group_name_H-M   'P 1'
_cell_length_a   4.83463456
_cell_length_b   4.83463456
_cell_length_c   9.27975987
_cell_angle_alpha   89.63166276
_cell_angle_beta   89.63166276
_cell_angle_gamma   93.42276656
_symmetry_Int_Tables_number   1
_chemical_formula_structural   Fe3(OF2)2
_chemical_formula_sum   'Fe6 O4 F8'
_cell_volume   216.50581237
_cell_formula_units_Z   2
loop_
 _symmetry_equiv_pos_site_id
 _symmetry_equiv_pos_as_xyz
  1  'x, y, z'
loop_
 _atom_site_type_symbol
 _atom_site_label
 _atom_site_symmetry_multiplicity
 _atom_site_fract_x
 _atom_site_fract_y
 _atom_site_fract_z
 _atom_site_occupancy
  Fe  Fe0  1  0.00000000  0.00000000  0.00000000  1
  Fe  Fe1  1  0.02599700  0.02599700  0.33539800  1
  Fe  Fe2  1  0.97400300  0.97400300  0.66460200  1
  Fe  Fe3  1  0.48718000  0.48718000  0.15728400  1
  Fe  Fe4  1  0.51282000  0.51282000  0.84271600  1
  Fe  Fe5  1  0.50000000  0.50000000  0.50000000  1
  O  O6  1  0.70241400  0.70241400  0.00388400  1
  O  O7  1  0.66896200  0.66896200  0.66799400  1
  O  O8  1  0.29758600  0.29758600  0.99611600  1
  O  O9  1  0.33103800  0.33103800  0.33200600  1
  F  F10  1  0.20224500  0.80553900  0.16025000  1
  F  F11  1  0.20775900  0.79224100  0.50000000  1
  F  F12  1  0.19446100  0.79775500  0.83975000  1
  F  F13  1  0.71030900  0.71030900  0.33360400  1
  F  F14  1  0.28969100  0.28969100  0.66639600  1
  F  F15  1  0.80553900  0.20224500  0.16025000  1
  F  F16  1  0.79775500  0.19446100  0.83975000  1
  F  F17  1  0.79224100  0.20775900  0.50000000  1
