# generated using pymatgen
data_Ti3N2O3
_symmetry_space_group_name_H-M   'P 1'
_cell_length_a   5.24986299
_cell_length_b   5.24986299
_cell_length_c   9.91043840
_cell_angle_alpha   89.51563851
_cell_angle_beta   89.51563851
_cell_angle_gamma   43.11478338
_symmetry_Int_Tables_number   1
_chemical_formula_structural   Ti3N2O3
_chemical_formula_sum   'Ti6 N4 O6'
_cell_volume   186.67464315
_cell_formula_units_Z   2
loop_
 _symmetry_equiv_pos_site_id
 _symmetry_equiv_pos_as_xyz
  1  'x, y, z'
loop_
 _atom_site_type_symbol
 _atom_site_label
 _atom_site_symmetry_multiplicity
 _atom_site_fract_x
 _atom_site_fract_y
 _atom_site_fract_z
 _atom_site_occupancy
  Ti  Ti0  1  0.85303400  0.85303400  0.56532000  1
  Ti  Ti1  1  0.85338600  0.85338600  0.94111100  1
  Ti  Ti2  1  0.79866500  0.79866500  0.24891900  1
  Ti  Ti3  1  0.20144100  0.20144100  0.75757600  1
  Ti  Ti4  1  0.14165100  0.14165100  0.05559900  1
  Ti  Ti5  1  0.13351600  0.13351600  0.44032700  1
  N  N6  1  0.69361700  0.69361700  0.42771600  1
  N  N7  1  0.69016400  0.69016400  0.07800500  1
  N  N8  1  0.76382000  0.76382000  0.74531300  1
  N  N9  1  0.30785400  0.30785400  0.92687500  1
  O  O10  1  0.95345900  0.95345900  0.11815200  1
  O  O11  1  0.95662500  0.95662500  0.37765000  1
  O  O12  1  0.04679300  0.04679300  0.61544700  1
  O  O13  1  0.04666500  0.04666500  0.88108500  1
  O  O14  1  0.31449200  0.31449200  0.57018100  1
  O  O15  1  0.24482600  0.24482600  0.25072500  1
