# generated using pymatgen
data_Co6O5F7
_symmetry_space_group_name_H-M   'P 1'
_cell_length_a   4.61128900
_cell_length_b   5.55733372
_cell_length_c   7.69757387
_cell_angle_alpha   92.47378735
_cell_angle_beta   92.27037840
_cell_angle_gamma   90.11764681
_symmetry_Int_Tables_number   1
_chemical_formula_structural   Co6O5F7
_chemical_formula_sum   'Co6 O5 F7'
_cell_volume   196.92172302
_cell_formula_units_Z   1
loop_
 _symmetry_equiv_pos_site_id
 _symmetry_equiv_pos_as_xyz
  1  'x, y, z'
loop_
 _atom_site_type_symbol
 _atom_site_label
 _atom_site_symmetry_multiplicity
 _atom_site_fract_x
 _atom_site_fract_y
 _atom_site_fract_z
 _atom_site_occupancy
  Co  Co0  1  0.47814300  0.49957500  0.00291400  1
  Co  Co1  1  0.54276900  0.82106900  0.35464600  1
  Co  Co2  1  0.46842100  0.15927800  0.67036800  1
  Co  Co3  1  0.01501500  0.66208400  0.67626200  1
  Co  Co4  1  0.98686400  0.35229200  0.30666200  1
  Co  Co5  1  0.03534600  0.01685700  0.98806200  1
  O  O6  1  0.19075100  0.94637000  0.76762200  1
  O  O7  1  0.20042100  0.30790000  0.09395600  1
  O  O8  1  0.29285800  0.46578500  0.77500400  1
  O  O9  1  0.70717200  0.86030900  0.56688100  1
  O  O10  1  0.68663500  0.52915700  0.22666300  1
  F  F11  1  0.19878600  0.62954100  0.42883000  1
  F  F12  1  0.30268100  0.81280700  0.12080900  1
  F  F13  1  0.29380400  0.13753900  0.42273900  1
  F  F14  1  0.69857000  0.19596400  0.89684900  1
  F  F15  1  0.80849400  0.03476100  0.22634700  1
  F  F16  1  0.78356000  0.69749600  0.91162500  1
  F  F17  1  0.80970900  0.37121700  0.56375900  1
