# generated using pymatgen
data_Na2Ti2O5
_symmetry_space_group_name_H-M   'P 1'
_cell_length_a   6.23413022
_cell_length_b   6.23413022
_cell_length_c   5.82317305
_cell_angle_alpha   81.42989049
_cell_angle_beta   81.42989049
_cell_angle_gamma   34.19550607
_symmetry_Int_Tables_number   1
_chemical_formula_structural   Na2Ti2O5
_chemical_formula_sum   'Na2 Ti2 O5'
_cell_volume   125.63725477
_cell_formula_units_Z   1
loop_
 _symmetry_equiv_pos_site_id
 _symmetry_equiv_pos_as_xyz
  1  'x, y, z'
loop_
 _atom_site_type_symbol
 _atom_site_label
 _atom_site_symmetry_multiplicity
 _atom_site_fract_x
 _atom_site_fract_y
 _atom_site_fract_z
 _atom_site_occupancy
  Na  Na0  1  0.40006600  0.40006600  0.35452900  1
  Na  Na1  1  0.59993400  0.59993400  0.64547100  1
  Ti  Ti2  1  0.85480000  0.85480000  0.90051300  1
  Ti  Ti3  1  0.14520000  0.14520000  0.09948700  1
  O  O4  1  0.87544000  0.87544000  0.60067700  1
  O  O5  1  0.32091300  0.32091300  0.01295300  1
  O  O6  1  0.67908700  0.67908700  0.98704700  1
  O  O7  1  0.12456000  0.12456000  0.39932300  1
  O  O8  1  0.00000000  0.00000000  0.00000000  1
