# generated using pymatgen
data_Co6O5F7
_symmetry_space_group_name_H-M   'P 1'
_cell_length_a   4.62862800
_cell_length_b   5.52889128
_cell_length_c   7.65434745
_cell_angle_alpha   86.42532411
_cell_angle_beta   88.06429905
_cell_angle_gamma   86.76447185
_symmetry_Int_Tables_number   1
_chemical_formula_structural   Co6O5F7
_chemical_formula_sum   'Co6 O5 F7'
_cell_volume   195.10102223
_cell_formula_units_Z   1
loop_
 _symmetry_equiv_pos_site_id
 _symmetry_equiv_pos_as_xyz
  1  'x, y, z'
loop_
 _atom_site_type_symbol
 _atom_site_label
 _atom_site_symmetry_multiplicity
 _atom_site_fract_x
 _atom_site_fract_y
 _atom_site_fract_z
 _atom_site_occupancy
  Co  Co0  1  0.53554300  0.52081100  0.01256800  1
  Co  Co1  1  0.46776700  0.17783000  0.34585800  1
  Co  Co2  1  0.51830800  0.83049400  0.64904300  1
  Co  Co3  1  0.00328200  0.33858000  0.67279800  1
  Co  Co4  1  0.98745400  0.66058500  0.32744400  1
  Co  Co5  1  0.99305500  0.98697100  0.00067800  1
  O  O6  1  0.80717200  0.68915000  0.11101100  1
  O  O7  1  0.71029900  0.54342300  0.75776100  1
  O  O8  1  0.69179500  0.86620100  0.43190700  1
  O  O9  1  0.30378900  0.12553500  0.57423700  1
  O  O10  1  0.28992600  0.46248300  0.23460100  1
  F  F11  1  0.80536900  0.37416800  0.42674900  1
  F  F12  1  0.79964200  0.04321200  0.77061600  1
  F  F13  1  0.68800100  0.19654000  0.10895600  1
  F  F14  1  0.31564800  0.80165700  0.88163200  1
  F  F15  1  0.19178200  0.94497300  0.23638200  1
  F  F16  1  0.20497600  0.30368500  0.90699000  1
  F  F17  1  0.18619100  0.63370400  0.55077000  1
