# generated using pymatgen
data_Ta2CrNO5
_symmetry_space_group_name_H-M   'P 1'
_cell_length_a   4.77220095
_cell_length_b   10.37525613
_cell_length_c   9.54438789
_cell_angle_alpha   62.61570584
_cell_angle_beta   89.72295152
_cell_angle_gamma   89.87258854
_symmetry_Int_Tables_number   1
_chemical_formula_structural   Ta2CrNO5
_chemical_formula_sum   'Ta8 Cr4 N4 O20'
_cell_volume   419.60910967
_cell_formula_units_Z   4
loop_
 _symmetry_equiv_pos_site_id
 _symmetry_equiv_pos_as_xyz
  1  'x, y, z'
loop_
 _atom_site_type_symbol
 _atom_site_label
 _atom_site_symmetry_multiplicity
 _atom_site_fract_x
 _atom_site_fract_y
 _atom_site_fract_z
 _atom_site_occupancy
  Ta  Ta0  1  0.99736400  0.32642500  0.33547000  1
  Ta  Ta1  1  0.99736600  0.32642500  0.83546900  1
  Ta  Ta2  1  0.99736200  0.67357600  0.16189500  1
  Ta  Ta3  1  0.99736500  0.67357600  0.66189300  1
  Ta  Ta4  1  0.51598900  0.16873500  0.17362900  1
  Ta  Ta5  1  0.51599200  0.16873600  0.67362900  1
  Ta  Ta6  1  0.51599100  0.83126700  0.84236100  1
  Ta  Ta7  1  0.51599300  0.83126500  0.34236300  1
  Cr  Cr8  1  0.49677000  0.49999400  0.99839400  1
  Cr  Cr9  1  0.00028000  0.99999900  0.00013200  1
  Cr  Cr10  1  0.00027800  0.99999800  0.50013500  1
  Cr  Cr11  1  0.49672900  0.49999300  0.49836000  1
  N  N12  1  0.80170600  0.16864600  0.31653200  1
  N  N13  1  0.80170600  0.16864600  0.81653000  1
  N  N14  1  0.80170600  0.83135600  0.98517700  1
  N  N15  1  0.80170700  0.83135500  0.48517600  1
  O  O16  1  0.19536800  0.50000100  0.84768300  1
  O  O17  1  0.19536700  0.50000100  0.34768600  1
  O  O18  1  0.80661600  0.50000100  0.15331000  1
  O  O19  1  0.80661500  0.50000100  0.65330600  1
  O  O20  1  0.19650200  0.82796400  0.68426800  1
  O  O21  1  0.19649900  0.82796300  0.18426900  1
  O  O22  1  0.19650200  0.17203600  0.01223200  1
  O  O23  1  0.19649900  0.17203700  0.51223100  1
  O  O24  1  0.30274900  0.00000000  0.34354900  1
  O  O25  1  0.30274900  0.00000000  0.84354800  1
  O  O26  1  0.68709500  0.00000000  0.15137500  1
  O  O27  1  0.68709500  0.00000100  0.65137500  1
  O  O28  1  0.30091000  0.33270200  0.18020200  1
  O  O29  1  0.30090900  0.33269900  0.68020000  1
  O  O30  1  0.30091100  0.66729800  0.01290400  1
  O  O31  1  0.30090900  0.66730200  0.51289900  1
  O  O32  1  0.69310100  0.33270300  0.98410400  1
  O  O33  1  0.69309900  0.33269900  0.48410600  1
  O  O34  1  0.69310100  0.66729900  0.81680600  1
  O  O35  1  0.69309900  0.66730200  0.31680400  1
