# generated using pymatgen
data_FeOF
_symmetry_space_group_name_H-M   'P 1'
_cell_length_a   3.04848200
_cell_length_b   4.79950300
_cell_length_c   14.25656300
_cell_angle_alpha   88.69055875
_cell_angle_beta   90.00000000
_cell_angle_gamma   90.00000000
_symmetry_Int_Tables_number   1
_chemical_formula_structural   FeOF
_chemical_formula_sum   'Fe6 O6 F6'
_cell_volume   208.53613129
_cell_formula_units_Z   6
loop_
 _symmetry_equiv_pos_site_id
 _symmetry_equiv_pos_as_xyz
  1  'x, y, z'
loop_
 _atom_site_type_symbol
 _atom_site_label
 _atom_site_symmetry_multiplicity
 _atom_site_fract_x
 _atom_site_fract_y
 _atom_site_fract_z
 _atom_site_occupancy
  Fe  Fe0  1  0.00000000  0.01061900  0.99408400  1
  Fe  Fe1  1  0.50000000  0.50878400  0.85533500  1
  Fe  Fe2  1  0.00000000  0.98717600  0.66049800  1
  Fe  Fe3  1  0.50000000  0.56306800  0.49817600  1
  Fe  Fe4  1  0.00000000  0.00605300  0.33166200  1
  Fe  Fe5  1  0.50000000  0.43257800  0.16293600  1
  O  O6  1  0.50000000  0.80025300  0.93985300  1
  O  O7  1  0.00000000  0.29320800  0.88842100  1
  O  O8  1  0.50000000  0.82090600  0.60158000  1
  O  O9  1  0.00000000  0.70834200  0.43127300  1
  O  O10  1  0.00000000  0.29457100  0.24012300  1
  O  O11  1  0.50000000  0.18498600  0.06437400  1
  F  F12  1  0.00000000  0.70230400  0.76249900  1
  F  F13  1  0.50000000  0.18439900  0.71905600  1
  F  F14  1  0.00000000  0.31569700  0.56311300  1
  F  F15  1  0.50000000  0.19554800  0.40470300  1
  F  F16  1  0.50000000  0.80771700  0.27022600  1
  F  F17  1  0.00000000  0.68379100  0.11208800  1
