# generated using pymatgen
data_As4N2Cl2O7
_symmetry_space_group_name_H-M   'P 1'
_cell_length_a   5.32919679
_cell_length_b   5.32919679
_cell_length_c   11.70540500
_cell_angle_alpha   90.00000000
_cell_angle_beta   90.00000000
_cell_angle_gamma   119.74256396
_symmetry_Int_Tables_number   1
_chemical_formula_structural   As4N2Cl2O7
_chemical_formula_sum   'As4 N2 Cl2 O7'
_cell_volume   288.64321859
_cell_formula_units_Z   1
loop_
 _symmetry_equiv_pos_site_id
 _symmetry_equiv_pos_as_xyz
  1  'x, y, z'
loop_
 _atom_site_type_symbol
 _atom_site_label
 _atom_site_symmetry_multiplicity
 _atom_site_fract_x
 _atom_site_fract_y
 _atom_site_fract_z
 _atom_site_occupancy
  As  As0  1  0.66708100  0.33291900  0.78409500  1
  As  As1  1  0.33291900  0.66708100  0.78409500  1
  As  As2  1  0.33291900  0.66708100  0.21590500  1
  As  As3  1  0.66708100  0.33291900  0.21590500  1
  N  N4  1  0.67539800  0.32460200  0.50000000  1
  N  N5  1  0.32460200  0.67539800  0.50000000  1
  Cl  Cl6  1  0.00000000  0.00000000  0.67499200  1
  Cl  Cl7  1  0.00000000  0.00000000  0.32500800  1
  O  O8  1  0.50000000  0.50000000  0.86535600  1
  O  O9  1  0.50000000  0.00000000  0.86564600  1
  O  O10  1  0.00000000  0.50000000  0.86564600  1
  O  O11  1  0.50000000  0.50000000  0.13464400  1
  O  O12  1  0.50000000  0.00000000  0.13435400  1
  O  O13  1  0.00000000  0.50000000  0.13435400  1
  O  O14  1  0.00000000  0.00000000  0.00000000  1
