# generated using pymatgen
data_Li3Co5OF11
_symmetry_space_group_name_H-M   'P 1'
_cell_length_a   5.18107840
_cell_length_b   5.55201544
_cell_length_c   9.36411245
_cell_angle_alpha   86.27992939
_cell_angle_beta   72.51940916
_cell_angle_gamma   116.90830893
_symmetry_Int_Tables_number   1
_chemical_formula_structural   Li3Co5OF11
_chemical_formula_sum   'Li3 Co5 O1 F11'
_cell_volume   222.62887461
_cell_formula_units_Z   1
loop_
 _symmetry_equiv_pos_site_id
 _symmetry_equiv_pos_as_xyz
  1  'x, y, z'
loop_
 _atom_site_type_symbol
 _atom_site_label
 _atom_site_symmetry_multiplicity
 _atom_site_fract_x
 _atom_site_fract_y
 _atom_site_fract_z
 _atom_site_occupancy
  Li  Li0  1  0.02248200  0.03520000  0.99939000  1
  Li  Li1  1  0.53053100  0.29890100  0.26623000  1
  Li  Li2  1  0.50840800  0.76430300  0.76095900  1
  Co  Co3  1  0.97807100  0.49542200  0.49802000  1
  Co  Co4  1  0.31276200  0.77182900  0.14608400  1
  Co  Co5  1  0.30308600  0.23260300  0.64761500  1
  Co  Co6  1  0.77091000  0.00475500  0.40110200  1
  Co  Co7  1  0.80851000  0.50741500  0.90652100  1
  O  O8  1  0.60282300  0.25386500  0.45706000  1
  F  F9  1  0.07965200  0.85477400  0.35222400  1
  F  F10  1  0.22358600  0.42394400  0.28868800  1
  F  F11  1  0.20803100  0.89864300  0.80281600  1
  F  F12  1  0.40695500  0.15927200  0.04214400  1
  F  F13  1  0.37723400  0.63819800  0.54260600  1
  F  F14  1  0.09808200  0.34656400  0.84706700  1
  F  F15  1  0.91195500  0.59967200  0.10310400  1
  F  F16  1  0.59604000  0.74982100  0.95067200  1
  F  F17  1  0.70950000  0.00233200  0.19511200  1
  F  F18  1  0.70902000  0.50628500  0.70909000  1
  F  F19  1  0.89211900  0.08060200  0.60837300  1
