# generated using pymatgen
data_Co6OF11
_symmetry_space_group_name_H-M   'P 1'
_cell_length_a   4.72733173
_cell_length_b   4.72733173
_cell_length_c   9.59031300
_cell_angle_alpha   90.00000000
_cell_angle_beta   90.00000000
_cell_angle_gamma   91.31118532
_symmetry_Int_Tables_number   1
_chemical_formula_structural   Co6OF11
_chemical_formula_sum   'Co6 O1 F11'
_cell_volume   214.26498707
_cell_formula_units_Z   1
loop_
 _symmetry_equiv_pos_site_id
 _symmetry_equiv_pos_as_xyz
  1  'x, y, z'
loop_
 _atom_site_type_symbol
 _atom_site_label
 _atom_site_symmetry_multiplicity
 _atom_site_fract_x
 _atom_site_fract_y
 _atom_site_fract_z
 _atom_site_occupancy
  Co  Co0  1  0.00614100  0.00614100  0.65989000  1
  Co  Co1  1  0.00614100  0.00614100  0.34011000  1
  Co  Co2  1  0.00327800  0.00327800  0.00000000  1
  Co  Co3  1  0.46910700  0.46910700  0.50000000  1
  Co  Co4  1  0.50405000  0.50405000  0.83234400  1
  Co  Co5  1  0.50405000  0.50405000  0.16765600  1
  O  O6  1  0.20079800  0.20079800  0.50000000  1
  F  F7  1  0.19923400  0.19923400  0.83186100  1
  F  F8  1  0.19923400  0.19923400  0.16813900  1
  F  F9  1  0.69443700  0.30515400  0.33619100  1
  F  F10  1  0.69443700  0.30515400  0.66380900  1
  F  F11  1  0.70038500  0.30778500  0.00000000  1
  F  F12  1  0.30778500  0.70038500  0.00000000  1
  F  F13  1  0.30515400  0.69443700  0.66380900  1
  F  F14  1  0.30515400  0.69443700  0.33619100  1
  F  F15  1  0.78354900  0.78354900  0.50000000  1
  F  F16  1  0.80853400  0.80853400  0.83009400  1
  F  F17  1  0.80853400  0.80853400  0.16990600  1
