# generated using pymatgen
data_CoO2
_symmetry_space_group_name_H-M   'P 1'
_cell_length_a   2.82105798
_cell_length_b   10.94872445
_cell_length_c   4.92915723
_cell_angle_alpha   102.91440359
_cell_angle_beta   89.91177868
_cell_angle_gamma   95.91988637
_symmetry_Int_Tables_number   1
_chemical_formula_structural   CoO2
_chemical_formula_sum   'Co4 O8'
_cell_volume   147.56801654
_cell_formula_units_Z   4
loop_
 _symmetry_equiv_pos_site_id
 _symmetry_equiv_pos_as_xyz
  1  'x, y, z'
loop_
 _atom_site_type_symbol
 _atom_site_label
 _atom_site_symmetry_multiplicity
 _atom_site_fract_x
 _atom_site_fract_y
 _atom_site_fract_z
 _atom_site_occupancy
  Co  Co0  1  0.53987900  0.99212800  0.50071100  1
  Co  Co1  1  0.29499300  0.49613300  0.74827700  1
  Co  Co2  1  0.03987700  0.99212800  0.00071100  1
  Co  Co3  1  0.79497700  0.49612900  0.24827400  1
  O  O4  1  0.00436700  0.90374500  0.62409900  1
  O  O5  1  0.50432800  0.90370600  0.12401200  1
  O  O6  1  0.32991700  0.58454100  0.45923700  1
  O  O7  1  0.82992600  0.58452200  0.95927900  1
  O  O8  1  0.07525000  0.08055500  0.37727100  1
  O  O9  1  0.57528600  0.08059500  0.87735400  1
  O  O10  1  0.75968900  0.40763900  0.53697800  1
  O  O11  1  0.25970000  0.40762100  0.03702200  1
