# generated using pymatgen
data_Y3AlO6
_symmetry_space_group_name_H-M   'P 1'
_cell_length_a   7.13525011
_cell_length_b   7.13525011
_cell_length_c   5.40160400
_cell_angle_alpha   90.00000000
_cell_angle_beta   90.00000000
_cell_angle_gamma   102.78195559
_symmetry_Int_Tables_number   1
_chemical_formula_structural   Y3AlO6
_chemical_formula_sum   'Y6 Al2 O12'
_cell_volume   268.19046535
_cell_formula_units_Z   2
loop_
 _symmetry_equiv_pos_site_id
 _symmetry_equiv_pos_as_xyz
  1  'x, y, z'
loop_
 _atom_site_type_symbol
 _atom_site_label
 _atom_site_symmetry_multiplicity
 _atom_site_fract_x
 _atom_site_fract_y
 _atom_site_fract_z
 _atom_site_occupancy
  Y  Y0  1  0.08667500  0.29874400  0.46988900  1
  Y  Y1  1  0.29874400  0.08667500  0.96988900  1
  Y  Y2  1  0.60259600  0.39740400  0.42427100  1
  Y  Y3  1  0.39740400  0.60259600  0.92427100  1
  Y  Y4  1  0.91332500  0.70125600  0.96988900  1
  Y  Y5  1  0.70125600  0.91332500  0.46988900  1
  Al  Al6  1  0.80484300  0.19515700  0.00625800  1
  Al  Al7  1  0.19515700  0.80484300  0.50625800  1
  O  O8  1  0.32329800  0.35528500  0.19834900  1
  O  O9  1  0.35528500  0.32329800  0.69834900  1
  O  O10  1  0.58448700  0.11000200  0.17061600  1
  O  O11  1  0.11000200  0.58448700  0.67061600  1
  O  O12  1  0.95425800  0.04574200  0.12921600  1
  O  O13  1  0.78625000  0.21375000  0.67859600  1
  O  O14  1  0.21375000  0.78625000  0.17859600  1
  O  O15  1  0.04574200  0.95425800  0.62921600  1
  O  O16  1  0.88999800  0.41551300  0.17061600  1
  O  O17  1  0.41551300  0.88999800  0.67061600  1
  O  O18  1  0.67670200  0.64471500  0.69834900  1
  O  O19  1  0.64471500  0.67670200  0.19834900  1
