# generated using pymatgen
data_ReO3
_symmetry_space_group_name_H-M   'P 1'
_cell_length_a   5.36596257
_cell_length_b   5.36596257
_cell_length_c   5.36596200
_cell_angle_alpha   59.80271171
_cell_angle_beta   59.80271171
_cell_angle_gamma   59.80272073
_symmetry_Int_Tables_number   1
_chemical_formula_structural   ReO3
_chemical_formula_sum   'Re2 O6'
_cell_volume   108.76233699
_cell_formula_units_Z   2
loop_
 _symmetry_equiv_pos_site_id
 _symmetry_equiv_pos_as_xyz
  1  'x, y, z'
loop_
 _atom_site_type_symbol
 _atom_site_label
 _atom_site_symmetry_multiplicity
 _atom_site_fract_x
 _atom_site_fract_y
 _atom_site_fract_z
 _atom_site_occupancy
  Re  Re0  1  0.50000000  0.50000000  0.50000000  1
  Re  Re1  1  0.00000000  0.00000000  0.00000000  1
  O  O2  1  0.27701100  0.75000000  0.22298900  1
  O  O3  1  0.25000000  0.77701100  0.72298900  1
  O  O4  1  0.77701100  0.72298900  0.25000000  1
  O  O5  1  0.22298900  0.27701100  0.75000000  1
  O  O6  1  0.75000000  0.22298900  0.27701100  1
  O  O7  1  0.72298900  0.25000000  0.77701100  1
