# generated using pymatgen
data_Hg2W2O7
_symmetry_space_group_name_H-M   'P 1'
_cell_length_a   3.87525600
_cell_length_b   6.29007600
_cell_length_c   14.88594707
_cell_angle_alpha   74.75203357
_cell_angle_beta   90.00000000
_cell_angle_gamma   90.00000000
_symmetry_Int_Tables_number   1
_chemical_formula_structural   Hg2W2O7
_chemical_formula_sum   'Hg4 W4 O14'
_cell_volume   350.08100860
_cell_formula_units_Z   2
loop_
 _symmetry_equiv_pos_site_id
 _symmetry_equiv_pos_as_xyz
  1  'x, y, z'
loop_
 _atom_site_type_symbol
 _atom_site_label
 _atom_site_symmetry_multiplicity
 _atom_site_fract_x
 _atom_site_fract_y
 _atom_site_fract_z
 _atom_site_occupancy
  Hg  Hg0  1  0.67097200  0.35294200  0.06183800  1
  Hg  Hg1  1  0.32902800  0.35294200  0.56183800  1
  Hg  Hg2  1  0.67097200  0.64705800  0.43816200  1
  Hg  Hg3  1  0.32902800  0.64705800  0.93816200  1
  W  W4  1  0.98488100  0.81105700  0.68766100  1
  W  W5  1  0.98488100  0.18894300  0.81233900  1
  W  W6  1  0.01511900  0.81105700  0.18766100  1
  W  W7  1  0.01511900  0.18894300  0.31233900  1
  O  O8  1  0.00434900  0.79642100  0.57060000  1
  O  O9  1  0.49895600  0.18884100  0.30006700  1
  O  O10  1  0.01250700  0.50000000  0.75000000  1
  O  O11  1  0.98960700  0.13557400  0.16853500  1
  O  O12  1  0.00434900  0.20357900  0.92940000  1
  O  O13  1  0.98960700  0.86442600  0.33146500  1
  O  O14  1  0.50104400  0.18884100  0.80006700  1
  O  O15  1  0.49895600  0.81115900  0.19993300  1
  O  O16  1  0.01039300  0.13557400  0.66853500  1
  O  O17  1  0.99565100  0.79642100  0.07060000  1
  O  O18  1  0.01039300  0.86442600  0.83146500  1
  O  O19  1  0.98749300  0.50000000  0.25000000  1
  O  O20  1  0.50104400  0.81115900  0.69993300  1
  O  O21  1  0.99565100  0.20357900  0.42940000  1
