# generated using pymatgen
data_ZrCrO3
_symmetry_space_group_name_H-M   'P 1'
_cell_length_a   4.95303600
_cell_length_b   5.38238200
_cell_length_c   9.34998900
_cell_angle_alpha   89.99951005
_cell_angle_beta   89.99976789
_cell_angle_gamma   89.99966773
_symmetry_Int_Tables_number   1
_chemical_formula_structural   ZrCrO3
_chemical_formula_sum   'Zr4 Cr4 O12'
_cell_volume   249.26258918
_cell_formula_units_Z   4
loop_
 _symmetry_equiv_pos_site_id
 _symmetry_equiv_pos_as_xyz
  1  'x, y, z'
loop_
 _atom_site_type_symbol
 _atom_site_label
 _atom_site_symmetry_multiplicity
 _atom_site_fract_x
 _atom_site_fract_y
 _atom_site_fract_z
 _atom_site_occupancy
  Zr  Zr0  1  0.04709700  0.95306900  0.74999600  1
  Zr  Zr1  1  0.45291900  0.45305300  0.74999600  1
  Zr  Zr2  1  0.54708400  0.54695200  0.25000400  1
  Zr  Zr3  1  0.95291000  0.04693300  0.25000200  1
  Cr  Cr4  1  0.99999700  0.49999900  0.50000100  1
  Cr  Cr5  1  0.49999100  0.99999400  0.50000100  1
  Cr  Cr6  1  0.99998700  0.50000100  0.99999700  1
  Cr  Cr7  1  0.50001600  0.00000100  0.99999400  1
  O  O8  1  0.18452000  0.37554100  0.25000000  1
  O  O9  1  0.31547300  0.87554400  0.25000100  1
  O  O10  1  0.68452100  0.12446500  0.74999900  1
  O  O11  1  0.81548400  0.62445500  0.74999800  1
  O  O12  1  0.21077700  0.21814900  0.60115100  1
  O  O13  1  0.21078200  0.21815900  0.89885500  1
  O  O14  1  0.28921900  0.71815000  0.60115400  1
  O  O15  1  0.28922200  0.71815200  0.89885500  1
  O  O16  1  0.71077900  0.28184200  0.10114500  1
  O  O17  1  0.71078000  0.28184600  0.39885000  1
  O  O18  1  0.78921700  0.78184700  0.10114700  1
  O  O19  1  0.78922400  0.78184600  0.39885300  1
