# generated using pymatgen
data_V6O7F5
_symmetry_space_group_name_H-M   'P 1'
_cell_length_a   4.75405242
_cell_length_b   4.75405242
_cell_length_c   9.14497500
_cell_angle_alpha   90.00000000
_cell_angle_beta   90.00000000
_cell_angle_gamma   94.28702461
_symmetry_Int_Tables_number   1
_chemical_formula_structural   V6O7F5
_chemical_formula_sum   'V6 O7 F5'
_cell_volume   206.10742330
_cell_formula_units_Z   1
loop_
 _symmetry_equiv_pos_site_id
 _symmetry_equiv_pos_as_xyz
  1  'x, y, z'
loop_
 _atom_site_type_symbol
 _atom_site_label
 _atom_site_symmetry_multiplicity
 _atom_site_fract_x
 _atom_site_fract_y
 _atom_site_fract_z
 _atom_site_occupancy
  V  V0  1  0.98974400  0.01025600  0.65926300  1
  V  V1  1  0.98974400  0.01025600  0.34073700  1
  V  V2  1  0.99940200  0.00059800  0.00000000  1
  V  V3  1  0.53101100  0.46898900  0.50000000  1
  V  V4  1  0.49681100  0.50318900  0.83220600  1
  V  V5  1  0.49681100  0.50318900  0.16779400  1
  O  O6  1  0.80168200  0.19831800  0.50000000  1
  O  O7  1  0.30602000  0.29967700  0.66088300  1
  O  O8  1  0.30602000  0.29967700  0.33911700  1
  O  O9  1  0.29724800  0.30233000  0.00000000  1
  O  O10  1  0.70032300  0.69398000  0.66088300  1
  O  O11  1  0.70032300  0.69398000  0.33911700  1
  O  O12  1  0.69767000  0.70275200  0.00000000  1
  F  F13  1  0.80098500  0.19901500  0.16660100  1
  F  F14  1  0.80098500  0.19901500  0.83339900  1
  F  F15  1  0.19824100  0.80175900  0.50000000  1
  F  F16  1  0.19348900  0.80651100  0.83068700  1
  F  F17  1  0.19348900  0.80651100  0.16931300  1
