# generated using pymatgen
data_Mn6O11F
_symmetry_space_group_name_H-M   'P 1'
_cell_length_a   4.50718500
_cell_length_b   5.39903371
_cell_length_c   7.44730345
_cell_angle_alpha   86.15776352
_cell_angle_beta   89.46280934
_cell_angle_gamma   89.12560333
_symmetry_Int_Tables_number   1
_chemical_formula_structural   Mn6O11F
_chemical_formula_sum   'Mn6 O11 F1'
_cell_volume   180.79125941
_cell_formula_units_Z   1
loop_
 _symmetry_equiv_pos_site_id
 _symmetry_equiv_pos_as_xyz
  1  'x, y, z'
loop_
 _atom_site_type_symbol
 _atom_site_label
 _atom_site_symmetry_multiplicity
 _atom_site_fract_x
 _atom_site_fract_y
 _atom_site_fract_z
 _atom_site_occupancy
  Mn  Mn0  1  0.49638900  0.49729100  0.99873900  1
  Mn  Mn1  1  0.51699900  0.84441800  0.67276900  1
  Mn  Mn2  1  0.49912600  0.16559700  0.33370200  1
  Mn  Mn3  1  0.99248300  0.32463500  0.66780500  1
  Mn  Mn4  1  0.98734600  0.66385500  0.32265600  1
  Mn  Mn5  1  0.00642600  0.00282500  0.00419000  1
  O  O6  1  0.80417500  0.37067200  0.43408200  1
  O  O7  1  0.80823200  0.03558900  0.77220400  1
  O  O8  1  0.80316500  0.70446500  0.09883400  1
  O  O9  1  0.69320600  0.20274200  0.10202000  1
  O  O10  1  0.69513300  0.53716200  0.76756100  1
  O  O11  1  0.69625400  0.86990600  0.43602600  1
  O  O12  1  0.30627700  0.13009800  0.56656900  1
  O  O13  1  0.30658900  0.46584800  0.23228900  1
  O  O14  1  0.30205600  0.79399200  0.89619500  1
  O  O15  1  0.19345700  0.96166700  0.23230400  1
  O  O16  1  0.19457800  0.29468900  0.89831000  1
  F  F17  1  0.19810800  0.63454800  0.56374400  1
