# generated using pymatgen
data_FeHO2
_symmetry_space_group_name_H-M   'P 1'
_cell_length_a   5.99734900
_cell_length_b   11.08392868
_cell_length_c   11.98384008
_cell_angle_alpha   85.47174425
_cell_angle_beta   89.82857866
_cell_angle_gamma   89.78687066
_symmetry_Int_Tables_number   1
_chemical_formula_structural   FeHO2
_chemical_formula_sum   'Fe16 H16 O32'
_cell_volume   794.12102143
_cell_formula_units_Z   16
loop_
 _symmetry_equiv_pos_site_id
 _symmetry_equiv_pos_as_xyz
  1  'x, y, z'
loop_
 _atom_site_type_symbol
 _atom_site_label
 _atom_site_symmetry_multiplicity
 _atom_site_fract_x
 _atom_site_fract_y
 _atom_site_fract_z
 _atom_site_occupancy
  Fe  Fe0  1  0.02439400  0.66498200  0.08958600  1
  Fe  Fe1  1  0.99664100  0.85986100  0.64618500  1
  Fe  Fe2  1  0.21304900  0.15734400  0.56421500  1
  Fe  Fe3  1  0.25391300  0.33052600  0.13031800  1
  Fe  Fe4  1  0.03179700  0.33170300  0.86876500  1
  Fe  Fe5  1  0.97453800  0.14110300  0.31536500  1
  Fe  Fe6  1  0.20836100  0.82644500  0.37845700  1
  Fe  Fe7  1  0.23944300  0.63921400  0.80822400  1
  Fe  Fe8  1  0.51590900  0.65774400  0.08691300  1
  Fe  Fe9  1  0.47508600  0.83446300  0.64185000  1
  Fe  Fe10  1  0.71204100  0.15761700  0.57747400  1
  Fe  Fe11  1  0.74518000  0.28914800  0.13126600  1
  Fe  Fe12  1  0.52129700  0.33908000  0.86221500  1
  Fe  Fe13  1  0.48987400  0.11215600  0.31058700  1
  Fe  Fe14  1  0.71445400  0.82196100  0.38992100  1
  Fe  Fe15  1  0.76191800  0.65577200  0.82306600  1
  H  H16  1  0.97060300  0.98959400  0.46581500  1
  H  H17  1  0.98130500  0.61139600  0.62644700  1
  H  H18  1  0.32168600  0.20236600  0.76186000  1
  H  H19  1  0.23291400  0.09341300  0.12399900  1
  H  H20  1  0.93682400  0.30963200  0.65187900  1
  H  H21  1  0.00126400  0.37148200  0.31759300  1
  H  H22  1  0.25225400  0.50414500  0.99630400  1
  H  H23  1  0.42620900  0.69938700  0.28134200  1
  H  H24  1  0.54161900  0.59376700  0.64200500  1
  H  H25  1  0.44495600  0.78124600  0.90449100  1
  H  H26  1  0.76435500  0.48137600  0.96652300  1
  H  H27  1  0.47639100  0.99112400  0.49801100  1
  H  H28  1  0.50485100  0.33803200  0.32050400  1
  H  H29  1  0.78564500  0.81148800  0.16703500  1
  H  H30  1  0.75318700  0.50414500  0.20585800  1
  H  H31  1  0.75994400  0.89444400  0.82939300  1
  O  O32  1  0.95349500  0.75300600  0.31433500  1
  O  O33  1  0.96970900  0.96653900  0.38628800  1
  O  O34  1  0.98545200  0.63533200  0.70256700  1
  O  O35  1  0.00898700  0.66929500  0.92537000  1
  O  O36  1  0.28042000  0.21963500  0.84036100  1
  O  O37  1  0.26192600  0.46124100  0.84601500  1
  O  O38  1  0.24117600  0.14208000  0.18814600  1
  O  O39  1  0.24014800  0.17233000  0.40278600  1
  O  O40  1  0.96220300  0.27878700  0.57800500  1
  O  O41  1  0.97278400  0.03589100  0.60605400  1
  O  O42  1  0.99591700  0.33102500  0.24842000  1
  O  O43  1  0.00080600  0.31079200  0.03060300  1
  O  O44  1  0.28164900  0.73921300  0.14627100  1
  O  O45  1  0.26336700  0.52009700  0.07716500  1
  O  O46  1  0.24474600  0.82378300  0.75828100  1
  O  O47  1  0.22437000  0.80786600  0.54048600  1
  O  O48  1  0.46136900  0.70656900  0.36112000  1
  O  O49  1  0.47041900  0.94254200  0.35349000  1
  O  O50  1  0.51550900  0.64293200  0.70445100  1
  O  O51  1  0.48843000  0.69580500  0.92071800  1
  O  O52  1  0.78311500  0.27673400  0.79576600  1
  O  O53  1  0.73930100  0.48316900  0.88563400  1
  O  O54  1  0.74226500  0.12791700  0.19961400  1
  O  O55  1  0.71632400  0.17276500  0.41289000  1
  O  O56  1  0.45107300  0.23383700  0.63178000  1
  O  O57  1  0.47256500  0.01361700  0.57711000  1
  O  O58  1  0.50502500  0.35093400  0.23891300  1
  O  O59  1  0.50380300  0.30794000  0.02667700  1
  O  O60  1  0.76434900  0.77976200  0.09327200  1
  O  O61  1  0.76672600  0.54358600  0.13026900  1
  O  O62  1  0.74562300  0.84035100  0.76948800  1
  O  O63  1  0.74171900  0.80685500  0.55101800  1
