# generated using pymatgen
data_Dy2TiO5
_symmetry_space_group_name_H-M   'P 1'
_cell_length_a   6.46708232
_cell_length_b   6.46708232
_cell_length_c   7.55119748
_cell_angle_alpha   68.15337512
_cell_angle_beta   68.15337512
_cell_angle_gamma   48.22489218
_symmetry_Int_Tables_number   1
_chemical_formula_structural   Dy2TiO5
_chemical_formula_sum   'Dy4 Ti2 O10'
_cell_volume   215.06093424
_cell_formula_units_Z   2
loop_
 _symmetry_equiv_pos_site_id
 _symmetry_equiv_pos_as_xyz
  1  'x, y, z'
loop_
 _atom_site_type_symbol
 _atom_site_label
 _atom_site_symmetry_multiplicity
 _atom_site_fract_x
 _atom_site_fract_y
 _atom_site_fract_z
 _atom_site_occupancy
  Dy  Dy0  1  0.65197900  0.62761200  0.74186300  1
  Dy  Dy1  1  0.62761200  0.65197900  0.24186300  1
  Dy  Dy2  1  0.37238800  0.34802100  0.75813700  1
  Dy  Dy3  1  0.34802100  0.37238800  0.25813700  1
  Ti  Ti4  1  0.00000000  0.00000000  0.50000000  1
  Ti  Ti5  1  0.00000000  0.00000000  0.00000000  1
  O  O6  1  0.97875600  0.68499500  0.63980600  1
  O  O7  1  0.68499500  0.97875600  0.13980600  1
  O  O8  1  0.38873200  0.75451100  0.54114700  1
  O  O9  1  0.83514800  0.16485200  0.75000000  1
  O  O10  1  0.24548900  0.61126800  0.95885300  1
  O  O11  1  0.75451100  0.38873200  0.04114700  1
  O  O12  1  0.16485200  0.83514800  0.25000000  1
  O  O13  1  0.61126800  0.24548900  0.45885300  1
  O  O14  1  0.31500500  0.02124400  0.86019400  1
  O  O15  1  0.02124400  0.31500500  0.36019400  1
