# generated using pymatgen
data_CaPbI4
_symmetry_space_group_name_H-M   'P 1'
_cell_length_a   7.56889296
_cell_length_b   7.56889296
_cell_length_c   4.76919100
_cell_angle_alpha   90.00000000
_cell_angle_beta   90.00000000
_cell_angle_gamma   90.49305211
_symmetry_Int_Tables_number   1
_chemical_formula_structural   CaPbI4
_chemical_formula_sum   'Ca1 Pb1 I4'
_cell_volume   273.20796888
_cell_formula_units_Z   1
loop_
 _symmetry_equiv_pos_site_id
 _symmetry_equiv_pos_as_xyz
  1  'x, y, z'
loop_
 _atom_site_type_symbol
 _atom_site_label
 _atom_site_symmetry_multiplicity
 _atom_site_fract_x
 _atom_site_fract_y
 _atom_site_fract_z
 _atom_site_occupancy
  Ca  Ca0  1  0.50000000  0.50000000  0.50000000  1
  Pb  Pb1  1  0.00000000  0.00000000  0.00000000  1
  I  I2  1  0.79589800  0.20410200  0.50000000  1
  I  I3  1  0.30723600  0.30723600  0.00000000  1
  I  I4  1  0.69276400  0.69276400  0.00000000  1
  I  I5  1  0.20410200  0.79589800  0.50000000  1
