# generated using pymatgen
data_CoF3
_symmetry_space_group_name_H-M   'P 1'
_cell_length_a   9.36857517
_cell_length_b   7.28330101
_cell_length_c   5.32535347
_cell_angle_alpha   136.22877593
_cell_angle_beta   151.59655426
_cell_angle_gamma   34.82185314
_symmetry_Int_Tables_number   1
_chemical_formula_structural   CoF3
_chemical_formula_sum   'Co2 F6'
_cell_volume   98.70040356
_cell_formula_units_Z   2
loop_
 _symmetry_equiv_pos_site_id
 _symmetry_equiv_pos_as_xyz
  1  'x, y, z'
loop_
 _atom_site_type_symbol
 _atom_site_label
 _atom_site_symmetry_multiplicity
 _atom_site_fract_x
 _atom_site_fract_y
 _atom_site_fract_z
 _atom_site_occupancy
  Co  Co0  1  0.00000000  0.50000000  0.00000000  1
  Co  Co1  1  0.00000000  0.00000000  0.00000000  1
  F  F2  1  0.51667800  0.35575100  0.61283100  1
  F  F3  1  0.13578400  0.25000000  0.27156800  1
  F  F4  1  0.09615300  0.14424900  0.61283100  1
  F  F5  1  0.48332200  0.64424900  0.38716900  1
  F  F6  1  0.86421600  0.75000000  0.72843200  1
  F  F7  1  0.90384700  0.85575100  0.38716900  1
