# generated using pymatgen
data_BaV6O11
_symmetry_space_group_name_H-M   'P 1'
_cell_length_a   5.95460875
_cell_length_b   5.95460875
_cell_length_c   13.55212500
_cell_angle_alpha   90.00000000
_cell_angle_beta   90.00000000
_cell_angle_gamma   120.65911131
_symmetry_Int_Tables_number   1
_chemical_formula_structural   BaV6O11
_chemical_formula_sum   'Ba2 V12 O22'
_cell_volume   413.35346057
_cell_formula_units_Z   2
loop_
 _symmetry_equiv_pos_site_id
 _symmetry_equiv_pos_as_xyz
  1  'x, y, z'
loop_
 _atom_site_type_symbol
 _atom_site_label
 _atom_site_symmetry_multiplicity
 _atom_site_fract_x
 _atom_site_fract_y
 _atom_site_fract_z
 _atom_site_occupancy
  Ba  Ba0  1  0.66496500  0.33503500  0.75189300  1
  Ba  Ba1  1  0.33503500  0.66496500  0.25189300  1
  V  V2  1  0.66856800  0.33143200  0.25405400  1
  V  V3  1  0.33143200  0.66856800  0.75405400  1
  V  V4  1  0.00283800  0.99716200  0.64845900  1
  V  V5  1  0.99716200  0.00283800  0.14845900  1
  V  V6  1  0.99523600  0.00476400  0.85858500  1
  V  V7  1  0.00476400  0.99523600  0.35858500  1
  V  V8  1  0.48893100  0.98987200  0.00378500  1
  V  V9  1  0.49887000  0.50113000  0.50272500  1
  V  V10  1  0.98987200  0.48893100  0.50378500  1
  V  V11  1  0.01012800  0.51106900  0.00378500  1
  V  V12  1  0.50113000  0.49887000  0.00272500  1
  V  V13  1  0.51106900  0.01012800  0.50378500  1
  O  O14  1  0.67296800  0.32703200  0.08407500  1
  O  O15  1  0.32703200  0.67296800  0.58407500  1
  O  O16  1  0.66842100  0.33157900  0.41702900  1
  O  O17  1  0.33157900  0.66842100  0.91702900  1
  O  O18  1  0.84670500  0.70314500  0.25430400  1
  O  O19  1  0.14480800  0.85519200  0.75582000  1
  O  O20  1  0.70314500  0.84670500  0.75430400  1
  O  O21  1  0.29685500  0.15329500  0.25430400  1
  O  O22  1  0.85519200  0.14480800  0.25582000  1
  O  O23  1  0.15329500  0.29685500  0.75430400  1
  O  O24  1  0.82695300  0.64789400  0.58149700  1
  O  O25  1  0.17202900  0.82797100  0.08587800  1
  O  O26  1  0.64789400  0.82695300  0.08149700  1
  O  O27  1  0.35210600  0.17304700  0.58149700  1
  O  O28  1  0.16243100  0.34154800  0.42254100  1
  O  O29  1  0.83715600  0.16284400  0.92153200  1
  O  O30  1  0.34154800  0.16243100  0.92254100  1
  O  O31  1  0.65845200  0.83756900  0.42254100  1
  O  O32  1  0.16284400  0.83715600  0.42153200  1
  O  O33  1  0.83756900  0.65845200  0.92254100  1
  O  O34  1  0.17304700  0.35210600  0.08149700  1
  O  O35  1  0.82797100  0.17202900  0.58587800  1
