# generated using pymatgen
data_Ca(H8O5)2
_symmetry_space_group_name_H-M   'P 1'
_cell_length_a   5.95416849
_cell_length_b   6.43510661
_cell_length_c   12.25802176
_cell_angle_alpha   97.42322922
_cell_angle_beta   100.16966693
_cell_angle_gamma   85.62619679
_symmetry_Int_Tables_number   1
_chemical_formula_structural   Ca(H8O5)2
_chemical_formula_sum   'Ca2 H32 O20'
_cell_volume   457.73334029
_cell_formula_units_Z   2
loop_
 _symmetry_equiv_pos_site_id
 _symmetry_equiv_pos_as_xyz
  1  'x, y, z'
loop_
 _atom_site_type_symbol
 _atom_site_label
 _atom_site_symmetry_multiplicity
 _atom_site_fract_x
 _atom_site_fract_y
 _atom_site_fract_z
 _atom_site_occupancy
  Ca  Ca0  1  0.02608900  0.04564300  0.47693600  1
  Ca  Ca1  1  0.94927900  0.97663500  0.01457900  1
  H  H2  1  0.07403200  0.31385300  0.30297500  1
  H  H3  1  0.28199800  0.39998000  0.40039700  1
  H  H4  1  0.96649400  0.60666200  0.38488000  1
  H  H5  1  0.71918400  0.65492900  0.40886900  1
  H  H6  1  0.55224900  0.06065800  0.37447400  1
  H  H7  1  0.62272900  0.29949600  0.38948700  1
  H  H8  1  0.27255900  0.83147500  0.28590600  1
  H  H9  1  0.38714700  0.73774600  0.39867300  1
  H  H10  1  0.98448800  0.26276500  0.86526900  1
  H  H11  1  0.73188900  0.34881100  0.90189400  1
  H  H12  1  0.06178000  0.72019500  0.81255700  1
  H  H13  1  0.27637800  0.66082400  0.90610300  1
  H  H14  1  0.31547300  0.05516400  0.86000500  1
  H  H15  1  0.36784500  0.30224700  0.88484900  1
  H  H16  1  0.66320200  0.81036400  0.80663800  1
  H  H17  1  0.59504700  0.69446800  0.90457000  1
  H  H18  1  0.79243100  0.62013000  0.61928700  1
  H  H19  1  0.04274900  0.73906900  0.64435200  1
  H  H20  1  0.20420500  0.23045100  0.70716800  1
  H  H21  1  0.07581500  0.41952900  0.64749700  1
  H  H22  1  0.40271100  0.70013900  0.58564700  1
  H  H23  1  0.41175400  0.94897700  0.62056300  1
  H  H24  1  0.72802100  0.15169800  0.69225900  1
  H  H25  1  0.60771500  0.27377400  0.59277400  1
  H  H26  1  0.30808800  0.63784800  0.10618400  1
  H  H27  1  0.07466000  0.63495900  0.15639800  1
  H  H28  1  0.77741300  0.39517400  0.11524700  1
  H  H29  1  0.05462700  0.32342500  0.12091100  1
  H  H30  1  0.62574100  0.73648500  0.11056800  1
  H  H31  1  0.71809600  0.91023300  0.21389900  1
  H  H32  1  0.39687400  0.29776800  0.07470200  1
  H  H33  1  0.43934900  0.06927800  0.11125200  1
  O  O34  1  0.52216300  0.52374600  0.43450700  1
  O  O35  1  0.50744100  0.49958800  0.94230800  1
  O  O36  1  0.56578100  0.52943500  0.55874300  1
  O  O37  1  0.52881800  0.51292300  0.06635800  1
  O  O38  1  0.12440400  0.33867700  0.38411900  1
  O  O39  1  0.85325200  0.72606200  0.38968200  1
  O  O40  1  0.67644300  0.14770000  0.36567400  1
  O  O41  1  0.31276000  0.87172300  0.36700900  1
  O  O42  1  0.83744600  0.22460800  0.88286500  1
  O  O43  1  0.14397700  0.76544700  0.88890400  1
  O  O44  1  0.26029400  0.19498900  0.83978000  1
  O  O45  1  0.64583800  0.83185400  0.88481900  1
  O  O46  1  0.94136800  0.65891000  0.67651300  1
  O  O47  1  0.14949300  0.27696000  0.63188600  1
  O  O48  1  0.29845300  0.83953100  0.60316800  1
  O  O49  1  0.66060100  0.12772000  0.61322300  1
  O  O50  1  0.17714000  0.72924600  0.13639000  1
  O  O51  1  0.91431700  0.30668300  0.15013800  1
  O  O52  1  0.68468300  0.88504700  0.13214100  1
  O  O53  1  0.31433100  0.17110500  0.08432400  1
