# generated using pymatgen
data_CrO
_symmetry_space_group_name_H-M   'P 1'
_cell_length_a   5.75698000
_cell_length_b   5.75698000
_cell_length_c   5.81641700
_cell_angle_alpha   90.00000000
_cell_angle_beta   90.00000000
_cell_angle_gamma   90.00000000
_symmetry_Int_Tables_number   1
_chemical_formula_structural   CrO
_chemical_formula_sum   'Cr8 O8'
_cell_volume   192.77245423
_cell_formula_units_Z   8
loop_
 _symmetry_equiv_pos_site_id
 _symmetry_equiv_pos_as_xyz
  1  'x, y, z'
loop_
 _atom_site_type_symbol
 _atom_site_label
 _atom_site_symmetry_multiplicity
 _atom_site_fract_x
 _atom_site_fract_y
 _atom_site_fract_z
 _atom_site_occupancy
  Cr  Cr0  1  0.00000000  0.00000000  0.25000000  1
  Cr  Cr1  1  0.00000000  0.00000000  0.75000000  1
  Cr  Cr2  1  0.00000000  0.50000000  0.50000000  1
  Cr  Cr3  1  0.24741000  0.45876200  0.00000000  1
  Cr  Cr4  1  0.45876200  0.75259000  0.50000000  1
  Cr  Cr5  1  0.50000000  0.00000000  0.00000000  1
  Cr  Cr6  1  0.54123800  0.24741000  0.50000000  1
  Cr  Cr7  1  0.75259000  0.54123800  0.00000000  1
  O  O8  1  0.19061600  0.69345100  0.26413600  1
  O  O9  1  0.19061600  0.69345100  0.73586400  1
  O  O10  1  0.30654900  0.19061600  0.23586400  1
  O  O11  1  0.30654900  0.19061600  0.76413600  1
  O  O12  1  0.69345100  0.80938400  0.23586400  1
  O  O13  1  0.69345100  0.80938400  0.76413600  1
  O  O14  1  0.80938400  0.30654900  0.26413600  1
  O  O15  1  0.80938400  0.30654900  0.73586400  1
