# generated using pymatgen
data_K6Cr2O9
_symmetry_space_group_name_H-M   'P 1'
_cell_length_a   6.41423896
_cell_length_b   6.41423896
_cell_length_c   7.86959679
_cell_angle_alpha   89.11606678
_cell_angle_beta   89.11606678
_cell_angle_gamma   83.81035518
_symmetry_Int_Tables_number   1
_chemical_formula_structural   K6Cr2O9
_chemical_formula_sum   'K6 Cr2 O9'
_cell_volume   321.81796951
_cell_formula_units_Z   1
loop_
 _symmetry_equiv_pos_site_id
 _symmetry_equiv_pos_as_xyz
  1  'x, y, z'
loop_
 _atom_site_type_symbol
 _atom_site_label
 _atom_site_symmetry_multiplicity
 _atom_site_fract_x
 _atom_site_fract_y
 _atom_site_fract_z
 _atom_site_occupancy
  K  K0  1  0.50029800  0.50029800  0.98258400  1
  K  K1  1  0.99862300  0.50482900  0.26620800  1
  K  K2  1  0.00302900  0.49339600  0.77959700  1
  K  K3  1  0.99587300  0.99587300  0.53551400  1
  K  K4  1  0.49339600  0.00302900  0.77959700  1
  K  K5  1  0.50482900  0.99862300  0.26620800  1
  Cr  Cr6  1  0.51109500  0.51109500  0.50921500  1
  Cr  Cr7  1  0.97016100  0.97016100  0.98604300  1
  O  O8  1  0.79716000  0.79716000  0.05964300  1
  O  O9  1  0.16339700  0.82765700  0.87286400  1
  O  O10  1  0.67595000  0.67595000  0.60226700  1
  O  O11  1  0.32849800  0.67101200  0.39195400  1
  O  O12  1  0.67101200  0.32849800  0.39195400  1
  O  O13  1  0.37001200  0.37001200  0.65243100  1
  O  O14  1  0.82765700  0.16339700  0.87286400  1
  O  O15  1  0.23189400  0.23189400  0.07434000  1
  O  O16  1  0.09261600  0.09261600  0.15921900  1
