# generated using pymatgen
data_BaSi2O9
_symmetry_space_group_name_H-M   'P 1'
_cell_length_a   5.47523678
_cell_length_b   8.28476378
_cell_length_c   17.21250103
_cell_angle_alpha   90.01443723
_cell_angle_beta   89.87534889
_cell_angle_gamma   90.04686422
_symmetry_Int_Tables_number   1
_chemical_formula_structural   BaSi2O9
_chemical_formula_sum   'Ba4 Si8 O36'
_cell_volume   780.77487169
_cell_formula_units_Z   4
loop_
 _symmetry_equiv_pos_site_id
 _symmetry_equiv_pos_as_xyz
  1  'x, y, z'
loop_
 _atom_site_type_symbol
 _atom_site_label
 _atom_site_symmetry_multiplicity
 _atom_site_fract_x
 _atom_site_fract_y
 _atom_site_fract_z
 _atom_site_occupancy
  Ba  Ba0  1  0.63411400  0.25054200  0.99941100  1
  Ba  Ba1  1  0.13541000  0.25017200  0.50094500  1
  Ba  Ba2  1  0.36617600  0.74941800  0.00066500  1
  Ba  Ba3  1  0.86436900  0.74982300  0.49927700  1
  Si  Si4  1  0.71219100  0.05485800  0.29378400  1
  Si  Si5  1  0.21326800  0.44440700  0.20638800  1
  Si  Si6  1  0.28757600  0.55554500  0.70630400  1
  Si  Si7  1  0.78704500  0.94502700  0.79360600  1
  Si  Si8  1  0.28788900  0.94500500  0.70624000  1
  Si  Si9  1  0.78674800  0.55549100  0.79365800  1
  Si  Si10  1  0.71248800  0.44432800  0.29374600  1
  Si  Si11  1  0.21298600  0.05486200  0.20641500  1
  O  O12  1  0.94794500  0.99908100  0.24178100  1
  O  O13  1  0.44833600  0.50036600  0.25834200  1
  O  O14  1  0.05151700  0.49993300  0.75817900  1
  O  O15  1  0.55235100  0.00117000  0.74155000  1
  O  O16  1  0.05212100  0.00068300  0.75824400  1
  O  O17  1  0.55170400  0.49944400  0.74170900  1
  O  O18  1  0.94855000  0.50000800  0.24188500  1
  O  O19  1  0.44767500  0.99872400  0.25848100  1
  O  O20  1  0.71659900  0.96699000  0.38102500  1
  O  O21  1  0.21753800  0.53234600  0.11917300  1
  O  O22  1  0.28330800  0.46726400  0.61918100  1
  O  O23  1  0.78221300  0.03262800  0.88093900  1
  O  O24  1  0.28346500  0.03282000  0.61900600  1
  O  O25  1  0.78260300  0.46765300  0.88089800  1
  O  O26  1  0.71676000  0.53280000  0.38082800  1
  O  O27  1  0.21784900  0.96733400  0.11905600  1
  O  O28  1  0.71316100  0.24960200  0.30444500  1
  O  O29  1  0.21509600  0.24961500  0.19561100  1
  O  O30  1  0.28709200  0.75026300  0.69560500  1
  O  O31  1  0.78475800  0.75027600  0.80441700  1
  O  O32  1  0.63209000  0.25077300  0.50145200  1
  O  O33  1  0.13068500  0.25004500  0.99690800  1
  O  O34  1  0.36778100  0.74966300  0.49781600  1
  O  O35  1  0.86954000  0.75074500  0.00324500  1
  O  O36  1  0.46159400  0.01240800  0.08896500  1
  O  O37  1  0.95706400  0.48464100  0.41205400  1
  O  O38  1  0.53844600  0.51180400  0.91106400  1
  O  O39  1  0.04257200  0.98471500  0.58806800  1
  O  O40  1  0.53846900  0.98776300  0.91108500  1
  O  O41  1  0.04281300  0.51540300  0.58803400  1
  O  O42  1  0.46158800  0.48803400  0.08899700  1
  O  O43  1  0.95733100  0.01521900  0.41199500  1
  O  O44  1  0.67305900  0.24997700  0.57453400  1
  O  O45  1  0.17467000  0.25040700  0.92391800  1
  O  O46  1  0.32553600  0.75022800  0.42482000  1
  O  O47  1  0.82586200  0.74969800  0.07625200  1
