# generated using pymatgen
data_AsAuO3
_symmetry_space_group_name_H-M   'P 1'
_cell_length_a   8.36058177
_cell_length_b   8.36058177
_cell_length_c   5.17151312
_cell_angle_alpha   78.34997646
_cell_angle_beta   78.34997646
_cell_angle_gamma   80.95886441
_symmetry_Int_Tables_number   1
_chemical_formula_structural   AsAuO3
_chemical_formula_sum   'As4 Au4 O12'
_cell_volume   344.18404548
_cell_formula_units_Z   4
loop_
 _symmetry_equiv_pos_site_id
 _symmetry_equiv_pos_as_xyz
  1  'x, y, z'
loop_
 _atom_site_type_symbol
 _atom_site_label
 _atom_site_symmetry_multiplicity
 _atom_site_fract_x
 _atom_site_fract_y
 _atom_site_fract_z
 _atom_site_occupancy
  As  As0  1  0.62685200  0.79708400  0.83808600  1
  As  As1  1  0.79708400  0.62685200  0.33808600  1
  As  As2  1  0.20291600  0.37314800  0.66191400  1
  As  As3  1  0.37314800  0.20291600  0.16191400  1
  Au  Au4  1  0.08557100  0.91442900  0.25000000  1
  Au  Au5  1  0.72613500  0.27386500  0.25000000  1
  Au  Au6  1  0.27386500  0.72613500  0.75000000  1
  Au  Au7  1  0.91442900  0.08557100  0.75000000  1
  O  O8  1  0.76794800  0.92437700  0.68888000  1
  O  O9  1  0.92437700  0.76794800  0.18888000  1
  O  O10  1  0.42986200  0.87813500  0.81151200  1
  O  O11  1  0.61791700  0.69263200  0.17934100  1
  O  O12  1  0.87813500  0.42986200  0.31151200  1
  O  O13  1  0.69263200  0.61791700  0.67934100  1
  O  O14  1  0.30736800  0.38208300  0.32065900  1
  O  O15  1  0.12186500  0.57013800  0.68848800  1
  O  O16  1  0.38208300  0.30736800  0.82065900  1
  O  O17  1  0.57013800  0.12186500  0.18848800  1
  O  O18  1  0.07562300  0.23205200  0.81112000  1
  O  O19  1  0.23205200  0.07562300  0.31112000  1
