# generated using pymatgen
data_V2O5
_symmetry_space_group_name_H-M   'P 1'
_cell_length_a   5.91742500
_cell_length_b   8.53193900
_cell_length_c   10.13865400
_cell_angle_alpha   90.00000000
_cell_angle_beta   90.00000000
_cell_angle_gamma   90.00000000
_symmetry_Int_Tables_number   1
_chemical_formula_structural   V2O5
_chemical_formula_sum   'V8 O20'
_cell_volume   511.87133100
_cell_formula_units_Z   4
loop_
 _symmetry_equiv_pos_site_id
 _symmetry_equiv_pos_as_xyz
  1  'x, y, z'
loop_
 _atom_site_type_symbol
 _atom_site_label
 _atom_site_symmetry_multiplicity
 _atom_site_fract_x
 _atom_site_fract_y
 _atom_site_fract_z
 _atom_site_occupancy
  V  V0  1  0.25000000  0.84166400  0.90125800  1
  V  V1  1  0.75000000  0.70214600  0.77210500  1
  V  V2  1  0.25000000  0.20214600  0.72789500  1
  V  V3  1  0.75000000  0.34166400  0.59874200  1
  V  V4  1  0.25000000  0.65833600  0.40125800  1
  V  V5  1  0.75000000  0.79785400  0.27210500  1
  V  V6  1  0.25000000  0.29785400  0.22789500  1
  V  V7  1  0.75000000  0.15833600  0.09874200  1
  O  O8  1  0.75000000  0.09899900  0.94646000  1
  O  O9  1  0.25000000  0.32918300  0.84578600  1
  O  O10  1  0.50099500  0.72854400  0.87116800  1
  O  O11  1  0.99900500  0.72854400  0.87116800  1
  O  O12  1  0.25000000  0.00502200  0.79171200  1
  O  O13  1  0.75000000  0.50502200  0.70828800  1
  O  O14  1  0.00099500  0.22854400  0.62883200  1
  O  O15  1  0.49900500  0.22854400  0.62883200  1
  O  O16  1  0.75000000  0.82918300  0.65421400  1
  O  O17  1  0.25000000  0.59899900  0.55354000  1
  O  O18  1  0.75000000  0.40100100  0.44646000  1
  O  O19  1  0.25000000  0.17081700  0.34578600  1
  O  O20  1  0.99900500  0.77145600  0.37116800  1
  O  O21  1  0.50099500  0.77145600  0.37116800  1
  O  O22  1  0.25000000  0.49497800  0.29171200  1
  O  O23  1  0.75000000  0.99497800  0.20828800  1
  O  O24  1  0.00099500  0.27145600  0.12883200  1
  O  O25  1  0.49900500  0.27145600  0.12883200  1
  O  O26  1  0.75000000  0.67081700  0.15421400  1
  O  O27  1  0.25000000  0.90100100  0.05354000  1
