# generated using pymatgen
data_HoGe3
_symmetry_space_group_name_H-M   'P 1'
_cell_length_a   10.65443638
_cell_length_b   10.65443638
_cell_length_c   3.94033100
_cell_angle_alpha   90.00000000
_cell_angle_beta   90.00000000
_cell_angle_gamma   158.20132931
_symmetry_Int_Tables_number   1
_chemical_formula_structural   HoGe3
_chemical_formula_sum   'Ho2 Ge6'
_cell_volume   166.10119612
_cell_formula_units_Z   2
loop_
 _symmetry_equiv_pos_site_id
 _symmetry_equiv_pos_as_xyz
  1  'x, y, z'
loop_
 _atom_site_type_symbol
 _atom_site_label
 _atom_site_symmetry_multiplicity
 _atom_site_fract_x
 _atom_site_fract_y
 _atom_site_fract_z
 _atom_site_occupancy
  Ho  Ho0  1  0.08265600  0.91734400  0.25000000  1
  Ho  Ho1  1  0.91734400  0.08265600  0.75000000  1
  Ge  Ge2  1  0.80896600  0.19103400  0.25000000  1
  Ge  Ge3  1  0.19103400  0.80896600  0.75000000  1
  Ge  Ge4  1  0.68939500  0.31060500  0.25000000  1
  Ge  Ge5  1  0.31060500  0.68939500  0.75000000  1
  Ge  Ge6  1  0.46036300  0.53963700  0.25000000  1
  Ge  Ge7  1  0.53963700  0.46036300  0.75000000  1
