# generated using pymatgen
data_BiTeIO3
_symmetry_space_group_name_H-M   'P 1'
_cell_length_a   4.81562200
_cell_length_b   4.81562200
_cell_length_c   24.70435800
_cell_angle_alpha   90.00000000
_cell_angle_beta   90.00000000
_cell_angle_gamma   90.00000000
_symmetry_Int_Tables_number   1
_chemical_formula_structural   BiTeIO3
_chemical_formula_sum   'Bi4 Te4 I4 O12'
_cell_volume   572.89937956
_cell_formula_units_Z   4
loop_
 _symmetry_equiv_pos_site_id
 _symmetry_equiv_pos_as_xyz
  1  'x, y, z'
loop_
 _atom_site_type_symbol
 _atom_site_label
 _atom_site_symmetry_multiplicity
 _atom_site_fract_x
 _atom_site_fract_y
 _atom_site_fract_z
 _atom_site_occupancy
  Bi  Bi0  1  0.25000000  0.25000000  0.30783400  1
  Bi  Bi1  1  0.75000000  0.75000000  0.01557700  1
  Bi  Bi2  1  0.75000000  0.75000000  0.69216600  1
  Bi  Bi3  1  0.25000000  0.25000000  0.98442300  1
  Te  Te4  1  0.25000000  0.25000000  0.78039900  1
  Te  Te5  1  0.75000000  0.75000000  0.42733900  1
  Te  Te6  1  0.25000000  0.25000000  0.57266100  1
  Te  Te7  1  0.75000000  0.75000000  0.21960100  1
  I  I8  1  0.25000000  0.25000000  0.43034500  1
  I  I9  1  0.25000000  0.25000000  0.10525700  1
  I  I10  1  0.75000000  0.75000000  0.56965500  1
  I  I11  1  0.75000000  0.75000000  0.89474300  1
  O  O12  1  0.75000000  0.75000000  0.29199400  1
  O  O13  1  0.25000000  0.75000000  0.70540900  1
  O  O14  1  0.25000000  0.75000000  0.29459100  1
  O  O15  1  0.75000000  0.25000000  0.76352000  1
  O  O16  1  0.25000000  0.75000000  0.76352000  1
  O  O17  1  0.25000000  0.25000000  0.70800600  1
  O  O18  1  0.75000000  0.25000000  0.70540900  1
  O  O19  1  0.75000000  0.25000000  0.29459100  1
  O  O20  1  0.75000000  0.25000000  0.00000000  1
  O  O21  1  0.25000000  0.75000000  0.23648000  1
  O  O22  1  0.25000000  0.75000000  0.00000000  1
  O  O23  1  0.75000000  0.25000000  0.23648000  1
