# generated using pymatgen
data_La3Ti3CrO12
_symmetry_space_group_name_H-M   'P 1'
_cell_length_a   9.59509879
_cell_length_b   11.06244894
_cell_length_c   11.06948316
_cell_angle_alpha   119.85758090
_cell_angle_beta   73.12337575
_cell_angle_gamma   89.90880487
_symmetry_Int_Tables_number   1
_chemical_formula_structural   La3Ti3CrO12
_chemical_formula_sum   'La12 Ti12 Cr4 O48'
_cell_volume   959.89367050
_cell_formula_units_Z   4
loop_
 _symmetry_equiv_pos_site_id
 _symmetry_equiv_pos_as_xyz
  1  'x, y, z'
loop_
 _atom_site_type_symbol
 _atom_site_label
 _atom_site_symmetry_multiplicity
 _atom_site_fract_x
 _atom_site_fract_y
 _atom_site_fract_z
 _atom_site_occupancy
  La  La0  1  0.39001600  0.19278200  0.86981300  1
  La  La1  1  0.89008400  0.44283400  0.36984000  1
  La  La2  1  0.39006400  0.69279000  0.86979900  1
  La  La3  1  0.89009000  0.94282400  0.36982400  1
  La  La4  1  0.61953400  0.31801200  0.13024700  1
  La  La5  1  0.11950900  0.56797600  0.63020700  1
  La  La6  1  0.61952000  0.81800800  0.13025900  1
  La  La7  1  0.11951000  0.06796800  0.63019500  1
  La  La8  1  0.86302700  0.94139600  0.87822000  1
  La  La9  1  0.36304400  0.19137200  0.37822600  1
  La  La10  1  0.86304100  0.44139900  0.87822800  1
  La  La11  1  0.36305500  0.69137900  0.37820900  1
  Ti  Ti12  1  0.25143400  0.88201000  0.75642300  1
  Ti  Ti13  1  0.75145100  0.13202700  0.25643600  1
  Ti  Ti14  1  0.25142800  0.38201600  0.75643000  1
  Ti  Ti15  1  0.75145800  0.63202400  0.25644100  1
  Ti  Ti16  1  0.49443500  0.99932600  0.99786900  1
  Ti  Ti17  1  0.99445700  0.24934700  0.49788700  1
  Ti  Ti18  1  0.49442500  0.49931400  0.99786100  1
  Ti  Ti19  1  0.99447000  0.74933800  0.49787800  1
  Ti  Ti20  1  0.00843400  0.25627600  0.00772700  1
  Ti  Ti21  1  0.50845200  0.50625900  0.50772000  1
  Ti  Ti22  1  0.00843800  0.75628000  0.00772200  1
  Ti  Ti23  1  0.50844900  0.00625800  0.50771400  1
  Cr  Cr24  1  0.24977100  0.37447600  0.24813400  1
  Cr  Cr25  1  0.74969800  0.62456300  0.74827400  1
  Cr  Cr26  1  0.24979100  0.87447200  0.24812100  1
  Cr  Cr27  1  0.74966600  0.12456100  0.74827100  1
  O  O28  1  0.37126400  0.97055600  0.87576600  1
  O  O29  1  0.87126300  0.22055100  0.37576500  1
  O  O30  1  0.37126700  0.47056000  0.87576600  1
  O  O31  1  0.87126200  0.72055500  0.37576600  1
  O  O32  1  0.38419000  0.18877500  0.63317200  1
  O  O33  1  0.88419700  0.43879500  0.13317500  1
  O  O34  1  0.38418900  0.68877500  0.63317000  1
  O  O35  1  0.88419700  0.93879700  0.13317500  1
  O  O36  1  0.61505400  0.31175800  0.86551600  1
  O  O37  1  0.11503000  0.56174700  0.36548300  1
  O  O38  1  0.61505800  0.81174800  0.86551600  1
  O  O39  1  0.11502500  0.06173100  0.36550000  1
  O  O40  1  0.15240600  0.29195500  0.86974800  1
  O  O41  1  0.65240200  0.54195500  0.36975600  1
  O  O42  1  0.15240900  0.79195200  0.86974500  1
  O  O43  1  0.65240200  0.04195600  0.36975100  1
  O  O44  1  0.37958400  0.41235300  0.09880500  1
  O  O45  1  0.87966900  0.66225200  0.59869100  1
  O  O46  1  0.37958800  0.91235200  0.09880200  1
  O  O47  1  0.87966800  0.16224600  0.59868300  1
  O  O48  1  0.61824900  0.03926900  0.62708900  1
  O  O49  1  0.11829800  0.28925800  0.12706000  1
  O  O50  1  0.61827600  0.53929900  0.62711000  1
  O  O51  1  0.11828500  0.78924800  0.12704700  1
  O  O52  1  0.37933500  0.46931600  0.37074800  1
  O  O53  1  0.87929400  0.71926600  0.87081600  1
  O  O54  1  0.37933200  0.96931800  0.37075000  1
  O  O55  1  0.87929800  0.21930100  0.87079400  1
  O  O56  1  0.63360300  0.08517200  0.90451600  1
  O  O57  1  0.13357500  0.33518500  0.40451500  1
  O  O58  1  0.63360500  0.58516300  0.90451300  1
  O  O59  1  0.13357800  0.83517900  0.40450500  1
  O  O60  1  0.84681600  0.18428500  0.11186100  1
  O  O61  1  0.34681800  0.43428000  0.61185600  1
  O  O62  1  0.84680700  0.68429000  0.11187400  1
  O  O63  1  0.34680200  0.93428600  0.61187200  1
  O  O64  1  0.39359800  0.19350500  0.14922200  1
  O  O65  1  0.89360000  0.44349400  0.64921800  1
  O  O66  1  0.39360100  0.69350800  0.14922300  1
  O  O67  1  0.89358700  0.94349600  0.64922400  1
  O  O68  1  0.59675600  0.29429000  0.35729600  1
  O  O69  1  0.09676100  0.54428600  0.85729400  1
  O  O70  1  0.59673400  0.79429100  0.35730900  1
  O  O71  1  0.09676200  0.04428400  0.85729300  1
  O  O72  1  0.62671900  0.53330800  0.12355000  1
  O  O73  1  0.12672100  0.78328800  0.62352300  1
  O  O74  1  0.62672000  0.03329200  0.12352400  1
  O  O75  1  0.12672100  0.28330600  0.62354900  1
