# generated using pymatgen
data_BeSO8
_symmetry_space_group_name_H-M   'P 1'
_cell_length_a   8.21786371
_cell_length_b   8.21786371
_cell_length_c   8.21786371
_cell_angle_alpha   118.24733291
_cell_angle_beta   118.24733291
_cell_angle_gamma   93.06349929
_symmetry_Int_Tables_number   1
_chemical_formula_structural   BeSO8
_chemical_formula_sum   'Be2 S2 O16'
_cell_volume   402.20380388
_cell_formula_units_Z   2
loop_
 _symmetry_equiv_pos_site_id
 _symmetry_equiv_pos_as_xyz
  1  'x, y, z'
loop_
 _atom_site_type_symbol
 _atom_site_label
 _atom_site_symmetry_multiplicity
 _atom_site_fract_x
 _atom_site_fract_y
 _atom_site_fract_z
 _atom_site_occupancy
  Be  Be0  1  0.25000000  0.25000000  0.00000000  1
  Be  Be1  1  0.75000000  0.75000000  0.00000000  1
  S  S2  1  0.50000000  0.00000000  0.50000000  1
  S  S3  1  0.00000000  0.50000000  0.50000000  1
  O  O4  1  0.92072600  0.57590100  0.63959800  1
  O  O5  1  0.93630300  0.28112800  0.36040200  1
  O  O6  1  0.43630300  0.07590100  0.65517500  1
  O  O7  1  0.42072600  0.78112800  0.34482500  1
  O  O8  1  0.42409900  0.06369700  0.34482500  1
  O  O9  1  0.71887200  0.07927400  0.65517500  1
  O  O10  1  0.92409900  0.57927400  0.36040200  1
  O  O11  1  0.21887200  0.56369700  0.63959800  1
  O  O12  1  0.45054300  0.40315800  0.24483700  1
  O  O13  1  0.15832000  0.20570600  0.75516300  1
  O  O14  1  0.65832000  0.90315800  0.95261500  1
  O  O15  1  0.95054300  0.70570600  0.04738500  1
  O  O16  1  0.59684200  0.84168000  0.04738500  1
  O  O17  1  0.79429400  0.54945700  0.95261500  1
  O  O18  1  0.09684200  0.04945700  0.75516300  1
  O  O19  1  0.29429400  0.34168000  0.24483700  1
