# generated using pymatgen
data_CoPHO5
_symmetry_space_group_name_H-M   'P 1'
_cell_length_a   5.29999062
_cell_length_b   7.15113194
_cell_length_c   10.01710491
_cell_angle_alpha   104.80683474
_cell_angle_beta   82.18144596
_cell_angle_gamma   70.78260872
_symmetry_Int_Tables_number   1
_chemical_formula_structural   CoPHO5
_chemical_formula_sum   'Co4 P4 H4 O20'
_cell_volume   336.36771512
_cell_formula_units_Z   4
loop_
 _symmetry_equiv_pos_site_id
 _symmetry_equiv_pos_as_xyz
  1  'x, y, z'
loop_
 _atom_site_type_symbol
 _atom_site_label
 _atom_site_symmetry_multiplicity
 _atom_site_fract_x
 _atom_site_fract_y
 _atom_site_fract_z
 _atom_site_occupancy
  Co  Co0  1  0.25000400  0.74998900  0.24999400  1
  Co  Co1  1  0.74999300  0.25001300  0.75000900  1
  Co  Co2  1  0.00018600  0.99971800  0.00070600  1
  Co  Co3  1  0.49984700  0.50026600  0.49929200  1
  P  P4  1  0.88442000  0.45301800  0.22070700  1
  P  P5  1  0.38316600  0.95063500  0.72080900  1
  P  P6  1  0.11682600  0.54937900  0.77919500  1
  P  P7  1  0.61559000  0.04697400  0.27929800  1
  H  H8  1  0.67881600  0.33100600  0.01773300  1
  H  H9  1  0.17951300  0.83053100  0.51647300  1
  H  H10  1  0.32051200  0.66942100  0.98352200  1
  H  H11  1  0.82111300  0.16903500  0.48228300  1
  O  O12  1  0.24065200  0.80570900  0.06308700  1
  O  O13  1  0.73483600  0.30408200  0.56268900  1
  O  O14  1  0.76513500  0.19595600  0.93733700  1
  O  O15  1  0.25935300  0.69425800  0.43688300  1
  O  O16  1  0.63388600  0.53980600  0.15955700  1
  O  O17  1  0.13344900  0.03643300  0.65847000  1
  O  O18  1  0.36655300  0.46356800  0.84152400  1
  O  O19  1  0.86609700  0.96019500  0.34044700  1
  O  O20  1  0.89575600  0.46436200  0.81827200  1
  O  O21  1  0.38744300  0.96755600  0.31806600  1
  O  O22  1  0.11258900  0.53242800  0.18194300  1
  O  O23  1  0.60423400  0.03564400  0.68170000  1
  O  O24  1  0.01861400  0.20976800  0.15468800  1
  O  O25  1  0.51595700  0.70769500  0.65539400  1
  O  O26  1  0.98403200  0.79235700  0.84460800  1
  O  O27  1  0.48142500  0.29017900  0.34531200  1
  O  O28  1  0.80570500  0.51149500  0.38579900  1
  O  O29  1  0.30527800  0.01204300  0.88589500  1
  O  O30  1  0.19473500  0.48793200  0.61407200  1
  O  O31  1  0.69428500  0.98854600  0.11423600  1
