# generated using pymatgen
data_TiNbO4
_symmetry_space_group_name_H-M   'P 1'
_cell_length_a   5.67416680
_cell_length_b   5.67416680
_cell_length_c   5.67416680
_cell_angle_alpha   139.28647488
_cell_angle_beta   139.28647488
_cell_angle_gamma   58.93830455
_symmetry_Int_Tables_number   1
_chemical_formula_structural   TiNbO4
_chemical_formula_sum   'Ti1 Nb1 O4'
_cell_volume   76.98672474
_cell_formula_units_Z   1
loop_
 _symmetry_equiv_pos_site_id
 _symmetry_equiv_pos_as_xyz
  1  'x, y, z'
loop_
 _atom_site_type_symbol
 _atom_site_label
 _atom_site_symmetry_multiplicity
 _atom_site_fract_x
 _atom_site_fract_y
 _atom_site_fract_z
 _atom_site_occupancy
  Ti  Ti0  1  0.75000000  0.25000000  0.50000000  1
  Nb  Nb1  1  0.00000000  0.00000000  0.00000000  1
  O  O2  1  0.54334700  0.04334700  0.50000000  1
  O  O3  1  0.20771600  0.20771600  0.00000000  1
  O  O4  1  0.95665300  0.45665300  0.50000000  1
  O  O5  1  0.79228400  0.79228400  0.00000000  1
