# generated using pymatgen
data_FeHO2
_symmetry_space_group_name_H-M   'P 1'
_cell_length_a   5.31581121
_cell_length_b   6.16189296
_cell_length_c   5.70120765
_cell_angle_alpha   105.65162894
_cell_angle_beta   62.04807743
_cell_angle_gamma   89.99611614
_symmetry_Int_Tables_number   1
_chemical_formula_structural   FeHO2
_chemical_formula_sum   'Fe4 H4 O8'
_cell_volume   157.07622902
_cell_formula_units_Z   4
loop_
 _symmetry_equiv_pos_site_id
 _symmetry_equiv_pos_as_xyz
  1  'x, y, z'
loop_
 _atom_site_type_symbol
 _atom_site_label
 _atom_site_symmetry_multiplicity
 _atom_site_fract_x
 _atom_site_fract_y
 _atom_site_fract_z
 _atom_site_occupancy
  Fe  Fe0  1  0.50208600  0.74898700  0.99860500  1
  Fe  Fe1  1  0.00212300  0.50029400  0.99852800  1
  Fe  Fe2  1  0.50205900  0.24899600  0.99867000  1
  Fe  Fe3  1  0.00209900  0.00031900  0.99859600  1
  H  H4  1  0.05660800  0.63665600  0.55221000  1
  H  H5  1  0.55665900  0.38968000  0.55219600  1
  H  H6  1  0.05660000  0.13664100  0.55222600  1
  H  H7  1  0.55663700  0.88969300  0.55220900  1
  O  O8  1  0.57411600  0.54296500  0.18264200  1
  O  O9  1  0.07409000  0.29823400  0.18263700  1
  O  O10  1  0.57411000  0.04296200  0.18265400  1
  O  O11  1  0.07409700  0.79822300  0.18262700  1
  O  O12  1  0.95565200  0.68888500  0.75641100  1
  O  O13  1  0.45565200  0.43932000  0.75640200  1
  O  O14  1  0.95564600  0.18887900  0.75642100  1
  O  O15  1  0.45564700  0.93932800  0.75641100  1
