# generated using pymatgen
data_VCrO3
_symmetry_space_group_name_H-M   'P 1'
_cell_length_a   5.09724281
_cell_length_b   5.49961854
_cell_length_c   9.09343872
_cell_angle_alpha   85.22043375
_cell_angle_beta   73.66018208
_cell_angle_gamma   117.60007075
_symmetry_Int_Tables_number   1
_chemical_formula_structural   VCrO3
_chemical_formula_sum   'V4 Cr4 O12'
_cell_volume   209.82862351
_cell_formula_units_Z   4
loop_
 _symmetry_equiv_pos_site_id
 _symmetry_equiv_pos_as_xyz
  1  'x, y, z'
loop_
 _atom_site_type_symbol
 _atom_site_label
 _atom_site_symmetry_multiplicity
 _atom_site_fract_x
 _atom_site_fract_y
 _atom_site_fract_z
 _atom_site_occupancy
  V  V0  1  0.14952500  0.87474100  0.57298700  1
  V  V1  1  0.35142800  0.87657100  0.17332100  1
  V  V2  1  0.34857900  0.37657100  0.67714100  1
  V  V3  1  0.85050300  0.12624800  0.42615700  1
  Cr  Cr4  1  0.15081000  0.37579600  0.07610400  1
  Cr  Cr5  1  0.65184000  0.62751600  0.32338400  1
  Cr  Cr6  1  0.64929900  0.12499700  0.82710200  1
  Cr  Cr7  1  0.84897700  0.62217400  0.92417000  1
  O  O8  1  0.05147300  0.52598800  0.72444700  1
  O  O9  1  0.05278000  0.02633400  0.22333000  1
  O  O10  1  0.44695100  0.87406700  0.37407900  1
  O  O11  1  0.55351600  0.62395700  0.12416400  1
  O  O12  1  0.24957200  0.77503600  0.97360200  1
  O  O13  1  0.25211000  0.28140700  0.47179300  1
  O  O14  1  0.75042400  0.72029200  0.52517700  1
  O  O15  1  0.75347800  0.22605600  0.02551800  1
  O  O16  1  0.44736700  0.37439700  0.87768900  1
  O  O17  1  0.55145300  0.12479700  0.62753900  1
  O  O18  1  0.94558300  0.97189300  0.77574400  1
  O  O19  1  0.94433200  0.47116300  0.27655000  1
