# generated using pymatgen
data_Co3(OF2)2
_symmetry_space_group_name_H-M   'P 1'
_cell_length_a   4.69998400
_cell_length_b   5.65732100
_cell_length_c   7.80701948
_cell_angle_alpha   87.17919901
_cell_angle_beta   90.00000000
_cell_angle_gamma   90.00000000
_symmetry_Int_Tables_number   1
_chemical_formula_structural   Co3(OF2)2
_chemical_formula_sum   'Co6 O4 F8'
_cell_volume   207.33180389
_cell_formula_units_Z   2
loop_
 _symmetry_equiv_pos_site_id
 _symmetry_equiv_pos_as_xyz
  1  'x, y, z'
loop_
 _atom_site_type_symbol
 _atom_site_label
 _atom_site_symmetry_multiplicity
 _atom_site_fract_x
 _atom_site_fract_y
 _atom_site_fract_z
 _atom_site_occupancy
  Co  Co0  1  0.45750800  0.84665900  0.67587800  1
  Co  Co1  1  0.54249200  0.15334100  0.32412200  1
  Co  Co2  1  0.50000000  0.50000000  0.00000000  1
  Co  Co3  1  0.00000000  0.00000000  0.00000000  1
  Co  Co4  1  0.95750800  0.65334100  0.32412200  1
  Co  Co5  1  0.04249200  0.34665900  0.67587800  1
  O  O6  1  0.79860100  0.96383200  0.23274200  1
  O  O7  1  0.70139900  0.46383200  0.23274200  1
  O  O8  1  0.29860100  0.53616800  0.76725800  1
  O  O9  1  0.20139900  0.03616800  0.76725800  1
  F  F10  1  0.80445200  0.30048900  0.89269900  1
  F  F11  1  0.79672500  0.63639800  0.56831300  1
  F  F12  1  0.69554800  0.80048900  0.89269900  1
  F  F13  1  0.70327500  0.13639800  0.56831300  1
  F  F14  1  0.30445200  0.19951100  0.10730100  1
  F  F15  1  0.29672500  0.86360200  0.43168700  1
  F  F16  1  0.20327500  0.36360200  0.43168700  1
  F  F17  1  0.19554800  0.69951100  0.10730100  1
