# generated using pymatgen
data_Sr2Ti6N2O11
_symmetry_space_group_name_H-M   'P 1'
_cell_length_a   7.73727423
_cell_length_b   7.73727423
_cell_length_c   9.27398300
_cell_angle_alpha   81.57320665
_cell_angle_beta   81.57320665
_cell_angle_gamma   29.03652063
_symmetry_Int_Tables_number   1
_chemical_formula_structural   Sr2Ti6N2O11
_chemical_formula_sum   'Sr2 Ti6 N2 O11'
_cell_volume   266.36584326
_cell_formula_units_Z   1
loop_
 _symmetry_equiv_pos_site_id
 _symmetry_equiv_pos_as_xyz
  1  'x, y, z'
loop_
 _atom_site_type_symbol
 _atom_site_label
 _atom_site_symmetry_multiplicity
 _atom_site_fract_x
 _atom_site_fract_y
 _atom_site_fract_z
 _atom_site_occupancy
  Sr  Sr0  1  0.54508100  0.54508100  0.22583700  1
  Sr  Sr1  1  0.44874700  0.44874700  0.76420900  1
  Ti  Ti2  1  0.11722200  0.11722200  0.90228900  1
  Ti  Ti3  1  0.16996900  0.16996900  0.56176100  1
  Ti  Ti4  1  0.23353400  0.23353400  0.23412100  1
  Ti  Ti5  1  0.75207900  0.75207900  0.76923100  1
  Ti  Ti6  1  0.83462400  0.83462400  0.44796000  1
  Ti  Ti7  1  0.87774400  0.87774400  0.08977400  1
  N  N8  1  0.63840000  0.63840000  0.89143000  1
  N  N9  1  0.70597900  0.70597900  0.57476000  1
  O  O10  1  0.06851900  0.06851900  0.70856800  1
  O  O11  1  0.12610100  0.12610100  0.38375500  1
  O  O12  1  0.16003200  0.16003200  0.09829200  1
  O  O13  1  0.75656100  0.75656100  0.23722300  1
  O  O14  1  0.24604600  0.24604600  0.76077200  1
  O  O15  1  0.30177400  0.30177400  0.42563400  1
  O  O16  1  0.35928300  0.35928300  0.11455900  1
  O  O17  1  0.84303100  0.84303100  0.90473400  1
  O  O18  1  0.88496600  0.88496600  0.61145800  1
  O  O19  1  0.93108900  0.93108900  0.28869600  1
  O  O20  1  0.99921800  0.99921800  0.00494100  1
