# generated using pymatgen
data_CaVSi4O15
_symmetry_space_group_name_H-M   'P 1'
_cell_length_a   9.92085400
_cell_length_b   10.10130100
_cell_length_c   13.68400300
_cell_angle_alpha   90.00000000
_cell_angle_beta   90.00000000
_cell_angle_gamma   90.00000000
_symmetry_Int_Tables_number   1
_chemical_formula_structural   CaVSi4O15
_chemical_formula_sum   'Ca4 V4 Si16 O60'
_cell_volume   1371.32227843
_cell_formula_units_Z   4
loop_
 _symmetry_equiv_pos_site_id
 _symmetry_equiv_pos_as_xyz
  1  'x, y, z'
loop_
 _atom_site_type_symbol
 _atom_site_label
 _atom_site_symmetry_multiplicity
 _atom_site_fract_x
 _atom_site_fract_y
 _atom_site_fract_z
 _atom_site_occupancy
  Ca  Ca0  1  0.86295200  0.38067700  0.75000000  1
  Ca  Ca1  1  0.36295200  0.11932300  0.75000000  1
  Ca  Ca2  1  0.13704800  0.61932300  0.25000000  1
  Ca  Ca3  1  0.63704800  0.88067700  0.25000000  1
  V  V4  1  0.02229200  0.09734200  0.75000000  1
  V  V5  1  0.52229200  0.40265800  0.75000000  1
  V  V6  1  0.97770800  0.90265800  0.25000000  1
  V  V7  1  0.47770800  0.59734200  0.25000000  1
  Si  Si8  1  0.67636900  0.39667200  0.96649500  1
  Si  Si9  1  0.17636900  0.10332800  0.53350500  1
  Si  Si10  1  0.32363100  0.60332800  0.46649500  1
  Si  Si11  1  0.82363100  0.89667200  0.03350500  1
  Si  Si12  1  0.32363100  0.60332800  0.03350500  1
  Si  Si13  1  0.82363100  0.89667200  0.46649500  1
  Si  Si14  1  0.67636900  0.39667200  0.53350500  1
  Si  Si15  1  0.17636900  0.10332800  0.96649500  1
  Si  Si16  1  0.88761700  0.17486300  0.96083700  1
  Si  Si17  1  0.38761700  0.32513700  0.53916300  1
  Si  Si18  1  0.11238300  0.82513700  0.46083700  1
  Si  Si19  1  0.61238300  0.67486300  0.03916300  1
  Si  Si20  1  0.11238300  0.82513700  0.03916300  1
  Si  Si21  1  0.61238300  0.67486300  0.46083700  1
  Si  Si22  1  0.88761700  0.17486300  0.53916300  1
  Si  Si23  1  0.38761700  0.32513700  0.96083700  1
  O  O24  1  0.66511500  0.40156100  0.84637600  1
  O  O25  1  0.16511500  0.09843900  0.65362400  1
  O  O26  1  0.33488500  0.59843900  0.34637600  1
  O  O27  1  0.83488500  0.90156100  0.15362400  1
  O  O28  1  0.33488500  0.59843900  0.15362400  1
  O  O29  1  0.83488500  0.90156100  0.34637600  1
  O  O30  1  0.66511500  0.40156100  0.65362400  1
  O  O31  1  0.16511500  0.09843900  0.84637600  1
  O  O32  1  0.91275800  0.18743100  0.84282600  1
  O  O33  1  0.41275800  0.31256900  0.65717400  1
  O  O34  1  0.08724200  0.81256900  0.34282600  1
  O  O35  1  0.58724200  0.68743100  0.15717400  1
  O  O36  1  0.08724200  0.81256900  0.15717400  1
  O  O37  1  0.58724200  0.68743100  0.34282600  1
  O  O38  1  0.91275800  0.18743100  0.65717400  1
  O  O39  1  0.41275800  0.31256900  0.84282600  1
  O  O40  1  0.79915300  0.04442800  0.98915900  1
  O  O41  1  0.29915300  0.45557200  0.51084100  1
  O  O42  1  0.20084700  0.95557200  0.48915900  1
  O  O43  1  0.70084700  0.54442800  0.01084100  1
  O  O44  1  0.20084700  0.95557200  0.01084100  1
  O  O45  1  0.70084700  0.54442800  0.48915900  1
  O  O46  1  0.79915300  0.04442800  0.51084100  1
  O  O47  1  0.29915300  0.45557200  0.98915900  1
  O  O48  1  0.53683400  0.33497100  0.01156100  1
  O  O49  1  0.03683400  0.16502900  0.48843900  1
  O  O50  1  0.46316600  0.66502900  0.51156100  1
  O  O51  1  0.96316600  0.83497100  0.98843900  1
  O  O52  1  0.46316600  0.66502900  0.98843900  1
  O  O53  1  0.96316600  0.83497100  0.51156100  1
  O  O54  1  0.53683400  0.33497100  0.48843900  1
  O  O55  1  0.03683400  0.16502900  0.01156100  1
  O  O56  1  0.80720400  0.30724800  0.99554900  1
  O  O57  1  0.30720400  0.19275200  0.50445100  1
  O  O58  1  0.19279600  0.69275200  0.49554900  1
  O  O59  1  0.69279600  0.80724800  0.00445100  1
  O  O60  1  0.19279600  0.69275200  0.00445100  1
  O  O61  1  0.69279600  0.80724800  0.49554900  1
  O  O62  1  0.80720400  0.30724800  0.50445100  1
  O  O63  1  0.30720400  0.19275200  0.99554900  1
  O  O64  1  0.96926400  0.94805400  0.75000000  1
  O  O65  1  0.46926400  0.55194600  0.75000000  1
  O  O66  1  0.03073600  0.05194600  0.25000000  1
  O  O67  1  0.53073600  0.44805400  0.25000000  1
  O  O68  1  0.93756400  0.58683500  0.83029100  1
  O  O69  1  0.43756400  0.91316500  0.66970900  1
  O  O70  1  0.06243600  0.41316500  0.33029100  1
  O  O71  1  0.56243600  0.08683500  0.16970900  1
  O  O72  1  0.06243600  0.41316500  0.16970900  1
  O  O73  1  0.56243600  0.08683500  0.33029100  1
  O  O74  1  0.93756400  0.58683500  0.66970900  1
  O  O75  1  0.43756400  0.91316500  0.83029100  1
  O  O76  1  0.59369900  0.08943400  0.75000000  1
  O  O77  1  0.09369900  0.41056600  0.75000000  1
  O  O78  1  0.40630100  0.91056600  0.25000000  1
  O  O79  1  0.90630100  0.58943400  0.25000000  1
  O  O80  1  0.95747400  0.65627000  0.75000000  1
  O  O81  1  0.45747400  0.84373000  0.75000000  1
  O  O82  1  0.04252600  0.34373000  0.25000000  1
  O  O83  1  0.54252600  0.15627000  0.25000000  1
