# generated using pymatgen
data_Na2FeO3
_symmetry_space_group_name_H-M   'P 1'
_cell_length_a   10.00080900
_cell_length_b   4.84371000
_cell_length_c   6.61261108
_cell_angle_alpha   88.17938640
_cell_angle_beta   90.00000000
_cell_angle_gamma   90.00000000
_symmetry_Int_Tables_number   1
_chemical_formula_structural   Na2FeO3
_chemical_formula_sum   'Na8 Fe4 O12'
_cell_volume   320.15991607
_cell_formula_units_Z   4
loop_
 _symmetry_equiv_pos_site_id
 _symmetry_equiv_pos_as_xyz
  1  'x, y, z'
loop_
 _atom_site_type_symbol
 _atom_site_label
 _atom_site_symmetry_multiplicity
 _atom_site_fract_x
 _atom_site_fract_y
 _atom_site_fract_z
 _atom_site_occupancy
  Na  Na0  1  0.72805300  0.26295000  0.85786900  1
  Na  Na1  1  0.77194700  0.26295000  0.35786900  1
  Na  Na2  1  0.39685400  0.26092900  0.88139400  1
  Na  Na3  1  0.10314600  0.26092900  0.38139400  1
  Na  Na4  1  0.89685400  0.73907100  0.61860600  1
  Na  Na5  1  0.60314600  0.73907100  0.11860600  1
  Na  Na6  1  0.22805300  0.73705000  0.64213100  1
  Na  Na7  1  0.27194700  0.73705000  0.14213100  1
  Fe  Fe8  1  0.04010400  0.18276800  0.84045200  1
  Fe  Fe9  1  0.45989600  0.18276800  0.34045200  1
  Fe  Fe10  1  0.54010400  0.81723200  0.65954800  1
  Fe  Fe11  1  0.95989600  0.81723200  0.15954800  1
  O  O12  1  0.56394600  0.20619800  0.57775400  1
  O  O13  1  0.93605400  0.20619800  0.07775400  1
  O  O14  1  0.92118500  0.25450700  0.64579700  1
  O  O15  1  0.57881500  0.25450700  0.14579700  1
  O  O16  1  0.19100600  0.24042600  0.71071300  1
  O  O17  1  0.30899400  0.24042600  0.21071300  1
  O  O18  1  0.69100600  0.75957400  0.78928700  1
  O  O19  1  0.80899400  0.75957400  0.28928700  1
  O  O20  1  0.42118500  0.74549300  0.85420300  1
  O  O21  1  0.07881500  0.74549300  0.35420300  1
  O  O22  1  0.06394600  0.79380200  0.92224600  1
  O  O23  1  0.43605400  0.79380200  0.42224600  1
