# generated using pymatgen
data_Cr(C5O2)2
_symmetry_space_group_name_H-M   'P 1'
_cell_length_a   10.24601000
_cell_length_b   12.44787182
_cell_length_c   12.82201758
_cell_angle_alpha   109.25160893
_cell_angle_beta   88.60665036
_cell_angle_gamma   108.56726729
_symmetry_Int_Tables_number   1
_chemical_formula_structural   Cr(C5O2)2
_chemical_formula_sum   'Cr4 C40 O16'
_cell_volume   1457.56837313
_cell_formula_units_Z   4
loop_
 _symmetry_equiv_pos_site_id
 _symmetry_equiv_pos_as_xyz
  1  'x, y, z'
loop_
 _atom_site_type_symbol
 _atom_site_label
 _atom_site_symmetry_multiplicity
 _atom_site_fract_x
 _atom_site_fract_y
 _atom_site_fract_z
 _atom_site_occupancy
  Cr  Cr0  1  0.89729200  0.53502600  0.91921000  1
  Cr  Cr1  1  0.10270800  0.46497400  0.08079000  1
  Cr  Cr2  1  0.59797700  0.44127700  0.89838900  1
  Cr  Cr3  1  0.40202300  0.55872300  0.10161100  1
  C  C4  1  0.74138800  0.21504500  0.62620000  1
  C  C5  1  0.25861200  0.78495500  0.37380000  1
  C  C6  1  0.83066400  0.13810700  0.48756300  1
  C  C7  1  0.16933600  0.86189300  0.51243700  1
  C  C8  1  0.70714900  0.17816700  0.51229000  1
  C  C9  1  0.29285100  0.82183300  0.48771000  1
  C  C10  1  0.79173900  0.11401600  0.58790400  1
  C  C11  1  0.20826100  0.88598400  0.41209600  1
  C  C12  1  0.77116100  0.27586100  0.09254600  1
  C  C13  1  0.22883900  0.72413900  0.90745400  1
  C  C14  1  0.74776800  0.26624300  0.19921500  1
  C  C15  1  0.25223200  0.73375700  0.80078500  1
  C  C16  1  0.78523000  0.16150600  0.07321700  1
  C  C17  1  0.21477000  0.83849400  0.92678300  1
  C  C18  1  0.67638700  0.13724100  0.14687300  1
  C  C19  1  0.32361300  0.86275900  0.85312700  1
  C  C20  1  0.73575600  0.76401600  0.19301700  1
  C  C21  1  0.26424400  0.23598400  0.80698300  1
  C  C22  1  0.71715900  0.87764600  0.21959900  1
  C  C23  1  0.28284100  0.12235400  0.78040100  1
  C  C24  1  0.76653500  0.80789000  0.31014900  1
  C  C25  1  0.23346500  0.19211000  0.68985100  1
  C  C26  1  0.82858500  0.93085400  0.30938500  1
  C  C27  1  0.17141500  0.06914600  0.69061500  1
  C  C28  1  0.74621200  0.68066600  0.70786200  1
  C  C29  1  0.25378800  0.31933400  0.29213800  1
  C  C30  1  0.64261700  0.72014900  0.60018700  1
  C  C31  1  0.35738300  0.27985100  0.39981300  1
  C  C32  1  0.73884600  0.65283500  0.59141100  1
  C  C33  1  0.26115400  0.34716500  0.40858900  1
  C  C34  1  0.73531800  0.78911700  0.70184400  1
  C  C35  1  0.26468200  0.21088300  0.29815600  1
  C  C36  1  0.74676500  0.31511300  0.72923400  1
  C  C37  1  0.25323500  0.68488700  0.27076600  1
  C  C38  1  0.75842500  0.35181700  0.02842200  1
  C  C39  1  0.24157500  0.64818300  0.97157800  1
  C  C40  1  0.74489900  0.66539000  0.09347800  1
  C  C41  1  0.25510100  0.33461000  0.90652200  1
  C  C42  1  0.74153800  0.61706900  0.78775800  1
  C  C43  1  0.25846200  0.38293100  0.21224200  1
  O  O44  1  0.86368500  0.38135900  0.78189500  1
  O  O45  1  0.13631500  0.61864100  0.21810500  1
  O  O46  1  0.87530200  0.42626600  0.01959000  1
  O  O47  1  0.12469800  0.57373400  0.98041000  1
  O  O48  1  0.86065300  0.66644400  0.05812500  1
  O  O49  1  0.13934700  0.33355600  0.94187500  1
  O  O50  1  0.86094800  0.62242100  0.81954500  1
  O  O51  1  0.13905200  0.37757900  0.18045500  1
  O  O52  1  0.62839800  0.32212500  0.75591600  1
  O  O53  1  0.37160200  0.67787500  0.24408400  1
  O  O54  1  0.64162900  0.34028300  0.98907500  1
  O  O55  1  0.35837100  0.65971700  0.01092500  1
  O  O56  1  0.62704800  0.58446000  0.05113500  1
  O  O57  1  0.37295200  0.41554000  0.94886500  1
  O  O58  1  0.62546300  0.56386400  0.81524100  1
  O  O59  1  0.37453700  0.43613600  0.18475900  1
