# generated using pymatgen
data_TiNi(PO4)2
_symmetry_space_group_name_H-M   'P 1'
_cell_length_a   4.88750614
_cell_length_b   9.95017138
_cell_length_c   11.82082304
_cell_angle_alpha   89.99259479
_cell_angle_beta   90.00502635
_cell_angle_gamma   88.83257369
_symmetry_Int_Tables_number   1
_chemical_formula_structural   TiNi(PO4)2
_chemical_formula_sum   'Ti4 Ni4 P8 O32'
_cell_volume   574.74530355
_cell_formula_units_Z   4
loop_
 _symmetry_equiv_pos_site_id
 _symmetry_equiv_pos_as_xyz
  1  'x, y, z'
loop_
 _atom_site_type_symbol
 _atom_site_label
 _atom_site_symmetry_multiplicity
 _atom_site_fract_x
 _atom_site_fract_y
 _atom_site_fract_z
 _atom_site_occupancy
  Ti  Ti0  1  0.47128000  0.22564400  0.37498100  1
  Ti  Ti1  1  0.47126600  0.22565400  0.87498500  1
  Ti  Ti2  1  0.52872300  0.77436100  0.12502000  1
  Ti  Ti3  1  0.52874900  0.77435400  0.62500900  1
  Ni  Ni4  1  0.96310200  0.27269500  0.62506100  1
  Ni  Ni5  1  0.03693600  0.72731300  0.87494500  1
  Ni  Ni6  1  0.96284000  0.27277200  0.12497200  1
  Ni  Ni7  1  0.03729500  0.72722500  0.37498200  1
  P  P8  1  0.43922000  0.09846100  0.12499600  1
  P  P9  1  0.43932100  0.09843900  0.62500400  1
  P  P10  1  0.56075900  0.90153300  0.37500900  1
  P  P11  1  0.56068000  0.90156500  0.87499700  1
  P  P12  1  0.89238600  0.40316900  0.37498400  1
  P  P13  1  0.89239000  0.40319400  0.87497300  1
  P  P14  1  0.10760500  0.59681400  0.12500900  1
  P  P15  1  0.10760900  0.59681300  0.62503100  1
  O  O16  1  0.64382500  0.05207300  0.37501200  1
  O  O17  1  0.64383700  0.05208800  0.87499600  1
  O  O18  1  0.35614500  0.94792600  0.12498900  1
  O  O19  1  0.35616500  0.94791800  0.62500800  1
  O  O20  1  0.74611200  0.10780400  0.12501600  1
  O  O21  1  0.74619000  0.10777700  0.62505800  1
  O  O22  1  0.25385800  0.89217000  0.37498200  1
  O  O23  1  0.25380900  0.89223100  0.87494600  1
  O  O24  1  0.20012100  0.36373400  0.37495300  1
  O  O25  1  0.20010000  0.36375500  0.87494600  1
  O  O26  1  0.79987700  0.63627000  0.12505000  1
  O  O27  1  0.79989600  0.63625000  0.62505900  1
  O  O28  1  0.15268300  0.44761300  0.12495900  1
  O  O29  1  0.15274900  0.44759700  0.62499500  1
  O  O30  1  0.84727700  0.55236700  0.37504100  1
  O  O31  1  0.84724900  0.55241100  0.87500900  1
  O  O32  1  0.29450400  0.17198400  0.02189400  1
  O  O33  1  0.29458900  0.17197100  0.52191500  1
  O  O34  1  0.29448100  0.17193800  0.22807200  1
  O  O35  1  0.29453000  0.17192800  0.72808000  1
  O  O36  1  0.70549900  0.82806300  0.27192700  1
  O  O37  1  0.70547400  0.82807800  0.77192300  1
  O  O38  1  0.70547600  0.82801500  0.47811300  1
  O  O39  1  0.70540600  0.82803600  0.97808900  1
  O  O40  1  0.74326300  0.32761800  0.47463700  1
  O  O41  1  0.74319200  0.32768200  0.97461900  1
  O  O42  1  0.74312100  0.32769800  0.27532700  1
  O  O43  1  0.74317000  0.32768800  0.77533000  1
  O  O44  1  0.25673400  0.67238300  0.02536900  1
  O  O45  1  0.25680600  0.67231900  0.52538300  1
  O  O46  1  0.25687200  0.67228800  0.22466800  1
  O  O47  1  0.25682900  0.67232000  0.72467400  1
