# generated using pymatgen
data_NaMnO2
_symmetry_space_group_name_H-M   'P 1'
_cell_length_a   3.19499408
_cell_length_b   5.18409684
_cell_length_c   6.11502308
_cell_angle_alpha   68.24375749
_cell_angle_beta   100.15625123
_cell_angle_gamma   96.32406489
_symmetry_Int_Tables_number   1
_chemical_formula_structural   NaMnO2
_chemical_formula_sum   'Na2 Mn2 O4'
_cell_volume   92.48432171
_cell_formula_units_Z   2
loop_
 _symmetry_equiv_pos_site_id
 _symmetry_equiv_pos_as_xyz
  1  'x, y, z'
loop_
 _atom_site_type_symbol
 _atom_site_label
 _atom_site_symmetry_multiplicity
 _atom_site_fract_x
 _atom_site_fract_y
 _atom_site_fract_z
 _atom_site_occupancy
  Na  Na0  1  0.25003600  0.75003000  0.50000100  1
  Na  Na1  1  0.75003300  0.25003500  0.49999900  1
  Mn  Mn2  1  0.50000300  0.50000400  0.00000000  1
  Mn  Mn3  1  0.00000300  0.00000300  0.00000000  1
  O  O4  1  0.13102300  0.22123900  0.20462900  1
  O  O5  1  0.63102200  0.72123900  0.20462900  1
  O  O6  1  0.86899000  0.77877500  0.79537100  1
  O  O7  1  0.36899000  0.27877400  0.79537100  1
