# generated using pymatgen
data_Dy3TaO7
_symmetry_space_group_name_H-M   'P 1'
_cell_length_a   6.46554486
_cell_length_b   6.46554486
_cell_length_c   7.52877800
_cell_angle_alpha   90.00000000
_cell_angle_beta   90.00000000
_cell_angle_gamma   110.32869745
_symmetry_Int_Tables_number   1
_chemical_formula_structural   Dy3TaO7
_chemical_formula_sum   'Dy6 Ta2 O14'
_cell_volume   295.12475250
_cell_formula_units_Z   2
loop_
 _symmetry_equiv_pos_site_id
 _symmetry_equiv_pos_as_xyz
  1  'x, y, z'
loop_
 _atom_site_type_symbol
 _atom_site_label
 _atom_site_symmetry_multiplicity
 _atom_site_fract_x
 _atom_site_fract_y
 _atom_site_fract_z
 _atom_site_occupancy
  Dy  Dy0  1  0.51468300  0.05375900  0.25000000  1
  Dy  Dy1  1  0.94624100  0.48531700  0.75000000  1
  Dy  Dy2  1  0.00000000  0.00000000  0.00000000  1
  Dy  Dy3  1  0.00000000  0.00000000  0.50000000  1
  Dy  Dy4  1  0.05375900  0.51468300  0.25000000  1
  Dy  Dy5  1  0.48531700  0.94624100  0.75000000  1
  Ta  Ta6  1  0.50000000  0.50000000  0.00000000  1
  Ta  Ta7  1  0.50000000  0.50000000  0.50000000  1
  O  O8  1  0.88657900  0.15198800  0.25000000  1
  O  O9  1  0.84801200  0.11342100  0.75000000  1
  O  O10  1  0.82240000  0.56384100  0.03403500  1
  O  O11  1  0.82240000  0.56384100  0.46596500  1
  O  O12  1  0.43615900  0.17760000  0.96596500  1
  O  O13  1  0.43615900  0.17760000  0.53403500  1
  O  O14  1  0.57690400  0.57690400  0.75000000  1
  O  O15  1  0.42309600  0.42309600  0.25000000  1
  O  O16  1  0.56384100  0.82240000  0.03403500  1
  O  O17  1  0.17760000  0.43615900  0.53403500  1
  O  O18  1  0.56384100  0.82240000  0.46596500  1
  O  O19  1  0.17760000  0.43615900  0.96596500  1
  O  O20  1  0.11342100  0.84801200  0.75000000  1
  O  O21  1  0.15198800  0.88657900  0.25000000  1
