# generated using pymatgen
data_Na4TeH10(SeO8)2
_symmetry_space_group_name_H-M   'P 1'
_cell_length_a   5.29244867
_cell_length_b   11.38758852
_cell_length_c   13.63112200
_cell_angle_alpha   90.00000000
_cell_angle_beta   90.00000000
_cell_angle_gamma   103.06709417
_symmetry_Int_Tables_number   1
_chemical_formula_structural   Na4TeH10(SeO8)2
_chemical_formula_sum   'Na8 Te2 H20 Se4 O32'
_cell_volume   800.25101388
_cell_formula_units_Z   2
loop_
 _symmetry_equiv_pos_site_id
 _symmetry_equiv_pos_as_xyz
  1  'x, y, z'
loop_
 _atom_site_type_symbol
 _atom_site_label
 _atom_site_symmetry_multiplicity
 _atom_site_fract_x
 _atom_site_fract_y
 _atom_site_fract_z
 _atom_site_occupancy
  Na  Na0  1  0.12855500  0.22473500  0.66699100  1
  Na  Na1  1  0.87144500  0.77526500  0.33300900  1
  Na  Na2  1  0.72192000  0.13886500  0.95396700  1
  Na  Na3  1  0.72192000  0.63886500  0.54603300  1
  Na  Na4  1  0.87144500  0.27526500  0.16699100  1
  Na  Na5  1  0.12855500  0.72473500  0.83300900  1
  Na  Na6  1  0.27808000  0.36113500  0.45396700  1
  Na  Na7  1  0.27808000  0.86113500  0.04603300  1
  Te  Te8  1  0.00000000  0.50000000  0.00000000  1
  Te  Te9  1  0.00000000  0.00000000  0.50000000  1
  H  H10  1  0.11413600  0.06475400  0.09029200  1
  H  H11  1  0.11413600  0.56475400  0.40970800  1
  H  H12  1  0.88586400  0.43524600  0.59029200  1
  H  H13  1  0.06554900  0.82120100  0.64953400  1
  H  H14  1  0.88586400  0.93524600  0.90970800  1
  H  H15  1  0.30744100  0.73821900  0.50392700  1
  H  H16  1  0.30744100  0.23821900  0.99607300  1
  H  H17  1  0.19902700  0.10815700  0.94342900  1
  H  H18  1  0.93445100  0.67879900  0.14953400  1
  H  H19  1  0.06554900  0.32120100  0.85046600  1
  H  H20  1  0.80604600  0.79949600  0.70558500  1
  H  H21  1  0.19902700  0.60815700  0.55657100  1
  H  H22  1  0.93445100  0.17879900  0.35046600  1
  H  H23  1  0.69255900  0.26178100  0.49607300  1
  H  H24  1  0.69255900  0.76178100  0.00392700  1
  H  H25  1  0.80097300  0.39184300  0.44342900  1
  H  H26  1  0.19395400  0.20050400  0.29441500  1
  H  H27  1  0.80097300  0.89184300  0.05657100  1
  H  H28  1  0.80604600  0.29949600  0.79441500  1
  H  H29  1  0.19395400  0.70050400  0.20558500  1
  Se  Se30  1  0.50233000  0.00235100  0.68671900  1
  Se  Se31  1  0.49767000  0.99764900  0.31328100  1
  Se  Se32  1  0.50233000  0.50235100  0.81328100  1
  Se  Se33  1  0.49767000  0.49764900  0.18671900  1
  O  O34  1  0.26295600  0.43846100  0.90637300  1
  O  O35  1  0.19503500  0.45154700  0.11757400  1
  O  O36  1  0.80530700  0.84422000  0.49510400  1
  O  O37  1  0.73704400  0.56153900  0.09362700  1
  O  O38  1  0.30316700  0.15227500  0.99938300  1
  O  O39  1  0.80496500  0.54845300  0.88242600  1
  O  O40  1  0.24165600  0.43049700  0.62049500  1
  O  O41  1  0.30316700  0.65227500  0.50061700  1
  O  O42  1  0.46431700  0.13822700  0.71398600  1
  O  O43  1  0.53568300  0.86177300  0.28601400  1
  O  O44  1  0.75834400  0.56950300  0.37950500  1
  O  O45  1  0.02128000  0.99344400  0.87251500  1
  O  O46  1  0.75834400  0.06950300  0.12049500  1
  O  O47  1  0.97872000  0.00655600  0.12748500  1
  O  O48  1  0.69683300  0.84772500  0.00061700  1
  O  O49  1  0.46431700  0.63822700  0.78601400  1
  O  O50  1  0.73704400  0.06153900  0.40637300  1
  O  O51  1  0.69683300  0.34772500  0.49938300  1
  O  O52  1  0.93894100  0.25762800  0.81420700  1
  O  O53  1  0.19503500  0.95154700  0.38242600  1
  O  O54  1  0.26295600  0.93846100  0.59362700  1
  O  O55  1  0.19469300  0.15578000  0.50489600  1
  O  O56  1  0.06105900  0.74237200  0.18579300  1
  O  O57  1  0.06105900  0.24237200  0.31420700  1
  O  O58  1  0.24165600  0.93049700  0.87950500  1
  O  O59  1  0.97872000  0.50655600  0.37251500  1
  O  O60  1  0.93894100  0.75762800  0.68579300  1
  O  O61  1  0.80530700  0.34422000  0.00489600  1
  O  O62  1  0.53568300  0.36177300  0.21398600  1
  O  O63  1  0.02128000  0.49344400  0.62748500  1
  O  O64  1  0.80496500  0.04845300  0.61757400  1
  O  O65  1  0.19469300  0.65578000  0.99510400  1
