# generated using pymatgen
data_Ba(H8O5)2
_symmetry_space_group_name_H-M   'P 1'
_cell_length_a   6.41040217
_cell_length_b   6.41040217
_cell_length_c   11.74909851
_cell_angle_alpha   87.68835528
_cell_angle_beta   87.68835528
_cell_angle_gamma   91.01509346
_symmetry_Int_Tables_number   1
_chemical_formula_structural   Ba(H8O5)2
_chemical_formula_sum   'Ba2 H32 O20'
_cell_volume   481.93275586
_cell_formula_units_Z   2
loop_
 _symmetry_equiv_pos_site_id
 _symmetry_equiv_pos_as_xyz
  1  'x, y, z'
loop_
 _atom_site_type_symbol
 _atom_site_label
 _atom_site_symmetry_multiplicity
 _atom_site_fract_x
 _atom_site_fract_y
 _atom_site_fract_z
 _atom_site_occupancy
  Ba  Ba0  1  0.98216600  0.00700200  0.49427200  1
  Ba  Ba1  1  0.00700200  0.98216600  0.99427200  1
  H  H2  1  0.72304200  0.41463900  0.39483300  1
  H  H3  1  0.96330700  0.46788800  0.36015900  1
  H  H4  1  0.22151400  0.73314400  0.28138800  1
  H  H5  1  0.28437600  0.61085400  0.39472100  1
  H  H6  1  0.39635900  0.29358800  0.39562300  1
  H  H7  1  0.28338900  0.20209900  0.28690500  1
  H  H8  1  0.59254500  0.73721700  0.39814000  1
  H  H9  1  0.53460400  0.97192700  0.36608800  1
  H  H10  1  0.20209900  0.28338900  0.78690500  1
  H  H11  1  0.29358800  0.39635900  0.89562300  1
  H  H12  1  0.73721700  0.59254500  0.89814000  1
  H  H13  1  0.97192700  0.53460400  0.86608800  1
  H  H14  1  0.73314400  0.22151400  0.78138800  1
  H  H15  1  0.61085400  0.28437600  0.89472100  1
  H  H16  1  0.41463900  0.72304200  0.89483300  1
  H  H17  1  0.46788800  0.96330700  0.86015900  1
  H  H18  1  0.26853200  0.60387800  0.60703300  1
  H  H19  1  0.12439500  0.69402800  0.70757600  1
  H  H20  1  0.69679100  0.38539300  0.61169500  1
  H  H21  1  0.93144200  0.43162000  0.64154000  1
  H  H22  1  0.64191300  0.85871000  0.71350000  1
  H  H23  1  0.58320300  0.72226100  0.60976200  1
  H  H24  1  0.36900100  0.05797300  0.66283500  1
  H  H25  1  0.36044500  0.29321700  0.61468800  1
  H  H26  1  0.85871000  0.64191300  0.21350000  1
  H  H27  1  0.72226100  0.58320300  0.10976200  1
  H  H28  1  0.05797300  0.36900100  0.16283500  1
  H  H29  1  0.29321700  0.36044500  0.11468800  1
  H  H30  1  0.43162000  0.93144200  0.14154000  1
  H  H31  1  0.38539300  0.69679100  0.11169500  1
  H  H32  1  0.60387800  0.26853200  0.10703300  1
  H  H33  1  0.69402800  0.12439500  0.20757600  1
  O  O34  1  0.49554200  0.50379800  0.44334100  1
  O  O35  1  0.50379800  0.49554200  0.94334100  1
  O  O36  1  0.48619700  0.49675000  0.57065000  1
  O  O37  1  0.49675000  0.48619700  0.07065000  1
  O  O38  1  0.85617500  0.35453600  0.36081400  1
  O  O39  1  0.16153700  0.67837700  0.35672800  1
  O  O40  1  0.33520100  0.16120700  0.36292900  1
  O  O41  1  0.65465400  0.87555000  0.36837400  1
  O  O42  1  0.16120700  0.33520100  0.86292900  1
  O  O43  1  0.87555000  0.65465400  0.86837400  1
  O  O44  1  0.67837700  0.16153700  0.85672800  1
  O  O45  1  0.35453600  0.85617500  0.86081400  1
  O  O46  1  0.12406500  0.66159300  0.62700100  1
  O  O47  1  0.82662300  0.31681400  0.64147300  1
  O  O48  1  0.63495300  0.86586900  0.63059100  1
  O  O49  1  0.27073300  0.17190500  0.65090500  1
  O  O50  1  0.86586900  0.63495300  0.13059100  1
  O  O51  1  0.17190500  0.27073300  0.15090500  1
  O  O52  1  0.31681400  0.82662300  0.14147300  1
  O  O53  1  0.66159300  0.12406500  0.12700100  1
