# generated using pymatgen
data_Cr2O3
_symmetry_space_group_name_H-M   'P 1'
_cell_length_a   5.13669900
_cell_length_b   5.29964000
_cell_length_c   7.31397900
_cell_angle_alpha   90.00006377
_cell_angle_beta   89.99992737
_cell_angle_gamma   90.00006590
_symmetry_Int_Tables_number   1
_chemical_formula_structural   Cr2O3
_chemical_formula_sum   'Cr8 O12'
_cell_volume   199.10593057
_cell_formula_units_Z   4
loop_
 _symmetry_equiv_pos_site_id
 _symmetry_equiv_pos_as_xyz
  1  'x, y, z'
loop_
 _atom_site_type_symbol
 _atom_site_label
 _atom_site_symmetry_multiplicity
 _atom_site_fract_x
 _atom_site_fract_y
 _atom_site_fract_z
 _atom_site_occupancy
  Cr  Cr0  1  0.24972600  0.03427200  0.39476000  1
  Cr  Cr1  1  0.25027300  0.96572800  0.89476000  1
  Cr  Cr2  1  0.74972600  0.46572800  0.89476200  1
  Cr  Cr3  1  0.75027600  0.53427200  0.39476300  1
  Cr  Cr4  1  0.24973300  0.46571200  0.60523500  1
  Cr  Cr5  1  0.25026700  0.53428600  0.10523400  1
  Cr  Cr6  1  0.74973300  0.03428700  0.10523500  1
  Cr  Cr7  1  0.75026700  0.96571100  0.60523300  1
  O  O8  1  0.05006700  0.24999900  0.00000300  1
  O  O9  1  0.44993200  0.75000000  0.50000100  1
  O  O10  1  0.55006800  0.25000000  0.50000000  1
  O  O11  1  0.94993300  0.75000000  0.00000500  1
  O  O12  1  0.10823800  0.39346100  0.34834100  1
  O  O13  1  0.10822900  0.10653800  0.65165800  1
  O  O14  1  0.39176400  0.60653900  0.84834200  1
  O  O15  1  0.39176900  0.89346300  0.15166200  1
  O  O16  1  0.60823100  0.39346400  0.15166400  1
  O  O17  1  0.60823700  0.10653900  0.84834200  1
  O  O18  1  0.89176800  0.60653800  0.65166000  1
  O  O19  1  0.89176200  0.89346300  0.34834200  1
