# generated using pymatgen
data_FeOF
_symmetry_space_group_name_H-M   'P 1'
_cell_length_a   4.77175500
_cell_length_b   5.68002332
_cell_length_c   7.80676990
_cell_angle_alpha   85.04948872
_cell_angle_beta   87.18793385
_cell_angle_gamma   85.99724347
_symmetry_Int_Tables_number   1
_chemical_formula_structural   FeOF
_chemical_formula_sum   'Fe6 O6 F6'
_cell_volume   210.09140104
_cell_formula_units_Z   6
loop_
 _symmetry_equiv_pos_site_id
 _symmetry_equiv_pos_as_xyz
  1  'x, y, z'
loop_
 _atom_site_type_symbol
 _atom_site_label
 _atom_site_symmetry_multiplicity
 _atom_site_fract_x
 _atom_site_fract_y
 _atom_site_fract_z
 _atom_site_occupancy
  Fe  Fe0  1  0.52100600  0.86890300  0.67444900  1
  Fe  Fe1  1  0.48031800  0.50155300  0.01473200  1
  Fe  Fe2  1  0.50365100  0.15981400  0.32597400  1
  Fe  Fe3  1  0.00546300  0.30656400  0.66109500  1
  Fe  Fe4  1  0.00246200  0.67075100  0.34084500  1
  Fe  Fe5  1  0.98582400  0.99625700  0.98694900  1
  O  O6  1  0.81134800  0.04337300  0.76747100  1
  O  O7  1  0.69795600  0.20593200  0.09884300  1
  O  O8  1  0.70066300  0.86552600  0.43395400  1
  O  O9  1  0.30689400  0.13191200  0.55660500  1
  O  O10  1  0.29345900  0.46489700  0.23890100  1
  O  O11  1  0.31172800  0.79617100  0.90028300  1
  F  F12  1  0.79894400  0.37390700  0.43957900  1
  F  F13  1  0.80770100  0.70000400  0.10230600  1
  F  F14  1  0.70397600  0.53395300  0.76649400  1
  F  F15  1  0.19156900  0.95946600  0.22574000  1
  F  F16  1  0.18172800  0.61986300  0.57164000  1
  F  F17  1  0.19531100  0.30115200  0.89413800  1
