# generated using pymatgen
data_Na4MnO4
_symmetry_space_group_name_H-M   'P 1'
_cell_length_a   6.33791902
_cell_length_b   7.58795331
_cell_length_c   11.40636201
_cell_angle_alpha   90.00365575
_cell_angle_beta   90.00147662
_cell_angle_gamma   89.61487267
_symmetry_Int_Tables_number   1
_chemical_formula_structural   Na4MnO4
_chemical_formula_sum   'Na16 Mn4 O16'
_cell_volume   548.54047050
_cell_formula_units_Z   4
loop_
 _symmetry_equiv_pos_site_id
 _symmetry_equiv_pos_as_xyz
  1  'x, y, z'
loop_
 _atom_site_type_symbol
 _atom_site_label
 _atom_site_symmetry_multiplicity
 _atom_site_fract_x
 _atom_site_fract_y
 _atom_site_fract_z
 _atom_site_occupancy
  Na  Na0  1  0.04505800  0.66539000  0.44714500  1
  Na  Na1  1  0.04510900  0.66546300  0.94723000  1
  Na  Na2  1  0.54491600  0.16543300  0.05279800  1
  Na  Na3  1  0.54515600  0.16542000  0.55275500  1
  Na  Na4  1  0.30862500  0.72614100  0.15562800  1
  Na  Na5  1  0.30870500  0.72615900  0.65563300  1
  Na  Na6  1  0.80864700  0.22615400  0.34440500  1
  Na  Na7  1  0.80864400  0.22618400  0.84437700  1
  Na  Na8  1  0.22753900  0.31508000  0.18934200  1
  Na  Na9  1  0.22771400  0.31513400  0.68938900  1
  Na  Na10  1  0.72757400  0.81505000  0.31065100  1
  Na  Na11  1  0.72771900  0.81515900  0.81056400  1
  Na  Na12  1  0.26216400  0.00127100  0.34866900  1
  Na  Na13  1  0.26207100  0.00139100  0.84879800  1
  Na  Na14  1  0.76213700  0.50124200  0.15133000  1
  Na  Na15  1  0.76214800  0.50131500  0.65123100  1
  Mn  Mn16  1  0.98994700  0.99647100  0.59110000  1
  Mn  Mn17  1  0.48989700  0.49656400  0.90886900  1
  Mn  Mn18  1  0.98953400  0.99642300  0.09127000  1
  Mn  Mn19  1  0.48976500  0.49643100  0.40879700  1
  O  O20  1  0.26249200  0.02513800  0.12924000  1
  O  O21  1  0.26286300  0.02522600  0.62923400  1
  O  O22  1  0.76268100  0.52522900  0.37070900  1
  O  O23  1  0.76284800  0.52522300  0.87076800  1
  O  O24  1  0.43453100  0.47625200  0.06336900  1
  O  O25  1  0.43437600  0.47619700  0.56326200  1
  O  O26  1  0.93454300  0.97625800  0.43657800  1
  O  O27  1  0.93413900  0.97617000  0.93686300  1
  O  O28  1  0.43298700  0.26921800  0.36316300  1
  O  O29  1  0.43293800  0.26932300  0.86320300  1
  O  O30  1  0.93286400  0.76916900  0.13688200  1
  O  O31  1  0.93307000  0.76926400  0.63675100  1
  O  O32  1  0.38014400  0.70426100  0.34984500  1
  O  O33  1  0.38042800  0.70440700  0.84981900  1
  O  O34  1  0.87953700  0.20428600  0.15017400  1
  O  O35  1  0.88041800  0.20429100  0.65015500  1
