# generated using pymatgen
data_Rb2Fe2O3
_symmetry_space_group_name_H-M   'P 1'
_cell_length_a   6.37125900
_cell_length_b   8.23166600
_cell_length_c   12.09719300
_cell_angle_alpha   90.00000000
_cell_angle_beta   90.00000000
_cell_angle_gamma   90.00000000
_symmetry_Int_Tables_number   1
_chemical_formula_structural   Rb2Fe2O3
_chemical_formula_sum   'Rb8 Fe8 O12'
_cell_volume   634.45030452
_cell_formula_units_Z   4
loop_
 _symmetry_equiv_pos_site_id
 _symmetry_equiv_pos_as_xyz
  1  'x, y, z'
loop_
 _atom_site_type_symbol
 _atom_site_label
 _atom_site_symmetry_multiplicity
 _atom_site_fract_x
 _atom_site_fract_y
 _atom_site_fract_z
 _atom_site_occupancy
  Rb  Rb0  1  0.25000000  0.87719700  0.05844600  1
  Rb  Rb1  1  0.75000000  0.50324100  0.12077200  1
  Rb  Rb2  1  0.25000000  0.00324100  0.37922800  1
  Rb  Rb3  1  0.75000000  0.37719700  0.44155400  1
  Rb  Rb4  1  0.25000000  0.62280300  0.55844600  1
  Rb  Rb5  1  0.75000000  0.99675900  0.62077200  1
  Rb  Rb6  1  0.25000000  0.49675900  0.87922800  1
  Rb  Rb7  1  0.75000000  0.12280300  0.94155400  1
  Fe  Fe8  1  0.25000000  0.28038500  0.14530200  1
  Fe  Fe9  1  0.75000000  0.09836000  0.22683500  1
  Fe  Fe10  1  0.25000000  0.59836000  0.27316500  1
  Fe  Fe11  1  0.75000000  0.78038500  0.35469800  1
  Fe  Fe12  1  0.25000000  0.21961500  0.64530200  1
  Fe  Fe13  1  0.75000000  0.40164000  0.72683500  1
  Fe  Fe14  1  0.25000000  0.90164000  0.77316500  1
  Fe  Fe15  1  0.75000000  0.71961500  0.85469800  1
  O  O16  1  0.25000000  0.51368100  0.12383200  1
  O  O17  1  0.99935300  0.15185700  0.14597500  1
  O  O18  1  0.50064700  0.15185700  0.14597500  1
  O  O19  1  0.00064700  0.65185700  0.35402500  1
  O  O20  1  0.49935300  0.65185700  0.35402500  1
  O  O21  1  0.75000000  0.01368100  0.37616800  1
  O  O22  1  0.25000000  0.98631900  0.62383200  1
  O  O23  1  0.99935300  0.34814300  0.64597500  1
  O  O24  1  0.50064700  0.34814300  0.64597500  1
  O  O25  1  0.49935300  0.84814300  0.85402500  1
  O  O26  1  0.00064700  0.84814300  0.85402500  1
  O  O27  1  0.75000000  0.48631900  0.87616800  1
