# generated using pymatgen
data_Li5Mn3(SbO5)2
_symmetry_space_group_name_H-M   'P 1'
_cell_length_a   5.37437662
_cell_length_b   8.33762237
_cell_length_c   10.84458602
_cell_angle_alpha   101.55389240
_cell_angle_beta   100.40820978
_cell_angle_gamma   108.66110160
_symmetry_Int_Tables_number   1
_chemical_formula_structural   Li5Mn3(SbO5)2
_chemical_formula_sum   'Li10 Mn6 Sb4 O20'
_cell_volume   435.10274146
_cell_formula_units_Z   2
loop_
 _symmetry_equiv_pos_site_id
 _symmetry_equiv_pos_as_xyz
  1  'x, y, z'
loop_
 _atom_site_type_symbol
 _atom_site_label
 _atom_site_symmetry_multiplicity
 _atom_site_fract_x
 _atom_site_fract_y
 _atom_site_fract_z
 _atom_site_occupancy
  Li  Li0  1  0.49998600  0.49991000  0.24992800  1
  Li  Li1  1  0.50003600  0.50012000  0.75009100  1
  Li  Li2  1  0.88515800  0.39922700  0.12043100  1
  Li  Li3  1  0.88529000  0.39929000  0.62051800  1
  Li  Li4  1  0.11469600  0.60071800  0.37948900  1
  Li  Li5  1  0.11480600  0.60072800  0.87956500  1
  Li  Li6  1  0.29190000  0.77506600  0.18895700  1
  Li  Li7  1  0.29207800  0.77521800  0.68917400  1
  Li  Li8  1  0.70789800  0.22476000  0.31080100  1
  Li  Li9  1  0.70811300  0.22491600  0.81105400  1
  Mn  Mn10  1  0.50005200  0.00004700  0.50003500  1
  Mn  Mn11  1  0.89510600  0.89284400  0.84496300  1
  Mn  Mn12  1  0.10490500  0.10715600  0.15499900  1
  Mn  Mn13  1  0.49990700  0.99991200  0.99991800  1
  Mn  Mn14  1  0.89495400  0.89274400  0.34499100  1
  Mn  Mn15  1  0.10516500  0.10739200  0.65504100  1
  Sb  Sb16  1  0.71391800  0.69674600  0.04925200  1
  Sb  Sb17  1  0.71381600  0.69670200  0.54912100  1
  Sb  Sb18  1  0.28614700  0.30327600  0.45083400  1
  Sb  Sb19  1  0.28606900  0.30327400  0.95088900  1
  O  O20  1  0.08653100  0.84206100  0.02506100  1
  O  O21  1  0.08619400  0.84188300  0.52506300  1
  O  O22  1  0.91388700  0.15815300  0.47493300  1
  O  O23  1  0.91330900  0.15786400  0.97492100  1
  O  O24  1  0.69413400  0.92493100  0.16293700  1
  O  O25  1  0.69413500  0.92474800  0.66274100  1
  O  O26  1  0.30586500  0.07527600  0.33725200  1
  O  O27  1  0.30585600  0.07505900  0.83703200  1
  O  O28  1  0.33136800  0.54700800  0.06994400  1
  O  O29  1  0.33137700  0.54682800  0.56985100  1
  O  O30  1  0.66858900  0.45308900  0.43012800  1
  O  O31  1  0.66869100  0.45310200  0.93010200  1
  O  O32  1  0.48553700  0.24862300  0.11345400  1
  O  O33  1  0.48543700  0.24877100  0.61317900  1
  O  O34  1  0.51453400  0.75124200  0.38677000  1
  O  O35  1  0.51454300  0.75130300  0.88657700  1
  O  O36  1  0.90441400  0.65423000  0.21450200  1
  O  O37  1  0.90420400  0.65426600  0.71429300  1
  O  O38  1  0.09578000  0.34574700  0.28569600  1
  O  O39  1  0.09561700  0.34577200  0.78551500  1
