# generated using pymatgen
data_NbV3O8
_symmetry_space_group_name_H-M   'P 1'
_cell_length_a   6.52683905
_cell_length_b   6.52683905
_cell_length_c   6.68174380
_cell_angle_alpha   74.61959089
_cell_angle_beta   74.61959089
_cell_angle_gamma   34.12331953
_symmetry_Int_Tables_number   1
_chemical_formula_structural   NbV3O8
_chemical_formula_sum   'Nb1 V3 O8'
_cell_volume   153.40783719
_cell_formula_units_Z   1
loop_
 _symmetry_equiv_pos_site_id
 _symmetry_equiv_pos_as_xyz
  1  'x, y, z'
loop_
 _atom_site_type_symbol
 _atom_site_label
 _atom_site_symmetry_multiplicity
 _atom_site_fract_x
 _atom_site_fract_y
 _atom_site_fract_z
 _atom_site_occupancy
  Nb  Nb0  1  0.30375400  0.30375400  0.27228700  1
  V  V1  1  0.60043000  0.60043000  0.31637500  1
  V  V2  1  0.39887900  0.39887900  0.68486100  1
  V  V3  1  0.69410300  0.69410300  0.73388100  1
  O  O4  1  0.86428200  0.86428200  0.69867200  1
  O  O5  1  0.76703300  0.76703300  0.34645700  1
  O  O6  1  0.63946800  0.63946800  0.99399200  1
  O  O7  1  0.55782500  0.55782500  0.62961500  1
  O  O8  1  0.43534900  0.43534900  0.37603400  1
  O  O9  1  0.36571200  0.36571200  0.99328000  1
  O  O10  1  0.23580000  0.23580000  0.65653600  1
  O  O11  1  0.13736400  0.13736400  0.29801100  1
