# generated using pymatgen
data_CuH14C4(NO2)4
_symmetry_space_group_name_H-M   'P 1'
_cell_length_a   9.55445471
_cell_length_b   7.36058706
_cell_length_c   9.99047000
_cell_angle_alpha   90.00000000
_cell_angle_beta   90.00000000
_cell_angle_gamma   97.23532247
_symmetry_Int_Tables_number   1
_chemical_formula_structural   CuH14C4(NO2)4
_chemical_formula_sum   'Cu2 H28 C8 N8 O16'
_cell_volume   696.99916502
_cell_formula_units_Z   2
loop_
 _symmetry_equiv_pos_site_id
 _symmetry_equiv_pos_as_xyz
  1  'x, y, z'
loop_
 _atom_site_type_symbol
 _atom_site_label
 _atom_site_symmetry_multiplicity
 _atom_site_fract_x
 _atom_site_fract_y
 _atom_site_fract_z
 _atom_site_occupancy
  Cu  Cu0  1  0.50000000  0.00000000  0.50000000  1
  Cu  Cu1  1  0.00000000  0.00000000  0.00000000  1
  H  H2  1  0.80299300  0.05257300  0.34547000  1
  H  H3  1  0.69700700  0.94742700  0.84547000  1
  H  H4  1  0.61294600  0.81651100  0.02908900  1
  H  H5  1  0.64792000  0.47851400  0.13195000  1
  H  H6  1  0.85208000  0.52148600  0.63195000  1
  H  H7  1  0.35208000  0.52148600  0.86805000  1
  H  H8  1  0.14792000  0.47851400  0.36805000  1
  H  H9  1  0.07515800  0.79988100  0.25979500  1
  H  H10  1  0.42484200  0.20011900  0.75979500  1
  H  H11  1  0.92484200  0.20011900  0.74020500  1
  H  H12  1  0.19700700  0.94742700  0.65453000  1
  H  H13  1  0.30299300  0.05257300  0.15453000  1
  H  H14  1  0.35827900  0.37558300  0.49576300  1
  H  H15  1  0.14172100  0.62441700  0.99576300  1
  H  H16  1  0.64172100  0.62441700  0.50423700  1
  H  H17  1  0.85827900  0.37558300  0.00423700  1
  H  H18  1  0.60437100  0.34207700  0.44741200  1
  H  H19  1  0.51371500  0.24880800  0.32544000  1
  H  H20  1  0.39562900  0.65792300  0.55258800  1
  H  H21  1  0.10437100  0.34207700  0.05258800  1
  H  H22  1  0.98628500  0.75119200  0.82544000  1
  H  H23  1  0.88705400  0.18348900  0.52908900  1
  H  H24  1  0.01371500  0.24880800  0.17456000  1
  H  H25  1  0.48628500  0.75119200  0.67456000  1
  H  H26  1  0.11294600  0.81651100  0.47091100  1
  H  H27  1  0.38705400  0.18348900  0.97091100  1
  H  H28  1  0.57515800  0.79988100  0.24020500  1
  H  H29  1  0.89562900  0.65792300  0.94741200  1
  C  C30  1  0.24677200  0.96726400  0.23347300  1
  C  C31  1  0.25322800  0.03273600  0.73347300  1
  C  C32  1  0.75322800  0.03273600  0.76652700  1
  C  C33  1  0.83596900  0.57365600  0.53109700  1
  C  C34  1  0.33596900  0.57365600  0.96890300  1
  C  C35  1  0.16403100  0.42634400  0.46890300  1
  C  C36  1  0.66403100  0.42634400  0.03109700  1
  C  C37  1  0.74677200  0.96726400  0.26652700  1
  N  N38  1  0.54772400  0.74087800  0.96184900  1
  N  N39  1  0.92866300  0.68893500  0.46948800  1
  N  N40  1  0.57133700  0.31106500  0.96948800  1
  N  N41  1  0.95227600  0.25912200  0.46184900  1
  N  N42  1  0.42866300  0.68893500  0.03051200  1
  N  N43  1  0.04772400  0.74087800  0.53815100  1
  N  N44  1  0.45227600  0.25912200  0.03815100  1
  N  N45  1  0.07133700  0.31106500  0.53051200  1
  O  O46  1  0.02050100  0.24964800  0.07678400  1
  O  O47  1  0.97949900  0.75035200  0.92321600  1
  O  O48  1  0.47949900  0.75035200  0.57678400  1
  O  O49  1  0.52050100  0.24964800  0.42321600  1
  O  O50  1  0.70179500  0.53125700  0.47660000  1
  O  O51  1  0.71449100  0.03491100  0.64985500  1
  O  O52  1  0.29820500  0.46874300  0.52340000  1
  O  O53  1  0.20179500  0.53125700  0.02340000  1
  O  O54  1  0.78550900  0.96508900  0.14985500  1
  O  O55  1  0.12798500  0.86877800  0.18697500  1
  O  O56  1  0.21449100  0.03491100  0.85014500  1
  O  O57  1  0.28550900  0.96508900  0.35014500  1
  O  O58  1  0.62798500  0.86877800  0.31302500  1
  O  O59  1  0.87201500  0.13122200  0.81302500  1
  O  O60  1  0.37201500  0.13122200  0.68697500  1
  O  O61  1  0.79820500  0.46874300  0.97660000  1
