# generated using pymatgen
data_Fe4OF7
_symmetry_space_group_name_H-M   'P 1'
_cell_length_a   9.57970800
_cell_length_b   5.76260900
_cell_length_c   5.78003324
_cell_angle_alpha   67.85842646
_cell_angle_beta   90.00000000
_cell_angle_gamma   90.00000000
_symmetry_Int_Tables_number   1
_chemical_formula_structural   Fe4OF7
_chemical_formula_sum   'Fe8 O2 F14'
_cell_volume   295.55105470
_cell_formula_units_Z   2
loop_
 _symmetry_equiv_pos_site_id
 _symmetry_equiv_pos_as_xyz
  1  'x, y, z'
loop_
 _atom_site_type_symbol
 _atom_site_label
 _atom_site_symmetry_multiplicity
 _atom_site_fract_x
 _atom_site_fract_y
 _atom_site_fract_z
 _atom_site_occupancy
  Fe  Fe0  1  0.13539900  0.98519200  0.00564300  1
  Fe  Fe1  1  0.62070800  0.00258900  0.99565100  1
  Fe  Fe2  1  0.86460100  0.98519200  0.50564300  1
  Fe  Fe3  1  0.86610700  0.50894200  0.97076800  1
  Fe  Fe4  1  0.37929200  0.00258900  0.49565100  1
  Fe  Fe5  1  0.37052800  0.50629200  0.01122700  1
  Fe  Fe6  1  0.62947200  0.50629200  0.51122700  1
  Fe  Fe7  1  0.13389300  0.50894200  0.47076800  1
  O  O8  1  0.77788700  0.64096800  0.66747600  1
  O  O9  1  0.22211300  0.64096800  0.16747600  1
  F  F10  1  0.97031100  0.83311900  0.86855000  1
  F  F11  1  0.47187100  0.84529400  0.85251000  1
  F  F12  1  0.26961400  0.64634200  0.65786700  1
  F  F13  1  0.52046900  0.35489300  0.85065100  1
  F  F14  1  0.02968900  0.83311900  0.36855000  1
  F  F15  1  0.03005600  0.34971800  0.83818700  1
  F  F16  1  0.52812900  0.84529400  0.35251000  1
  F  F17  1  0.73038600  0.64634200  0.15786700  1
  F  F18  1  0.72006400  0.16026900  0.64942000  1
  F  F19  1  0.22087300  0.16638300  0.63204800  1
  F  F20  1  0.96994400  0.34971800  0.33818700  1
  F  F21  1  0.47953100  0.35489300  0.35065100  1
  F  F22  1  0.77912700  0.16638300  0.13204800  1
  F  F23  1  0.27993600  0.16026900  0.14942000  1
