# generated using pymatgen
data_BaV2(PO7)2
_symmetry_space_group_name_H-M   'P 1'
_cell_length_a   13.61952400
_cell_length_b   6.34273600
_cell_length_c   8.97824188
_cell_angle_alpha   44.95785333
_cell_angle_beta   90.00000000
_cell_angle_gamma   90.00000000
_symmetry_Int_Tables_number   1
_chemical_formula_structural   BaV2(PO7)2
_chemical_formula_sum   'Ba2 V4 P4 O28'
_cell_volume   548.01843364
_cell_formula_units_Z   2
loop_
 _symmetry_equiv_pos_site_id
 _symmetry_equiv_pos_as_xyz
  1  'x, y, z'
loop_
 _atom_site_type_symbol
 _atom_site_label
 _atom_site_symmetry_multiplicity
 _atom_site_fract_x
 _atom_site_fract_y
 _atom_site_fract_z
 _atom_site_occupancy
  Ba  Ba0  1  0.24805000  0.01162500  0.47140300  1
  Ba  Ba1  1  0.75195000  0.01162500  0.97140300  1
  V  V2  1  0.96775400  0.37548100  0.41076100  1
  V  V3  1  0.03224600  0.37548100  0.91076100  1
  V  V4  1  0.53365500  0.19062600  0.21430700  1
  V  V5  1  0.46634500  0.19062600  0.71430700  1
  P  P6  1  0.49736200  0.69551700  0.70651800  1
  P  P7  1  0.50263800  0.69551700  0.20651800  1
  P  P8  1  0.00190400  0.88716300  0.40667400  1
  P  P9  1  0.99809600  0.88716300  0.90667400  1
  O  O10  1  0.42745800  0.88839000  0.70965200  1
  O  O11  1  0.57254200  0.88839000  0.20965200  1
  O  O12  1  0.43963300  0.48223800  0.40701400  1
  O  O13  1  0.56036700  0.48223800  0.90701400  1
  O  O14  1  0.07137500  0.68689000  0.60345500  1
  O  O15  1  0.92862500  0.68689000  0.10345500  1
  O  O16  1  0.73219400  0.27074000  0.14140700  1
  O  O17  1  0.26780600  0.27074000  0.64140700  1
  O  O18  1  0.24582100  0.53889900  0.48740000  1
  O  O19  1  0.75417900  0.53889900  0.98740000  1
  O  O20  1  0.93180400  0.06862000  0.41686500  1
  O  O21  1  0.06819600  0.06862000  0.91686500  1
  O  O22  1  0.42832900  0.51808600  0.68915400  1
  O  O23  1  0.57167100  0.51808600  0.18915400  1
  O  O24  1  0.76969200  0.44295500  0.40821600  1
  O  O25  1  0.23030800  0.44295500  0.90821600  1
  O  O26  1  0.25344700  0.49870200  0.01311500  1
  O  O27  1  0.74655300  0.49870200  0.51311500  1
  O  O28  1  0.41393600  0.17077600  0.23470700  1
  O  O29  1  0.58606400  0.17077600  0.73470700  1
  O  O30  1  0.08741500  0.35095300  0.41278400  1
  O  O31  1  0.91258500  0.35095300  0.91278400  1
  O  O32  1  0.93969200  0.69884700  0.39402800  1
  O  O33  1  0.06030800  0.69884700  0.89402800  1
  O  O34  1  0.07280700  0.09667600  0.21431500  1
  O  O35  1  0.92719300  0.09667600  0.71431500  1
  O  O36  1  0.56776600  0.89801100  0.51502400  1
  O  O37  1  0.43223400  0.89801100  0.01502400  1
