# generated using pymatgen
data_TiV3O8
_symmetry_space_group_name_H-M   'P 1'
_cell_length_a   6.42869361
_cell_length_b   6.42873146
_cell_length_c   6.55069140
_cell_angle_alpha   74.03588615
_cell_angle_beta   105.96366763
_cell_angle_gamma   145.99427976
_symmetry_Int_Tables_number   1
_chemical_formula_structural   TiV3O8
_chemical_formula_sum   'Ti1 V3 O8'
_cell_volume   145.01508155
_cell_formula_units_Z   1
loop_
 _symmetry_equiv_pos_site_id
 _symmetry_equiv_pos_as_xyz
  1  'x, y, z'
loop_
 _atom_site_type_symbol
 _atom_site_label
 _atom_site_symmetry_multiplicity
 _atom_site_fract_x
 _atom_site_fract_y
 _atom_site_fract_z
 _atom_site_occupancy
  Ti  Ti0  1  0.69166000  0.30833500  0.27880700  1
  V  V1  1  0.39827400  0.60152800  0.30679700  1
  V  V2  1  0.59966600  0.40031600  0.70081000  1
  V  V3  1  0.30083000  0.69916700  0.72707600  1
  O  O4  1  0.14113900  0.85887600  0.71008600  1
  O  O5  1  0.23672400  0.76329100  0.34331800  1
  O  O6  1  0.36763700  0.63240000  0.99432900  1
  O  O7  1  0.44359400  0.55642800  0.62466400  1
  O  O8  1  0.55802200  0.44200500  0.36617300  1
  O  O9  1  0.63529700  0.36473100  0.00100700  1
  O  O10  1  0.75841100  0.24158300  0.65058100  1
  O  O11  1  0.86874600  0.13134100  0.29635100  1
