# generated using pymatgen
data_Fe6O5F7
_symmetry_space_group_name_H-M   'P 1'
_cell_length_a   5.68737900
_cell_length_b   5.69441451
_cell_length_c   7.35642273
_cell_angle_alpha   72.35136226
_cell_angle_beta   72.32931286
_cell_angle_gamma   73.28287548
_symmetry_Int_Tables_number   1
_chemical_formula_structural   Fe6O5F7
_chemical_formula_sum   'Fe6 O5 F7'
_cell_volume   211.24155846
_cell_formula_units_Z   1
loop_
 _symmetry_equiv_pos_site_id
 _symmetry_equiv_pos_as_xyz
  1  'x, y, z'
loop_
 _atom_site_type_symbol
 _atom_site_label
 _atom_site_symmetry_multiplicity
 _atom_site_fract_x
 _atom_site_fract_y
 _atom_site_fract_z
 _atom_site_occupancy
  Fe  Fe0  1  0.30569200  0.32225100  0.16136000  1
  Fe  Fe1  1  0.67902700  0.64211900  0.33234300  1
  Fe  Fe2  1  0.37592800  0.33012400  0.69011300  1
  Fe  Fe3  1  0.66786300  0.69057400  0.82665400  1
  Fe  Fe4  1  0.98316300  0.02862000  0.49671400  1
  Fe  Fe5  1  0.98836200  0.00269900  0.99276300  1
  O  O6  1  0.76833300  0.77288800  0.03782000  1
  O  O7  1  0.21432100  0.21769400  0.95891500  1
  O  O8  1  0.57682500  0.57338600  0.63162200  1
  O  O9  1  0.64991200  0.03119800  0.66555400  1
  O  O10  1  0.95477400  0.35858600  0.34221500  1
  F  F11  1  0.36091300  0.94636200  0.34579700  1
  F  F12  1  0.04149400  0.64260500  0.66226900  1
  F  F13  1  0.10952400  0.09826500  0.69583800  1
  F  F14  1  0.42759600  0.42786700  0.37562500  1
  F  F15  1  0.90250200  0.89962300  0.29555100  1
  F  F16  1  0.30058300  0.70472200  0.99387400  1
  F  F17  1  0.69318700  0.31041600  0.99497500  1
