# generated using pymatgen
data_Sr3La4O9
_symmetry_space_group_name_H-M   'P 1'
_cell_length_a   9.66857912
_cell_length_b   9.66857912
_cell_length_c   9.66857993
_cell_angle_alpha   37.57253046
_cell_angle_beta   37.57253046
_cell_angle_gamma   37.57252781
_symmetry_Int_Tables_number   1
_chemical_formula_structural   Sr3La4O9
_chemical_formula_sum   'Sr3 La4 O9'
_cell_volume   301.42434746
_cell_formula_units_Z   1
loop_
 _symmetry_equiv_pos_site_id
 _symmetry_equiv_pos_as_xyz
  1  'x, y, z'
loop_
 _atom_site_type_symbol
 _atom_site_label
 _atom_site_symmetry_multiplicity
 _atom_site_fract_x
 _atom_site_fract_y
 _atom_site_fract_z
 _atom_site_occupancy
  Sr  Sr0  1  0.18239200  0.18239200  0.18239200  1
  Sr  Sr1  1  0.00386100  0.00386100  0.00386100  1
  Sr  Sr2  1  0.57434200  0.57434200  0.57434200  1
  La  La3  1  0.31145600  0.31145600  0.31145600  1
  La  La4  1  0.43991500  0.43991500  0.43991500  1
  La  La5  1  0.87538700  0.87538700  0.87538700  1
  La  La6  1  0.74395500  0.74395500  0.74395500  1
  O  O7  1  0.58799600  0.97891800  0.21238300  1
  O  O8  1  0.97891800  0.21238300  0.58799600  1
  O  O9  1  0.21238300  0.58799600  0.97891800  1
  O  O10  1  0.53863900  0.14951100  0.77299100  1
  O  O11  1  0.39828100  0.05945400  0.66175500  1
  O  O12  1  0.66175500  0.39828100  0.05945400  1
  O  O13  1  0.77299100  0.53863900  0.14951100  1
  O  O14  1  0.05945400  0.66175500  0.39828100  1
  O  O15  1  0.14951100  0.77299100  0.53863900  1
