# generated using pymatgen
data_MnCrO4
_symmetry_space_group_name_H-M   'P 1'
_cell_length_a   8.30235200
_cell_length_b   5.44909900
_cell_length_c   8.34946237
_cell_angle_alpha   54.77303807
_cell_angle_beta   90.00000000
_cell_angle_gamma   90.00000000
_symmetry_Int_Tables_number   1
_chemical_formula_structural   MnCrO4
_chemical_formula_sum   'Mn4 Cr4 O16'
_cell_volume   308.55968938
_cell_formula_units_Z   4
loop_
 _symmetry_equiv_pos_site_id
 _symmetry_equiv_pos_as_xyz
  1  'x, y, z'
loop_
 _atom_site_type_symbol
 _atom_site_label
 _atom_site_symmetry_multiplicity
 _atom_site_fract_x
 _atom_site_fract_y
 _atom_site_fract_z
 _atom_site_occupancy
  Mn  Mn0  1  0.54521200  0.88194600  0.35248800  1
  Mn  Mn1  1  0.04521200  0.11805400  0.14751200  1
  Mn  Mn2  1  0.95478800  0.88194600  0.85248800  1
  Mn  Mn3  1  0.45478800  0.11805400  0.64751200  1
  Cr  Cr4  1  0.69149300  0.38179100  0.85656700  1
  Cr  Cr5  1  0.19149300  0.61820900  0.64343300  1
  Cr  Cr6  1  0.80850700  0.38179100  0.35656700  1
  Cr  Cr7  1  0.30850700  0.61820900  0.14343300  1
  O  O8  1  0.76483800  0.72002500  0.29969800  1
  O  O9  1  0.60618600  0.41639600  0.66008100  1
  O  O10  1  0.86281800  0.17433300  0.91857100  1
  O  O11  1  0.06554000  0.78875000  0.45665200  1
  O  O12  1  0.56554000  0.21125000  0.04334800  1
  O  O13  1  0.36281800  0.82566700  0.58142900  1
  O  O14  1  0.10618600  0.58360400  0.83991900  1
  O  O15  1  0.73516200  0.72002500  0.79969800  1
  O  O16  1  0.26483800  0.27997500  0.20030200  1
  O  O17  1  0.89381400  0.41639600  0.16008100  1
  O  O18  1  0.63718200  0.17433300  0.41857100  1
  O  O19  1  0.43446000  0.78875000  0.95665200  1
  O  O20  1  0.93446000  0.21125000  0.54334800  1
  O  O21  1  0.13718200  0.82566700  0.08142900  1
  O  O22  1  0.39381400  0.58360400  0.33991900  1
  O  O23  1  0.23516200  0.27997500  0.70030200  1
