# generated using pymatgen
data_Mn3CrO8
_symmetry_space_group_name_H-M   'P 1'
_cell_length_a   5.84109091
_cell_length_b   5.84109091
_cell_length_c   5.84109067
_cell_angle_alpha   59.94674657
_cell_angle_beta   59.94674657
_cell_angle_gamma   59.94673934
_symmetry_Int_Tables_number   1
_chemical_formula_structural   Mn3CrO8
_chemical_formula_sum   'Mn3 Cr1 O8'
_cell_volume   140.74792571
_cell_formula_units_Z   1
loop_
 _symmetry_equiv_pos_site_id
 _symmetry_equiv_pos_as_xyz
  1  'x, y, z'
loop_
 _atom_site_type_symbol
 _atom_site_label
 _atom_site_symmetry_multiplicity
 _atom_site_fract_x
 _atom_site_fract_y
 _atom_site_fract_z
 _atom_site_occupancy
  Mn  Mn0  1  0.00000000  0.50000000  0.50000000  1
  Mn  Mn1  1  0.50000000  0.50000000  0.00000000  1
  Mn  Mn2  1  0.50000000  0.00000000  0.50000000  1
  Cr  Cr3  1  0.50000000  0.50000000  0.50000000  1
  O  O4  1  0.26576700  0.26576700  0.26576700  1
  O  O5  1  0.70291400  0.26497400  0.26497400  1
  O  O6  1  0.26497400  0.26497400  0.70291400  1
  O  O7  1  0.26497400  0.70291400  0.26497400  1
  O  O8  1  0.73502600  0.29708600  0.73502600  1
  O  O9  1  0.73502600  0.73502600  0.29708600  1
  O  O10  1  0.73423300  0.73423300  0.73423300  1
  O  O11  1  0.29708600  0.73502600  0.73502600  1
