# generated using pymatgen
data_CrO3
_symmetry_space_group_name_H-M   'P 1'
_cell_length_a   4.56978700
_cell_length_b   5.85161900
_cell_length_c   9.57146400
_cell_angle_alpha   90.00000000
_cell_angle_beta   90.00000000
_cell_angle_gamma   90.00000000
_symmetry_Int_Tables_number   1
_chemical_formula_structural   CrO3
_chemical_formula_sum   'Cr4 O12'
_cell_volume   255.94719212
_cell_formula_units_Z   4
loop_
 _symmetry_equiv_pos_site_id
 _symmetry_equiv_pos_as_xyz
  1  'x, y, z'
loop_
 _atom_site_type_symbol
 _atom_site_label
 _atom_site_symmetry_multiplicity
 _atom_site_fract_x
 _atom_site_fract_y
 _atom_site_fract_z
 _atom_site_occupancy
  Cr  Cr0  1  0.96225900  0.04043600  0.25000000  1
  Cr  Cr1  1  0.46225900  0.45956400  0.75000000  1
  Cr  Cr2  1  0.53774100  0.54043600  0.25000000  1
  Cr  Cr3  1  0.03774100  0.95956400  0.75000000  1
  O  O4  1  0.16882400  0.05573600  0.11640700  1
  O  O5  1  0.16882400  0.05573600  0.38359300  1
  O  O6  1  0.71848100  0.27169200  0.25000000  1
  O  O7  1  0.21848100  0.22830800  0.75000000  1
  O  O8  1  0.66882400  0.44426400  0.61640700  1
  O  O9  1  0.66882400  0.44426400  0.88359300  1
  O  O10  1  0.33117600  0.55573600  0.11640700  1
  O  O11  1  0.33117600  0.55573600  0.38359300  1
  O  O12  1  0.78151900  0.77169200  0.25000000  1
  O  O13  1  0.28151900  0.72830800  0.75000000  1
  O  O14  1  0.83117600  0.94426400  0.88359300  1
  O  O15  1  0.83117600  0.94426400  0.61640700  1
