# generated using pymatgen
data_V2OF5
_symmetry_space_group_name_H-M   'P 1'
_cell_length_a   5.23182100
_cell_length_b   5.24992890
_cell_length_c   13.55057275
_cell_angle_alpha   89.36803185
_cell_angle_beta   89.67543034
_cell_angle_gamma   60.49726241
_symmetry_Int_Tables_number   1
_chemical_formula_structural   V2OF5
_chemical_formula_sum   'V6 O3 F15'
_cell_volume   323.90865462
_cell_formula_units_Z   3
loop_
 _symmetry_equiv_pos_site_id
 _symmetry_equiv_pos_as_xyz
  1  'x, y, z'
loop_
 _atom_site_type_symbol
 _atom_site_label
 _atom_site_symmetry_multiplicity
 _atom_site_fract_x
 _atom_site_fract_y
 _atom_site_fract_z
 _atom_site_occupancy
  V  V0  1  0.01320300  0.00346100  0.49760600  1
  V  V1  1  0.98678600  0.99521500  0.00109300  1
  V  V2  1  0.68070100  0.66749300  0.16092900  1
  V  V3  1  0.33473000  0.31459100  0.33838100  1
  V  V4  1  0.67831300  0.66517300  0.66867600  1
  V  V5  1  0.30602600  0.35371800  0.82741400  1
  O  O6  1  0.88662200  0.75160300  0.08409200  1
  O  O7  1  0.01827300  0.56739900  0.75391000  1
  O  O8  1  0.25540700  0.10413800  0.41393300  1
  F  F9  1  0.42149600  0.57713300  0.24980400  1
  F  F10  1  0.60137200  0.98983100  0.25291200  1
  F  F11  1  0.74436100  0.93243400  0.58184800  1
  F  F12  1  0.26454700  0.66398000  0.91673100  1
  F  F13  1  0.07647700  0.67777100  0.41098600  1
  F  F14  1  0.41089700  0.99053000  0.75410100  1
  F  F15  1  0.60245200  0.39377500  0.75096800  1
  F  F16  1  0.31301900  0.92752800  0.08990100  1
  F  F17  1  0.66749900  0.27477200  0.41508600  1
  F  F18  1  0.00808900  0.39966000  0.24628500  1
  F  F19  1  0.34208300  0.73443700  0.58398800  1
  F  F20  1  0.65486400  0.08245800  0.91245900  1
  F  F21  1  0.93847700  0.33480300  0.58357000  1
  F  F22  1  0.07511400  0.26056300  0.92132500  1
  F  F23  1  0.71919200  0.33753400  0.08400300  1
