# generated using pymatgen
data_Rb2ZrO3
_symmetry_space_group_name_H-M   'P 1'
_cell_length_a   7.01970230
_cell_length_b   7.01970230
_cell_length_c   13.93868600
_cell_angle_alpha   90.00000000
_cell_angle_beta   90.00000000
_cell_angle_gamma   125.15214240
_symmetry_Int_Tables_number   1
_chemical_formula_structural   Rb2ZrO3
_chemical_formula_sum   'Rb8 Zr4 O12'
_cell_volume   561.58301709
_cell_formula_units_Z   4
loop_
 _symmetry_equiv_pos_site_id
 _symmetry_equiv_pos_as_xyz
  1  'x, y, z'
loop_
 _atom_site_type_symbol
 _atom_site_label
 _atom_site_symmetry_multiplicity
 _atom_site_fract_x
 _atom_site_fract_y
 _atom_site_fract_z
 _atom_site_occupancy
  Rb  Rb0  1  0.94561500  0.05438500  0.13350100  1
  Rb  Rb1  1  0.87135400  0.12864600  0.57284000  1
  Rb  Rb2  1  0.44561500  0.55438500  0.36649900  1
  Rb  Rb3  1  0.62864600  0.37135400  0.07284000  1
  Rb  Rb4  1  0.55438500  0.44561500  0.63350100  1
  Rb  Rb5  1  0.05438500  0.94561500  0.86649900  1
  Rb  Rb6  1  0.37135400  0.62864600  0.92716000  1
  Rb  Rb7  1  0.12864600  0.87135400  0.42716000  1
  Zr  Zr8  1  0.75458000  0.24542000  0.33298500  1
  Zr  Zr9  1  0.74542000  0.25458000  0.83298500  1
  Zr  Zr10  1  0.25458000  0.74542000  0.16701500  1
  Zr  Zr11  1  0.24542000  0.75458000  0.66701500  1
  O  O12  1  0.47033900  0.02966100  0.25000000  1
  O  O13  1  0.02966100  0.47033900  0.75000000  1
  O  O14  1  0.90719600  0.09280400  0.36605900  1
  O  O15  1  0.66289400  0.33710600  0.44648300  1
  O  O16  1  0.33710600  0.66289400  0.55351700  1
  O  O17  1  0.59280400  0.40719600  0.86605900  1
  O  O18  1  0.83710600  0.16289400  0.94648300  1
  O  O19  1  0.16289400  0.83710600  0.05351700  1
  O  O20  1  0.40719600  0.59280400  0.13394100  1
  O  O21  1  0.09280400  0.90719600  0.63394100  1
  O  O22  1  0.97033900  0.52966100  0.25000000  1
  O  O23  1  0.52966100  0.97033900  0.75000000  1
