# generated using pymatgen
data_CeBi2SeO4
_symmetry_space_group_name_H-M   'P 1'
_cell_length_a   3.90025300
_cell_length_b   3.90025300
_cell_length_c   8.95771100
_cell_angle_alpha   90.00000000
_cell_angle_beta   90.00000000
_cell_angle_gamma   90.00000000
_symmetry_Int_Tables_number   1
_chemical_formula_structural   CeBi2SeO4
_chemical_formula_sum   'Ce1 Bi2 Se1 O4'
_cell_volume   136.26446203
_cell_formula_units_Z   1
loop_
 _symmetry_equiv_pos_site_id
 _symmetry_equiv_pos_as_xyz
  1  'x, y, z'
loop_
 _atom_site_type_symbol
 _atom_site_label
 _atom_site_symmetry_multiplicity
 _atom_site_fract_x
 _atom_site_fract_y
 _atom_site_fract_z
 _atom_site_occupancy
  Ce  Ce0  1  0.00000000  0.00000000  0.00000000  1
  Bi  Bi1  1  0.50000000  0.50000000  0.29459600  1
  Bi  Bi2  1  0.50000000  0.50000000  0.70540400  1
  Se  Se3  1  0.00000000  0.00000000  0.50000000  1
  O  O4  1  0.00000000  0.50000000  0.15265500  1
  O  O5  1  0.00000000  0.50000000  0.84734500  1
  O  O6  1  0.50000000  0.00000000  0.15265500  1
  O  O7  1  0.50000000  0.00000000  0.84734500  1
