# generated using pymatgen
data_Cu2C4NCl5
_symmetry_space_group_name_H-M   'P 1'
_cell_length_a   18.51855400
_cell_length_b   6.84996500
_cell_length_c   10.64034785
_cell_angle_alpha   82.86280453
_cell_angle_beta   90.00000000
_cell_angle_gamma   90.00000000
_symmetry_Int_Tables_number   1
_chemical_formula_structural   Cu2C4NCl5
_chemical_formula_sum   'Cu8 C16 N4 Cl20'
_cell_volume   1339.28501650
_cell_formula_units_Z   4
loop_
 _symmetry_equiv_pos_site_id
 _symmetry_equiv_pos_as_xyz
  1  'x, y, z'
loop_
 _atom_site_type_symbol
 _atom_site_label
 _atom_site_symmetry_multiplicity
 _atom_site_fract_x
 _atom_site_fract_y
 _atom_site_fract_z
 _atom_site_occupancy
  Cu  Cu0  1  0.90979400  0.62423300  0.58267200  1
  Cu  Cu1  1  0.40979400  0.37576700  0.91732800  1
  Cu  Cu2  1  0.09020600  0.37576700  0.41732800  1
  Cu  Cu3  1  0.59020600  0.62423300  0.08267200  1
  Cu  Cu4  1  0.98609200  0.21890500  0.58229600  1
  Cu  Cu5  1  0.48609200  0.78109500  0.91770400  1
  Cu  Cu6  1  0.01390800  0.78109500  0.41770400  1
  Cu  Cu7  1  0.51390800  0.21890500  0.08229600  1
  C  C8  1  0.64109500  0.05514300  0.49795500  1
  C  C9  1  0.14109500  0.94485700  0.00204500  1
  C  C10  1  0.35890500  0.94485700  0.50204500  1
  C  C11  1  0.85890500  0.05514300  0.99795500  1
  C  C12  1  0.66686100  0.46448600  0.69246400  1
  C  C13  1  0.16686100  0.53551400  0.80753600  1
  C  C14  1  0.33313900  0.53551400  0.30753600  1
  C  C15  1  0.83313900  0.46448600  0.19246400  1
  C  C16  1  0.62221900  0.88816300  0.46322000  1
  C  C17  1  0.12221900  0.11183700  0.03678000  1
  C  C18  1  0.37778100  0.11183700  0.53678000  1
  C  C19  1  0.87778100  0.88816300  0.96322000  1
  C  C20  1  0.65965900  0.19181700  0.56446600  1
  C  C21  1  0.15965900  0.80818300  0.93553400  1
  C  C22  1  0.34034100  0.80818300  0.43553400  1
  C  C23  1  0.84034100  0.19181700  0.06446600  1
  N  N24  1  0.67633600  0.33342700  0.61880200  1
  N  N25  1  0.17633600  0.66657300  0.88119800  1
  N  N26  1  0.32366400  0.66657300  0.38119800  1
  N  N27  1  0.82366400  0.33342700  0.11880200  1
  Cl  Cl28  1  0.08688300  0.09264000  0.52495200  1
  Cl  Cl29  1  0.58688300  0.90736000  0.97504800  1
  Cl  Cl30  1  0.91311700  0.90736000  0.47504800  1
  Cl  Cl31  1  0.41311700  0.09264000  0.02495200  1
  Cl  Cl32  1  0.08537600  0.51684700  0.73069600  1
  Cl  Cl33  1  0.58537600  0.48315300  0.76930400  1
  Cl  Cl34  1  0.91462400  0.48315300  0.26930400  1
  Cl  Cl35  1  0.41462400  0.51684700  0.23069600  1
  Cl  Cl36  1  0.89475100  0.33355000  0.67468000  1
  Cl  Cl37  1  0.39475100  0.66645000  0.82532000  1
  Cl  Cl38  1  0.10524900  0.66645000  0.32532000  1
  Cl  Cl39  1  0.60524900  0.33355000  0.17468000  1
  Cl  Cl40  1  0.42396100  0.16868100  0.66277900  1
  Cl  Cl41  1  0.92396100  0.83131900  0.83722100  1
  Cl  Cl42  1  0.57603900  0.83131900  0.33722100  1
  Cl  Cl43  1  0.07603900  0.16868100  0.16277900  1
  Cl  Cl44  1  0.73215200  0.62858900  0.72240200  1
  Cl  Cl45  1  0.23215200  0.37141100  0.77759800  1
  Cl  Cl46  1  0.26784800  0.37141100  0.27759800  1
  Cl  Cl47  1  0.76784800  0.62858900  0.22240200  1
