# generated using pymatgen
data_Co(BiO3)2
_symmetry_space_group_name_H-M   'P 1'
_cell_length_a   6.95058250
_cell_length_b   6.94638158
_cell_length_c   9.95761100
_cell_angle_alpha   90.00000407
_cell_angle_beta   89.99998769
_cell_angle_gamma   89.98910249
_symmetry_Int_Tables_number   1
_chemical_formula_structural   Co(BiO3)2
_chemical_formula_sum   'Co4 Bi8 O24'
_cell_volume   480.76737414
_cell_formula_units_Z   4
loop_
 _symmetry_equiv_pos_site_id
 _symmetry_equiv_pos_as_xyz
  1  'x, y, z'
loop_
 _atom_site_type_symbol
 _atom_site_label
 _atom_site_symmetry_multiplicity
 _atom_site_fract_x
 _atom_site_fract_y
 _atom_site_fract_z
 _atom_site_occupancy
  Co  Co0  1  0.50000000  0.50000000  0.00000000  1
  Co  Co1  1  0.00000000  0.50000000  0.50000000  1
  Co  Co2  1  0.00000000  0.00000000  0.00000000  1
  Co  Co3  1  0.50000000  0.00000000  0.50000000  1
  Bi  Bi4  1  0.50000100  0.50000000  0.33284100  1
  Bi  Bi5  1  0.00000100  0.00000000  0.33283800  1
  Bi  Bi6  1  0.00000000  0.00000000  0.66716300  1
  Bi  Bi7  1  0.50000000  0.50000000  0.66715900  1
  Bi  Bi8  1  0.50000100  0.00000000  0.16678600  1
  Bi  Bi9  1  0.00000100  0.50000000  0.16678100  1
  Bi  Bi10  1  0.49999900  0.00000000  0.83321400  1
  Bi  Bi11  1  0.99999900  0.50000000  0.83321900  1
  O  O12  1  0.50000200  0.29789900  0.50000000  1
  O  O13  1  0.00002700  0.79789900  0.50000000  1
  O  O14  1  0.29803700  0.00000500  0.00000000  1
  O  O15  1  0.79801900  0.50000700  0.00000000  1
  O  O16  1  0.70196300  0.99999500  0.00000000  1
  O  O17  1  0.20198100  0.49999300  0.00000000  1
  O  O18  1  0.49999900  0.70210100  0.50000000  1
  O  O19  1  0.99997400  0.20210100  0.50000000  1
  O  O20  1  0.49999700  0.31142200  0.16107100  1
  O  O21  1  0.99999200  0.81139800  0.16107600  1
  O  O22  1  0.49999900  0.31142200  0.83892900  1
  O  O23  1  0.99999400  0.81139800  0.83892400  1
  O  O24  1  0.31123500  0.99999400  0.33847900  1
  O  O25  1  0.81124000  0.50001900  0.33847500  1
  O  O26  1  0.31123500  0.99999500  0.66152100  1
  O  O27  1  0.81123900  0.50001900  0.66152400  1
  O  O28  1  0.68876600  0.00000500  0.33847900  1
  O  O29  1  0.18876100  0.49998000  0.33847500  1
  O  O30  1  0.68876500  0.00000500  0.66152100  1
  O  O31  1  0.18876100  0.49998100  0.66152500  1
  O  O32  1  0.50000100  0.68857800  0.16107100  1
  O  O33  1  0.00000600  0.18860200  0.16107600  1
  O  O34  1  0.50000400  0.68857800  0.83892900  1
  O  O35  1  0.00000900  0.18860200  0.83892400  1
