# generated using pymatgen
data_Fe3(OF2)2
_symmetry_space_group_name_H-M   'P 1'
_cell_length_a   4.80196300
_cell_length_b   4.82419500
_cell_length_c   9.37689200
_cell_angle_alpha   90.00000000
_cell_angle_beta   90.00000000
_cell_angle_gamma   90.00000000
_symmetry_Int_Tables_number   1
_chemical_formula_structural   Fe3(OF2)2
_chemical_formula_sum   'Fe6 O4 F8'
_cell_volume   217.22138459
_cell_formula_units_Z   2
loop_
 _symmetry_equiv_pos_site_id
 _symmetry_equiv_pos_as_xyz
  1  'x, y, z'
loop_
 _atom_site_type_symbol
 _atom_site_label
 _atom_site_symmetry_multiplicity
 _atom_site_fract_x
 _atom_site_fract_y
 _atom_site_fract_z
 _atom_site_occupancy
  Fe  Fe0  1  0.78061100  0.01270100  0.82281800  1
  Fe  Fe1  1  0.78061100  0.01270100  0.17718200  1
  Fe  Fe2  1  0.76803900  0.96852300  0.50000000  1
  Fe  Fe3  1  0.23196100  0.46852300  0.00000000  1
  Fe  Fe4  1  0.21938900  0.51270100  0.67718200  1
  Fe  Fe5  1  0.21938900  0.51270100  0.32281800  1
  O  O6  1  0.94289900  0.80462200  0.33518500  1
  O  O7  1  0.94289900  0.80462200  0.66481500  1
  O  O8  1  0.05710100  0.30462200  0.83518500  1
  O  O9  1  0.05710100  0.30462200  0.16481500  1
  F  F10  1  0.94734000  0.80329300  0.00000000  1
  F  F11  1  0.05266000  0.30329300  0.50000000  1
  F  F12  1  0.45298300  0.70309800  0.83584800  1
  F  F13  1  0.45298300  0.70309800  0.16415200  1
  F  F14  1  0.43888200  0.68737100  0.50000000  1
  F  F15  1  0.56111800  0.18737100  0.00000000  1
  F  F16  1  0.54701700  0.20309800  0.66415200  1
  F  F17  1  0.54701700  0.20309800  0.33584800  1
