# generated using pymatgen
data_Mn5Cr2O12
_symmetry_space_group_name_H-M   'P 1'
_cell_length_a   5.17274517
_cell_length_b   5.17274517
_cell_length_c   9.85755430
_cell_angle_alpha   83.22461483
_cell_angle_beta   83.22461483
_cell_angle_gamma   121.74340352
_symmetry_Int_Tables_number   1
_chemical_formula_structural   Mn5Cr2O12
_chemical_formula_sum   'Mn5 Cr2 O12'
_cell_volume   217.61822691
_cell_formula_units_Z   1
loop_
 _symmetry_equiv_pos_site_id
 _symmetry_equiv_pos_as_xyz
  1  'x, y, z'
loop_
 _atom_site_type_symbol
 _atom_site_label
 _atom_site_symmetry_multiplicity
 _atom_site_fract_x
 _atom_site_fract_y
 _atom_site_fract_z
 _atom_site_occupancy
  Mn  Mn0  1  0.32601000  0.67399000  0.50000000  1
  Mn  Mn1  1  0.52412000  0.47579100  0.77132500  1
  Mn  Mn2  1  0.52420900  0.47588000  0.22867500  1
  Mn  Mn3  1  0.66778900  0.33221100  0.50000000  1
  Mn  Mn4  1  0.32014900  0.67985100  0.00000000  1
  Cr  Cr5  1  0.00319900  0.99680100  0.00000000  1
  Cr  Cr6  1  0.99601700  0.00398300  0.50000000  1
  O  O7  1  0.13892500  0.40382700  0.87440400  1
  O  O8  1  0.59617300  0.86107500  0.12559600  1
  O  O9  1  0.71202800  0.69200300  0.38856700  1
  O  O10  1  0.30799700  0.28797200  0.61143300  1
  O  O11  1  0.35962200  0.04607600  0.89684700  1
  O  O12  1  0.95392400  0.64037800  0.10315300  1
  O  O13  1  0.05301900  0.39230100  0.39991800  1
  O  O14  1  0.60769900  0.94698100  0.60008200  1
  O  O15  1  0.71095300  0.77749700  0.88426500  1
  O  O16  1  0.22250300  0.28904700  0.11573500  1
  O  O17  1  0.39359900  0.08935300  0.38561600  1
  O  O18  1  0.91064700  0.60640100  0.61438400  1
