# generated using pymatgen
data_AsS4N3
_symmetry_space_group_name_H-M   'P 1'
_cell_length_a   12.14740900
_cell_length_b   6.88806500
_cell_length_c   9.90950394
_cell_angle_alpha   89.91486725
_cell_angle_beta   90.00000000
_cell_angle_gamma   90.00000000
_symmetry_Int_Tables_number   1
_chemical_formula_structural   AsS4N3
_chemical_formula_sum   'As4 S16 N12'
_cell_volume   829.14851311
_cell_formula_units_Z   4
loop_
 _symmetry_equiv_pos_site_id
 _symmetry_equiv_pos_as_xyz
  1  'x, y, z'
loop_
 _atom_site_type_symbol
 _atom_site_label
 _atom_site_symmetry_multiplicity
 _atom_site_fract_x
 _atom_site_fract_y
 _atom_site_fract_z
 _atom_site_occupancy
  As  As0  1  0.25000000  0.79197600  0.05621300  1
  As  As1  1  0.25000000  0.29183600  0.43334100  1
  As  As2  1  0.75000000  0.20802400  0.94378700  1
  As  As3  1  0.75000000  0.70816400  0.56665900  1
  S  S4  1  0.25000000  0.81340700  0.63406000  1
  S  S5  1  0.25000000  0.31611600  0.85972800  1
  S  S6  1  0.75000000  0.18659300  0.36594000  1
  S  S7  1  0.75000000  0.68388400  0.14027200  1
  S  S8  1  0.25000000  0.10395000  0.14852700  1
  S  S9  1  0.25000000  0.60427700  0.34124600  1
  S  S10  1  0.75000000  0.89605000  0.85147300  1
  S  S11  1  0.75000000  0.39572300  0.65875400  1
  S  S12  1  0.97532900  0.59683300  0.08845800  1
  S  S13  1  0.52469300  0.09992300  0.41564700  1
  S  S14  1  0.47532900  0.40316700  0.91154200  1
  S  S15  1  0.02469300  0.90007700  0.58435300  1
  S  S16  1  0.02467100  0.40316700  0.91154200  1
  S  S17  1  0.47530700  0.90007700  0.58435300  1
  S  S18  1  0.52467100  0.59683300  0.08845800  1
  S  S19  1  0.97530700  0.09992300  0.41564700  1
  N  N20  1  0.25000000  0.10533700  0.31322100  1
  N  N21  1  0.25000000  0.60540400  0.17639500  1
  N  N22  1  0.75000000  0.89466300  0.68677900  1
  N  N23  1  0.75000000  0.39459600  0.82360500  1
  N  N24  1  0.14719000  0.96581800  0.62371200  1
  N  N25  1  0.35277500  0.46812800  0.87243300  1
  N  N26  1  0.64719000  0.03418200  0.37628800  1
  N  N27  1  0.85277500  0.53187200  0.12756700  1
  N  N28  1  0.85281000  0.03418200  0.37628800  1
  N  N29  1  0.64722500  0.53187200  0.12756700  1
  N  N30  1  0.35281000  0.96581800  0.62371200  1
  N  N31  1  0.14722500  0.46812800  0.87243300  1
