# generated using pymatgen
data_V6O7F5
_symmetry_space_group_name_H-M   'P 1'
_cell_length_a   4.72711600
_cell_length_b   5.60508277
_cell_length_c   7.75264176
_cell_angle_alpha   94.40350516
_cell_angle_beta   89.90831361
_cell_angle_gamma   91.43536522
_symmetry_Int_Tables_number   1
_chemical_formula_structural   V6O7F5
_chemical_formula_sum   'V6 O7 F5'
_cell_volume   204.74239542
_cell_formula_units_Z   1
loop_
 _symmetry_equiv_pos_site_id
 _symmetry_equiv_pos_as_xyz
  1  'x, y, z'
loop_
 _atom_site_type_symbol
 _atom_site_label
 _atom_site_symmetry_multiplicity
 _atom_site_fract_x
 _atom_site_fract_y
 _atom_site_fract_z
 _atom_site_occupancy
  V  V0  1  0.48521300  0.84610300  0.32742300  1
  V  V1  1  0.54163800  0.48545300  0.99349800  1
  V  V2  1  0.45451800  0.18849800  0.67814200  1
  V  V3  1  0.01067500  0.31828200  0.32791700  1
  V  V4  1  0.01385600  0.66147100  0.66188300  1
  V  V5  1  0.99096900  0.00359100  0.01461800  1
  O  O6  1  0.19888100  0.37381500  0.56049800  1
  O  O7  1  0.19754200  0.03531500  0.23933200  1
  O  O8  1  0.29177000  0.19610300  0.89623200  1
  O  O9  1  0.31077200  0.88126100  0.57303900  1
  O  O10  1  0.70141800  0.45535200  0.75061500  1
  O  O11  1  0.69497000  0.79545600  0.10281600  1
  O  O12  1  0.80114000  0.29922300  0.10882700  1
  F  F13  1  0.20091300  0.69544800  0.90179800  1
  F  F14  1  0.30497000  0.53191200  0.22361800  1
  F  F15  1  0.69537200  0.13727100  0.44437000  1
  F  F16  1  0.80075800  0.96396700  0.76981600  1
  F  F17  1  0.80462200  0.63147900  0.42555700  1
