# generated using pymatgen
data_Fe4OF7
_symmetry_space_group_name_H-M   'P 1'
_cell_length_a   5.80422400
_cell_length_b   5.80868837
_cell_length_c   9.42563626
_cell_angle_alpha   88.49829172
_cell_angle_beta   88.41327017
_cell_angle_gamma   71.26823522
_symmetry_Int_Tables_number   1
_chemical_formula_structural   Fe4OF7
_chemical_formula_sum   'Fe8 O2 F14'
_cell_volume   300.78663643
_cell_formula_units_Z   2
loop_
 _symmetry_equiv_pos_site_id
 _symmetry_equiv_pos_as_xyz
  1  'x, y, z'
loop_
 _atom_site_type_symbol
 _atom_site_label
 _atom_site_symmetry_multiplicity
 _atom_site_fract_x
 _atom_site_fract_y
 _atom_site_fract_z
 _atom_site_occupancy
  Fe  Fe0  1  0.87048400  0.87090000  0.62563400  1
  Fe  Fe1  1  0.61098100  0.62840900  0.87940000  1
  Fe  Fe2  1  0.49161100  0.49017900  0.49735100  1
  Fe  Fe3  1  0.74849600  0.75391400  0.25091200  1
  Fe  Fe4  1  0.24472200  0.25151100  0.74057600  1
  Fe  Fe5  1  0.37195100  0.38887300  0.11797300  1
  Fe  Fe6  1  0.14039800  0.14085600  0.38814200  1
  Fe  Fe7  1  0.02800900  0.97637900  0.00179400  1
  O  O8  1  0.27319800  0.27463000  0.52178200  1
  O  O9  1  0.29581600  0.70560800  0.00143200  1
  F  F10  1  0.54897800  0.95196600  0.75197200  1
  F  F11  1  0.19588200  0.81295500  0.49059800  1
  F  F12  1  0.94318500  0.55299900  0.75470000  1
  F  F13  1  0.97974900  0.98591100  0.22436700  1
  F  F14  1  0.72202100  0.72244700  0.47419000  1
  F  F15  1  0.47830700  0.47384200  0.72256100  1
  F  F16  1  0.21447100  0.21826100  0.97706000  1
  F  F17  1  0.52864300  0.52316500  0.27403600  1
  F  F18  1  0.78352400  0.78768600  0.02589200  1
  F  F19  1  0.01573700  0.02202900  0.78178400  1
  F  F20  1  0.04381600  0.44061200  0.25374700  1
  F  F21  1  0.81373500  0.19477600  0.49083900  1
  F  F22  1  0.43713200  0.05109300  0.25165000  1
  F  F23  1  0.71915300  0.28099800  0.00160800  1
