# generated using pymatgen
data_V2OF5
_symmetry_space_group_name_H-M   'P 1'
_cell_length_a   5.28089552
_cell_length_b   5.28089552
_cell_length_c   9.54943238
_cell_angle_alpha   73.39926229
_cell_angle_beta   73.39926229
_cell_angle_gamma   59.83643160
_symmetry_Int_Tables_number   1
_chemical_formula_structural   V2OF5
_chemical_formula_sum   'V4 O2 F10'
_cell_volume   217.38434347
_cell_formula_units_Z   2
loop_
 _symmetry_equiv_pos_site_id
 _symmetry_equiv_pos_as_xyz
  1  'x, y, z'
loop_
 _atom_site_type_symbol
 _atom_site_label
 _atom_site_symmetry_multiplicity
 _atom_site_fract_x
 _atom_site_fract_y
 _atom_site_fract_z
 _atom_site_occupancy
  V  V0  1  0.03316900  0.73947700  0.86766600  1
  V  V1  1  0.74107500  0.50326000  0.62840800  1
  V  V2  1  0.49674000  0.25892500  0.37159200  1
  V  V3  1  0.26052300  0.96683100  0.13233400  1
  O  O4  1  0.35883700  0.70133300  0.75757600  1
  O  O5  1  0.29866700  0.64116300  0.24242400  1
  F  F6  1  0.12340300  0.28162500  0.49905900  1
  F  F7  1  0.03177700  0.96822300  0.00000000  1
  F  F8  1  0.47024700  0.03924900  0.24413700  1
  F  F9  1  0.78145000  0.11885900  0.75187900  1
  F  F10  1  0.71837500  0.87659700  0.50094100  1
  F  F11  1  0.20639200  0.36554900  0.00566000  1
  F  F12  1  0.52785000  0.47215000  0.50000000  1
  F  F13  1  0.63445100  0.79360800  0.99434000  1
  F  F14  1  0.96075100  0.52975300  0.75586300  1
  F  F15  1  0.88114100  0.21855000  0.24812100  1
