# generated using pymatgen
data_Na3CoBPO7
_symmetry_space_group_name_H-M   'P 1'
_cell_length_a   5.15503925
_cell_length_b   17.57021303
_cell_length_c   6.88369600
_cell_angle_alpha   90.00059275
_cell_angle_beta   89.99903881
_cell_angle_gamma   87.93798800
_symmetry_Int_Tables_number   1
_chemical_formula_structural   Na3CoBPO7
_chemical_formula_sum   'Na12 Co4 B4 P4 O28'
_cell_volume   623.08798425
_cell_formula_units_Z   4
loop_
 _symmetry_equiv_pos_site_id
 _symmetry_equiv_pos_as_xyz
  1  'x, y, z'
loop_
 _atom_site_type_symbol
 _atom_site_label
 _atom_site_symmetry_multiplicity
 _atom_site_fract_x
 _atom_site_fract_y
 _atom_site_fract_z
 _atom_site_occupancy
  Na  Na0  1  0.76966700  0.04033000  0.24996100  1
  Na  Na1  1  0.76971400  0.54032400  0.24995900  1
  Na  Na2  1  0.23043200  0.45990700  0.75001900  1
  Na  Na3  1  0.23048600  0.95983200  0.74996700  1
  Na  Na4  1  0.25498300  0.13383000  0.00964600  1
  Na  Na5  1  0.25490900  0.63384300  0.00962100  1
  Na  Na6  1  0.25503000  0.13384700  0.49023300  1
  Na  Na7  1  0.25503800  0.63389100  0.49023700  1
  Na  Na8  1  0.74468200  0.36617500  0.50945600  1
  Na  Na9  1  0.74444400  0.86622000  0.50936600  1
  Na  Na10  1  0.74474500  0.36616500  0.99058200  1
  Na  Na11  1  0.74445600  0.86616900  0.99050700  1
  Co  Co12  1  0.78072000  0.66894500  0.75005400  1
  Co  Co13  1  0.21889200  0.33101400  0.25000400  1
  Co  Co14  1  0.78104900  0.16894000  0.75003300  1
  Co  Co15  1  0.21883000  0.83102000  0.25004300  1
  B  B16  1  0.72577700  0.03484600  0.75000100  1
  B  B17  1  0.72546400  0.53483500  0.75001100  1
  B  B18  1  0.27429400  0.46507600  0.24998200  1
  B  B19  1  0.27422400  0.96506100  0.24999800  1
  P  P20  1  0.72203900  0.20965400  0.25001800  1
  P  P21  1  0.72201000  0.70968800  0.25001900  1
  P  P22  1  0.27815100  0.29037600  0.75000300  1
  P  P23  1  0.27814600  0.79031500  0.75002300  1
  O  O24  1  0.30352000  0.04041300  0.24997400  1
  O  O25  1  0.30353600  0.54042900  0.24997800  1
  O  O26  1  0.69712500  0.45947600  0.74999000  1
  O  O27  1  0.69686600  0.95949000  0.74995600  1
  O  O28  1  0.96333400  0.07125400  0.75009100  1
  O  O29  1  0.96269300  0.57127400  0.75026700  1
  O  O30  1  0.03662100  0.42871000  0.24999900  1
  O  O31  1  0.03653100  0.92870400  0.25012200  1
  O  O32  1  0.52652400  0.09129200  0.74997200  1
  O  O33  1  0.52601800  0.59124200  0.74979000  1
  O  O34  1  0.47345700  0.40860400  0.24996600  1
  O  O35  1  0.47339000  0.90858200  0.24991300  1
  O  O36  1  0.42408700  0.23323200  0.24996400  1
  O  O37  1  0.42411900  0.73325400  0.25002100  1
  O  O38  1  0.57597800  0.26669300  0.75007300  1
  O  O39  1  0.57608900  0.76674100  0.75009100  1
  O  O40  1  0.12189800  0.21650800  0.74995300  1
  O  O41  1  0.12184700  0.71650200  0.75000400  1
  O  O42  1  0.87780100  0.28362300  0.25006700  1
  O  O43  1  0.87775100  0.78363700  0.25005000  1
  O  O44  1  0.78299400  0.15956000  0.06915100  1
  O  O45  1  0.78287700  0.65956900  0.06915900  1
  O  O46  1  0.78289600  0.15954500  0.43087000  1
  O  O47  1  0.78295200  0.65956200  0.43084600  1
  O  O48  1  0.21770400  0.34048700  0.56909100  1
  O  O49  1  0.21797500  0.84041300  0.56906000  1
  O  O50  1  0.21751100  0.34047400  0.93090700  1
  O  O51  1  0.21772400  0.84042500  0.93093300  1
