# generated using pymatgen
data_Li4V3Ni2Sn3O16
_symmetry_space_group_name_H-M   'P 1'
_cell_length_a   6.07162944
_cell_length_b   6.00340628
_cell_length_c   9.70043931
_cell_angle_alpha   90.12216626
_cell_angle_beta   89.13041148
_cell_angle_gamma   119.77086398
_symmetry_Int_Tables_number   1
_chemical_formula_structural   Li4V3Ni2Sn3O16
_chemical_formula_sum   'Li4 V3 Ni2 Sn3 O16'
_cell_volume   306.87726863
_cell_formula_units_Z   1
loop_
 _symmetry_equiv_pos_site_id
 _symmetry_equiv_pos_as_xyz
  1  'x, y, z'
loop_
 _atom_site_type_symbol
 _atom_site_label
 _atom_site_symmetry_multiplicity
 _atom_site_fract_x
 _atom_site_fract_y
 _atom_site_fract_z
 _atom_site_occupancy
  Li  Li0  1  0.34579700  0.67377000  0.88769600  1
  Li  Li1  1  0.97601500  0.98563700  0.99376500  1
  Li  Li2  1  0.98064800  0.99039000  0.50239300  1
  Li  Li3  1  0.67055300  0.33393200  0.39367700  1
  V  V4  1  0.66509800  0.83126600  0.21060000  1
  V  V5  1  0.83331600  0.17574800  0.71060200  1
  V  V6  1  0.84041000  0.65347200  0.71493600  1
  Ni  Ni7  1  0.33787000  0.67026800  0.48724400  1
  Ni  Ni8  1  0.66915100  0.33574600  0.98455800  1
  Sn  Sn9  1  0.17350100  0.83363700  0.21573800  1
  Sn  Sn10  1  0.17242700  0.33881900  0.21520900  1
  Sn  Sn11  1  0.33843600  0.17075500  0.71555800  1
  O  O12  1  0.14463500  0.82377800  0.60383600  1
  O  O13  1  0.03612200  0.51730500  0.34451200  1
  O  O14  1  0.34938800  0.67393200  0.09702200  1
  O  O15  1  0.98328800  0.99168700  0.31859900  1
  O  O16  1  0.98547400  0.99291400  0.81055400  1
  O  O17  1  0.14412900  0.32268000  0.60459000  1
  O  O18  1  0.49286200  0.96317500  0.33718100  1
  O  O19  1  0.49495500  0.53202900  0.33577300  1
  O  O20  1  0.31072600  0.15520800  0.09055300  1
  O  O21  1  0.68590700  0.84562000  0.61758400  1
  O  O22  1  0.53977700  0.49622600  0.83430500  1
  O  O23  1  0.54117400  0.04730600  0.83459100  1
  O  O24  1  0.67900400  0.33962600  0.59951600  1
  O  O25  1  0.82315400  0.67416300  0.10742400  1
  O  O26  1  0.96601900  0.48721200  0.83190100  1
  O  O27  1  0.82016300  0.14399800  0.10792100  1
