# generated using pymatgen
data_VBO4
_symmetry_space_group_name_H-M   'P 1'
_cell_length_a   5.04700500
_cell_length_b   5.03627000
_cell_length_c   11.39743537
_cell_angle_alpha   70.09006049
_cell_angle_beta   90.00000000
_cell_angle_gamma   90.00000000
_symmetry_Int_Tables_number   1
_chemical_formula_structural   VBO4
_chemical_formula_sum   'V4 B4 O16'
_cell_volume   272.38522752
_cell_formula_units_Z   4
loop_
 _symmetry_equiv_pos_site_id
 _symmetry_equiv_pos_as_xyz
  1  'x, y, z'
loop_
 _atom_site_type_symbol
 _atom_site_label
 _atom_site_symmetry_multiplicity
 _atom_site_fract_x
 _atom_site_fract_y
 _atom_site_fract_z
 _atom_site_occupancy
  V  V0  1  0.74223700  0.31345000  0.07323800  1
  V  V1  1  0.75776300  0.31345000  0.57323800  1
  V  V2  1  0.24223700  0.68655000  0.42676200  1
  V  V3  1  0.25776300  0.68655000  0.92676200  1
  B  B4  1  0.52878500  0.27324300  0.32843300  1
  B  B5  1  0.02878500  0.72675700  0.17156700  1
  B  B6  1  0.97121500  0.27324300  0.82843300  1
  B  B7  1  0.47121500  0.72675700  0.67156700  1
  O  O8  1  0.34570600  0.61143800  0.78275100  1
  O  O9  1  0.94608800  0.40131100  0.91951400  1
  O  O10  1  0.44608800  0.59868900  0.58048600  1
  O  O11  1  0.45031600  0.24160100  0.02621500  1
  O  O12  1  0.84570600  0.38856200  0.71724900  1
  O  O13  1  0.39219500  0.02156600  0.35547800  1
  O  O14  1  0.89219500  0.97843400  0.14452200  1
  O  O15  1  0.95031600  0.75839900  0.47378500  1
  O  O16  1  0.04968400  0.24160100  0.52621500  1
  O  O17  1  0.10780500  0.02156600  0.85547800  1
  O  O18  1  0.60780500  0.97843400  0.64452200  1
  O  O19  1  0.15429400  0.61143800  0.28275100  1
  O  O20  1  0.54968400  0.75839900  0.97378500  1
  O  O21  1  0.55391200  0.40131100  0.41951400  1
  O  O22  1  0.05391200  0.59868900  0.08048600  1
  O  O23  1  0.65429400  0.38856200  0.21724900  1
