# generated using pymatgen
data_Sc2V2O7
_symmetry_space_group_name_H-M   'P 1'
_cell_length_a   6.93642337
_cell_length_b   6.93661430
_cell_length_c   6.93651106
_cell_angle_alpha   60.00544257
_cell_angle_beta   60.00418146
_cell_angle_gamma   60.00439048
_symmetry_Int_Tables_number   1
_chemical_formula_structural   Sc2V2O7
_chemical_formula_sum   'Sc4 V4 O14'
_cell_volume   236.02348520
_cell_formula_units_Z   2
loop_
 _symmetry_equiv_pos_site_id
 _symmetry_equiv_pos_as_xyz
  1  'x, y, z'
loop_
 _atom_site_type_symbol
 _atom_site_label
 _atom_site_symmetry_multiplicity
 _atom_site_fract_x
 _atom_site_fract_y
 _atom_site_fract_z
 _atom_site_occupancy
  Sc  Sc0  1  0.50001200  0.49999000  0.00000000  1
  Sc  Sc1  1  0.50000300  0.99999500  0.49999600  1
  Sc  Sc2  1  0.00000400  0.49999500  0.49999800  1
  Sc  Sc3  1  0.50000400  0.50000200  0.49999900  1
  V  V4  1  0.49999800  0.00000400  0.00000100  1
  V  V5  1  0.99999700  0.00000500  0.00000200  1
  V  V6  1  0.00000100  0.49999900  0.99999600  1
  V  V7  1  0.99999700  0.00000300  0.49999900  1
  O  O8  1  0.66147800  0.08853100  0.08854100  1
  O  O9  1  0.91146800  0.33858000  0.33857700  1
  O  O10  1  0.37495400  0.37495200  0.37496700  1
  O  O11  1  0.66141500  0.08853900  0.66142400  1
  O  O12  1  0.08853000  0.66147500  0.08854600  1
  O  O13  1  0.08854000  0.08852700  0.66147500  1
  O  O14  1  0.66141600  0.66142600  0.08854000  1
  O  O15  1  0.33858100  0.91146700  0.33857500  1
  O  O16  1  0.91145500  0.33852700  0.91146200  1
  O  O17  1  0.33858300  0.33857800  0.91145900  1
  O  O18  1  0.62504000  0.62504600  0.62503200  1
  O  O19  1  0.91146600  0.91147200  0.33852500  1
  O  O20  1  0.08854000  0.66141500  0.66141800  1
  O  O21  1  0.33851500  0.91147100  0.91146800  1
