# generated using pymatgen
data_Ni3OF5
_symmetry_space_group_name_H-M   'P 1'
_cell_length_a   5.62720700
_cell_length_b   5.63391084
_cell_length_c   7.33416919
_cell_angle_alpha   72.33621753
_cell_angle_beta   72.33036264
_cell_angle_gamma   72.39750343
_symmetry_Int_Tables_number   1
_chemical_formula_structural   Ni3OF5
_chemical_formula_sum   'Ni6 O2 F10'
_cell_volume   205.35983312
_cell_formula_units_Z   2
loop_
 _symmetry_equiv_pos_site_id
 _symmetry_equiv_pos_as_xyz
  1  'x, y, z'
loop_
 _atom_site_type_symbol
 _atom_site_label
 _atom_site_symmetry_multiplicity
 _atom_site_fract_x
 _atom_site_fract_y
 _atom_site_fract_z
 _atom_site_occupancy
  Ni  Ni0  1  0.33375000  0.34148900  0.16237600  1
  Ni  Ni1  1  0.33811100  0.33967100  0.66756500  1
  Ni  Ni2  1  0.66396700  0.66808800  0.34011500  1
  Ni  Ni3  1  0.65479700  0.66318200  0.83229400  1
  Ni  Ni4  1  0.99967100  0.00259000  0.50001800  1
  Ni  Ni5  1  0.00867900  0.98813300  0.99956000  1
  O  O6  1  0.56225800  0.56766100  0.63079100  1
  O  O7  1  0.30448400  0.69297300  0.99771100  1
  F  F8  1  0.36188300  0.97520800  0.32961500  1
  F  F9  1  0.02578400  0.63932900  0.67035000  1
  F  F10  1  0.10533000  0.10493600  0.69994400  1
  F  F11  1  0.43393300  0.43553400  0.36827300  1
  F  F12  1  0.76345300  0.76220300  0.03810700  1
  F  F13  1  0.90015300  0.89888600  0.29840200  1
  F  F14  1  0.23283600  0.23036400  0.96489000  1
  F  F15  1  0.63779400  0.03088900  0.66697500  1
  F  F16  1  0.96919600  0.36458700  0.33368600  1
  F  F17  1  0.70392400  0.29427800  0.99932700  1
