# generated using pymatgen
data_TiV4FeO12
_symmetry_space_group_name_H-M   'P 1'
_cell_length_a   6.87941685
_cell_length_b   6.87941685
_cell_length_c   5.73963883
_cell_angle_alpha   75.32725603
_cell_angle_beta   75.32725603
_cell_angle_gamma   84.53334173
_symmetry_Int_Tables_number   1
_chemical_formula_structural   TiV4FeO12
_chemical_formula_sum   'Ti1 V4 Fe1 O12'
_cell_volume   254.06771428
_cell_formula_units_Z   1
loop_
 _symmetry_equiv_pos_site_id
 _symmetry_equiv_pos_as_xyz
  1  'x, y, z'
loop_
 _atom_site_type_symbol
 _atom_site_label
 _atom_site_symmetry_multiplicity
 _atom_site_fract_x
 _atom_site_fract_y
 _atom_site_fract_z
 _atom_site_occupancy
  Ti  Ti0  1  0.09411000  0.90589000  0.50000000  1
  V  V1  1  0.79419800  0.61219000  0.99908100  1
  V  V2  1  0.61156100  0.80926400  0.49992700  1
  V  V3  1  0.38781000  0.20580200  0.00091900  1
  V  V4  1  0.19073600  0.38843900  0.50007300  1
  Fe  Fe5  1  0.91306500  0.08693500  0.00000000  1
  O  O6  1  0.96488800  0.81214900  0.86783500  1
  O  O7  1  0.91401000  0.38398600  0.01440500  1
  O  O8  1  0.82485500  0.96328900  0.38454100  1
  O  O9  1  0.62588400  0.64428300  0.80532100  1
  O  O10  1  0.61601400  0.08599000  0.98559500  1
  O  O11  1  0.66345800  0.63127200  0.29780700  1
  O  O12  1  0.35571700  0.37411600  0.19467900  1
  O  O13  1  0.35780100  0.90739600  0.52895500  1
  O  O14  1  0.36872800  0.33654200  0.70219300  1
  O  O15  1  0.18785100  0.03511200  0.13216500  1
  O  O16  1  0.09260400  0.64219900  0.47104500  1
  O  O17  1  0.03671100  0.17514500  0.61545900  1
