# generated using pymatgen
data_B4N2O11
_symmetry_space_group_name_H-M   'P 1'
_cell_length_a   10.13251600
_cell_length_b   7.85012800
_cell_length_c   8.16383027
_cell_angle_alpha   74.73871850
_cell_angle_beta   90.00000000
_cell_angle_gamma   90.00000000
_symmetry_Int_Tables_number   1
_chemical_formula_structural   B4N2O11
_chemical_formula_sum   'B8 N4 O22'
_cell_volume   626.46421748
_cell_formula_units_Z   2
loop_
 _symmetry_equiv_pos_site_id
 _symmetry_equiv_pos_as_xyz
  1  'x, y, z'
loop_
 _atom_site_type_symbol
 _atom_site_label
 _atom_site_symmetry_multiplicity
 _atom_site_fract_x
 _atom_site_fract_y
 _atom_site_fract_z
 _atom_site_occupancy
  B  B0  1  0.71225200  0.92590000  0.87385800  1
  B  B1  1  0.21225200  0.07410000  0.12614200  1
  B  B2  1  0.85682100  0.66226300  0.65654300  1
  B  B3  1  0.35682100  0.33773700  0.34345700  1
  B  B4  1  0.71249300  0.59376700  0.92082200  1
  B  B5  1  0.21249300  0.40623300  0.07917800  1
  B  B6  1  0.70733400  0.93054900  0.56082600  1
  B  B7  1  0.20733400  0.06945100  0.43917400  1
  N  N8  1  0.96083100  0.76051900  0.22407600  1
  N  N9  1  0.46083100  0.23948100  0.77592400  1
  N  N10  1  0.87665000  0.12474600  0.93678200  1
  N  N11  1  0.37665000  0.87525400  0.06321800  1
  O  O12  1  0.74472800  0.04922800  0.96746100  1
  O  O13  1  0.24472800  0.95077200  0.03253900  1
  O  O14  1  0.97924700  0.61309800  0.61593800  1
  O  O15  1  0.47924700  0.38690200  0.38406200  1
  O  O16  1  0.63486500  0.45864300  0.00797000  1
  O  O17  1  0.13486500  0.54135700  0.99203000  1
  O  O18  1  0.63342200  0.00569800  0.42155000  1
  O  O19  1  0.13342200  0.99430200  0.57845000  1
  O  O20  1  0.94336200  0.06120100  0.84883500  1
  O  O21  1  0.44336200  0.93879900  0.15116500  1
  O  O22  1  0.70352300  0.75281300  0.96280900  1
  O  O23  1  0.20352300  0.24718700  0.03719100  1
  O  O24  1  0.68953400  0.98929700  0.70412200  1
  O  O25  1  0.18953400  0.01070300  0.29587800  1
  O  O26  1  0.79811500  0.56144800  0.80206600  1
  O  O27  1  0.29811500  0.43855200  0.19793400  1
  O  O28  1  0.79893100  0.80584800  0.54634400  1
  O  O29  1  0.29893100  0.19415200  0.45365600  1
  O  O30  1  0.79395700  0.39253100  0.37978800  1
  O  O31  1  0.29395700  0.60746900  0.62021200  1
  O  O32  1  0.89923500  0.31554800  0.37977100  1
  O  O33  1  0.39923500  0.68445200  0.62022900  1
