# generated using pymatgen
data_BaTe2Mo2(HO6)2
_symmetry_space_group_name_H-M   'P 1'
_cell_length_a   7.49751400
_cell_length_b   7.63978900
_cell_length_c   19.10793000
_cell_angle_alpha   90.00000000
_cell_angle_beta   90.00000000
_cell_angle_gamma   90.00000000
_symmetry_Int_Tables_number   1
_chemical_formula_structural   BaTe2Mo2(HO6)2
_chemical_formula_sum   'Ba4 Te8 Mo8 H8 O48'
_cell_volume   1094.49124304
_cell_formula_units_Z   4
loop_
 _symmetry_equiv_pos_site_id
 _symmetry_equiv_pos_as_xyz
  1  'x, y, z'
loop_
 _atom_site_type_symbol
 _atom_site_label
 _atom_site_symmetry_multiplicity
 _atom_site_fract_x
 _atom_site_fract_y
 _atom_site_fract_z
 _atom_site_occupancy
  Ba  Ba0  1  0.25514300  0.82873000  0.44642400  1
  Ba  Ba1  1  0.74485700  0.32873000  0.05357600  1
  Ba  Ba2  1  0.75514300  0.67127000  0.55357600  1
  Ba  Ba3  1  0.24485700  0.17127000  0.94642400  1
  Te  Te4  1  0.98525600  0.38216900  0.39562700  1
  Te  Te5  1  0.51474400  0.61783100  0.89562700  1
  Te  Te6  1  0.33746000  0.59101100  0.25999100  1
  Te  Te7  1  0.83746000  0.90898900  0.74000900  1
  Te  Te8  1  0.01474400  0.88216900  0.10437300  1
  Te  Te9  1  0.66254000  0.09101100  0.24000900  1
  Te  Te10  1  0.48525600  0.11783100  0.60437300  1
  Te  Te11  1  0.16254000  0.40898900  0.75999100  1
  Mo  Mo12  1  0.52758100  0.85713900  0.09590300  1
  Mo  Mo13  1  0.02758100  0.64286100  0.90409700  1
  Mo  Mo14  1  0.77055100  0.56314800  0.24047500  1
  Mo  Mo15  1  0.97241900  0.14286100  0.59590300  1
  Mo  Mo16  1  0.27055100  0.93685200  0.75952500  1
  Mo  Mo17  1  0.47241900  0.35713900  0.40409700  1
  Mo  Mo18  1  0.72944900  0.43685200  0.74047500  1
  Mo  Mo19  1  0.22944900  0.06314800  0.25952500  1
  H  H20  1  0.81888400  0.97683700  0.92550200  1
  H  H21  1  0.31888400  0.52316300  0.07449800  1
  H  H22  1  0.76865900  0.16240100  0.89698900  1
  H  H23  1  0.23134100  0.66240100  0.60301100  1
  H  H24  1  0.68111600  0.02316300  0.42550200  1
  H  H25  1  0.26865900  0.33759900  0.10301100  1
  H  H26  1  0.18111600  0.47683700  0.57449800  1
  H  H27  1  0.73134100  0.83759900  0.39698900  1
  O  O28  1  0.76387000  0.96269300  0.14062500  1
  O  O29  1  0.95871200  0.49792600  0.81221100  1
  O  O30  1  0.54787100  0.65082300  0.19492700  1
  O  O31  1  0.43449000  0.89643800  0.56980000  1
  O  O32  1  0.09305700  0.07420800  0.33487300  1
  O  O33  1  0.29977500  0.76882500  0.09490500  1
  O  O34  1  0.51019900  0.02898600  0.03376300  1
  O  O35  1  0.68102100  0.24741000  0.78732800  1
  O  O36  1  0.40694300  0.92579200  0.83487300  1
  O  O37  1  0.17049200  0.19210400  0.80555700  1
  O  O38  1  0.09859100  0.90106800  0.20014100  1
  O  O39  1  0.70022500  0.26882500  0.40509500  1
  O  O40  1  0.20022500  0.23117500  0.59490500  1
  O  O41  1  0.93449000  0.60356200  0.43020000  1
  O  O42  1  0.73613000  0.03730700  0.64062500  1
  O  O43  1  0.40140900  0.09893200  0.70014100  1
  O  O44  1  0.45871200  0.00207400  0.18778900  1
  O  O45  1  0.18102100  0.25259000  0.21267200  1
  O  O46  1  0.84893300  0.30713300  0.55227900  1
  O  O47  1  0.04128800  0.99792600  0.68778900  1
  O  O48  1  0.84238800  0.10294200  0.93213600  1
  O  O49  1  0.34238800  0.39705800  0.06786400  1
  O  O50  1  0.59305700  0.42579200  0.66512700  1
  O  O51  1  0.15106700  0.80713300  0.94772100  1
  O  O52  1  0.82950800  0.69210400  0.69444300  1
  O  O53  1  0.81897900  0.75259000  0.28732800  1
  O  O54  1  0.45212900  0.15082300  0.30507300  1
  O  O55  1  0.90140900  0.40106800  0.29985900  1
  O  O56  1  0.31897900  0.74741000  0.71267200  1
  O  O57  1  0.67049200  0.30789600  0.19444300  1
  O  O58  1  0.65106700  0.69286700  0.05227900  1
  O  O59  1  0.01019900  0.47101400  0.96623700  1
  O  O60  1  0.59859100  0.59893200  0.79985900  1
  O  O61  1  0.04787100  0.84917700  0.80507300  1
  O  O62  1  0.26387000  0.53730700  0.85937500  1
  O  O63  1  0.34893300  0.19286700  0.44772100  1
  O  O64  1  0.15761200  0.60294200  0.56786400  1
  O  O65  1  0.54128800  0.50207400  0.31221100  1
  O  O66  1  0.48980100  0.52898600  0.46623700  1
  O  O67  1  0.65761200  0.89705800  0.43213600  1
  O  O68  1  0.06551000  0.10356200  0.06980000  1
  O  O69  1  0.95212900  0.34917700  0.69492700  1
  O  O70  1  0.79977500  0.73117500  0.90509500  1
  O  O71  1  0.98980100  0.97101400  0.53376300  1
  O  O72  1  0.23613000  0.46269300  0.35937500  1
  O  O73  1  0.56551000  0.39643800  0.93020000  1
  O  O74  1  0.90694300  0.57420800  0.16512700  1
  O  O75  1  0.32950800  0.80789600  0.30555700  1
