# generated using pymatgen
data_Fe6O7F5
_symmetry_space_group_name_H-M   'P 1'
_cell_length_a   4.77567600
_cell_length_b   5.67797637
_cell_length_c   7.73896177
_cell_angle_alpha   83.98374741
_cell_angle_beta   87.34054931
_cell_angle_gamma   86.20469895
_symmetry_Int_Tables_number   1
_chemical_formula_structural   Fe6O7F5
_chemical_formula_sum   'Fe6 O7 F5'
_cell_volume   208.07281391
_cell_formula_units_Z   1
loop_
 _symmetry_equiv_pos_site_id
 _symmetry_equiv_pos_as_xyz
  1  'x, y, z'
loop_
 _atom_site_type_symbol
 _atom_site_label
 _atom_site_symmetry_multiplicity
 _atom_site_fract_x
 _atom_site_fract_y
 _atom_site_fract_z
 _atom_site_occupancy
  Fe  Fe0  1  0.55152800  0.85329000  0.66450800  1
  Fe  Fe1  1  0.54102800  0.50455900  0.01078800  1
  Fe  Fe2  1  0.48756000  0.16533300  0.33518800  1
  Fe  Fe3  1  0.99300300  0.32567700  0.67243100  1
  Fe  Fe4  1  0.99087800  0.66322300  0.32213900  1
  Fe  Fe5  1  0.95895400  0.99422500  0.99836800  1
  O  O6  1  0.81119900  0.04241300  0.77025500  1
  O  O7  1  0.81392700  0.69957600  0.10071300  1
  O  O8  1  0.68944400  0.19767100  0.11681200  1
  O  O9  1  0.69270800  0.53915700  0.76767600  1
  O  O10  1  0.69516200  0.88106400  0.42402100  1
  O  O11  1  0.30520800  0.13433700  0.55727100  1
  O  O12  1  0.30485900  0.45383300  0.23876600  1
  F  F13  1  0.80112300  0.37341800  0.43682000  1
  F  F14  1  0.30346600  0.80124900  0.89929500  1
  F  F15  1  0.19493500  0.95584800  0.22416700  1
  F  F16  1  0.17290900  0.62576200  0.55920400  1
  F  F17  1  0.19210900  0.28936500  0.90157500  1
