# generated using pymatgen
data_Er3TaO7
_symmetry_space_group_name_H-M   'P 1'
_cell_length_a   6.41704873
_cell_length_b   6.41704873
_cell_length_c   7.51089200
_cell_angle_alpha   90.00000000
_cell_angle_beta   90.00000000
_cell_angle_gamma   110.14834474
_symmetry_Int_Tables_number   1
_chemical_formula_structural   Er3TaO7
_chemical_formula_sum   'Er6 Ta2 O14'
_cell_volume   290.36020811
_cell_formula_units_Z   2
loop_
 _symmetry_equiv_pos_site_id
 _symmetry_equiv_pos_as_xyz
  1  'x, y, z'
loop_
 _atom_site_type_symbol
 _atom_site_label
 _atom_site_symmetry_multiplicity
 _atom_site_fract_x
 _atom_site_fract_y
 _atom_site_fract_z
 _atom_site_occupancy
  Er  Er0  1  0.51188400  0.04664600  0.25000000  1
  Er  Er1  1  0.00000000  0.00000000  0.00000000  1
  Er  Er2  1  0.00000000  0.00000000  0.50000000  1
  Er  Er3  1  0.95335400  0.48811600  0.75000000  1
  Er  Er4  1  0.04664600  0.51188400  0.25000000  1
  Er  Er5  1  0.48811600  0.95335400  0.75000000  1
  Ta  Ta6  1  0.50000000  0.50000000  0.00000000  1
  Ta  Ta7  1  0.50000000  0.50000000  0.50000000  1
  O  O8  1  0.84987000  0.11628000  0.75000000  1
  O  O9  1  0.88372000  0.15013000  0.25000000  1
  O  O10  1  0.43341400  0.17415600  0.53062300  1
  O  O11  1  0.43341400  0.17415600  0.96937700  1
  O  O12  1  0.82584400  0.56658600  0.03062300  1
  O  O13  1  0.82584400  0.56658600  0.46937700  1
  O  O14  1  0.42906400  0.42906400  0.25000000  1
  O  O15  1  0.57093600  0.57093600  0.75000000  1
  O  O16  1  0.17415600  0.43341400  0.96937700  1
  O  O17  1  0.17415600  0.43341400  0.53062300  1
  O  O18  1  0.56658600  0.82584400  0.03062300  1
  O  O19  1  0.56658600  0.82584400  0.46937700  1
  O  O20  1  0.11628000  0.84987000  0.75000000  1
  O  O21  1  0.15013000  0.88372000  0.25000000  1
