# generated using pymatgen
data_AgBrO4
_symmetry_space_group_name_H-M   'P 1'
_cell_length_a   8.66993500
_cell_length_b   5.84442200
_cell_length_c   9.20825733
_cell_angle_alpha   53.55510237
_cell_angle_beta   90.00000000
_cell_angle_gamma   90.00000000
_symmetry_Int_Tables_number   1
_chemical_formula_structural   AgBrO4
_chemical_formula_sum   'Ag4 Br4 O16'
_cell_volume   375.33781906
_cell_formula_units_Z   4
loop_
 _symmetry_equiv_pos_site_id
 _symmetry_equiv_pos_as_xyz
  1  'x, y, z'
loop_
 _atom_site_type_symbol
 _atom_site_label
 _atom_site_symmetry_multiplicity
 _atom_site_fract_x
 _atom_site_fract_y
 _atom_site_fract_z
 _atom_site_occupancy
  Ag  Ag0  1  0.53343800  0.91448800  0.33522200  1
  Ag  Ag1  1  0.03343800  0.08551200  0.16477800  1
  Ag  Ag2  1  0.96656200  0.91448800  0.83522200  1
  Ag  Ag3  1  0.46656200  0.08551200  0.66477800  1
  Br  Br4  1  0.68624500  0.40421700  0.84033900  1
  Br  Br5  1  0.18624500  0.59578300  0.65966100  1
  Br  Br6  1  0.81375500  0.40421700  0.34033900  1
  Br  Br7  1  0.31375500  0.59578300  0.15966100  1
  O  O8  1  0.77623300  0.72763200  0.28276600  1
  O  O9  1  0.62180700  0.43630500  0.65701200  1
  O  O10  1  0.84937400  0.21131600  0.90540900  1
  O  O11  1  0.05519500  0.75588100  0.49761400  1
  O  O12  1  0.55519500  0.24411900  0.00238600  1
  O  O13  1  0.34937400  0.78868400  0.59459100  1
  O  O14  1  0.12180700  0.56369500  0.84298800  1
  O  O15  1  0.72376700  0.72763200  0.78276600  1
  O  O16  1  0.27623300  0.27236800  0.21723400  1
  O  O17  1  0.87819300  0.43630500  0.15701200  1
  O  O18  1  0.65062600  0.21131600  0.40540900  1
  O  O19  1  0.44480500  0.75588100  0.99761400  1
  O  O20  1  0.94480500  0.24411900  0.50238600  1
  O  O21  1  0.15062600  0.78868400  0.09459100  1
  O  O22  1  0.37819300  0.56369500  0.34298800  1
  O  O23  1  0.22376700  0.27236800  0.71723400  1
