# generated using pymatgen
data_Lu4(B2O5)3
_symmetry_space_group_name_H-M   'P 1'
_cell_length_a   7.94293320
_cell_length_b   7.94293320
_cell_length_c   7.94293321
_cell_angle_alpha   112.00079035
_cell_angle_beta   112.00079035
_cell_angle_gamma   112.00079833
_symmetry_Int_Tables_number   1
_chemical_formula_structural   Lu4(B2O5)3
_chemical_formula_sum   'Lu4 B6 O15'
_cell_volume   344.94935102
_cell_formula_units_Z   1
loop_
 _symmetry_equiv_pos_site_id
 _symmetry_equiv_pos_as_xyz
  1  'x, y, z'
loop_
 _atom_site_type_symbol
 _atom_site_label
 _atom_site_symmetry_multiplicity
 _atom_site_fract_x
 _atom_site_fract_y
 _atom_site_fract_z
 _atom_site_occupancy
  Lu  Lu0  1  0.09526500  0.80198300  0.27938900  1
  Lu  Lu1  1  0.80198300  0.27938900  0.09526500  1
  Lu  Lu2  1  0.99364300  0.99364300  0.99364300  1
  Lu  Lu3  1  0.27938900  0.09526500  0.80198300  1
  B  B4  1  0.27200900  0.50102900  0.18764100  1
  B  B5  1  0.51262000  0.85053500  0.59381600  1
  B  B6  1  0.85053500  0.59381600  0.51262000  1
  B  B7  1  0.50102900  0.18764100  0.27200900  1
  B  B8  1  0.18764100  0.27200900  0.50102900  1
  B  B9  1  0.59381600  0.51262000  0.85053500  1
  O  O10  1  0.80021200  0.72422400  0.99274200  1
  O  O11  1  0.08813200  0.50916100  0.11590800  1
  O  O12  1  0.35435400  0.88641000  0.58902200  1
  O  O13  1  0.47566400  0.68553400  0.40327000  1
  O  O14  1  0.24814200  0.30849600  0.04878000  1
  O  O15  1  0.88641000  0.58902200  0.35435400  1
  O  O16  1  0.99274200  0.80021200  0.72422400  1
  O  O17  1  0.50916100  0.11590800  0.08813200  1
  O  O18  1  0.04878000  0.24814200  0.30849600  1
  O  O19  1  0.68553400  0.40327000  0.47566400  1
  O  O20  1  0.40327000  0.47566400  0.68553400  1
  O  O21  1  0.30849600  0.04878000  0.24814200  1
  O  O22  1  0.11590800  0.08813200  0.50916100  1
  O  O23  1  0.58902200  0.35435400  0.88641000  1
  O  O24  1  0.72422400  0.99274200  0.80021200  1
