# generated using pymatgen
data_BaLaI5
_symmetry_space_group_name_H-M   'P 1'
_cell_length_a   8.80269684
_cell_length_b   8.80269684
_cell_length_c   12.19365587
_cell_angle_alpha   69.74593064
_cell_angle_beta   69.74593064
_cell_angle_gamma   70.85779789
_symmetry_Int_Tables_number   1
_chemical_formula_structural   BaLaI5
_chemical_formula_sum   'Ba2 La2 I10'
_cell_volume   808.04911688
_cell_formula_units_Z   2
loop_
 _symmetry_equiv_pos_site_id
 _symmetry_equiv_pos_as_xyz
  1  'x, y, z'
loop_
 _atom_site_type_symbol
 _atom_site_label
 _atom_site_symmetry_multiplicity
 _atom_site_fract_x
 _atom_site_fract_y
 _atom_site_fract_z
 _atom_site_occupancy
  Ba  Ba0  1  0.45094900  0.54905100  0.25000000  1
  Ba  Ba1  1  0.54905100  0.45094900  0.75000000  1
  La  La2  1  0.00000000  0.00000000  0.50000000  1
  La  La3  1  0.00000000  0.00000000  0.00000000  1
  I  I4  1  0.74077500  0.78280200  0.12357800  1
  I  I5  1  0.70465800  0.32075800  0.03100400  1
  I  I6  1  0.78280200  0.74077500  0.62357800  1
  I  I7  1  0.09684000  0.90316000  0.25000000  1
  I  I8  1  0.67924200  0.29534200  0.46899600  1
  I  I9  1  0.32075800  0.70465800  0.53100400  1
  I  I10  1  0.90316000  0.09684000  0.75000000  1
  I  I11  1  0.21719800  0.25922500  0.37642200  1
  I  I12  1  0.29534200  0.67924200  0.96899600  1
  I  I13  1  0.25922500  0.21719800  0.87642200  1
