# generated using pymatgen
data_CoTeO4
_symmetry_space_group_name_H-M   'P 1'
_cell_length_a   6.22596072
_cell_length_b   6.22596072
_cell_length_c   6.22596072
_cell_angle_alpha   121.78377927
_cell_angle_beta   121.02790670
_cell_angle_gamma   87.58308163
_symmetry_Int_Tables_number   1
_chemical_formula_structural   CoTeO4
_chemical_formula_sum   'Co2 Te2 O8'
_cell_volume   166.85209923
_cell_formula_units_Z   2
loop_
 _symmetry_equiv_pos_site_id
 _symmetry_equiv_pos_as_xyz
  1  'x, y, z'
loop_
 _atom_site_type_symbol
 _atom_site_label
 _atom_site_symmetry_multiplicity
 _atom_site_fract_x
 _atom_site_fract_y
 _atom_site_fract_z
 _atom_site_occupancy
  Co  Co0  1  0.00000000  0.50000000  0.00000000  1
  Co  Co1  1  0.00000000  0.00000000  0.50000000  1
  Te  Te2  1  0.50000000  0.00000000  0.50000000  1
  Te  Te3  1  0.00000000  0.00000000  0.00000000  1
  O  O4  1  0.18814300  0.21250200  0.97564100  1
  O  O5  1  0.75099900  0.77946600  0.52846700  1
  O  O6  1  0.73686100  0.21250200  0.52435900  1
  O  O7  1  0.75099900  0.22253200  0.97153300  1
  O  O8  1  0.24900100  0.77746800  0.02846700  1
  O  O9  1  0.26313900  0.78749800  0.47564100  1
  O  O10  1  0.24900100  0.22053400  0.47153300  1
  O  O11  1  0.81185700  0.78749800  0.02435900  1
