# generated using pymatgen
data_VOF2
_symmetry_space_group_name_H-M   'P 1'
_cell_length_a   5.19584100
_cell_length_b   5.23758361
_cell_length_c   13.38898064
_cell_angle_alpha   88.76302776
_cell_angle_beta   89.33783698
_cell_angle_gamma   60.28317585
_symmetry_Int_Tables_number   1
_chemical_formula_structural   VOF2
_chemical_formula_sum   'V6 O6 F12'
_cell_volume   316.37031255
_cell_formula_units_Z   6
loop_
 _symmetry_equiv_pos_site_id
 _symmetry_equiv_pos_as_xyz
  1  'x, y, z'
loop_
 _atom_site_type_symbol
 _atom_site_label
 _atom_site_symmetry_multiplicity
 _atom_site_fract_x
 _atom_site_fract_y
 _atom_site_fract_z
 _atom_site_occupancy
  V  V0  1  0.00000000  0.00000000  0.50000000  1
  V  V1  1  0.00000000  0.00000000  0.00000000  1
  V  V2  1  0.37935300  0.34946500  0.83317000  1
  V  V3  1  0.69862000  0.66706400  0.66302900  1
  V  V4  1  0.30138000  0.33293600  0.33697100  1
  V  V5  1  0.62064700  0.65053500  0.16683000  1
  O  O6  1  0.66399100  0.24744400  0.91381100  1
  O  O7  1  0.91229700  0.74782000  0.58764600  1
  O  O8  1  0.56730300  0.43013000  0.24729500  1
  O  O9  1  0.43269700  0.56987000  0.75270500  1
  O  O10  1  0.08770300  0.25218000  0.41235400  1
  O  O11  1  0.33600900  0.75255600  0.08618900  1
  F  F12  1  0.02186900  0.39843000  0.75232000  1
  F  F13  1  0.59917300  0.99617100  0.75531500  1
  F  F14  1  0.66643000  0.06955600  0.41118100  1
  F  F15  1  0.91411500  0.35265900  0.08593900  1
  F  F16  1  0.73619300  0.33841100  0.58334300  1
  F  F17  1  0.40082700  0.00382900  0.24468500  1
  F  F18  1  0.97813100  0.60157000  0.24768000  1
  F  F19  1  0.25556600  0.07962100  0.91326100  1
  F  F20  1  0.74443400  0.92037900  0.08673900  1
  F  F21  1  0.26380700  0.66158900  0.41665700  1
  F  F22  1  0.08588500  0.64734100  0.91406100  1
  F  F23  1  0.33357000  0.93044400  0.58881900  1
