# generated using pymatgen
data_Cs3ScO3
_symmetry_space_group_name_H-M   'P 1'
_cell_length_a   7.45224679
_cell_length_b   7.45224679
_cell_length_c   7.44461448
_cell_angle_alpha   83.05845666
_cell_angle_beta   83.05845666
_cell_angle_gamma   115.63098950
_symmetry_Int_Tables_number   1
_chemical_formula_structural   Cs3ScO3
_chemical_formula_sum   'Cs6 Sc2 O6'
_cell_volume   363.03840646
_cell_formula_units_Z   2
loop_
 _symmetry_equiv_pos_site_id
 _symmetry_equiv_pos_as_xyz
  1  'x, y, z'
loop_
 _atom_site_type_symbol
 _atom_site_label
 _atom_site_symmetry_multiplicity
 _atom_site_fract_x
 _atom_site_fract_y
 _atom_site_fract_z
 _atom_site_occupancy
  Cs  Cs0  1  0.63450700  0.63450700  0.65660400  1
  Cs  Cs1  1  0.79695700  0.20304300  0.50000000  1
  Cs  Cs2  1  0.20304300  0.79695700  0.50000000  1
  Cs  Cs3  1  0.73881000  0.26119000  0.00000000  1
  Cs  Cs4  1  0.26119000  0.73881000  0.00000000  1
  Cs  Cs5  1  0.36549300  0.36549300  0.34339600  1
  Sc  Sc6  1  0.83470000  0.83470000  0.14667700  1
  Sc  Sc7  1  0.16530000  0.16530000  0.85332300  1
  O  O8  1  0.90555700  0.90555700  0.86075500  1
  O  O9  1  0.58407700  0.84137200  0.26151100  1
  O  O10  1  0.84137200  0.58407700  0.26151100  1
  O  O11  1  0.15862800  0.41592300  0.73848900  1
  O  O12  1  0.41592300  0.15862800  0.73848900  1
  O  O13  1  0.09444300  0.09444300  0.13924500  1
