# generated using pymatgen
data_Fe6OF11
_symmetry_space_group_name_H-M   'P 1'
_cell_length_a   10.82140618
_cell_length_b   10.82140618
_cell_length_c   3.25262800
_cell_angle_alpha   90.00000000
_cell_angle_beta   90.00000000
_cell_angle_gamma   143.41933840
_symmetry_Int_Tables_number   1
_chemical_formula_structural   Fe6OF11
_chemical_formula_sum   'Fe6 O1 F11'
_cell_volume   226.99403304
_cell_formula_units_Z   1
loop_
 _symmetry_equiv_pos_site_id
 _symmetry_equiv_pos_as_xyz
  1  'x, y, z'
loop_
 _atom_site_type_symbol
 _atom_site_label
 _atom_site_symmetry_multiplicity
 _atom_site_fract_x
 _atom_site_fract_y
 _atom_site_fract_z
 _atom_site_occupancy
  Fe  Fe0  1  0.98783800  0.98783800  0.50000000  1
  Fe  Fe1  1  0.52760000  0.52760000  0.00000000  1
  Fe  Fe2  1  0.66532800  0.33189000  0.50000000  1
  Fe  Fe3  1  0.83397600  0.16601700  0.00000000  1
  Fe  Fe4  1  0.16601700  0.83397600  0.00000000  1
  Fe  Fe5  1  0.33189000  0.66532800  0.50000000  1
  O  O6  1  0.68563800  0.68563800  0.50000000  1
  F  F7  1  0.96487000  0.62853200  0.50000000  1
  F  F8  1  0.30525900  0.30525900  0.50000000  1
  F  F9  1  0.59250500  0.39613700  0.00000000  1
  F  F10  1  0.73253500  0.26441500  0.00000000  1
  F  F11  1  0.07203400  0.93529100  0.00000000  1
  F  F12  1  0.36903600  0.03227100  0.50000000  1
  F  F13  1  0.62853200  0.96487000  0.50000000  1
  F  F14  1  0.93529100  0.07203400  0.00000000  1
  F  F15  1  0.26441500  0.73253500  0.00000000  1
  F  F16  1  0.39613700  0.59250500  0.00000000  1
  F  F17  1  0.03227100  0.36903600  0.50000000  1
