# generated using pymatgen
data_FePH5CO8
_symmetry_space_group_name_H-M   'P 1'
_cell_length_a   10.73290500
_cell_length_b   8.75803800
_cell_length_c   9.40561427
_cell_angle_alpha   77.78090645
_cell_angle_beta   90.00000000
_cell_angle_gamma   90.00000000
_symmetry_Int_Tables_number   1
_chemical_formula_structural   FePH5CO8
_chemical_formula_sum   'Fe4 P4 H20 C4 O32'
_cell_volume   864.09074858
_cell_formula_units_Z   4
loop_
 _symmetry_equiv_pos_site_id
 _symmetry_equiv_pos_as_xyz
  1  'x, y, z'
loop_
 _atom_site_type_symbol
 _atom_site_label
 _atom_site_symmetry_multiplicity
 _atom_site_fract_x
 _atom_site_fract_y
 _atom_site_fract_z
 _atom_site_occupancy
  Fe  Fe0  1  0.11627600  0.62356500  0.14463700  1
  Fe  Fe1  1  0.61627600  0.37643500  0.35536300  1
  Fe  Fe2  1  0.38372400  0.62356500  0.64463700  1
  Fe  Fe3  1  0.88372400  0.37643500  0.85536300  1
  P  P4  1  0.15548600  0.56409100  0.80978700  1
  P  P5  1  0.84451400  0.43590900  0.19021300  1
  P  P6  1  0.34451400  0.56409100  0.30978700  1
  P  P7  1  0.65548600  0.43590900  0.69021300  1
  H  H8  1  0.76971300  0.99331400  0.46796500  1
  H  H9  1  0.90571500  0.30635900  0.41359800  1
  H  H10  1  0.26971300  0.00668600  0.03203500  1
  H  H11  1  0.81260800  0.69319400  0.57053700  1
  H  H12  1  0.93952500  0.17301300  0.11794100  1
  H  H13  1  0.68739200  0.69319400  0.07053700  1
  H  H14  1  0.45798800  0.80110300  0.91406700  1
  H  H15  1  0.09428500  0.69364100  0.58640200  1
  H  H16  1  0.43952500  0.82698700  0.38205900  1
  H  H17  1  0.04201200  0.80110300  0.41406700  1
  H  H18  1  0.40571500  0.69364100  0.08640200  1
  H  H19  1  0.54201200  0.19889700  0.08593300  1
  H  H20  1  0.06047500  0.82698700  0.88205900  1
  H  H21  1  0.18739200  0.30680600  0.42946300  1
  H  H22  1  0.73028700  0.99331400  0.96796500  1
  H  H23  1  0.59428500  0.30635900  0.91359800  1
  H  H24  1  0.31260800  0.30680600  0.92946300  1
  H  H25  1  0.56047500  0.17301300  0.61794100  1
  H  H26  1  0.23028700  0.00668600  0.53203500  1
  H  H27  1  0.95798800  0.19889700  0.58593300  1
  C  C28  1  0.98093100  0.02116500  0.91898700  1
  C  C29  1  0.01906900  0.97883500  0.08101300  1
  C  C30  1  0.51906900  0.02116500  0.41898700  1
  C  C31  1  0.48093100  0.97883500  0.58101300  1
  O  O32  1  0.25814000  0.09399300  0.94887500  1
  O  O33  1  0.91976900  0.14089600  0.87091800  1
  O  O34  1  0.62237100  0.33918000  0.57505800  1
  O  O35  1  0.66256500  0.79034400  0.00083300  1
  O  O36  1  0.93888900  0.56126100  0.19909100  1
  O  O37  1  0.56111100  0.56126100  0.69909100  1
  O  O38  1  0.20828700  0.50661800  0.32508600  1
  O  O39  1  0.16256500  0.20965600  0.49916700  1
  O  O40  1  0.83743500  0.79034400  0.50083300  1
  O  O41  1  0.33743500  0.20965600  0.99916700  1
  O  O42  1  0.70828700  0.49338200  0.17491400  1
  O  O43  1  0.01407700  0.92747900  0.83491000  1
  O  O44  1  0.87762900  0.33918000  0.07505800  1
  O  O45  1  0.83598800  0.31031700  0.34466000  1
  O  O46  1  0.66401200  0.31031700  0.84466000  1
  O  O47  1  0.33598800  0.68968300  0.15534000  1
  O  O48  1  0.16401200  0.68968300  0.65534000  1
  O  O49  1  0.48592300  0.92747900  0.33491000  1
  O  O50  1  0.74186000  0.90600700  0.05112500  1
  O  O51  1  0.08023100  0.85910400  0.12908200  1
  O  O52  1  0.51407700  0.07252100  0.66509000  1
  O  O53  1  0.79171300  0.49338200  0.67491400  1
  O  O54  1  0.37762900  0.66082000  0.42494200  1
  O  O55  1  0.58023100  0.14089600  0.37091800  1
  O  O56  1  0.29171300  0.50661800  0.82508600  1
  O  O57  1  0.41976900  0.85910400  0.62908200  1
  O  O58  1  0.75814000  0.90600700  0.55112500  1
  O  O59  1  0.12237100  0.66082000  0.92494200  1
  O  O60  1  0.43888900  0.43873900  0.30090900  1
  O  O61  1  0.98592300  0.07252100  0.16509000  1
  O  O62  1  0.06111100  0.43873900  0.80090900  1
  O  O63  1  0.24186000  0.09399300  0.44887500  1
