# generated using pymatgen
data_CaU4O17
_symmetry_space_group_name_H-M   'P 1'
_cell_length_a   8.28101300
_cell_length_b   8.81241612
_cell_length_c   11.85187238
_cell_angle_alpha   101.29580255
_cell_angle_beta   94.53811536
_cell_angle_gamma   107.86626863
_symmetry_Int_Tables_number   1
_chemical_formula_structural   CaU4O17
_chemical_formula_sum   'Ca2 U8 O34'
_cell_volume   798.21303020
_cell_formula_units_Z   2
loop_
 _symmetry_equiv_pos_site_id
 _symmetry_equiv_pos_as_xyz
  1  'x, y, z'
loop_
 _atom_site_type_symbol
 _atom_site_label
 _atom_site_symmetry_multiplicity
 _atom_site_fract_x
 _atom_site_fract_y
 _atom_site_fract_z
 _atom_site_occupancy
  Ca  Ca0  1  0.86144600  0.90508000  0.73682800  1
  Ca  Ca1  1  0.13855400  0.09492000  0.26317200  1
  U  U2  1  0.43901000  0.60951100  0.82982400  1
  U  U3  1  0.56099000  0.39048900  0.17017600  1
  U  U4  1  0.44915300  0.01819500  0.84147600  1
  U  U5  1  0.55084700  0.98180500  0.15852400  1
  U  U6  1  0.14171500  0.69418600  0.57233500  1
  U  U7  1  0.85828500  0.30581400  0.42766500  1
  U  U8  1  0.19170700  0.17237200  0.59257600  1
  U  U9  1  0.80829300  0.82762800  0.40742400  1
  O  O10  1  0.08441900  0.43077600  0.55756300  1
  O  O11  1  0.91558100  0.56922400  0.44243700  1
  O  O12  1  0.46722900  0.83689200  0.95407400  1
  O  O13  1  0.53277100  0.16310800  0.04592600  1
  O  O14  1  0.00628800  0.71121700  0.68987900  1
  O  O15  1  0.99371200  0.28878300  0.31012100  1
  O  O16  1  0.67412500  0.04656200  0.81355100  1
  O  O17  1  0.32587500  0.95343800  0.18644900  1
  O  O18  1  0.07248900  0.90009000  0.52709500  1
  O  O19  1  0.92751100  0.09991000  0.47290500  1
  O  O20  1  0.23421300  0.00220700  0.87379900  1
  O  O21  1  0.76578700  0.99779300  0.12620100  1
  O  O22  1  0.28449400  0.18539900  0.45431200  1
  O  O23  1  0.71550600  0.81460100  0.54568800  1
  O  O24  1  0.66947900  0.69909800  0.80995200  1
  O  O25  1  0.33052100  0.30090200  0.19004800  1
  O  O26  1  0.06220500  0.15087400  0.71396000  1
  O  O27  1  0.93779500  0.84912600  0.28604000  1
  O  O28  1  0.23895600  0.50814800  0.87980700  1
  O  O29  1  0.76104400  0.49185200  0.12019300  1
  O  O30  1  0.28929500  0.70123100  0.46588300  1
  O  O31  1  0.71070500  0.29876900  0.53411700  1
  O  O32  1  0.58321700  0.38043100  0.88642800  1
  O  O33  1  0.41678300  0.61956900  0.11357200  1
  O  O34  1  0.36243200  0.76192800  0.72853800  1
  O  O35  1  0.63756800  0.23807200  0.27146200  1
  O  O36  1  0.37788700  0.41620600  0.69184600  1
  O  O37  1  0.62211300  0.58379400  0.30815400  1
  O  O38  1  0.36945400  0.08160000  0.68708600  1
  O  O39  1  0.63054600  0.91840000  0.31291400  1
  O  O40  1  0.98361000  0.05006600  0.97508000  1
  O  O41  1  0.01639000  0.94993400  0.02492000  1
  O  O42  1  0.73222200  0.41222500  0.86432400  1
  O  O43  1  0.26777800  0.58777500  0.13567600  1
