# generated using pymatgen
data_Cd(FeO2)2
_symmetry_space_group_name_H-M   'P 1'
_cell_length_a   2.98816600
_cell_length_b   9.31064300
_cell_length_c   10.71636600
_cell_angle_alpha   90.00000000
_cell_angle_beta   90.00000000
_cell_angle_gamma   90.00000000
_symmetry_Int_Tables_number   1
_chemical_formula_structural   Cd(FeO2)2
_chemical_formula_sum   'Cd4 Fe8 O16'
_cell_volume   298.14802201
_cell_formula_units_Z   4
loop_
 _symmetry_equiv_pos_site_id
 _symmetry_equiv_pos_as_xyz
  1  'x, y, z'
loop_
 _atom_site_type_symbol
 _atom_site_label
 _atom_site_symmetry_multiplicity
 _atom_site_fract_x
 _atom_site_fract_y
 _atom_site_fract_z
 _atom_site_occupancy
  Cd  Cd0  1  0.00000000  0.49566100  0.15539200  1
  Cd  Cd1  1  0.00000000  0.99217100  0.34328600  1
  Cd  Cd2  1  0.50000000  0.50433900  0.65539200  1
  Cd  Cd3  1  0.50000000  0.00782900  0.84328600  1
  Fe  Fe4  1  0.50000000  0.16624800  0.10250600  1
  Fe  Fe5  1  0.00000000  0.81809500  0.11218800  1
  Fe  Fe6  1  0.00000000  0.31213800  0.38382300  1
  Fe  Fe7  1  0.50000000  0.66449800  0.39710600  1
  Fe  Fe8  1  0.00000000  0.83375200  0.60250600  1
  Fe  Fe9  1  0.50000000  0.18190500  0.61218800  1
  Fe  Fe10  1  0.50000000  0.68786200  0.88382300  1
  Fe  Fe11  1  0.00000000  0.33550200  0.89710600  1
  O  O12  1  0.50000000  0.35765800  0.03301800  1
  O  O13  1  0.50000000  0.66498500  0.06990200  1
  O  O14  1  0.50000000  0.96815600  0.15747200  1
  O  O15  1  0.00000000  0.21767400  0.21065600  1
  O  O16  1  0.00000000  0.73714500  0.28523500  1
  O  O17  1  0.50000000  0.45904000  0.33591100  1
  O  O18  1  0.50000000  0.16086600  0.42785800  1
  O  O19  1  0.50000000  0.86522700  0.48596500  1
  O  O20  1  0.00000000  0.64234200  0.53301800  1
  O  O21  1  0.00000000  0.33501500  0.56990200  1
  O  O22  1  0.00000000  0.03184400  0.65747200  1
  O  O23  1  0.50000000  0.78232600  0.71065600  1
  O  O24  1  0.50000000  0.26285500  0.78523500  1
  O  O25  1  0.00000000  0.54096000  0.83591100  1
  O  O26  1  0.00000000  0.83913400  0.92785800  1
  O  O27  1  0.00000000  0.13477300  0.98596500  1
