# generated using pymatgen
data_ScFeO3
_symmetry_space_group_name_H-M   'P 1'
_cell_length_a   5.02317448
_cell_length_b   5.39746641
_cell_length_c   7.42736828
_cell_angle_alpha   90.10703547
_cell_angle_beta   89.65309211
_cell_angle_gamma   90.02223936
_symmetry_Int_Tables_number   1
_chemical_formula_structural   ScFeO3
_chemical_formula_sum   'Sc4 Fe4 O12'
_cell_volume   201.36983822
_cell_formula_units_Z   4
loop_
 _symmetry_equiv_pos_site_id
 _symmetry_equiv_pos_as_xyz
  1  'x, y, z'
loop_
 _atom_site_type_symbol
 _atom_site_label
 _atom_site_symmetry_multiplicity
 _atom_site_fract_x
 _atom_site_fract_y
 _atom_site_fract_z
 _atom_site_occupancy
  Sc  Sc0  1  0.02922500  0.92282500  0.74965700  1
  Sc  Sc1  1  0.47068500  0.42223400  0.74916200  1
  Sc  Sc2  1  0.52931300  0.57776500  0.25083700  1
  Sc  Sc3  1  0.97077600  0.07717500  0.25034500  1
  Fe  Fe4  1  0.00000300  0.50000100  0.99999900  1
  Fe  Fe5  1  0.00000100  0.50000000  0.50000000  1
  Fe  Fe6  1  0.49999800  0.00000100  0.99999900  1
  Fe  Fe7  1  0.50000000  0.00000100  0.50000100  1
  O  O8  1  0.14050700  0.44374100  0.24106700  1
  O  O9  1  0.19333300  0.18776500  0.56835600  1
  O  O10  1  0.18042000  0.19860100  0.92961300  1
  O  O11  1  0.31926800  0.69851200  0.56943000  1
  O  O12  1  0.30609900  0.68796100  0.93085600  1
  O  O13  1  0.36049000  0.94410600  0.25850400  1
  O  O14  1  0.63951100  0.05589500  0.74149600  1
  O  O15  1  0.69389900  0.31203800  0.06914400  1
  O  O16  1  0.68073400  0.30148800  0.43056900  1
  O  O17  1  0.81957900  0.80140100  0.07038700  1
  O  O18  1  0.80666900  0.81223400  0.43164400  1
  O  O19  1  0.85949200  0.55625800  0.75893300  1
