# generated using pymatgen
data_Ca2Si3O11
_symmetry_space_group_name_H-M   'P 1'
_cell_length_a   11.85282603
_cell_length_b   11.85282603
_cell_length_c   6.78848702
_cell_angle_alpha   83.84552150
_cell_angle_beta   83.84552150
_cell_angle_gamma   147.08942135
_symmetry_Int_Tables_number   1
_chemical_formula_structural   Ca2Si3O11
_chemical_formula_sum   'Ca4 Si6 O22'
_cell_volume   479.63275300
_cell_formula_units_Z   2
loop_
 _symmetry_equiv_pos_site_id
 _symmetry_equiv_pos_as_xyz
  1  'x, y, z'
loop_
 _atom_site_type_symbol
 _atom_site_label
 _atom_site_symmetry_multiplicity
 _atom_site_fract_x
 _atom_site_fract_y
 _atom_site_fract_z
 _atom_site_occupancy
  Ca  Ca0  1  0.04679700  0.62960500  0.43715700  1
  Ca  Ca1  1  0.62960500  0.04679700  0.43715700  1
  Ca  Ca2  1  0.13235500  0.53391000  0.92656700  1
  Ca  Ca3  1  0.53391000  0.13235500  0.92656700  1
  Si  Si4  1  0.53353300  0.22168800  0.39077700  1
  Si  Si5  1  0.22168800  0.53353300  0.39077700  1
  Si  Si6  1  0.23228900  0.09291200  0.75220300  1
  Si  Si7  1  0.09291200  0.23228900  0.75220300  1
  Si  Si8  1  0.95559500  0.63975200  0.97497400  1
  Si  Si9  1  0.63975200  0.95559500  0.97497400  1
  O  O10  1  0.36059100  0.17043700  0.50861800  1
  O  O11  1  0.17043700  0.36059100  0.50861800  1
  O  O12  1  0.72618400  0.45707900  0.18505700  1
  O  O13  1  0.45707900  0.72618400  0.18505700  1
  O  O14  1  0.65189000  0.25442600  0.54342600  1
  O  O15  1  0.25442600  0.65189000  0.54342600  1
  O  O16  1  0.41350900  0.02507600  0.30834700  1
  O  O17  1  0.02507600  0.41350900  0.30834700  1
  O  O18  1  0.13171000  0.13171000  0.73431800  1
  O  O19  1  0.39926500  0.22240100  0.88578400  1
  O  O20  1  0.22240100  0.39926500  0.88578400  1
  O  O21  1  0.91744100  0.72005900  0.42497000  1
  O  O22  1  0.72005900  0.91744100  0.42497000  1
  O  O23  1  0.01957600  0.82407600  0.86330400  1
  O  O24  1  0.82407600  0.01957600  0.86330400  1
  O  O25  1  0.91042600  0.51841600  0.81752100  1
  O  O26  1  0.51841600  0.91042600  0.81752100  1
  O  O27  1  0.14947300  0.74808900  0.05273300  1
  O  O28  1  0.74808900  0.14947300  0.05273300  1
  O  O29  1  0.32320900  0.32320900  0.20898300  1
  O  O30  1  0.50727800  0.50727800  0.19857000  1
  O  O31  1  0.50574600  0.50574600  0.78845900  1
