# generated using pymatgen
data_B10Pb3O20
_symmetry_space_group_name_H-M   'P 1'
_cell_length_a   9.82610461
_cell_length_b   9.82610461
_cell_length_c   8.59931442
_cell_angle_alpha   89.43964135
_cell_angle_beta   89.43964135
_cell_angle_gamma   120.42292744
_symmetry_Int_Tables_number   1
_chemical_formula_structural   B10Pb3O20
_chemical_formula_sum   'B20 Pb6 O40'
_cell_volume   715.82424933
_cell_formula_units_Z   2
loop_
 _symmetry_equiv_pos_site_id
 _symmetry_equiv_pos_as_xyz
  1  'x, y, z'
loop_
 _atom_site_type_symbol
 _atom_site_label
 _atom_site_symmetry_multiplicity
 _atom_site_fract_x
 _atom_site_fract_y
 _atom_site_fract_z
 _atom_site_occupancy
  B  B0  1  0.50008100  0.30950500  0.33071700  1
  B  B1  1  0.69242900  0.19384700  0.34340400  1
  B  B2  1  0.80845400  0.49827000  0.32335100  1
  B  B3  1  0.30950500  0.50008100  0.83071700  1
  B  B4  1  0.19384700  0.69242900  0.84340400  1
  B  B5  1  0.49827000  0.80845400  0.82335100  1
  B  B6  1  0.63152500  0.60104200  0.28443700  1
  B  B7  1  0.39722100  0.02785000  0.30293200  1
  B  B8  1  0.96957100  0.37017500  0.29514100  1
  B  B9  1  0.60104200  0.63152500  0.78443700  1
  B  B10  1  0.02785000  0.39722100  0.80293200  1
  B  B11  1  0.37017500  0.96957100  0.79514100  1
  B  B12  1  0.39776600  0.13878100  0.56563800  1
  B  B13  1  0.86333600  0.27475700  0.56985000  1
  B  B14  1  0.73768100  0.60195700  0.55274400  1
  B  B15  1  0.13878100  0.39776600  0.06563800  1
  B  B16  1  0.27475700  0.86333600  0.06985000  1
  B  B17  1  0.60195700  0.73768100  0.05274400  1
  B  B18  1  0.98529500  0.00212300  0.48362100  1
  B  B19  1  0.00212300  0.98529500  0.98362100  1
  Pb  Pb20  1  0.13180000  0.73670500  0.48602100  1
  Pb  Pb21  1  0.25262700  0.39817700  0.47886700  1
  Pb  Pb22  1  0.60070200  0.85146000  0.47095100  1
  Pb  Pb23  1  0.73670500  0.13180000  0.98602100  1
  Pb  Pb24  1  0.39817700  0.25262700  0.97886700  1
  Pb  Pb25  1  0.85146000  0.60070200  0.97095100  1
  O  O26  1  0.45499600  0.28690700  0.49923600  1
  O  O27  1  0.71460700  0.18820300  0.51124700  1
  O  O28  1  0.82444000  0.54091500  0.49128700  1
  O  O29  1  0.28690700  0.45499600  0.99923600  1
  O  O30  1  0.18820300  0.71460700  0.01124700  1
  O  O31  1  0.54091500  0.82444000  0.99128700  1
  O  O32  1  0.39965200  0.16945900  0.24156700  1
  O  O33  1  0.82942200  0.22470600  0.25135700  1
  O  O34  1  0.77509600  0.60334700  0.23107400  1
  O  O35  1  0.16945900  0.39965200  0.74156700  1
  O  O36  1  0.22470600  0.82942200  0.75135700  1
  O  O37  1  0.60334700  0.77509600  0.73107400  1
  O  O38  1  0.64781300  0.63898300  0.45500100  1
  O  O39  1  0.35518300  0.01018500  0.47148800  1
  O  O40  1  0.99302100  0.36521400  0.46911500  1
  O  O41  1  0.63898300  0.64781300  0.95500100  1
  O  O42  1  0.01018500  0.35518300  0.97148800  1
  O  O43  1  0.36521400  0.99302100  0.96911500  1
  O  O44  1  0.38986700  0.11620400  0.72506100  1
  O  O45  1  0.88536000  0.28145700  0.72762500  1
  O  O46  1  0.72475700  0.61233100  0.71122900  1
  O  O47  1  0.11620400  0.38986700  0.22506100  1
  O  O48  1  0.28145700  0.88536000  0.22762500  1
  O  O49  1  0.61233100  0.72475700  0.21122900  1
  O  O50  1  0.49164600  0.44232100  0.26737900  1
  O  O51  1  0.55798400  0.04541500  0.29128500  1
  O  O52  1  0.94853500  0.50585300  0.26179900  1
  O  O53  1  0.44232100  0.49164600  0.76737900  1
  O  O54  1  0.04541500  0.55798400  0.79128500  1
  O  O55  1  0.50585300  0.94853500  0.76179900  1
  O  O56  1  0.66505300  0.33316900  0.31370900  1
  O  O57  1  0.33316900  0.66505300  0.81370900  1
  O  O58  1  0.66469600  0.34935200  0.96315500  1
  O  O59  1  0.34935200  0.66469600  0.46315500  1
  O  O60  1  0.13469900  0.13745700  0.49074800  1
  O  O61  1  0.85388700  0.01942100  0.47874300  1
  O  O62  1  0.98232000  0.86313400  0.48922000  1
  O  O63  1  0.13745700  0.13469900  0.99074800  1
  O  O64  1  0.01942100  0.85388700  0.97874300  1
  O  O65  1  0.86313400  0.98232000  0.98922000  1
