# generated using pymatgen
data_P5WO15
_symmetry_space_group_name_H-M   'P 1'
_cell_length_a   14.04825900
_cell_length_b   5.33291400
_cell_length_c   8.76608286
_cell_angle_alpha   77.34193880
_cell_angle_beta   90.00000000
_cell_angle_gamma   90.00000000
_symmetry_Int_Tables_number   1
_chemical_formula_structural   P5WO15
_chemical_formula_sum   'P10 W2 O30'
_cell_volume   640.77687060
_cell_formula_units_Z   2
loop_
 _symmetry_equiv_pos_site_id
 _symmetry_equiv_pos_as_xyz
  1  'x, y, z'
loop_
 _atom_site_type_symbol
 _atom_site_label
 _atom_site_symmetry_multiplicity
 _atom_site_fract_x
 _atom_site_fract_y
 _atom_site_fract_z
 _atom_site_occupancy
  P  P0  1  0.75000000  0.54330900  0.46842200  1
  P  P1  1  0.41526500  0.63998000  0.33292100  1
  P  P2  1  0.08473500  0.63998000  0.33292100  1
  P  P3  1  0.85762400  0.01339200  0.97705700  1
  P  P4  1  0.35762400  0.98660800  0.02294300  1
  P  P5  1  0.64237600  0.01339200  0.97705700  1
  P  P6  1  0.14237600  0.98660800  0.02294300  1
  P  P7  1  0.91526500  0.36002000  0.66707900  1
  P  P8  1  0.58473500  0.36002000  0.66707900  1
  P  P9  1  0.25000000  0.45669100  0.53157800  1
  W  W10  1  0.50000000  0.50000000  0.00000000  1
  W  W11  1  0.00000000  0.50000000  0.00000000  1
  O  O12  1  0.75000000  0.28153700  0.44042300  1
  O  O13  1  0.33646400  0.44061600  0.39411200  1
  O  O14  1  0.03025400  0.50802400  0.21022800  1
  O  O15  1  0.46974600  0.50802400  0.21022800  1
  O  O16  1  0.16353600  0.44061600  0.39411200  1
  O  O17  1  0.88404700  0.72987700  0.01427600  1
  O  O18  1  0.61595300  0.72987700  0.01427600  1
  O  O19  1  0.41746700  0.82177900  0.93912400  1
  O  O20  1  0.08253300  0.82177900  0.93912400  1
  O  O21  1  0.35687200  0.87151600  0.20437000  1
  O  O22  1  0.75000000  0.79267100  0.35652900  1
  O  O23  1  0.47774300  0.76265700  0.42697200  1
  O  O24  1  0.02225700  0.76265700  0.42697200  1
  O  O25  1  0.14312800  0.87151600  0.20437000  1
  O  O26  1  0.25000000  0.96441700  0.97021800  1
  O  O27  1  0.75000000  0.03558300  0.02978200  1
  O  O28  1  0.85687200  0.12848400  0.79563000  1
  O  O29  1  0.97774300  0.23734300  0.57302800  1
  O  O30  1  0.52225700  0.23734300  0.57302800  1
  O  O31  1  0.25000000  0.20732900  0.64347100  1
  O  O32  1  0.64312800  0.12848400  0.79563000  1
  O  O33  1  0.91746700  0.17822100  0.06087600  1
  O  O34  1  0.58253300  0.17822100  0.06087600  1
  O  O35  1  0.38404700  0.27012300  0.98572400  1
  O  O36  1  0.11595300  0.27012300  0.98572400  1
  O  O37  1  0.83646400  0.55938400  0.60588800  1
  O  O38  1  0.53025400  0.49197600  0.78977200  1
  O  O39  1  0.96974600  0.49197600  0.78977200  1
  O  O40  1  0.66353600  0.55938400  0.60588800  1
  O  O41  1  0.25000000  0.71846300  0.55957700  1
