# generated using pymatgen
data_Na3VBPO7
_symmetry_space_group_name_H-M   'P 1'
_cell_length_a   8.48956183
_cell_length_b   8.49118019
_cell_length_c   8.99493187
_cell_angle_alpha   89.06130719
_cell_angle_beta   89.07076206
_cell_angle_gamma   102.32914249
_symmetry_Int_Tables_number   1
_chemical_formula_structural   Na3VBPO7
_chemical_formula_sum   'Na12 V4 B4 P4 O28'
_cell_volume   633.24393985
_cell_formula_units_Z   4
loop_
 _symmetry_equiv_pos_site_id
 _symmetry_equiv_pos_as_xyz
  1  'x, y, z'
loop_
 _atom_site_type_symbol
 _atom_site_label
 _atom_site_symmetry_multiplicity
 _atom_site_fract_x
 _atom_site_fract_y
 _atom_site_fract_z
 _atom_site_occupancy
  Na  Na0  1  0.50281600  0.25276700  0.07157200  1
  Na  Na1  1  0.00356600  0.75353300  0.07163100  1
  Na  Na2  1  0.49669400  0.74657500  0.92869300  1
  Na  Na3  1  0.99675000  0.24677500  0.92874300  1
  Na  Na4  1  0.12782500  0.12494600  0.25180900  1
  Na  Na5  1  0.62795800  0.62491100  0.25183800  1
  Na  Na6  1  0.37496700  0.87782300  0.25177600  1
  Na  Na7  1  0.87496000  0.37804000  0.25179300  1
  Na  Na8  1  0.62526600  0.12230700  0.74848500  1
  Na  Na9  1  0.12528100  0.62220500  0.74810600  1
  Na  Na10  1  0.87257400  0.87522200  0.74830600  1
  Na  Na11  1  0.37274200  0.37522200  0.74867100  1
  V  V12  1  0.26544400  0.51552400  0.33581300  1
  V  V13  1  0.73445400  0.48460600  0.66417200  1
  V  V14  1  0.76553200  0.01540300  0.33586700  1
  V  V15  1  0.23454200  0.98474400  0.66407900  1
  B  B16  1  0.74000700  0.98984100  0.06609100  1
  B  B17  1  0.23996700  0.48997500  0.06610400  1
  B  B18  1  0.25976000  0.00982500  0.93386200  1
  B  B19  1  0.75997400  0.51002700  0.93393400  1
  P  P20  1  0.48375600  0.23374700  0.42139100  1
  P  P21  1  0.98369400  0.73372800  0.42127600  1
  P  P22  1  0.51630700  0.76628700  0.57855000  1
  P  P23  1  0.01621200  0.26641700  0.57852600  1
  O  O24  1  0.27756000  0.02759200  0.08145700  1
  O  O25  1  0.77840500  0.52845600  0.08138900  1
  O  O26  1  0.72211000  0.97174100  0.91854000  1
  O  O27  1  0.22207500  0.47208800  0.91853400  1
  O  O28  1  0.85744400  0.10747700  0.13392000  1
  O  O29  1  0.35743300  0.60754900  0.13403800  1
  O  O30  1  0.14193700  0.89253500  0.86596000  1
  O  O31  1  0.64199100  0.39247900  0.86660400  1
  O  O32  1  0.64070300  0.89066200  0.17467800  1
  O  O33  1  0.14076700  0.39064700  0.17462700  1
  O  O34  1  0.35931600  0.10878700  0.82534900  1
  O  O35  1  0.85924400  0.60874600  0.82493000  1
  O  O36  1  0.34051300  0.09080800  0.46061400  1
  O  O37  1  0.84043400  0.59079600  0.46046600  1
  O  O38  1  0.65966000  0.90922500  0.53949500  1
  O  O39  1  0.15912700  0.40978600  0.53951200  1
  O  O40  1  0.43962300  0.68974000  0.43456900  1
  O  O41  1  0.93968100  0.18971000  0.43452900  1
  O  O42  1  0.56065500  0.31050200  0.56522600  1
  O  O43  1  0.06057900  0.81040300  0.56513200  1
  O  O44  1  0.42395800  0.36116700  0.32295000  1
  O  O45  1  0.92413700  0.86133000  0.32281700  1
  O  O46  1  0.61095600  0.17376100  0.32285500  1
  O  O47  1  0.11100800  0.67383800  0.32273600  1
  O  O48  1  0.38898200  0.82621200  0.67697300  1
  O  O49  1  0.88851800  0.32570900  0.67704000  1
  O  O50  1  0.57581200  0.63864200  0.67702100  1
  O  O51  1  0.07632500  0.13916500  0.67695200  1
