# generated using pymatgen
data_SrLu2O4
_symmetry_space_group_name_H-M   'P 1'
_cell_length_a   5.71840901
_cell_length_b   5.71840901
_cell_length_c   11.02485600
_cell_angle_alpha   90.00000000
_cell_angle_beta   90.00000000
_cell_angle_gamma   146.32662524
_symmetry_Int_Tables_number   1
_chemical_formula_structural   SrLu2O4
_chemical_formula_sum   'Sr2 Lu4 O8'
_cell_volume   199.89034685
_cell_formula_units_Z   2
loop_
 _symmetry_equiv_pos_site_id
 _symmetry_equiv_pos_as_xyz
  1  'x, y, z'
loop_
 _atom_site_type_symbol
 _atom_site_label
 _atom_site_symmetry_multiplicity
 _atom_site_fract_x
 _atom_site_fract_y
 _atom_site_fract_z
 _atom_site_occupancy
  Sr  Sr0  1  0.38929800  0.61070200  0.25000000  1
  Sr  Sr1  1  0.61070200  0.38929800  0.75000000  1
  Lu  Lu2  1  0.86603400  0.13396600  0.92825600  1
  Lu  Lu3  1  0.86603400  0.13396600  0.57174400  1
  Lu  Lu4  1  0.13396600  0.86603400  0.07174400  1
  Lu  Lu5  1  0.13396600  0.86603400  0.42825600  1
  O  O6  1  0.50000000  0.50000000  0.00000000  1
  O  O7  1  0.50000000  0.50000000  0.50000000  1
  O  O8  1  0.94613900  0.05386100  0.75000000  1
  O  O9  1  0.76384600  0.23615400  0.10684400  1
  O  O10  1  0.76384600  0.23615400  0.39315600  1
  O  O11  1  0.23615400  0.76384600  0.60684400  1
  O  O12  1  0.23615400  0.76384600  0.89315600  1
  O  O13  1  0.05386100  0.94613900  0.25000000  1
