# generated using pymatgen
data_NiSn3(PO4)4
_symmetry_space_group_name_H-M   'P 1'
_cell_length_a   6.18707500
_cell_length_b   5.07893200
_cell_length_c   10.33607127
_cell_angle_alpha   89.72359970
_cell_angle_beta   90.00000000
_cell_angle_gamma   90.00000000
_symmetry_Int_Tables_number   1
_chemical_formula_structural   NiSn3(PO4)4
_chemical_formula_sum   'Ni1 Sn3 P4 O16'
_cell_volume   324.79416663
_cell_formula_units_Z   1
loop_
 _symmetry_equiv_pos_site_id
 _symmetry_equiv_pos_as_xyz
  1  'x, y, z'
loop_
 _atom_site_type_symbol
 _atom_site_label
 _atom_site_symmetry_multiplicity
 _atom_site_fract_x
 _atom_site_fract_y
 _atom_site_fract_z
 _atom_site_occupancy
  Ni  Ni0  1  0.50000000  0.94386700  0.27216500  1
  Sn  Sn1  1  0.50000000  0.54267700  0.78392600  1
  Sn  Sn2  1  0.00000000  0.45501400  0.21777800  1
  Sn  Sn3  1  0.00000000  0.04309200  0.71821600  1
  P  P4  1  0.00000000  0.89159100  0.38679900  1
  P  P5  1  0.00000000  0.56615900  0.91796500  1
  P  P6  1  0.50000000  0.42062200  0.09968000  1
  P  P7  1  0.50000000  0.12368400  0.59441200  1
  O  O8  1  0.00000000  0.81734600  0.52764700  1
  O  O9  1  0.19511900  0.75666600  0.31223700  1
  O  O10  1  0.80488100  0.75666600  0.31223700  1
  O  O11  1  0.50000000  0.83720500  0.64780700  1
  O  O12  1  0.50000000  0.71682400  0.11340600  1
  O  O13  1  0.19898200  0.69122300  0.84240800  1
  O  O14  1  0.80101800  0.69122300  0.84240800  1
  O  O15  1  0.00000000  0.68358500  0.05663600  1
  O  O16  1  0.50000000  0.33426100  0.95463300  1
  O  O17  1  0.69704200  0.27812400  0.16982800  1
  O  O18  1  0.30295800  0.27812400  0.16982800  1
  O  O19  1  0.00000000  0.27030700  0.91989800  1
  O  O20  1  0.00000000  0.19582500  0.36854900  1
  O  O21  1  0.68951900  0.28902100  0.66109200  1
  O  O22  1  0.31048100  0.28902100  0.66109200  1
  O  O23  1  0.50000000  0.12787500  0.44935700  1
