# generated using pymatgen
data_YbPrO2
_symmetry_space_group_name_H-M   'P 1'
_cell_length_a   6.04704645
_cell_length_b   6.04704645
_cell_length_c   6.04704645
_cell_angle_alpha   131.82373246
_cell_angle_beta   131.82373246
_cell_angle_gamma   70.50756517
_symmetry_Int_Tables_number   1
_chemical_formula_structural   YbPrO2
_chemical_formula_sum   'Yb2 Pr2 O4'
_cell_volume   120.31573113
_cell_formula_units_Z   2
loop_
 _symmetry_equiv_pos_site_id
 _symmetry_equiv_pos_as_xyz
  1  'x, y, z'
loop_
 _atom_site_type_symbol
 _atom_site_label
 _atom_site_symmetry_multiplicity
 _atom_site_fract_x
 _atom_site_fract_y
 _atom_site_fract_z
 _atom_site_occupancy
  Yb  Yb0  1  0.50000000  0.50000000  0.00000000  1
  Yb  Yb1  1  0.25000000  0.75000000  0.50000000  1
  Pr  Pr2  1  0.75000000  0.25000000  0.50000000  1
  Pr  Pr3  1  0.00000000  0.00000000  0.00000000  1
  O  O4  1  0.49017200  0.99017200  0.50000000  1
  O  O5  1  0.25982800  0.25982800  0.00000000  1
  O  O6  1  0.74017200  0.74017200  0.00000000  1
  O  O7  1  0.00982800  0.50982800  0.50000000  1
