# generated using pymatgen
data_Ca4MgAs4O27
_symmetry_space_group_name_H-M   'P 1'
_cell_length_a   12.53732387
_cell_length_b   13.40966983
_cell_length_c   6.69273905
_cell_angle_alpha   103.42124728
_cell_angle_beta   95.03202935
_cell_angle_gamma   90.17765951
_symmetry_Int_Tables_number   1
_chemical_formula_structural   Ca4MgAs4O27
_chemical_formula_sum   'Ca8 Mg2 As8 O54'
_cell_volume   1089.92547488
_cell_formula_units_Z   2
loop_
 _symmetry_equiv_pos_site_id
 _symmetry_equiv_pos_as_xyz
  1  'x, y, z'
loop_
 _atom_site_type_symbol
 _atom_site_label
 _atom_site_symmetry_multiplicity
 _atom_site_fract_x
 _atom_site_fract_y
 _atom_site_fract_z
 _atom_site_occupancy
  Ca  Ca0  1  0.35962000  0.65341800  0.90788800  1
  Ca  Ca1  1  0.64038000  0.34658200  0.09211200  1
  Ca  Ca2  1  0.51882000  0.61854500  0.43148200  1
  Ca  Ca3  1  0.48118000  0.38145500  0.56851800  1
  Ca  Ca4  1  0.41375100  0.91017900  0.26433800  1
  Ca  Ca5  1  0.58624900  0.08982100  0.73566200  1
  Ca  Ca6  1  0.28233700  0.98245900  0.74969700  1
  Ca  Ca7  1  0.71766300  0.01754100  0.25030300  1
  Mg  Mg8  1  0.06196300  0.85532600  0.76042200  1
  Mg  Mg9  1  0.93803700  0.14467400  0.23957800  1
  As  As10  1  0.52152300  0.86575800  0.79698800  1
  As  As11  1  0.47847700  0.13424200  0.20301200  1
  As  As12  1  0.61194600  0.60459700  0.94055600  1
  As  As13  1  0.38805400  0.39540300  0.05944400  1
  As  As14  1  0.24892000  0.70853700  0.42702000  1
  As  As15  1  0.75108000  0.29146300  0.57298000  1
  As  As16  1  0.14515400  0.99054700  0.23061700  1
  As  As17  1  0.85484600  0.00945300  0.76938300  1
  O  O18  1  0.58641200  0.76371900  0.65330900  1
  O  O19  1  0.41358800  0.23628100  0.34669100  1
  O  O20  1  0.60888500  0.95275600  0.95318600  1
  O  O21  1  0.39111500  0.04724400  0.04681400  1
  O  O22  1  0.42285500  0.82219600  0.92088200  1
  O  O23  1  0.57714500  0.17780400  0.07911800  1
  O  O24  1  0.45814400  0.93148500  0.62608800  1
  O  O25  1  0.54185600  0.06851500  0.37391200  1
  O  O26  1  0.69747900  0.68975300  0.87058700  1
  O  O27  1  0.30252100  0.31024700  0.12941300  1
  O  O28  1  0.67979800  0.50793500  0.02144000  1
  O  O29  1  0.32020200  0.49206500  0.97856000  1
  O  O30  1  0.51874500  0.55450200  0.73427000  1
  O  O31  1  0.48125500  0.44549800  0.26573000  1
  O  O32  1  0.52746900  0.66440800  0.12260700  1
  O  O33  1  0.47253100  0.33559200  0.87739300  1
  O  O34  1  0.31514000  0.75013300  0.24666100  1
  O  O35  1  0.68486000  0.24986700  0.75333900  1
  O  O36  1  0.33823800  0.63974100  0.54795100  1
  O  O37  1  0.66176200  0.36025900  0.45204900  1
  O  O38  1  0.13910700  0.62765800  0.29523300  1
  O  O39  1  0.86089300  0.37234200  0.70476700  1
  O  O40  1  0.19443400  0.80338900  0.60456000  1
  O  O41  1  0.80556600  0.19661100  0.39544000  1
  O  O42  1  0.04936400  0.90646400  0.28767800  1
  O  O43  1  0.95063600  0.09353600  0.71232200  1
  O  O44  1  0.17481900  0.93241800  0.98359200  1
  O  O45  1  0.82518100  0.06758200  0.01640800  1
  O  O46  1  0.09406900  0.10953000  0.24270300  1
  O  O47  1  0.90593100  0.89047000  0.75729700  1
  O  O48  1  0.25971200  0.99112100  0.39275000  1
  O  O49  1  0.74028800  0.00887900  0.60725000  1
  O  O50  1  0.14215800  0.62872900  0.83220200  1
  O  O51  1  0.85784200  0.37127100  0.16779800  1
  O  O52  1  0.70140000  0.55196100  0.37185400  1
  O  O53  1  0.29860000  0.44803900  0.62814600  1
  O  O54  1  0.59170100  0.82919300  0.26914400  1
  O  O55  1  0.40829900  0.17080700  0.73085600  1
  O  O56  1  0.17618900  0.12163200  0.67349800  1
  O  O57  1  0.82381100  0.87836800  0.32650200  1
  O  O58  1  0.98330000  0.79227500  0.96822500  1
  O  O59  1  0.01670000  0.20772500  0.03177500  1
  O  O60  1  0.94803800  0.69323600  0.51671700  1
  O  O61  1  0.05196200  0.30676400  0.48328300  1
  O  O62  1  0.08208000  0.99515000  0.66221600  1
  O  O63  1  0.91792000  0.00485000  0.33778400  1
  O  O64  1  0.14135100  0.30105000  0.56913000  1
  O  O65  1  0.85864900  0.69895000  0.43087000  1
  O  O66  1  0.10540900  0.44297500  0.15478700  1
  O  O67  1  0.89459100  0.55702500  0.84521300  1
  O  O68  1  0.16243600  0.49835200  0.29386600  1
  O  O69  1  0.83756400  0.50164800  0.70613400  1
  O  O70  1  0.09419600  0.54589700  0.76276000  1
  O  O71  1  0.90580400  0.45410300  0.23724000  1
