# generated using pymatgen
data_KV5Zn(H8O11)2
_symmetry_space_group_name_H-M   'P 1'
_cell_length_a   8.82360000
_cell_length_b   10.94255232
_cell_length_c   11.30392024
_cell_angle_alpha   64.47380926
_cell_angle_beta   75.21569825
_cell_angle_gamma   71.16611962
_symmetry_Int_Tables_number   1
_chemical_formula_structural   KV5Zn(H8O11)2
_chemical_formula_sum   'K2 V10 Zn2 H32 O44'
_cell_volume   923.50814449
_cell_formula_units_Z   2
loop_
 _symmetry_equiv_pos_site_id
 _symmetry_equiv_pos_as_xyz
  1  'x, y, z'
loop_
 _atom_site_type_symbol
 _atom_site_label
 _atom_site_symmetry_multiplicity
 _atom_site_fract_x
 _atom_site_fract_y
 _atom_site_fract_z
 _atom_site_occupancy
  K  K0  1  0.68361000  0.58334900  0.22553700  1
  K  K1  1  0.31639000  0.41665100  0.77446300  1
  V  V2  1  0.32497200  0.99668100  0.47803000  1
  V  V3  1  0.67502800  0.00331900  0.52197000  1
  V  V4  1  0.38450600  0.28233400  0.44610700  1
  V  V5  1  0.61549400  0.71766600  0.55389300  1
  V  V6  1  0.64807500  0.94849300  0.27428900  1
  V  V7  1  0.35192500  0.05150700  0.72571100  1
  V  V8  1  0.69723300  0.23592800  0.24268800  1
  V  V9  1  0.30276700  0.76407200  0.75731200  1
  V  V10  1  0.36272200  0.22808800  0.19678400  1
  V  V11  1  0.63727800  0.77191200  0.80321600  1
  Zn  Zn12  1  0.22838600  0.76953800  0.20812200  1
  Zn  Zn13  1  0.77161400  0.23046200  0.79187800  1
  H  H14  1  0.64499900  0.48589800  0.81233700  1
  H  H15  1  0.35500100  0.51410200  0.18766300  1
  H  H16  1  0.01464000  0.01523400  0.74800600  1
  H  H17  1  0.98536000  0.98476600  0.25199400  1
  H  H18  1  0.59829600  0.37348200  0.95529600  1
  H  H19  1  0.40170400  0.62651800  0.04470400  1
  H  H20  1  0.60114000  0.25566600  0.61056400  1
  H  H21  1  0.39886000  0.74433400  0.38943600  1
  H  H22  1  0.56515300  0.09684700  0.99904000  1
  H  H23  1  0.43484700  0.90315300  0.00096000  1
  H  H24  1  0.95269800  0.68562700  0.30720700  1
  H  H25  1  0.04730200  0.31437300  0.69279300  1
  H  H26  1  0.58657000  0.04634000  0.87976200  1
  H  H27  1  0.41343000  0.95366000  0.12023800  1
  H  H28  1  0.86098400  0.99738700  0.71288700  1
  H  H29  1  0.13901600  0.00261300  0.28711300  1
  H  H30  1  0.87906100  0.11271400  0.02991100  1
  H  H31  1  0.12093900  0.88728600  0.97008900  1
  H  H32  1  0.95809600  0.23771300  0.92723100  1
  H  H33  1  0.04190400  0.76228700  0.07276900  1
  H  H34  1  0.03614200  0.34985900  0.37510900  1
  H  H35  1  0.96385800  0.65014100  0.62489100  1
  H  H36  1  0.90778200  0.26413800  0.41714600  1
  H  H37  1  0.09221800  0.73586200  0.58285400  1
  H  H38  1  0.98016600  0.38992600  0.98674600  1
  H  H39  1  0.01983400  0.61007400  0.01325400  1
  H  H40  1  0.04994300  0.64691900  0.42289900  1
  H  H41  1  0.95005700  0.35308100  0.57710100  1
  H  H42  1  0.68326900  0.38469900  0.55229000  1
  H  H43  1  0.31673100  0.61530100  0.44771000  1
  H  H44  1  0.92044600  0.49601000  0.85365600  1
  H  H45  1  0.07955400  0.50399000  0.14634400  1
  O  O46  1  0.54386400  0.30243900  0.12884600  1
  O  O47  1  0.45613600  0.69756100  0.87115400  1
  O  O48  1  0.51538500  0.09618300  0.38037500  1
  O  O49  1  0.48461500  0.90381700  0.61962500  1
  O  O50  1  0.47635800  0.85616600  0.41072800  1
  O  O51  1  0.52364200  0.14383400  0.58927200  1
  O  O52  1  0.23429500  0.09560400  0.33347100  1
  O  O53  1  0.76570500  0.90439600  0.66652900  1
  O  O54  1  0.74011000  0.86431800  0.44786500  1
  O  O55  1  0.25989000  0.13568200  0.55213500  1
  O  O56  1  0.56448300  0.34036000  0.34250900  1
  O  O57  1  0.43551700  0.65964000  0.65749100  1
  O  O58  1  0.29369700  0.39868800  0.51243100  1
  O  O59  1  0.70630300  0.60131200  0.48756900  1
  O  O60  1  0.27751700  0.33754100  0.30134300  1
  O  O61  1  0.72248300  0.66245900  0.69865700  1
  O  O62  1  0.49366400  0.06229700  0.16202400  1
  O  O63  1  0.50633600  0.93770300  0.83797600  1
  O  O64  1  0.74370400  0.82303800  0.21973400  1
  O  O65  1  0.25629600  0.17696200  0.78026600  1
  O  O66  1  0.78226500  0.06951100  0.20355800  1
  O  O67  1  0.21773500  0.93048900  0.79644200  1
  O  O68  1  0.74753200  0.68877900  0.92347100  1
  O  O69  1  0.25246800  0.31122100  0.07652900  1
  O  O70  1  0.79564000  0.11326800  0.41235800  1
  O  O71  1  0.20436000  0.88673200  0.58764200  1
  O  O72  1  0.83318000  0.32521600  0.15657300  1
  O  O73  1  0.16682000  0.67478400  0.84342700  1
  O  O74  1  0.62886700  0.32452600  0.63293500  1
  O  O75  1  0.37113300  0.67547400  0.36706500  1
  O  O76  1  0.06143700  0.64608900  0.33384900  1
  O  O77  1  0.93856300  0.35391100  0.66615100  1
  O  O78  1  0.59471600  0.12234100  0.90159100  1
  O  O79  1  0.40528400  0.87765900  0.09840900  1
  O  O80  1  0.61603600  0.39518300  0.85867100  1
  O  O81  1  0.38396400  0.60481700  0.14132900  1
  O  O82  1  0.90251000  0.06181100  0.72942200  1
  O  O83  1  0.09749000  0.93818900  0.27057800  1
  O  O84  1  0.92292700  0.15639400  0.93594700  1
  O  O85  1  0.07707300  0.84360600  0.06405300  1
  O  O86  1  0.92261400  0.35096300  0.41334200  1
  O  O87  1  0.07738600  0.64903700  0.58665800  1
  O  O88  1  0.99851500  0.40749200  0.89228600  1
  O  O89  1  0.00148500  0.59250800  0.10771400  1
