# generated using pymatgen
data_Mg2Be3P3H13O19
_symmetry_space_group_name_H-M   'P 1'
_cell_length_a   10.31603133
_cell_length_b   10.25114945
_cell_length_c   8.44577900
_cell_angle_alpha   90.00000000
_cell_angle_beta   90.00000000
_cell_angle_gamma   121.91230335
_symmetry_Int_Tables_number   1
_chemical_formula_structural   Mg2Be3P3H13O19
_chemical_formula_sum   'Mg4 Be6 P6 H26 O38'
_cell_volume   758.15861823
_cell_formula_units_Z   2
loop_
 _symmetry_equiv_pos_site_id
 _symmetry_equiv_pos_as_xyz
  1  'x, y, z'
loop_
 _atom_site_type_symbol
 _atom_site_label
 _atom_site_symmetry_multiplicity
 _atom_site_fract_x
 _atom_site_fract_y
 _atom_site_fract_z
 _atom_site_occupancy
  Mg  Mg0  1  0.66925900  0.32820200  0.58333600  1
  Mg  Mg1  1  0.33074100  0.67179800  0.08333600  1
  Mg  Mg2  1  0.67016300  0.33596500  0.94038000  1
  Mg  Mg3  1  0.32983700  0.66403500  0.44038000  1
  Be  Be4  1  0.19090800  0.09551600  0.10323300  1
  Be  Be5  1  0.89574100  0.80461200  0.10628100  1
  Be  Be6  1  0.91016100  0.09854900  0.11314500  1
  Be  Be7  1  0.80909200  0.90448400  0.60323300  1
  Be  Be8  1  0.10425900  0.19538800  0.60628100  1
  Be  Be9  1  0.08983900  0.90145100  0.61314500  1
  P  P10  1  0.32582400  0.15817200  0.78350300  1
  P  P11  1  0.83052200  0.68253200  0.78398700  1
  P  P12  1  0.86069100  0.18172300  0.78844900  1
  P  P13  1  0.67417600  0.84182800  0.28350300  1
  P  P14  1  0.16947800  0.31746800  0.28398700  1
  P  P15  1  0.13930900  0.81827700  0.28844900  1
  H  H16  1  0.00007300  0.00021400  0.90801500  1
  H  H17  1  0.99992700  0.99978600  0.40801500  1
  H  H18  1  0.34892300  0.05564200  0.27793700  1
  H  H19  1  0.71705300  0.63625200  0.31114200  1
  H  H20  1  0.99863500  0.99868600  0.30775700  1
  H  H21  1  0.65107700  0.94435800  0.77793700  1
  H  H22  1  0.28294700  0.36374800  0.81114200  1
  H  H23  1  0.00136500  0.00131400  0.80775700  1
  H  H24  1  0.59338300  0.13864300  0.18923000  1
  H  H25  1  0.46538300  0.38719600  0.10607700  1
  H  H26  1  0.90130600  0.55006000  0.11531100  1
  H  H27  1  0.40661700  0.86135700  0.68923000  1
  H  H28  1  0.53461700  0.61280400  0.60607700  1
  H  H29  1  0.09869400  0.44994000  0.61531100  1
  H  H30  1  0.25732800  0.40753800  0.00651700  1
  H  H31  1  0.14128200  0.58587700  0.83681200  1
  H  H32  1  0.57760500  0.89996600  0.01583000  1
  H  H33  1  0.74267200  0.59246200  0.50651700  1
  H  H34  1  0.85871800  0.41412300  0.33681200  1
  H  H35  1  0.42239500  0.10003400  0.51583000  1
  H  H36  1  0.61100600  0.54148500  0.03823300  1
  H  H37  1  0.96122100  0.45762700  0.03272700  1
  H  H38  1  0.51262000  0.03613500  0.03515600  1
  H  H39  1  0.38899400  0.45851500  0.53823300  1
  H  H40  1  0.03877900  0.54237300  0.53272700  1
  H  H41  1  0.48738000  0.96386500  0.53515600  1
  O  O42  1  0.25187700  0.26055400  0.74159800  1
  O  O43  1  0.00407200  0.77684300  0.75087300  1
  O  O44  1  0.75809400  0.99771200  0.73872200  1
  O  O45  1  0.74812300  0.73944600  0.24159800  1
  O  O46  1  0.99592800  0.22315700  0.25087300  1
  O  O47  1  0.24190600  0.00228800  0.23872200  1
  O  O48  1  0.27496100  0.09535300  0.94878200  1
  O  O49  1  0.80023300  0.71429500  0.95398100  1
  O  O50  1  0.91390200  0.18762600  0.95640700  1
  O  O51  1  0.72503900  0.90464700  0.44878200  1
  O  O52  1  0.19976700  0.28570500  0.45398100  1
  O  O53  1  0.08609800  0.81237400  0.45640700  1
  O  O54  1  0.26212900  0.03253900  0.65631700  1
  O  O55  1  0.74797100  0.73294600  0.66433000  1
  O  O56  1  0.99230800  0.24964900  0.66907700  1
  O  O57  1  0.73787100  0.96746100  0.15631700  1
  O  O58  1  0.25202900  0.26705400  0.16433000  1
  O  O59  1  0.00769200  0.75035100  0.16907700  1
  O  O60  1  0.49860000  0.25736700  0.76726100  1
  O  O61  1  0.76319400  0.50991400  0.76268500  1
  O  O62  1  0.75791300  0.24579200  0.76988900  1
  O  O63  1  0.50140000  0.74263300  0.26726100  1
  O  O64  1  0.23680600  0.49008600  0.26268500  1
  O  O65  1  0.24208700  0.75420800  0.26988900  1
  O  O66  1  0.85945800  0.43986100  0.44963100  1
  O  O67  1  0.51924500  0.13172200  0.46032900  1
  O  O68  1  0.68945100  0.51592700  0.42170800  1
  O  O69  1  0.14054200  0.56013900  0.94963100  1
  O  O70  1  0.48075500  0.86827800  0.96032900  1
  O  O71  1  0.31054900  0.48407300  0.92170800  1
  O  O72  1  0.86601000  0.44348300  0.08205500  1
  O  O73  1  0.55686600  0.14232300  0.08351300  1
  O  O74  1  0.56986000  0.43351700  0.06598200  1
  O  O75  1  0.13399000  0.55651600  0.58205500  1
  O  O76  1  0.44313400  0.85767700  0.58351300  1
  O  O77  1  0.43014000  0.56648300  0.56598200  1
  O  O78  1  0.00001800  0.99574400  0.09180700  1
  O  O79  1  0.99998200  0.00425600  0.59180700  1
