# generated using pymatgen
data_CaMnAl4SiP3(HO4)5
_symmetry_space_group_name_H-M   'P 1'
_cell_length_a   11.94861743
_cell_length_b   11.94861743
_cell_length_c   7.03689704
_cell_angle_alpha   77.09869572
_cell_angle_beta   77.09869572
_cell_angle_gamma   64.06217976
_symmetry_Int_Tables_number   1
_chemical_formula_structural   CaMnAl4SiP3(HO4)5
_chemical_formula_sum   'Ca2 Mn2 Al8 Si2 P6 H10 O40'
_cell_volume   871.55856884
_cell_formula_units_Z   2
loop_
 _symmetry_equiv_pos_site_id
 _symmetry_equiv_pos_as_xyz
  1  'x, y, z'
loop_
 _atom_site_type_symbol
 _atom_site_label
 _atom_site_symmetry_multiplicity
 _atom_site_fract_x
 _atom_site_fract_y
 _atom_site_fract_z
 _atom_site_occupancy
  Ca  Ca0  1  0.73035300  0.26964700  0.00000000  1
  Ca  Ca1  1  0.26964700  0.73035300  0.00000000  1
  Mn  Mn2  1  0.24048800  0.24048800  0.17071200  1
  Mn  Mn3  1  0.75951200  0.75951200  0.82928800  1
  Al  Al4  1  0.79389100  0.58534500  0.47648600  1
  Al  Al5  1  0.58534500  0.79389100  0.47648600  1
  Al  Al6  1  0.20610900  0.41465500  0.52351400  1
  Al  Al7  1  0.41465500  0.20610900  0.52351400  1
  Al  Al8  1  0.98312300  0.19220500  0.24114200  1
  Al  Al9  1  0.19220500  0.98312300  0.24114200  1
  Al  Al10  1  0.01687700  0.80779500  0.75885800  1
  Al  Al11  1  0.80779500  0.01687700  0.75885800  1
  Si  Si12  1  0.04644100  0.04644100  0.68836800  1
  Si  Si13  1  0.95355900  0.95355900  0.31163200  1
  P  P14  1  0.53469300  0.53469300  0.60694600  1
  P  P15  1  0.46530700  0.46530700  0.39305400  1
  P  P16  1  0.93617300  0.45167600  0.79318200  1
  P  P17  1  0.45167600  0.93617300  0.79318200  1
  P  P18  1  0.06382700  0.54832400  0.20681800  1
  P  P19  1  0.54832400  0.06382700  0.20681800  1
  H  H20  1  0.81058300  0.81058300  0.09900300  1
  H  H21  1  0.18941700  0.18941700  0.90099700  1
  H  H22  1  0.89120400  0.89120400  0.24067800  1
  H  H23  1  0.10879600  0.10879600  0.75932200  1
  H  H24  1  0.06434000  0.27178800  0.26252600  1
  H  H25  1  0.27178800  0.06434000  0.26252600  1
  H  H26  1  0.93566000  0.72821200  0.73747400  1
  H  H27  1  0.72821200  0.93566000  0.73747400  1
  H  H28  1  0.10472100  0.10472100  0.08332200  1
  H  H29  1  0.89527900  0.89527900  0.91667800  1
  O  O30  1  0.37880300  0.37880300  0.53360800  1
  O  O31  1  0.62119700  0.62119700  0.46639200  1
  O  O32  1  0.58197400  0.58197400  0.98860600  1
  O  O33  1  0.41802600  0.41802600  0.01139400  1
  O  O34  1  0.11202000  0.89307900  0.76096400  1
  O  O35  1  0.89307900  0.11202000  0.76096400  1
  O  O36  1  0.88798000  0.10692100  0.23903600  1
  O  O37  1  0.10692100  0.88798000  0.23903600  1
  O  O38  1  0.07034700  0.42785600  0.69347200  1
  O  O39  1  0.42785600  0.07034700  0.69347200  1
  O  O40  1  0.92965300  0.57214400  0.30652800  1
  O  O41  1  0.57214400  0.92965300  0.30652800  1
  O  O42  1  0.86825200  0.56373600  0.89869400  1
  O  O43  1  0.56373600  0.86825200  0.89869400  1
  O  O44  1  0.13174800  0.43626400  0.10130600  1
  O  O45  1  0.43626400  0.13174800  0.10130600  1
  O  O46  1  0.85774800  0.44938400  0.64548900  1
  O  O47  1  0.44938400  0.85774800  0.64548900  1
  O  O48  1  0.14225200  0.55061600  0.35451100  1
  O  O49  1  0.55061600  0.14225200  0.35451100  1
  O  O50  1  0.07021600  0.07021600  0.44342100  1
  O  O51  1  0.92978400  0.92978400  0.55657900  1
  O  O52  1  0.62818600  0.42002000  0.71466000  1
  O  O53  1  0.42002000  0.62818600  0.71466000  1
  O  O54  1  0.37181400  0.57998000  0.28534000  1
  O  O55  1  0.57998000  0.37181400  0.28534000  1
  O  O56  1  0.95400200  0.32123200  0.94332400  1
  O  O57  1  0.32123200  0.95400200  0.94332400  1
  O  O58  1  0.04599800  0.67876800  0.05667600  1
  O  O59  1  0.67876800  0.04599800  0.05667600  1
  O  O60  1  0.26905700  0.26905700  0.42842400  1
  O  O61  1  0.73094300  0.73094300  0.57157600  1
  O  O62  1  0.76328600  0.76328600  0.09035800  1
  O  O63  1  0.23671400  0.23671400  0.90964200  1
  O  O64  1  0.66032000  0.14295400  0.87470700  1
  O  O65  1  0.14295400  0.66032000  0.87470700  1
  O  O66  1  0.33968000  0.85704600  0.12529300  1
  O  O67  1  0.85704600  0.33968000  0.12529300  1
  O  O68  1  0.37094700  0.37094700  0.93057000  1
  O  O69  1  0.62905300  0.62905300  0.06943000  1
