# generated using pymatgen
data_Y15TmO24
_symmetry_space_group_name_H-M   'P 1'
_cell_length_a   9.26196157
_cell_length_b   9.26196157
_cell_length_c   10.69036439
_cell_angle_alpha   54.72515955
_cell_angle_beta   54.72515955
_cell_angle_gamma   70.51988475
_symmetry_Int_Tables_number   1
_chemical_formula_structural   Y15TmO24
_chemical_formula_sum   'Y15 Tm1 O24'
_cell_volume   611.21661301
_cell_formula_units_Z   1
loop_
 _symmetry_equiv_pos_site_id
 _symmetry_equiv_pos_as_xyz
  1  'x, y, z'
loop_
 _atom_site_type_symbol
 _atom_site_label
 _atom_site_symmetry_multiplicity
 _atom_site_fract_x
 _atom_site_fract_y
 _atom_site_fract_z
 _atom_site_occupancy
  Y  Y0  1  0.00035000  0.99961000  0.74958000  1
  Y  Y1  1  0.78314300  0.21685700  0.00000000  1
  Y  Y2  1  0.24992400  0.25082300  0.78262700  1
  Y  Y3  1  0.74917700  0.75007600  0.21737300  1
  Y  Y4  1  0.96731300  0.46729800  0.53298500  1
  Y  Y5  1  0.46633800  0.96658800  0.03403500  1
  Y  Y6  1  0.00039000  0.99965000  0.25042000  1
  Y  Y7  1  0.71697100  0.28302900  0.50000000  1
  Y  Y8  1  0.49941100  0.50025800  0.25055100  1
  Y  Y9  1  0.28304900  0.71695100  0.00000000  1
  Y  Y10  1  0.49974200  0.50058900  0.74944900  1
  Y  Y11  1  0.53270200  0.03268700  0.46701500  1
  Y  Y12  1  0.03341200  0.53366200  0.96596500  1
  Y  Y13  1  0.75076100  0.75002000  0.71667400  1
  Y  Y14  1  0.24998000  0.24923900  0.28332600  1
  Tm  Tm15  1  0.21631600  0.78368400  0.50000000  1
  O  O16  1  0.51050100  0.22942400  0.78210700  1
  O  O17  1  0.72911100  0.01064100  0.97802400  1
  O  O18  1  0.95981400  0.76168600  0.75796500  1
  O  O19  1  0.76132900  0.95709600  0.26089600  1
  O  O20  1  0.73907800  0.54287200  0.47910900  1
  O  O21  1  0.54310900  0.73887500  0.97928300  1
  O  O22  1  0.77057600  0.48949900  0.21789300  1
  O  O23  1  0.98935900  0.27088900  0.02197600  1
  O  O24  1  0.22805600  0.96817300  0.01104600  1
  O  O25  1  0.72796700  0.46816900  0.79267200  1
  O  O26  1  0.46468200  0.72849300  0.29581200  1
  O  O27  1  0.96805700  0.22814700  0.51115500  1
  O  O28  1  0.53183100  0.27203300  0.20732800  1
  O  O29  1  0.77185300  0.03194300  0.48884500  1
  O  O30  1  0.27150700  0.53531800  0.70418800  1
  O  O31  1  0.03182700  0.77194400  0.98895400  1
  O  O32  1  0.22919800  0.51076100  0.28189900  1
  O  O33  1  0.01365100  0.72919500  0.47852500  1
  O  O34  1  0.45712800  0.26092200  0.52089100  1
  O  O35  1  0.26112500  0.45689100  0.02071700  1
  O  O36  1  0.04290400  0.23867100  0.73910400  1
  O  O37  1  0.23831400  0.04018600  0.24203500  1
  O  O38  1  0.48923900  0.77080200  0.71810100  1
  O  O39  1  0.27080500  0.98634900  0.52147500  1
