# generated using pymatgen
data_Ca3W2O9
_symmetry_space_group_name_H-M   'P 1'
_cell_length_a   7.79125200
_cell_length_b   8.57187900
_cell_length_c   9.31314069
_cell_angle_alpha   62.28534723
_cell_angle_beta   90.00000000
_cell_angle_gamma   90.00000000
_symmetry_Int_Tables_number   1
_chemical_formula_structural   Ca3W2O9
_chemical_formula_sum   'Ca6 W4 O18'
_cell_volume   550.62700709
_cell_formula_units_Z   2
loop_
 _symmetry_equiv_pos_site_id
 _symmetry_equiv_pos_as_xyz
  1  'x, y, z'
loop_
 _atom_site_type_symbol
 _atom_site_label
 _atom_site_symmetry_multiplicity
 _atom_site_fract_x
 _atom_site_fract_y
 _atom_site_fract_z
 _atom_site_occupancy
  Ca  Ca0  1  0.75000000  0.89228100  0.75025700  1
  Ca  Ca1  1  0.00000000  0.00000000  0.00000000  1
  Ca  Ca2  1  0.50000000  0.00000000  0.00000000  1
  Ca  Ca3  1  0.75000000  0.62849800  0.21546200  1
  Ca  Ca4  1  0.25000000  0.37150200  0.78453800  1
  Ca  Ca5  1  0.25000000  0.10771900  0.24974300  1
  W  W6  1  0.25000000  0.83744600  0.72689800  1
  W  W7  1  0.75000000  0.44390100  0.70753400  1
  W  W8  1  0.25000000  0.55609900  0.29246600  1
  W  W9  1  0.75000000  0.16255400  0.27310200  1
  O  O10  1  0.75000000  0.88243400  0.99153200  1
  O  O11  1  0.44203100  0.92616400  0.77594200  1
  O  O12  1  0.05796900  0.92616400  0.77594200  1
  O  O13  1  0.25000000  0.89151400  0.51494600  1
  O  O14  1  0.75000000  0.63304200  0.74321400  1
  O  O15  1  0.25000000  0.60084300  0.84223200  1
  O  O16  1  0.44200400  0.69027200  0.20401000  1
  O  O17  1  0.05799600  0.69027200  0.20401000  1
  O  O18  1  0.75000000  0.52390500  0.49133900  1
  O  O19  1  0.25000000  0.47609500  0.50866100  1
  O  O20  1  0.94200400  0.30972800  0.79599000  1
  O  O21  1  0.55799600  0.30972800  0.79599000  1
  O  O22  1  0.75000000  0.39915700  0.15776800  1
  O  O23  1  0.25000000  0.36695800  0.25678600  1
  O  O24  1  0.75000000  0.10848600  0.48505400  1
  O  O25  1  0.94203100  0.07383600  0.22405800  1
  O  O26  1  0.55796900  0.07383600  0.22405800  1
  O  O27  1  0.25000000  0.11756600  0.00846800  1
