# generated using pymatgen
data_TbNbO4
_symmetry_space_group_name_H-M   'P 1'
_cell_length_a   5.38651300
_cell_length_b   7.61189300
_cell_length_c   7.67322819
_cell_angle_alpha   81.56906286
_cell_angle_beta   90.00000000
_cell_angle_gamma   90.00000000
_symmetry_Int_Tables_number   1
_chemical_formula_structural   TbNbO4
_chemical_formula_sum   'Tb4 Nb4 O16'
_cell_volume   311.21439142
_cell_formula_units_Z   4
loop_
 _symmetry_equiv_pos_site_id
 _symmetry_equiv_pos_as_xyz
  1  'x, y, z'
loop_
 _atom_site_type_symbol
 _atom_site_label
 _atom_site_symmetry_multiplicity
 _atom_site_fract_x
 _atom_site_fract_y
 _atom_site_fract_z
 _atom_site_occupancy
  Tb  Tb0  1  0.27993800  0.64541800  0.60881500  1
  Tb  Tb1  1  0.22006200  0.64541800  0.10881500  1
  Tb  Tb2  1  0.77993800  0.35458200  0.89118500  1
  Tb  Tb3  1  0.72006200  0.35458200  0.39118500  1
  Nb  Nb4  1  0.76775200  0.83512700  0.81125800  1
  Nb  Nb5  1  0.73224800  0.83512700  0.31125800  1
  Nb  Nb6  1  0.26775200  0.16487300  0.68874200  1
  Nb  Nb7  1  0.23224800  0.16487300  0.18874200  1
  O  O8  1  0.10252500  0.93392900  0.68933800  1
  O  O9  1  0.39747500  0.93392900  0.18933800  1
  O  O10  1  0.62769200  0.82775900  0.56212800  1
  O  O11  1  0.87230800  0.82775900  0.06212800  1
  O  O12  1  0.49966500  0.67202000  0.88000500  1
  O  O13  1  0.99089900  0.60971800  0.82820800  1
  O  O14  1  0.00033500  0.67202000  0.38000500  1
  O  O15  1  0.50910100  0.60971800  0.32820800  1
  O  O16  1  0.49089900  0.39028200  0.67179200  1
  O  O17  1  0.99966500  0.32798000  0.61999500  1
  O  O18  1  0.00910100  0.39028200  0.17179200  1
  O  O19  1  0.50033500  0.32798000  0.11999500  1
  O  O20  1  0.12769200  0.17224100  0.93787200  1
  O  O21  1  0.37230800  0.17224100  0.43787200  1
  O  O22  1  0.60252500  0.06607100  0.81066200  1
  O  O23  1  0.89747500  0.06607100  0.31066200  1
