# generated using pymatgen
data_MnV4CoO12
_symmetry_space_group_name_H-M   'P 1'
_cell_length_a   6.83820267
_cell_length_b   6.83820267
_cell_length_c   5.88451863
_cell_angle_alpha   74.81025478
_cell_angle_beta   74.81025478
_cell_angle_gamma   84.12546647
_symmetry_Int_Tables_number   1
_chemical_formula_structural   MnV4CoO12
_chemical_formula_sum   'Mn1 V4 Co1 O12'
_cell_volume   256.10739392
_cell_formula_units_Z   1
loop_
 _symmetry_equiv_pos_site_id
 _symmetry_equiv_pos_as_xyz
  1  'x, y, z'
loop_
 _atom_site_type_symbol
 _atom_site_label
 _atom_site_symmetry_multiplicity
 _atom_site_fract_x
 _atom_site_fract_y
 _atom_site_fract_z
 _atom_site_occupancy
  Mn  Mn0  1  0.08522400  0.91477600  0.00000000  1
  V  V1  1  0.79414000  0.60939100  0.51678000  1
  V  V2  1  0.61213900  0.79376800  0.01312100  1
  V  V3  1  0.39060900  0.20586000  0.48322000  1
  V  V4  1  0.20623200  0.38786100  0.98687900  1
  Co  Co5  1  0.91160500  0.08839500  0.50000000  1
  O  O6  1  0.96323100  0.80177700  0.40226700  1
  O  O7  1  0.90913000  0.37766300  0.54239600  1
  O  O8  1  0.80062600  0.96467100  0.88866900  1
  O  O9  1  0.63998400  0.64333000  0.30496900  1
  O  O10  1  0.62233700  0.09087000  0.45760400  1
  O  O11  1  0.63906300  0.63535100  0.80606500  1
  O  O12  1  0.35667000  0.36001600  0.69503100  1
  O  O13  1  0.38308400  0.91227600  0.04265300  1
  O  O14  1  0.36464900  0.36093700  0.19393500  1
  O  O15  1  0.19822300  0.03676900  0.59773300  1
  O  O16  1  0.08772400  0.61691600  0.95734700  1
  O  O17  1  0.03532900  0.19937400  0.11133100  1
