# generated using pymatgen
data_Eu3NbO7
_symmetry_space_group_name_H-M   'P 1'
_cell_length_a   6.58278050
_cell_length_b   6.58278050
_cell_length_c   7.76771500
_cell_angle_alpha   90.00000000
_cell_angle_beta   90.00000000
_cell_angle_gamma   110.84133379
_symmetry_Int_Tables_number   1
_chemical_formula_structural   Eu3NbO7
_chemical_formula_sum   'Eu6 Nb2 O14'
_cell_volume   314.57450444
_cell_formula_units_Z   2
loop_
 _symmetry_equiv_pos_site_id
 _symmetry_equiv_pos_as_xyz
  1  'x, y, z'
loop_
 _atom_site_type_symbol
 _atom_site_label
 _atom_site_symmetry_multiplicity
 _atom_site_fract_x
 _atom_site_fract_y
 _atom_site_fract_z
 _atom_site_occupancy
  Eu  Eu0  1  0.51520800  0.04828400  0.25000000  1
  Eu  Eu1  1  0.95171600  0.48479200  0.75000000  1
  Eu  Eu2  1  0.00000000  0.00000000  0.00000000  1
  Eu  Eu3  1  0.00000000  0.00000000  0.50000000  1
  Eu  Eu4  1  0.48479200  0.95171600  0.75000000  1
  Eu  Eu5  1  0.04828400  0.51520800  0.25000000  1
  Nb  Nb6  1  0.50000000  0.50000000  0.00000000  1
  Nb  Nb7  1  0.50000000  0.50000000  0.50000000  1
  O  O8  1  0.88566900  0.15023100  0.25000000  1
  O  O9  1  0.84976900  0.11433100  0.75000000  1
  O  O10  1  0.43231100  0.17770500  0.52769000  1
  O  O11  1  0.82229500  0.56768900  0.02769000  1
  O  O12  1  0.82229500  0.56768900  0.47231000  1
  O  O13  1  0.43231100  0.17770500  0.97231000  1
  O  O14  1  0.55681600  0.55681600  0.75000000  1
  O  O15  1  0.44318400  0.44318400  0.25000000  1
  O  O16  1  0.17770500  0.43231100  0.52769000  1
  O  O17  1  0.17770500  0.43231100  0.97231000  1
  O  O18  1  0.56768900  0.82229500  0.02769000  1
  O  O19  1  0.56768900  0.82229500  0.47231000  1
  O  O20  1  0.15023100  0.88566900  0.25000000  1
  O  O21  1  0.11433100  0.84976900  0.75000000  1
