# generated using pymatgen
data_Tm2GeO5
_symmetry_space_group_name_H-M   'P 1'
_cell_length_a   6.32934378
_cell_length_b   6.32934378
_cell_length_c   7.37275581
_cell_angle_alpha   68.00946773
_cell_angle_beta   68.00946773
_cell_angle_gamma   48.17792891
_symmetry_Int_Tables_number   1
_chemical_formula_structural   Tm2GeO5
_chemical_formula_sum   'Tm4 Ge2 O10'
_cell_volume   200.73795285
_cell_formula_units_Z   2
loop_
 _symmetry_equiv_pos_site_id
 _symmetry_equiv_pos_as_xyz
  1  'x, y, z'
loop_
 _atom_site_type_symbol
 _atom_site_label
 _atom_site_symmetry_multiplicity
 _atom_site_fract_x
 _atom_site_fract_y
 _atom_site_fract_z
 _atom_site_occupancy
  Tm  Tm0  1  0.36976500  0.34405500  0.26625800  1
  Tm  Tm1  1  0.34405500  0.36976500  0.76625800  1
  Tm  Tm2  1  0.65594500  0.63023500  0.23374200  1
  Tm  Tm3  1  0.63023500  0.65594500  0.73374200  1
  Ge  Ge4  1  0.00000000  0.00000000  0.00000000  1
  Ge  Ge5  1  0.00000000  0.00000000  0.50000000  1
  O  O6  1  0.23474800  0.61249600  0.46564400  1
  O  O7  1  0.61249600  0.23474800  0.96564400  1
  O  O8  1  0.98494000  0.68103300  0.13382900  1
  O  O9  1  0.31896700  0.01506000  0.36617100  1
  O  O10  1  0.68103300  0.98494000  0.63382900  1
  O  O11  1  0.01506000  0.31896700  0.86617100  1
  O  O12  1  0.38750400  0.76525200  0.03435600  1
  O  O13  1  0.83465100  0.16534900  0.25000000  1
  O  O14  1  0.76525200  0.38750400  0.53435600  1
  O  O15  1  0.16534900  0.83465100  0.75000000  1
