# generated using pymatgen
data_Co3B7IO13
_symmetry_space_group_name_H-M   'P 1'
_cell_length_a   8.43575300
_cell_length_b   9.38006500
_cell_length_c   12.94477400
_cell_angle_alpha   90.00000000
_cell_angle_beta   90.00000000
_cell_angle_gamma   90.00000000
_symmetry_Int_Tables_number   1
_chemical_formula_structural   Co3B7IO13
_chemical_formula_sum   'Co12 B28 I4 O52'
_cell_volume   1024.29293099
_cell_formula_units_Z   4
loop_
 _symmetry_equiv_pos_site_id
 _symmetry_equiv_pos_as_xyz
  1  'x, y, z'
loop_
 _atom_site_type_symbol
 _atom_site_label
 _atom_site_symmetry_multiplicity
 _atom_site_fract_x
 _atom_site_fract_y
 _atom_site_fract_z
 _atom_site_occupancy
  Co  Co0  1  0.14590100  0.74883400  0.25708500  1
  Co  Co1  1  0.14590100  0.75116600  0.75708500  1
  Co  Co2  1  0.85409900  0.25116600  0.75708500  1
  Co  Co3  1  0.20938200  0.31119900  0.77921900  1
  Co  Co4  1  0.79061800  0.68880100  0.27921900  1
  Co  Co5  1  0.49924700  0.96234700  0.48390600  1
  Co  Co6  1  0.85409900  0.24883400  0.25708500  1
  Co  Co7  1  0.20938200  0.18880100  0.27921900  1
  Co  Co8  1  0.50075300  0.46234700  0.48390600  1
  Co  Co9  1  0.50075300  0.03765300  0.98390600  1
  Co  Co10  1  0.79061800  0.81119900  0.77921900  1
  Co  Co11  1  0.49924700  0.53765300  0.98390600  1
  B  B12  1  0.17793400  0.51948200  0.44092900  1
  B  B13  1  0.22116800  0.75758700  0.53381800  1
  B  B14  1  0.97019300  0.51521500  0.77313600  1
  B  B15  1  0.97342800  0.87241700  0.58617200  1
  B  B16  1  0.02657200  0.37241700  0.58617200  1
  B  B17  1  0.02980700  0.48478500  0.27313600  1
  B  B18  1  0.46140300  0.78868600  0.12653100  1
  B  B19  1  0.72972900  0.72781900  0.01322500  1
  B  B20  1  0.14948900  0.49657900  0.94214000  1
  B  B21  1  0.17793400  0.98051800  0.94092900  1
  B  B22  1  0.72972900  0.77218100  0.51322500  1
  B  B23  1  0.77883200  0.25758700  0.53381800  1
  B  B24  1  0.77883200  0.24241300  0.03381800  1
  B  B25  1  0.85051100  0.50342100  0.44214000  1
  B  B26  1  0.82206600  0.48051800  0.94092900  1
  B  B27  1  0.27027100  0.27218100  0.51322500  1
  B  B28  1  0.97342800  0.62758300  0.08617200  1
  B  B29  1  0.14948900  0.00342100  0.44214000  1
  B  B30  1  0.97019300  0.98478500  0.27313600  1
  B  B31  1  0.46140300  0.71131400  0.62653100  1
  B  B32  1  0.22116800  0.74241300  0.03381800  1
  B  B33  1  0.53859700  0.28868600  0.12653100  1
  B  B34  1  0.82206600  0.01948200  0.44092900  1
  B  B35  1  0.53859700  0.21131400  0.62653100  1
  B  B36  1  0.02657200  0.12758300  0.08617200  1
  B  B37  1  0.02980700  0.01521500  0.77313600  1
  B  B38  1  0.85051100  0.99657900  0.94214000  1
  B  B39  1  0.27027100  0.22781900  0.01322500  1
  I  I40  1  0.55391800  0.95501000  0.22664100  1
  I  I41  1  0.44608200  0.04499000  0.72664100  1
  I  I42  1  0.44608200  0.45501000  0.22664100  1
  I  I43  1  0.55391800  0.54499000  0.72664100  1
  O  O44  1  0.86021200  0.43187100  0.83873200  1
  O  O45  1  0.94011200  0.83525900  0.26718400  1
  O  O46  1  0.22471100  0.35360300  0.95245400  1
  O  O47  1  0.55298800  0.74030400  0.04842400  1
  O  O48  1  0.28202800  0.62430100  0.48948300  1
  O  O49  1  0.93794100  0.24994200  0.05555200  1
  O  O50  1  0.44701200  0.24030400  0.04842400  1
  O  O51  1  0.68635800  0.24311000  0.14467100  1
  O  O52  1  0.03787400  0.93469700  0.67837200  1
  O  O53  1  0.13756200  0.99026600  0.32463900  1
  O  O54  1  0.71466700  0.60968000  0.93700000  1
  O  O55  1  0.26821500  0.60403000  0.98165700  1
  O  O56  1  0.06205900  0.75005800  0.55555200  1
  O  O57  1  0.80930400  0.82632400  0.60377200  1
  O  O58  1  0.96212600  0.06530300  0.17837200  1
  O  O59  1  0.05988800  0.33525900  0.26718400  1
  O  O60  1  0.93794100  0.25005800  0.55555200  1
  O  O61  1  0.03787400  0.56530300  0.17837200  1
  O  O62  1  0.01665200  0.47848000  0.49135800  1
  O  O63  1  0.73178500  0.10403000  0.98165700  1
  O  O64  1  0.26821500  0.89597000  0.48165700  1
  O  O65  1  0.77528900  0.85360300  0.95245400  1
  O  O66  1  0.13978800  0.56812900  0.33873200  1
  O  O67  1  0.31364200  0.74311000  0.14467100  1
  O  O68  1  0.28533300  0.39032000  0.43700000  1
  O  O69  1  0.13978800  0.93187100  0.83873200  1
  O  O70  1  0.71797200  0.37569900  0.98948300  1
  O  O71  1  0.31364200  0.75689000  0.64467100  1
  O  O72  1  0.13756200  0.50973400  0.82463900  1
  O  O73  1  0.01665200  0.02152000  0.99135800  1
  O  O74  1  0.98334800  0.97848000  0.49135800  1
  O  O75  1  0.96212600  0.43469700  0.67837200  1
  O  O76  1  0.06205900  0.74994200  0.05555200  1
  O  O77  1  0.71797200  0.12430100  0.48948300  1
  O  O78  1  0.22471100  0.14639700  0.45245400  1
  O  O79  1  0.71466700  0.89032000  0.43700000  1
  O  O80  1  0.73178500  0.39597000  0.48165700  1
  O  O81  1  0.77528900  0.64639700  0.45245400  1
  O  O82  1  0.44701200  0.25969600  0.54842400  1
  O  O83  1  0.86243800  0.00973400  0.82463900  1
  O  O84  1  0.28202800  0.87569900  0.98948300  1
  O  O85  1  0.28533300  0.10968000  0.93700000  1
  O  O86  1  0.94011200  0.66474100  0.76718400  1
  O  O87  1  0.98334800  0.52152000  0.99135800  1
  O  O88  1  0.55298800  0.75969600  0.54842400  1
  O  O89  1  0.05988800  0.16474100  0.76718400  1
  O  O90  1  0.86021200  0.06812900  0.33873200  1
  O  O91  1  0.86243800  0.49026600  0.32463900  1
  O  O92  1  0.19069600  0.32632400  0.60377200  1
  O  O93  1  0.68635800  0.25689000  0.64467100  1
  O  O94  1  0.80930400  0.67367600  0.10377200  1
  O  O95  1  0.19069600  0.17367600  0.10377200  1
