# generated using pymatgen
data_Rb3ErO3
_symmetry_space_group_name_H-M   'P 1'
_cell_length_a   7.30107485
_cell_length_b   7.30107485
_cell_length_c   7.23968554
_cell_angle_alpha   85.14542654
_cell_angle_beta   85.14542654
_cell_angle_gamma   116.10541032
_symmetry_Int_Tables_number   1
_chemical_formula_structural   Rb3ErO3
_chemical_formula_sum   'Rb6 Er2 O6'
_cell_volume   342.08676816
_cell_formula_units_Z   2
loop_
 _symmetry_equiv_pos_site_id
 _symmetry_equiv_pos_as_xyz
  1  'x, y, z'
loop_
 _atom_site_type_symbol
 _atom_site_label
 _atom_site_symmetry_multiplicity
 _atom_site_fract_x
 _atom_site_fract_y
 _atom_site_fract_z
 _atom_site_occupancy
  Rb  Rb0  1  0.79577300  0.20422700  0.50000000  1
  Rb  Rb1  1  0.73911300  0.26088700  0.00000000  1
  Rb  Rb2  1  0.63602200  0.63602200  0.64353500  1
  Rb  Rb3  1  0.36397800  0.36397800  0.35646500  1
  Rb  Rb4  1  0.26088700  0.73911300  0.00000000  1
  Rb  Rb5  1  0.20422700  0.79577300  0.50000000  1
  Er  Er6  1  0.82371700  0.82371700  0.14882000  1
  Er  Er7  1  0.17628300  0.17628300  0.85118000  1
  O  O8  1  0.83400000  0.55732200  0.26744200  1
  O  O9  1  0.89830200  0.89830200  0.84442200  1
  O  O10  1  0.44267800  0.16600000  0.73255800  1
  O  O11  1  0.55732200  0.83400000  0.26744200  1
  O  O12  1  0.10169800  0.10169800  0.15557800  1
  O  O13  1  0.16600000  0.44267800  0.73255800  1
