# generated using pymatgen
data_BaZnO5
_symmetry_space_group_name_H-M   'P 1'
_cell_length_a   7.92217300
_cell_length_b   11.48262000
_cell_length_c   18.55564100
_cell_angle_alpha   90.00000000
_cell_angle_beta   90.00000000
_cell_angle_gamma   90.00000000
_symmetry_Int_Tables_number   1
_chemical_formula_structural   BaZnO5
_chemical_formula_sum   'Ba12 Zn12 O60'
_cell_volume   1687.95660112
_cell_formula_units_Z   12
loop_
 _symmetry_equiv_pos_site_id
 _symmetry_equiv_pos_as_xyz
  1  'x, y, z'
loop_
 _atom_site_type_symbol
 _atom_site_label
 _atom_site_symmetry_multiplicity
 _atom_site_fract_x
 _atom_site_fract_y
 _atom_site_fract_z
 _atom_site_occupancy
  Ba  Ba0  1  0.65013600  0.01113800  0.45380500  1
  Ba  Ba1  1  0.15013600  0.98886200  0.54619500  1
  Ba  Ba2  1  0.15013600  0.48886200  0.95380500  1
  Ba  Ba3  1  0.65013600  0.51113800  0.04619500  1
  Ba  Ba4  1  0.55706100  0.99245000  0.21876500  1
  Ba  Ba5  1  0.05706100  0.00755000  0.78123500  1
  Ba  Ba6  1  0.05706100  0.50755000  0.71876500  1
  Ba  Ba7  1  0.55706100  0.49245000  0.28123500  1
  Ba  Ba8  1  0.56254200  0.99111900  0.87104300  1
  Ba  Ba9  1  0.06254200  0.00888100  0.12895700  1
  Ba  Ba10  1  0.06254200  0.50888100  0.37104300  1
  Ba  Ba11  1  0.56254200  0.49111900  0.62895700  1
  Zn  Zn12  1  0.81101400  0.72832800  0.22482000  1
  Zn  Zn13  1  0.31101400  0.27167200  0.77518000  1
  Zn  Zn14  1  0.31101400  0.77167200  0.72482000  1
  Zn  Zn15  1  0.81101400  0.22832800  0.27518000  1
  Zn  Zn16  1  0.90465400  0.73727900  0.89687700  1
  Zn  Zn17  1  0.40465400  0.26272100  0.10312300  1
  Zn  Zn18  1  0.40465400  0.76272100  0.39687700  1
  Zn  Zn19  1  0.90465400  0.23727900  0.60312300  1
  Zn  Zn20  1  0.85416500  0.72994200  0.56809000  1
  Zn  Zn21  1  0.35416500  0.27005800  0.43191000  1
  Zn  Zn22  1  0.35416500  0.77005800  0.06809000  1
  Zn  Zn23  1  0.85416500  0.22994200  0.93191000  1
  O  O24  1  0.19727500  0.54673300  0.20710500  1
  O  O25  1  0.69727500  0.45326700  0.79289500  1
  O  O26  1  0.69727500  0.95326700  0.70710500  1
  O  O27  1  0.19727500  0.04673300  0.29289500  1
  O  O28  1  0.51457000  0.56060900  0.87805700  1
  O  O29  1  0.01457000  0.43939100  0.12194300  1
  O  O30  1  0.01457000  0.93939100  0.37805700  1
  O  O31  1  0.51457000  0.06060900  0.62194300  1
  O  O32  1  0.18886300  0.50628600  0.54312400  1
  O  O33  1  0.68886300  0.49371400  0.45687600  1
  O  O34  1  0.68886300  0.99371400  0.04312400  1
  O  O35  1  0.18886300  0.00628600  0.95687600  1
  O  O36  1  0.10906900  0.60143200  0.16316000  1
  O  O37  1  0.60906900  0.39856800  0.83684000  1
  O  O38  1  0.60906900  0.89856800  0.66316000  1
  O  O39  1  0.10906900  0.10143200  0.33684000  1
  O  O40  1  0.02489200  0.62247200  0.84389500  1
  O  O41  1  0.52489200  0.37752800  0.15610500  1
  O  O42  1  0.52489200  0.87752800  0.34389500  1
  O  O43  1  0.02489200  0.12247200  0.65610500  1
  O  O44  1  0.10605800  0.59759000  0.51418300  1
  O  O45  1  0.60605800  0.40241000  0.48581700  1
  O  O46  1  0.60605800  0.90241000  0.01418300  1
  O  O47  1  0.10605800  0.09759000  0.98581700  1
  O  O48  1  0.67385800  0.62748700  0.17118500  1
  O  O49  1  0.17385800  0.37251300  0.82881500  1
  O  O50  1  0.17385800  0.87251300  0.67118500  1
  O  O51  1  0.67385800  0.12748700  0.32881500  1
  O  O52  1  0.60197700  0.61470200  0.83426200  1
  O  O53  1  0.10197700  0.38529800  0.16573800  1
  O  O54  1  0.10197700  0.88529800  0.33426200  1
  O  O55  1  0.60197700  0.11470200  0.66573800  1
  O  O56  1  0.65708500  0.59744600  0.48851600  1
  O  O57  1  0.15708500  0.40255400  0.51148400  1
  O  O58  1  0.15708500  0.90255400  0.98851600  1
  O  O59  1  0.65708500  0.09744600  0.01148400  1
  O  O60  1  0.83662200  0.63274700  0.30331200  1
  O  O61  1  0.33662200  0.36725300  0.69668800  1
  O  O62  1  0.33662200  0.86725300  0.80331200  1
  O  O63  1  0.83662200  0.13274700  0.19668800  1
  O  O64  1  0.88569800  0.63611900  0.97364100  1
  O  O65  1  0.38569800  0.36388100  0.02635900  1
  O  O66  1  0.38569800  0.86388100  0.47364100  1
  O  O67  1  0.88569800  0.13611900  0.52635900  1
  O  O68  1  0.82893500  0.62764800  0.63952800  1
  O  O69  1  0.32893500  0.37235200  0.36047200  1
  O  O70  1  0.32893500  0.87235200  0.13952800  1
  O  O71  1  0.82893500  0.12764800  0.86047200  1
  O  O72  1  0.84545100  0.87582900  0.19492100  1
  O  O73  1  0.34545100  0.12417100  0.80507900  1
  O  O74  1  0.34545100  0.62417100  0.69492100  1
  O  O75  1  0.84545100  0.37582900  0.30507900  1
  O  O76  1  0.84469800  0.87344000  0.85548200  1
  O  O77  1  0.34469800  0.12656000  0.14451800  1
  O  O78  1  0.34469800  0.62656000  0.35548200  1
  O  O79  1  0.84469800  0.37344000  0.64451800  1
  O  O80  1  0.87022500  0.85904700  0.51567700  1
  O  O81  1  0.37022500  0.14095300  0.48432300  1
  O  O82  1  0.37022500  0.64095300  0.01567700  1
  O  O83  1  0.87022500  0.35904700  0.98432300  1
