# generated using pymatgen
data_Ti3Mn2Co3O16
_symmetry_space_group_name_H-M   'P 1'
_cell_length_a   5.76719186
_cell_length_b   5.76719186
_cell_length_c   8.89751276
_cell_angle_alpha   88.77050344
_cell_angle_beta   88.77050344
_cell_angle_gamma   60.69558355
_symmetry_Int_Tables_number   1
_chemical_formula_structural   Ti3Mn2Co3O16
_chemical_formula_sum   'Ti3 Mn2 Co3 O16'
_cell_volume   257.98551781
_cell_formula_units_Z   1
loop_
 _symmetry_equiv_pos_site_id
 _symmetry_equiv_pos_as_xyz
  1  'x, y, z'
loop_
 _atom_site_type_symbol
 _atom_site_label
 _atom_site_symmetry_multiplicity
 _atom_site_fract_x
 _atom_site_fract_y
 _atom_site_fract_z
 _atom_site_occupancy
  Ti  Ti0  1  0.82769800  0.32323900  0.20596100  1
  Ti  Ti1  1  0.32323900  0.82769800  0.20596100  1
  Ti  Ti2  1  0.15622400  0.15622400  0.70710300  1
  Mn  Mn3  1  0.66658000  0.66658000  0.48491000  1
  Mn  Mn4  1  0.33285000  0.33285000  0.97920200  1
  Co  Co5  1  0.82768900  0.82768900  0.21344000  1
  Co  Co6  1  0.66403800  0.15999700  0.70756400  1
  Co  Co7  1  0.15999700  0.66403800  0.70756400  1
  O  O8  1  0.82958100  0.33780000  0.60366200  1
  O  O9  1  0.52267700  0.52267700  0.34585700  1
  O  O10  1  0.67452800  0.67452800  0.09978600  1
  O  O11  1  0.99272400  0.99272400  0.31804200  1
  O  O12  1  0.98842300  0.98842300  0.81681200  1
  O  O13  1  0.33780000  0.82958100  0.60366200  1
  O  O14  1  0.95601600  0.53227000  0.34291800  1
  O  O15  1  0.53227000  0.95601600  0.34291800  1
  O  O16  1  0.17205500  0.17205500  0.10364700  1
  O  O17  1  0.83613400  0.83613400  0.60650300  1
  O  O18  1  0.48136600  0.04330400  0.84047000  1
  O  O19  1  0.04330400  0.48136600  0.84047000  1
  O  O20  1  0.33951900  0.33951900  0.60316100  1
  O  O21  1  0.65981800  0.17113200  0.10034300  1
  O  O22  1  0.47753000  0.47753000  0.83126600  1
  O  O23  1  0.17113200  0.65981800  0.10034300  1
