# generated using pymatgen
data_VCrO3
_symmetry_space_group_name_H-M   'P 1'
_cell_length_a   5.13369700
_cell_length_b   5.49302882
_cell_length_c   7.49436772
_cell_angle_alpha   95.49595456
_cell_angle_beta   90.01664355
_cell_angle_gamma   90.10836393
_symmetry_Int_Tables_number   1
_chemical_formula_structural   VCrO3
_chemical_formula_sum   'V4 Cr4 O12'
_cell_volume   210.36583695
_cell_formula_units_Z   4
loop_
 _symmetry_equiv_pos_site_id
 _symmetry_equiv_pos_as_xyz
  1  'x, y, z'
loop_
 _atom_site_type_symbol
 _atom_site_label
 _atom_site_symmetry_multiplicity
 _atom_site_fract_x
 _atom_site_fract_y
 _atom_site_fract_z
 _atom_site_occupancy
  V  V0  1  0.50144600  0.79747400  0.84931100  1
  V  V1  1  0.99964000  0.29827900  0.85277100  1
  V  V2  1  0.00159000  0.70212200  0.14788600  1
  V  V3  1  0.00003800  0.29703500  0.35417600  1
  Cr  Cr4  1  0.99922700  0.69961900  0.64851000  1
  Cr  Cr5  1  0.50003900  0.80018000  0.34897100  1
  Cr  Cr6  1  0.49986900  0.19953500  0.65028000  1
  Cr  Cr7  1  0.49936500  0.19987500  0.15217500  1
  O  O8  1  0.69673700  0.49919800  0.74718400  1
  O  O9  1  0.14814800  0.65513300  0.89999000  1
  O  O10  1  0.34654400  0.84993900  0.59749200  1
  O  O11  1  0.80531600  0.99968000  0.74710900  1
  O  O12  1  0.84808000  0.65369800  0.40121200  1
  O  O13  1  0.35087600  0.15465100  0.90261000  1
  O  O14  1  0.15467800  0.35006400  0.59932400  1
  O  O15  1  0.64968700  0.84971900  0.09827200  1
  O  O16  1  0.64949200  0.14933300  0.40285600  1
  O  O17  1  0.84569400  0.34730200  0.10042400  1
  O  O18  1  0.30503400  0.49825400  0.25014500  1
  O  O19  1  0.19850100  0.99891400  0.24930300  1
