# generated using pymatgen
data_Mn(SbO3)4
_symmetry_space_group_name_H-M   'P 1'
_cell_length_a   5.50347882
_cell_length_b   10.99599669
_cell_length_c   9.74331556
_cell_angle_alpha   27.53178627
_cell_angle_beta   50.51016129
_cell_angle_gamma   56.18034243
_symmetry_Int_Tables_number   1
_chemical_formula_structural   Mn(SbO3)4
_chemical_formula_sum   'Mn1 Sb4 O12'
_cell_volume   210.29274532
_cell_formula_units_Z   1
loop_
 _symmetry_equiv_pos_site_id
 _symmetry_equiv_pos_as_xyz
  1  'x, y, z'
loop_
 _atom_site_type_symbol
 _atom_site_label
 _atom_site_symmetry_multiplicity
 _atom_site_fract_x
 _atom_site_fract_y
 _atom_site_fract_z
 _atom_site_occupancy
  Mn  Mn0  1  0.31166800  0.00100200  0.29011400  1
  Sb  Sb1  1  0.01834500  0.00109800  0.96988500  1
  Sb  Sb2  1  0.95535900  0.49601100  0.00985000  1
  Sb  Sb3  1  0.49368500  0.98878600  0.51346800  1
  Sb  Sb4  1  0.48470300  0.50824100  0.47299200  1
  O  O5  1  0.35687900  0.28575200  0.12016100  1
  O  O6  1  0.25206700  0.15430400  0.57491600  1
  O  O7  1  0.10020200  0.31427400  0.74451300  1
  O  O8  1  0.90614500  0.17218200  0.22830600  1
  O  O9  1  0.38000700  0.82451300  0.09163700  1
  O  O10  1  0.74906900  0.35487900  0.38478400  1
  O  O11  1  0.21419000  0.66140300  0.58541600  1
  O  O12  1  0.58681600  0.17507300  0.89074700  1
  O  O13  1  0.11913900  0.83749900  0.68651600  1
  O  O14  1  0.86516100  0.68689400  0.23494800  1
  O  O15  1  0.68283700  0.88516400  0.35919100  1
  O  O16  1  0.58303200  0.65292300  0.90185700  1
