# generated using pymatgen
data_Na3SnPCO7
_symmetry_space_group_name_H-M   'P 1'
_cell_length_a   7.17056800
_cell_length_b   5.29637600
_cell_length_c   9.43083449
_cell_angle_alpha   87.93904631
_cell_angle_beta   90.00000000
_cell_angle_gamma   90.00000000
_symmetry_Int_Tables_number   1
_chemical_formula_structural   Na3SnPCO7
_chemical_formula_sum   'Na6 Sn2 P2 C2 O14'
_cell_volume   357.93277651
_cell_formula_units_Z   2
loop_
 _symmetry_equiv_pos_site_id
 _symmetry_equiv_pos_as_xyz
  1  'x, y, z'
loop_
 _atom_site_type_symbol
 _atom_site_label
 _atom_site_symmetry_multiplicity
 _atom_site_fract_x
 _atom_site_fract_y
 _atom_site_fract_z
 _atom_site_occupancy
  Na  Na0  1  0.25000000  0.77770500  0.91716000  1
  Na  Na1  1  0.00430800  0.24018100  0.75025000  1
  Na  Na2  1  0.49569200  0.24018100  0.75025000  1
  Na  Na3  1  0.50430800  0.75981900  0.24975000  1
  Na  Na4  1  0.99569200  0.75981900  0.24975000  1
  Na  Na5  1  0.75000000  0.22229500  0.08284000  1
  Sn  Sn6  1  0.75000000  0.76417400  0.62889400  1
  Sn  Sn7  1  0.25000000  0.23582600  0.37110600  1
  P  P8  1  0.25000000  0.72333700  0.60501300  1
  P  P9  1  0.75000000  0.27666300  0.39498700  1
  C  C10  1  0.75000000  0.73254100  0.94552900  1
  C  C11  1  0.25000000  0.26745900  0.05447100  1
  O  O12  1  0.25000000  0.25723200  0.91830100  1
  O  O13  1  0.75000000  0.94462800  0.86802200  1
  O  O14  1  0.75000000  0.51523200  0.88423700  1
  O  O15  1  0.07715000  0.82989300  0.68413300  1
  O  O16  1  0.42285000  0.82989300  0.68413300  1
  O  O17  1  0.25000000  0.43167700  0.61677000  1
  O  O18  1  0.75000000  0.19094100  0.55742900  1
  O  O19  1  0.25000000  0.80905900  0.44257100  1
  O  O20  1  0.75000000  0.56832300  0.38323000  1
  O  O21  1  0.57715000  0.17010700  0.31586700  1
  O  O22  1  0.92285000  0.17010700  0.31586700  1
  O  O23  1  0.25000000  0.48476800  0.11576300  1
  O  O24  1  0.25000000  0.05537200  0.13197800  1
  O  O25  1  0.75000000  0.74276800  0.08169900  1
