# generated using pymatgen
data_Sr2Hf7O16
_symmetry_space_group_name_H-M   'P 1'
_cell_length_a   9.67270365
_cell_length_b   9.67270365
_cell_length_c   9.67270407
_cell_angle_alpha   38.67730912
_cell_angle_beta   38.67730912
_cell_angle_gamma   38.67730922
_symmetry_Int_Tables_number   1
_chemical_formula_structural   Sr2Hf7O16
_chemical_formula_sum   'Sr2 Hf7 O16'
_cell_volume   317.65881110
_cell_formula_units_Z   1
loop_
 _symmetry_equiv_pos_site_id
 _symmetry_equiv_pos_as_xyz
  1  'x, y, z'
loop_
 _atom_site_type_symbol
 _atom_site_label
 _atom_site_symmetry_multiplicity
 _atom_site_fract_x
 _atom_site_fract_y
 _atom_site_fract_z
 _atom_site_occupancy
  Sr  Sr0  1  0.33336600  0.33336600  0.33336600  1
  Sr  Sr1  1  0.66663400  0.66663400  0.66663400  1
  Hf  Hf2  1  0.00000000  0.00000000  0.00000000  1
  Hf  Hf3  1  0.88623500  0.25367800  0.51397100  1
  Hf  Hf4  1  0.48602900  0.11376500  0.74632200  1
  Hf  Hf5  1  0.74632200  0.48602900  0.11376500  1
  Hf  Hf6  1  0.25367800  0.51397100  0.88623500  1
  Hf  Hf7  1  0.51397100  0.88623500  0.25367800  1
  Hf  Hf8  1  0.11376500  0.74632200  0.48602900  1
  O  O9  1  0.23554700  0.23554700  0.23554700  1
  O  O10  1  0.96468500  0.22802400  0.67882000  1
  O  O11  1  0.84798200  0.15046000  0.41209100  1
  O  O12  1  0.58790900  0.15201800  0.84954000  1
  O  O13  1  0.32118000  0.03531500  0.77197600  1
  O  O14  1  0.77197600  0.32118000  0.03531500  1
  O  O15  1  0.84954000  0.58790900  0.15201800  1
  O  O16  1  0.57089500  0.57089500  0.57089500  1
  O  O17  1  0.42910500  0.42910500  0.42910500  1
  O  O18  1  0.15046000  0.41209100  0.84798200  1
  O  O19  1  0.22802400  0.67882000  0.96468500  1
  O  O20  1  0.67882000  0.96468500  0.22802400  1
  O  O21  1  0.41209100  0.84798200  0.15046000  1
  O  O22  1  0.15201800  0.84954000  0.58790900  1
  O  O23  1  0.03531500  0.77197600  0.32118000  1
  O  O24  1  0.76445300  0.76445300  0.76445300  1
