# generated using pymatgen
data_Ti5Fe7O18
_symmetry_space_group_name_H-M   'P 1'
_cell_length_a   5.56305600
_cell_length_b   7.63126836
_cell_length_c   8.93920860
_cell_angle_alpha   113.14343732
_cell_angle_beta   105.33009582
_cell_angle_gamma   96.06070985
_symmetry_Int_Tables_number   1
_chemical_formula_structural   Ti5Fe7O18
_chemical_formula_sum   'Ti5 Fe7 O18'
_cell_volume   327.01559853
_cell_formula_units_Z   1
loop_
 _symmetry_equiv_pos_site_id
 _symmetry_equiv_pos_as_xyz
  1  'x, y, z'
loop_
 _atom_site_type_symbol
 _atom_site_label
 _atom_site_symmetry_multiplicity
 _atom_site_fract_x
 _atom_site_fract_y
 _atom_site_fract_z
 _atom_site_occupancy
  Ti  Ti0  1  0.70470200  0.14761600  0.00068800  1
  Ti  Ti1  1  0.62625400  0.18729100  0.66740200  1
  Ti  Ti2  1  0.28875100  0.84941100  0.99439300  1
  Ti  Ti3  1  0.38247100  0.80906700  0.33485200  1
  Ti  Ti4  1  0.96316200  0.52297100  0.33762400  1
  Fe  Fe5  1  0.29115900  0.35723500  0.99616300  1
  Fe  Fe6  1  0.03783500  0.48044900  0.66420600  1
  Fe  Fe7  1  0.71002200  0.64397600  0.99890800  1
  Fe  Fe8  1  0.96530200  0.02523800  0.33699400  1
  Fe  Fe9  1  0.37472400  0.30744400  0.33037100  1
  Fe  Fe10  1  0.61974000  0.68346600  0.66665800  1
  Fe  Fe11  1  0.04285900  0.98022700  0.66656000  1
  O  O12  1  0.41692900  0.15424900  0.79398400  1
  O  O13  1  0.90949800  0.17915800  0.87132900  1
  O  O14  1  0.29272800  0.55907800  0.89630800  1
  O  O15  1  0.04149900  0.78837700  0.78294500  1
  O  O16  1  0.36710700  0.11235600  0.44873200  1
  O  O17  1  0.72422500  0.46001700  0.75793300  1
  O  O18  1  0.60042200  0.87344900  0.91117700  1
  O  O19  1  0.92840200  0.18744000  0.56168100  1
  O  O20  1  0.25523500  0.51131100  0.52867300  1
  O  O21  1  0.75353200  0.48945900  0.46042100  1
  O  O22  1  0.05983100  0.80045000  0.41859500  1
  O  O23  1  0.39040300  0.13135600  0.09027100  1
  O  O24  1  0.27411000  0.53745400  0.24074700  1
  O  O25  1  0.94644000  0.20606100  0.22252700  1
  O  O26  1  0.61966300  0.88293100  0.55243900  1
  O  O27  1  0.72161900  0.44624000  0.11703500  1
  O  O28  1  0.08920400  0.83124200  0.13641500  1
  O  O29  1  0.60217100  0.85498000  0.21397000  1
