# generated using pymatgen
data_Eu(ClO2)3
_symmetry_space_group_name_H-M   'P 1'
_cell_length_a   6.98735916
_cell_length_b   7.19010500
_cell_length_c   8.16858755
_cell_angle_alpha   90.00000000
_cell_angle_beta   121.31486270
_cell_angle_gamma   90.00000000
_symmetry_Int_Tables_number   1
_chemical_formula_structural   Eu(ClO2)3
_chemical_formula_sum   'Eu2 Cl6 O12'
_cell_volume   350.60482880
_cell_formula_units_Z   2
loop_
 _symmetry_equiv_pos_site_id
 _symmetry_equiv_pos_as_xyz
  1  'x, y, z'
loop_
 _atom_site_type_symbol
 _atom_site_label
 _atom_site_symmetry_multiplicity
 _atom_site_fract_x
 _atom_site_fract_y
 _atom_site_fract_z
 _atom_site_occupancy
  Eu  Eu0  1  0.75000000  0.85446800  0.75000000  1
  Eu  Eu1  1  0.25000000  0.14553200  0.25000000  1
  Cl  Cl2  1  0.75000000  0.38592900  0.25000000  1
  Cl  Cl3  1  0.25000000  0.61407100  0.75000000  1
  Cl  Cl4  1  0.50249700  0.19784500  0.79758600  1
  Cl  Cl5  1  0.49750300  0.80215500  0.20241400  1
  Cl  Cl6  1  0.99750300  0.19784500  0.70241400  1
  Cl  Cl7  1  0.00249700  0.80215500  0.29758600  1
  O  O8  1  0.54461800  0.91387100  0.39738200  1
  O  O9  1  0.45538200  0.08612900  0.60261800  1
  O  O10  1  0.95538200  0.91387100  0.10261800  1
  O  O11  1  0.04461800  0.08612900  0.89738200  1
  O  O12  1  0.59623500  0.52104100  0.56996200  1
  O  O13  1  0.40376500  0.47895900  0.43003800  1
  O  O14  1  0.90376500  0.52104100  0.93003800  1
  O  O15  1  0.09623500  0.47895900  0.06996200  1
  O  O16  1  0.46599200  0.73019000  0.83302100  1
  O  O17  1  0.53400800  0.26981000  0.16697900  1
  O  O18  1  0.03400800  0.73019000  0.66697900  1
  O  O19  1  0.96599200  0.26981000  0.33302100  1
