# generated using pymatgen
data_Li3MgV8O16
_symmetry_space_group_name_H-M   'P 1'
_cell_length_a   10.30241054
_cell_length_b   10.30241054
_cell_length_c   10.30241079
_cell_angle_alpha   33.17213572
_cell_angle_beta   33.17213572
_cell_angle_gamma   33.17213552
_symmetry_Int_Tables_number   1
_chemical_formula_structural   Li3MgV8O16
_chemical_formula_sum   'Li3 Mg1 V8 O16'
_cell_volume   291.41274061
_cell_formula_units_Z   1
loop_
 _symmetry_equiv_pos_site_id
 _symmetry_equiv_pos_as_xyz
  1  'x, y, z'
loop_
 _atom_site_type_symbol
 _atom_site_label
 _atom_site_symmetry_multiplicity
 _atom_site_fract_x
 _atom_site_fract_y
 _atom_site_fract_z
 _atom_site_occupancy
  Li  Li0  1  0.00074700  0.00074700  0.00074700  1
  Li  Li1  1  0.62480200  0.62480200  0.62480200  1
  Li  Li2  1  0.12223300  0.12223300  0.12223300  1
  Mg  Mg3  1  0.81308300  0.81308300  0.81308300  1
  V  V4  1  0.07291900  0.07291900  0.55049600  1
  V  V5  1  0.31497700  0.31497700  0.31497700  1
  V  V6  1  0.50015200  0.50015200  0.50015200  1
  V  V7  1  0.07291900  0.55049600  0.07291900  1
  V  V8  1  0.55049600  0.07291900  0.07291900  1
  V  V9  1  0.57051700  0.57051700  0.04324100  1
  V  V10  1  0.04324100  0.57051700  0.57051700  1
  V  V11  1  0.57051700  0.04324100  0.57051700  1
  O  O12  1  0.96405300  0.42555900  0.42555900  1
  O  O13  1  0.42555900  0.96405300  0.42555900  1
  O  O14  1  0.19259600  0.19259600  0.19259600  1
  O  O15  1  0.42555900  0.42555900  0.96405300  1
  O  O16  1  0.93044500  0.93044500  0.93044500  1
  O  O17  1  0.69676700  0.69676700  0.17964500  1
  O  O18  1  0.17964500  0.69676700  0.69676700  1
  O  O19  1  0.69676700  0.17964500  0.69676700  1
  O  O20  1  0.92111400  0.45884200  0.92111400  1
  O  O21  1  0.45884200  0.92111400  0.92111400  1
  O  O22  1  0.68945500  0.68945500  0.68945500  1
  O  O23  1  0.92111400  0.92111400  0.45884200  1
  O  O24  1  0.20714100  0.20714100  0.65975500  1
  O  O25  1  0.43464900  0.43464900  0.43464900  1
  O  O26  1  0.65975500  0.20714100  0.20714100  1
  O  O27  1  0.20714100  0.65975500  0.20714100  1
