# generated using pymatgen
data_Na3NiPCO7
_symmetry_space_group_name_H-M   'P 1'
_cell_length_a   8.46026914
_cell_length_b   8.46040065
_cell_length_c   8.86780037
_cell_angle_alpha   90.54684773
_cell_angle_beta   89.45100038
_cell_angle_gamma   78.18566341
_symmetry_Int_Tables_number   1
_chemical_formula_structural   Na3NiPCO7
_chemical_formula_sum   'Na12 Ni4 P4 C4 O28'
_cell_volume   621.21540016
_cell_formula_units_Z   4
loop_
 _symmetry_equiv_pos_site_id
 _symmetry_equiv_pos_as_xyz
  1  'x, y, z'
loop_
 _atom_site_type_symbol
 _atom_site_label
 _atom_site_symmetry_multiplicity
 _atom_site_fract_x
 _atom_site_fract_y
 _atom_site_fract_z
 _atom_site_occupancy
  Na  Na0  1  0.24376100  0.24165800  0.00134800  1
  Na  Na1  1  0.74358700  0.74166000  0.00104000  1
  Na  Na2  1  0.99165600  0.99367500  0.99878500  1
  Na  Na3  1  0.49166900  0.49367300  0.99881700  1
  Na  Na4  1  0.33350900  0.89462000  0.16162400  1
  Na  Na5  1  0.83358600  0.39452500  0.16153900  1
  Na  Na6  1  0.64461400  0.08346900  0.83837200  1
  Na  Na7  1  0.14453700  0.58362600  0.83845900  1
  Na  Na8  1  0.49361400  0.99548300  0.49800400  1
  Na  Na9  1  0.99360300  0.49548400  0.49802900  1
  Na  Na10  1  0.74555700  0.24347600  0.50203100  1
  Na  Na11  1  0.24540000  0.74375900  0.50193900  1
  Ni  Ni12  1  0.89177600  0.84522400  0.28706200  1
  Ni  Ni13  1  0.09524100  0.14182300  0.71292400  1
  Ni  Ni14  1  0.39182900  0.34520600  0.28728500  1
  Ni  Ni15  1  0.59521600  0.64176200  0.71271700  1
  P  P16  1  0.60889400  0.62824700  0.34694800  1
  P  P17  1  0.10894200  0.12828600  0.34709600  1
  P  P18  1  0.37829300  0.35895000  0.65305600  1
  P  P19  1  0.87823500  0.85889600  0.65289300  1
  C  C20  1  0.61838200  0.11898100  0.16383100  1
  C  C21  1  0.11825300  0.61907900  0.16379700  1
  C  C22  1  0.36895300  0.86836600  0.83617300  1
  C  C23  1  0.86910000  0.36826100  0.83620500  1
  O  O24  1  0.53039100  0.20688400  0.06226200  1
  O  O25  1  0.03025000  0.70710800  0.06229600  1
  O  O26  1  0.45693500  0.78043700  0.93774300  1
  O  O27  1  0.95706100  0.28018900  0.93769500  1
  O  O28  1  0.73502700  0.00009900  0.12163800  1
  O  O29  1  0.23482900  0.50021900  0.12156000  1
  O  O30  1  0.25006700  0.98499600  0.87836900  1
  O  O31  1  0.75026600  0.48486300  0.87845800  1
  O  O32  1  0.06167900  0.98705900  0.25257500  1
  O  O33  1  0.56147100  0.48705900  0.25247600  1
  O  O34  1  0.73696400  0.81152500  0.74728200  1
  O  O35  1  0.23709700  0.31163300  0.74760500  1
  O  O36  1  0.25327600  0.17173500  0.25439000  1
  O  O37  1  0.75313100  0.67165400  0.25405600  1
  O  O38  1  0.92156600  0.00317400  0.74576000  1
  O  O39  1  0.42183000  0.50317400  0.74586100  1
  O  O40  1  0.58779200  0.15259900  0.30454400  1
  O  O41  1  0.08769200  0.65256900  0.30457100  1
  O  O42  1  0.40250100  0.83770400  0.69546000  1
  O  O43  1  0.90261700  0.33775700  0.69543000  1
  O  O44  1  0.46628800  0.77318900  0.35888600  1
  O  O45  1  0.96630000  0.27322100  0.35892400  1
  O  O46  1  0.52319400  0.21630100  0.64111800  1
  O  O47  1  0.02319400  0.71627700  0.64107700  1
  O  O48  1  0.17057300  0.06414700  0.50416200  1
  O  O49  1  0.67071100  0.56407300  0.50395600  1
  O  O50  1  0.81419800  0.92063500  0.49582500  1
  O  O51  1  0.31409400  0.42073100  0.49604800  1
