# generated using pymatgen
data_Co2N16O9
_symmetry_space_group_name_H-M   'P 1'
_cell_length_a   11.68500100
_cell_length_b   11.68500100
_cell_length_c   9.91112300
_cell_angle_alpha   90.00000000
_cell_angle_beta   90.00000000
_cell_angle_gamma   90.00000000
_symmetry_Int_Tables_number   1
_chemical_formula_structural   Co2N16O9
_chemical_formula_sum   'Co4 N32 O18'
_cell_volume   1353.25728492
_cell_formula_units_Z   2
loop_
 _symmetry_equiv_pos_site_id
 _symmetry_equiv_pos_as_xyz
  1  'x, y, z'
loop_
 _atom_site_type_symbol
 _atom_site_label
 _atom_site_symmetry_multiplicity
 _atom_site_fract_x
 _atom_site_fract_y
 _atom_site_fract_z
 _atom_site_occupancy
  Co  Co0  1  0.59847800  0.40152200  0.61078300  1
  Co  Co1  1  0.40152200  0.59847800  0.61078300  1
  Co  Co2  1  0.90152200  0.90152200  0.11078300  1
  Co  Co3  1  0.09847800  0.09847800  0.11078300  1
  N  N4  1  0.71829500  0.44241700  0.67015200  1
  N  N5  1  0.28170500  0.55758300  0.67015200  1
  N  N6  1  0.78170500  0.94241700  0.17015200  1
  N  N7  1  0.21829500  0.05758300  0.17015200  1
  N  N8  1  0.55758300  0.28170500  0.67015200  1
  N  N9  1  0.44241700  0.71829500  0.67015200  1
  N  N10  1  0.94241700  0.78170500  0.17015200  1
  N  N11  1  0.05758300  0.21829500  0.17015200  1
  N  N12  1  0.72096000  0.42290200  0.32565400  1
  N  N13  1  0.27904000  0.57709800  0.32565400  1
  N  N14  1  0.77904000  0.92290200  0.82565400  1
  N  N15  1  0.22096000  0.07709800  0.82565400  1
  N  N16  1  0.57709800  0.27904000  0.32565400  1
  N  N17  1  0.42290200  0.72096000  0.32565400  1
  N  N18  1  0.92290200  0.77904000  0.82565400  1
  N  N19  1  0.07709800  0.22096000  0.82565400  1
  N  N20  1  0.64924600  0.35075400  0.32411800  1
  N  N21  1  0.35075400  0.64924600  0.32411800  1
  N  N22  1  0.85075400  0.85075400  0.82411800  1
  N  N23  1  0.14924600  0.14924600  0.82411800  1
  N  N24  1  0.00000000  0.00000000  0.07131700  1
  N  N25  1  0.50000000  0.50000000  0.57131700  1
  N  N26  1  0.00000000  0.00000000  0.49155600  1
  N  N27  1  0.50000000  0.50000000  0.99155600  1
  N  N28  1  0.00000000  0.50000000  0.49981400  1
  N  N29  1  0.50000000  0.00000000  0.99981400  1
  N  N30  1  0.50000000  0.00000000  0.49981400  1
  N  N31  1  0.00000000  0.50000000  0.99981400  1
  N  N32  1  0.76078600  0.23921400  0.99266200  1
  N  N33  1  0.23921400  0.76078600  0.99266200  1
  N  N34  1  0.73921400  0.73921400  0.49266200  1
  N  N35  1  0.26078600  0.26078600  0.49266200  1
  O  O36  1  0.00000000  0.00000000  0.61827600  1
  O  O37  1  0.50000000  0.50000000  0.11827600  1
  O  O38  1  0.93442500  0.06557500  0.42863400  1
  O  O39  1  0.06557500  0.93442500  0.42863400  1
  O  O40  1  0.56557500  0.56557500  0.92863400  1
  O  O41  1  0.43442500  0.43442500  0.92863400  1
  O  O42  1  0.68500700  0.31499300  0.99678900  1
  O  O43  1  0.31499300  0.68500700  0.99678900  1
  O  O44  1  0.81499300  0.81499300  0.49678900  1
  O  O45  1  0.18500700  0.18500700  0.49678900  1
  O  O46  1  0.79651200  0.20348800  0.88161200  1
  O  O47  1  0.20348800  0.79651200  0.88161200  1
  O  O48  1  0.70348800  0.70348800  0.38161200  1
  O  O49  1  0.29651200  0.29651200  0.38161200  1
  O  O50  1  0.79996300  0.20003700  0.10090300  1
  O  O51  1  0.20003700  0.79996300  0.10090300  1
  O  O52  1  0.70003700  0.70003700  0.60090300  1
  O  O53  1  0.29996300  0.29996300  0.60090300  1
