# generated using pymatgen
data_Hg2W2O7
_symmetry_space_group_name_H-M   'P 1'
_cell_length_a   5.31424100
_cell_length_b   8.55690931
_cell_length_c   9.09400420
_cell_angle_alpha   105.56429948
_cell_angle_beta   105.92332113
_cell_angle_gamma   97.42922239
_symmetry_Int_Tables_number   1
_chemical_formula_structural   Hg2W2O7
_chemical_formula_sum   'Hg4 W4 O14'
_cell_volume   373.78273683
_cell_formula_units_Z   2
loop_
 _symmetry_equiv_pos_site_id
 _symmetry_equiv_pos_as_xyz
  1  'x, y, z'
loop_
 _atom_site_type_symbol
 _atom_site_label
 _atom_site_symmetry_multiplicity
 _atom_site_fract_x
 _atom_site_fract_y
 _atom_site_fract_z
 _atom_site_occupancy
  Hg  Hg0  1  0.75332900  0.18955900  0.81526900  1
  Hg  Hg1  1  0.28587900  0.98885800  0.71337300  1
  Hg  Hg2  1  0.71412100  0.01114200  0.28662700  1
  Hg  Hg3  1  0.24667100  0.81044100  0.18473100  1
  W  W4  1  0.78049700  0.68083600  0.79241300  1
  W  W5  1  0.17980300  0.45328100  0.65601800  1
  W  W6  1  0.82019700  0.54671900  0.34398200  1
  W  W7  1  0.21950300  0.31916400  0.20758700  1
  O  O8  1  0.17015000  0.25576100  0.99193100  1
  O  O9  1  0.08292700  0.55411200  0.83907700  1
  O  O10  1  0.53555500  0.43715000  0.74009900  1
  O  O11  1  0.01251800  0.24016600  0.60885700  1
  O  O12  1  0.42825200  0.70208300  0.70685700  1
  O  O13  1  0.95311500  0.87059400  0.77614100  1
  O  O14  1  0.84614700  0.55692700  0.56819100  1
  O  O15  1  0.15385300  0.44307300  0.43180900  1
  O  O16  1  0.04688500  0.12940600  0.22385900  1
  O  O17  1  0.57174800  0.29791700  0.29314300  1
  O  O18  1  0.98748200  0.75983400  0.39114300  1
  O  O19  1  0.46444500  0.56285000  0.25990100  1
  O  O20  1  0.91707300  0.44588800  0.16092300  1
  O  O21  1  0.82985000  0.74423900  0.00806900  1
