# generated using pymatgen
data_Ti7(Fe3O8)3
_symmetry_space_group_name_H-M   'P 1'
_cell_length_a   5.59324600
_cell_length_b   9.10855952
_cell_length_c   9.12768318
_cell_angle_alpha   68.62816397
_cell_angle_beta   84.82362023
_cell_angle_gamma   85.00529311
_symmetry_Int_Tables_number   1
_chemical_formula_structural   Ti7(Fe3O8)3
_chemical_formula_sum   'Ti7 Fe9 O24'
_cell_volume   430.54266832
_cell_formula_units_Z   1
loop_
 _symmetry_equiv_pos_site_id
 _symmetry_equiv_pos_as_xyz
  1  'x, y, z'
loop_
 _atom_site_type_symbol
 _atom_site_label
 _atom_site_symmetry_multiplicity
 _atom_site_fract_x
 _atom_site_fract_y
 _atom_site_fract_z
 _atom_site_occupancy
  Ti  Ti0  1  0.20348300  0.92772500  0.43274100  1
  Ti  Ti1  1  0.21579100  0.42589600  0.92673800  1
  Ti  Ti2  1  0.29356400  0.57604100  0.56795800  1
  Ti  Ti3  1  0.71169300  0.42823100  0.42552100  1
  Ti  Ti4  1  0.79978700  0.57330200  0.06725700  1
  Ti  Ti5  1  0.78136400  0.07446700  0.57964800  1
  Ti  Ti6  1  0.29387500  0.06848200  0.07590200  1
  Fe  Fe7  1  0.30795900  0.82543200  0.82870500  1
  Fe  Fe8  1  0.71651400  0.92554500  0.92825100  1
  Fe  Fe9  1  0.78713400  0.82485700  0.32018300  1
  Fe  Fe10  1  0.71088300  0.67707700  0.67561300  1
  Fe  Fe11  1  0.20988400  0.67894300  0.17292500  1
  Fe  Fe12  1  0.20555400  0.17667600  0.67983600  1
  Fe  Fe13  1  0.29024700  0.32133000  0.32281300  1
  Fe  Fe14  1  0.79346900  0.32082800  0.82152300  1
  Fe  Fe15  1  0.71554500  0.17972100  0.17654600  1
  O  O16  1  0.15120200  0.96050500  0.62637200  1
  O  O17  1  0.63064800  0.88683500  0.71960200  1
  O  O18  1  0.15567100  0.88885700  0.21853200  1
  O  O19  1  0.01561900  0.71601500  0.52322300  1
  O  O20  1  0.64403600  0.98227700  0.11663700  1
  O  O21  1  0.00058200  0.77793500  0.96181700  1
  O  O22  1  0.47032700  0.78198900  0.47356100  1
  O  O23  1  0.34206700  0.62406000  0.78425500  1
  O  O24  1  0.16425600  0.39526200  0.71845100  1
  O  O25  1  0.51600600  0.71754200  0.01824600  1
  O  O26  1  0.84837300  0.51837600  0.89024300  1
  O  O27  1  0.35059500  0.52069900  0.38857300  1
  O  O28  1  0.14718300  0.47471800  0.11033000  1
  O  O29  1  0.64727200  0.47848000  0.60767700  1
  O  O30  1  0.47774400  0.28290600  0.97333000  1
  O  O31  1  0.84334300  0.61324100  0.27838600  1
  O  O32  1  0.66306000  0.39003500  0.21539500  1
  O  O33  1  0.52042300  0.21755900  0.52458000  1
  O  O34  1  0.03230600  0.21839700  0.02482800  1
  O  O35  1  0.33468700  0.01546500  0.88737100  1
  O  O36  1  0.97658100  0.28081800  0.47855400  1
  O  O37  1  0.33791700  0.11121500  0.28653400  1
  O  O38  1  0.83857600  0.11805700  0.77489900  1
  O  O39  1  0.85478000  0.02420100  0.39644300  1
