# generated using pymatgen
data_Rb2H8O5
_symmetry_space_group_name_H-M   'P 1'
_cell_length_a   8.40409029
_cell_length_b   8.40409029
_cell_length_c   14.99947436
_cell_angle_alpha   63.88204043
_cell_angle_beta   63.88204043
_cell_angle_gamma   53.11430282
_symmetry_Int_Tables_number   1
_chemical_formula_structural   Rb2H8O5
_chemical_formula_sum   'Rb8 H32 O20'
_cell_volume   737.61920681
_cell_formula_units_Z   4
loop_
 _symmetry_equiv_pos_site_id
 _symmetry_equiv_pos_as_xyz
  1  'x, y, z'
loop_
 _atom_site_type_symbol
 _atom_site_label
 _atom_site_symmetry_multiplicity
 _atom_site_fract_x
 _atom_site_fract_y
 _atom_site_fract_z
 _atom_site_occupancy
  Rb  Rb0  1  0.37517600  0.41562000  0.05488900  1
  Rb  Rb1  1  0.87867000  0.86856800  0.05848900  1
  Rb  Rb2  1  0.11110600  0.11626200  0.19681000  1
  Rb  Rb3  1  0.41562000  0.37517600  0.55488900  1
  Rb  Rb4  1  0.12641500  0.16055700  0.44124500  1
  Rb  Rb5  1  0.86856800  0.87867000  0.55848900  1
  Rb  Rb6  1  0.11626200  0.11110600  0.69681000  1
  Rb  Rb7  1  0.16055700  0.12641500  0.94124500  1
  H  H8  1  0.84109900  0.55589800  0.03392300  1
  H  H9  1  0.55751400  0.81777400  0.05891400  1
  H  H10  1  0.69508300  0.38948800  0.11161400  1
  H  H11  1  0.41577400  0.70849000  0.11748200  1
  H  H12  1  0.73897500  0.16933000  0.19062300  1
  H  H13  1  0.16932300  0.74124400  0.20587500  1
  H  H14  1  0.18393500  0.65463200  0.40284300  1
  H  H15  1  0.72636400  0.13283300  0.33173100  1
  H  H16  1  0.98296900  0.60215600  0.41872400  1
  H  H17  1  0.58519000  0.00015800  0.42754700  1
  H  H18  1  0.67965800  0.39757600  0.32419900  1
  H  H19  1  0.38800800  0.67628000  0.33285600  1
  H  H20  1  0.54288100  0.88778200  0.26539400  1
  H  H21  1  0.88192000  0.45497700  0.29526000  1
  H  H22  1  0.99141300  0.59108300  0.26509600  1
  H  H23  1  0.55549100  0.05653500  0.27731000  1
  H  H24  1  0.55589800  0.84109900  0.53392300  1
  H  H25  1  0.81777400  0.55751400  0.55891400  1
  H  H26  1  0.70849000  0.41577400  0.61748200  1
  H  H27  1  0.38948800  0.69508300  0.61161400  1
  H  H28  1  0.88778200  0.54288100  0.76539400  1
  H  H29  1  0.45497700  0.88192000  0.79526000  1
  H  H30  1  0.16933000  0.73897500  0.69062300  1
  H  H31  1  0.05653500  0.55549100  0.77731000  1
  H  H32  1  0.74124400  0.16932300  0.70587500  1
  H  H33  1  0.59108300  0.99141300  0.76509600  1
  H  H34  1  0.13283300  0.72636400  0.83173100  1
  H  H35  1  0.65463200  0.18393500  0.90284300  1
  H  H36  1  0.60215600  0.98296900  0.91872400  1
  H  H37  1  0.00015800  0.58519000  0.92754700  1
  H  H38  1  0.67628000  0.38800800  0.83285600  1
  H  H39  1  0.39757600  0.67965800  0.82419900  1
  O  O40  1  0.75771700  0.24446400  0.11418900  1
  O  O41  1  0.22338400  0.75728800  0.13204400  1
  O  O42  1  0.53804900  0.06873600  0.96548200  1
  O  O43  1  0.99029000  0.50291000  0.00176000  1
  O  O44  1  0.57261100  0.68204100  0.10277300  1
  O  O45  1  0.72078500  0.04498200  0.30796600  1
  O  O46  1  0.47304300  0.03632600  0.25320800  1
  O  O47  1  0.97932600  0.51247600  0.23859700  1
  O  O48  1  0.50291000  0.99029000  0.50176000  1
  O  O49  1  0.78044100  0.32867500  0.36301700  1
  O  O50  1  0.24535600  0.75329400  0.36814100  1
  O  O51  1  0.06873600  0.53804900  0.46548200  1
  O  O52  1  0.51247600  0.97932600  0.73859700  1
  O  O53  1  0.75728800  0.22338400  0.63204400  1
  O  O54  1  0.24446400  0.75771700  0.61418900  1
  O  O55  1  0.03632600  0.47304300  0.75320800  1
  O  O56  1  0.68204100  0.57261100  0.60277300  1
  O  O57  1  0.04498200  0.72078500  0.80796600  1
  O  O58  1  0.32867500  0.78044100  0.86301700  1
  O  O59  1  0.75329400  0.24535600  0.86814100  1
