# generated using pymatgen
data_Fe8H10O17
_symmetry_space_group_name_H-M   'P 1'
_cell_length_a   6.14642400
_cell_length_b   10.11264753
_cell_length_c   11.04412594
_cell_angle_alpha   94.11383232
_cell_angle_beta   89.93714344
_cell_angle_gamma   91.98503728
_symmetry_Int_Tables_number   1
_chemical_formula_structural   Fe8H10O17
_chemical_formula_sum   'Fe16 H20 O34'
_cell_volume   684.28530551
_cell_formula_units_Z   2
loop_
 _symmetry_equiv_pos_site_id
 _symmetry_equiv_pos_as_xyz
  1  'x, y, z'
loop_
 _atom_site_type_symbol
 _atom_site_label
 _atom_site_symmetry_multiplicity
 _atom_site_fract_x
 _atom_site_fract_y
 _atom_site_fract_z
 _atom_site_occupancy
  Fe  Fe0  1  0.01377200  0.68655100  0.08718900  1
  Fe  Fe1  1  0.01530300  0.84721400  0.60698000  1
  Fe  Fe2  1  0.27211400  0.18246100  0.58020500  1
  Fe  Fe3  1  0.24797900  0.27497100  0.07784400  1
  Fe  Fe4  1  0.00907300  0.31077200  0.80694200  1
  Fe  Fe5  1  0.00451100  0.13530100  0.26391000  1
  Fe  Fe6  1  0.25983500  0.83162100  0.31651000  1
  Fe  Fe7  1  0.26575300  0.66998300  0.80338100  1
  Fe  Fe8  1  0.49960100  0.68775800  0.08744900  1
  Fe  Fe9  1  0.52183100  0.83298100  0.60450200  1
  Fe  Fe10  1  0.74979100  0.19225500  0.55211300  1
  Fe  Fe11  1  0.71209300  0.13517700  0.97550200  1
  Fe  Fe12  1  0.49365300  0.31639700  0.79316900  1
  Fe  Fe13  1  0.51981800  0.14273700  0.26487200  1
  Fe  Fe14  1  0.75911700  0.83461200  0.32292900  1
  Fe  Fe15  1  0.76317700  0.67130500  0.79963300  1
  H  H16  1  0.98890200  0.61097100  0.33147600  1
  H  H17  1  0.03834800  0.59034200  0.59783400  1
  H  H18  1  0.26099500  0.47570500  0.92183200  1
  H  H19  1  0.26140000  0.29731000  0.37769300  1
  H  H20  1  0.99699800  0.39737300  0.56173300  1
  H  H21  1  0.01091400  0.01608800  0.46755500  1
  H  H22  1  0.91390400  0.36180000  0.20827300  1
  H  H23  1  0.23631500  0.49903800  0.15819800  1
  H  H24  1  0.35559200  0.92276100  0.81196800  1
  H  H25  1  0.51314100  0.61087600  0.33190200  1
  H  H26  1  0.51116900  0.54992000  0.62163200  1
  H  H27  1  0.75500300  0.46737400  0.91591300  1
  H  H28  1  0.71566300  0.08123200  0.74991300  1
  H  H29  1  0.51041200  0.00848100  0.46513100  1
  H  H30  1  0.77483000  0.90601500  0.09799600  1
  H  H31  1  0.71754300  0.49683700  0.14317400  1
  H  H32  1  0.87166500  0.93144200  0.84768300  1
  H  H33  1  0.39652900  0.98182200  0.00201500  1
  H  H34  1  0.07844600  0.01563900  0.91147800  1
  H  H35  1  0.59966800  0.32994800  0.13236000  1
  O  O36  1  0.99911100  0.68850500  0.28410600  1
  O  O37  1  0.01598300  0.95771600  0.33165200  1
  O  O38  1  0.02187400  0.64872700  0.67059600  1
  O  O39  1  0.01407500  0.69274200  0.90952400  1
  O  O40  1  0.24204800  0.19316600  0.75541100  1
  O  O41  1  0.25502300  0.45938100  0.83167600  1
  O  O42  1  0.25831700  0.10967600  0.15356400  1
  O  O43  1  0.26970900  0.20376600  0.39455300  1
  O  O44  1  0.00576300  0.31838400  0.60653400  1
  O  O45  1  0.00867000  0.04718300  0.55862900  1
  O  O46  1  0.06249000  0.33891900  0.22635500  1
  O  O47  1  0.99014800  0.26502500  0.97114700  1
  O  O48  1  0.26308200  0.80573900  0.13075800  1
  O  O49  1  0.24872900  0.54040900  0.08031200  1
  O  O50  1  0.29175900  0.85956000  0.74182600  1
  O  O51  1  0.26214600  0.80240400  0.49808800  1
  O  O52  1  0.50959900  0.68880400  0.28502200  1
  O  O53  1  0.51299300  0.95882800  0.33277200  1
  O  O54  1  0.51136700  0.63518900  0.66990000  1
  O  O55  1  0.51557500  0.69161300  0.91047500  1
  O  O56  1  0.74089800  0.17706700  0.76808300  1
  O  O57  1  0.76163100  0.45240300  0.82562300  1
  O  O58  1  0.75551600  0.10446800  0.14617100  1
  O  O59  1  0.76813000  0.19565500  0.38234100  1
  O  O60  1  0.51880900  0.31630700  0.60781100  1
  O  O61  1  0.51443200  0.04170300  0.55751400  1
  O  O62  1  0.50267600  0.28256700  0.96747300  1
  O  O63  1  0.76452800  0.81705700  0.12964000  1
  O  O64  1  0.74792300  0.55611200  0.07870400  1
  O  O65  1  0.77542300  0.85488500  0.73148500  1
  O  O66  1  0.76692900  0.79839100  0.49474800  1
  O  O67  1  0.47534200  0.00323700  0.92804400  1
  O  O68  1  0.92637400  0.98758800  0.92323400  1
  O  O69  1  0.50741000  0.33678000  0.20532700  1
