# generated using pymatgen
data_Al19CrO30
_symmetry_space_group_name_H-M   'P 1'
_cell_length_a   4.82030500
_cell_length_b   5.19121752
_cell_length_c   19.97457881
_cell_angle_alpha   94.38213140
_cell_angle_beta   89.98721539
_cell_angle_gamma   117.65083173
_symmetry_Int_Tables_number   1
_chemical_formula_structural   Al19CrO30
_chemical_formula_sum   'Al19 Cr1 O30'
_cell_volume   441.09877816
_cell_formula_units_Z   1
loop_
 _symmetry_equiv_pos_site_id
 _symmetry_equiv_pos_as_xyz
  1  'x, y, z'
loop_
 _atom_site_type_symbol
 _atom_site_label
 _atom_site_symmetry_multiplicity
 _atom_site_fract_x
 _atom_site_fract_y
 _atom_site_fract_z
 _atom_site_occupancy
  Al  Al0  1  0.49423900  0.98748200  0.07120900  1
  Al  Al1  1  0.60693700  0.21344700  0.23012500  1
  Al  Al2  1  0.59314700  0.18610100  0.37068400  1
  Al  Al3  1  0.19333400  0.38420300  0.17177500  1
  Al  Al4  1  0.70687100  0.41380500  0.52958700  1
  Al  Al5  1  0.69295500  0.38601200  0.67029500  1
  Al  Al6  1  0.00697800  0.01391700  0.42975000  1
  Al  Al7  1  0.89277500  0.78565800  0.27129900  1
  Al  Al8  1  0.90787800  0.81501700  0.13106600  1
  Al  Al9  1  0.99304000  0.98611500  0.57043200  1
  Al  Al10  1  0.09233400  0.18507200  0.86884800  1
  Al  Al11  1  0.10704200  0.21364100  0.72908900  1
  Al  Al12  1  0.80708300  0.61289800  0.82893900  1
  Al  Al13  1  0.30687500  0.61380300  0.32990100  1
  Al  Al14  1  0.40674900  0.81385400  0.62942400  1
  Al  Al15  1  0.50623900  0.01394000  0.92821100  1
  Al  Al16  1  0.29320600  0.58628300  0.47053500  1
  Al  Al17  1  0.39308600  0.78522800  0.76987800  1
  Al  Al18  1  0.79079200  0.58512200  0.96914500  1
  Cr  Cr19  1  0.20899700  0.41894000  0.02990200  1
  O  O20  1  0.45621000  0.30014600  0.45002400  1
  O  O21  1  0.16794600  0.64148900  0.11407500  1
  O  O22  1  0.63323900  0.96078900  0.28903300  1
  O  O23  1  0.23530000  0.15276200  0.09258700  1
  O  O24  1  0.57255100  0.83872200  0.41127000  1
  O  O25  1  0.74496700  0.09999400  0.15058200  1
  O  O26  1  0.94359500  0.49916900  0.74957800  1
  O  O27  1  0.66757200  0.70922900  0.05008400  1
  O  O28  1  0.85599000  0.09979300  0.64978100  1
  O  O29  1  0.22328700  0.76783800  0.98807100  1
  O  O30  1  0.62762000  0.56090600  0.18930200  1
  O  O31  1  0.02755700  0.36111400  0.38885800  1
  O  O32  1  0.82766500  0.96097600  0.78831800  1
  O  O33  1  0.56666100  0.43903500  0.31148500  1
  O  O34  1  0.96631200  0.23869200  0.51116800  1
  O  O35  1  0.03371600  0.76121900  0.48880200  1
  O  O36  1  0.75282900  0.23441400  0.01033000  1
  O  O37  1  0.43369600  0.56122700  0.68842400  1
  O  O38  1  0.97227600  0.63861400  0.61109000  1
  O  O39  1  0.17211600  0.03860800  0.21277300  1
  O  O40  1  0.37319900  0.43832600  0.81029600  1
  O  O41  1  0.34981100  0.29924000  0.94580500  1
  O  O42  1  0.14407100  0.89988300  0.35033600  1
  O  O43  1  0.25547200  0.89785100  0.84903900  1
  O  O44  1  0.05559000  0.49927600  0.25053000  1
  O  O45  1  0.42747700  0.16116700  0.58867500  1
  O  O46  1  0.36620800  0.03834800  0.71088600  1
  O  O47  1  0.76580600  0.83901000  0.91068900  1
  O  O48  1  0.83686100  0.36172100  0.88809800  1
  O  O49  1  0.54384700  0.69990600  0.54991900  1
