# generated using pymatgen
data_Bi17W3O34
_symmetry_space_group_name_H-M   'P 1'
_cell_length_a   10.27397700
_cell_length_b   10.41049024
_cell_length_c   10.41844021
_cell_angle_alpha   107.60518243
_cell_angle_beta   106.16782255
_cell_angle_gamma   113.20569215
_symmetry_Int_Tables_number   1
_chemical_formula_structural   Bi17W3O34
_chemical_formula_sum   'Bi17 W3 O34'
_cell_volume   869.85462646
_cell_formula_units_Z   1
loop_
 _symmetry_equiv_pos_site_id
 _symmetry_equiv_pos_as_xyz
  1  'x, y, z'
loop_
 _atom_site_type_symbol
 _atom_site_label
 _atom_site_symmetry_multiplicity
 _atom_site_fract_x
 _atom_site_fract_y
 _atom_site_fract_z
 _atom_site_occupancy
  Bi  Bi0  1  0.77762700  0.69328500  0.71969600  1
  Bi  Bi1  1  0.52675500  0.91810000  0.18913900  1
  Bi  Bi2  1  0.64137200  0.63339700  0.00087200  1
  Bi  Bi3  1  0.49736800  0.59680200  0.31970700  1
  Bi  Bi4  1  0.98394600  0.09209400  0.29142900  1
  Bi  Bi5  1  0.57336300  0.28040100  0.07734400  1
  Bi  Bi6  1  0.80329000  0.02699700  0.59213800  1
  Bi  Bi7  1  0.34760000  0.53847300  0.57922000  1
  Bi  Bi8  1  0.11122800  0.78519500  0.13085600  1
  Bi  Bi9  1  0.93833800  0.74067700  0.42516600  1
  Bi  Bi10  1  0.43656100  0.23298400  0.40143200  1
  Bi  Bi11  1  0.18413500  0.49276100  0.91295300  1
  Bi  Bi12  1  0.02528500  0.43914200  0.21871900  1
  Bi  Bi13  1  0.26994600  0.16738800  0.66607800  1
  Bi  Bi14  1  0.74298900  0.34968000  0.82222400  1
  Bi  Bi15  1  0.24172500  0.83419500  0.79803600  1
  Bi  Bi16  1  0.66958200  0.97824400  0.87878000  1
  W  W17  1  0.84587300  0.35235200  0.49686700  1
  W  W18  1  0.11120800  0.12570700  0.00569500  1
  W  W19  1  0.39558000  0.91137800  0.51502300  1
  O  O20  1  0.20904100  0.74004200  0.97242300  1
  O  O21  1  0.47800200  0.01045600  0.98012400  1
  O  O22  1  0.38009600  0.95769600  0.30448500  1
  O  O23  1  0.43187900  0.65251500  0.11618400  1
  O  O24  1  0.74200900  0.89254400  0.12398400  1
  O  O25  1  0.68240000  0.34538600  0.57690000  1
  O  O26  1  0.99058300  0.35080400  0.41462600  1
  O  O27  1  0.75394400  0.10134000  0.41130800  1
  O  O28  1  0.53652000  0.84176700  0.43819600  1
  O  O29  1  0.74343700  0.58197900  0.19559200  1
  O  O30  1  0.32161400  0.27374800  0.14406100  1
  O  O31  1  0.94995800  0.34922600  0.67992500  1
  O  O32  1  0.09579200  0.01223100  0.13749700  1
  O  O33  1  0.04990800  0.50196100  0.03484200  1
  O  O34  1  0.75771000  0.27544900  0.02100200  1
  O  O35  1  0.53189500  0.52367400  0.51777200  1
  O  O36  1  0.27858400  0.27966900  0.50748900  1
  O  O37  1  0.01698100  0.97662400  0.44167000  1
  O  O38  1  0.77391300  0.77398000  0.51119900  1
  O  O39  1  0.67241300  0.28336100  0.30550800  1
  O  O40  1  0.17978100  0.74720600  0.35587200  1
  O  O41  1  0.59435300  0.70315400  0.79592500  1
  O  O42  1  0.10970600  0.24084200  0.89478900  1
  O  O43  1  0.86919200  0.95732000  0.83552200  1
  O  O44  1  0.93741400  0.57018800  0.57235600  1
  O  O45  1  0.00406700  0.20696400  0.10953300  1
  O  O46  1  0.26372800  0.94581700  0.64324000  1
  O  O47  1  0.40690500  0.11524200  0.55241800  1
  O  O48  1  0.82643800  0.63272200  0.93190000  1
  O  O49  1  0.52934300  0.33160000  0.85489400  1
  O  O50  1  0.14942400  0.97975300  0.88047800  1
  O  O51  1  0.27746800  0.51467000  0.34881500  1
  O  O52  1  0.42999400  0.81120500  0.64754800  1
  O  O53  1  0.65157000  0.07944700  0.70055300  1
