# generated using pymatgen
data_Ti5Fe11O24
_symmetry_space_group_name_H-M   'P 1'
_cell_length_a   5.53915800
_cell_length_b   9.14850058
_cell_length_c   9.16015664
_cell_angle_alpha   68.49942817
_cell_angle_beta   85.28037202
_cell_angle_gamma   85.01354387
_symmetry_Int_Tables_number   1
_chemical_formula_structural   Ti5Fe11O24
_chemical_formula_sum   'Ti5 Fe11 O24'
_cell_volume   429.61793136
_cell_formula_units_Z   1
loop_
 _symmetry_equiv_pos_site_id
 _symmetry_equiv_pos_as_xyz
  1  'x, y, z'
loop_
 _atom_site_type_symbol
 _atom_site_label
 _atom_site_symmetry_multiplicity
 _atom_site_fract_x
 _atom_site_fract_y
 _atom_site_fract_z
 _atom_site_occupancy
  Ti  Ti0  1  0.70894400  0.42633500  0.42413000  1
  Ti  Ti1  1  0.28933700  0.57002200  0.57092200  1
  Ti  Ti2  1  0.20523500  0.92988500  0.42600400  1
  Ti  Ti3  1  0.70520000  0.92990400  0.92688600  1
  Ti  Ti4  1  0.20834500  0.42203000  0.92821300  1
  Fe  Fe5  1  0.28770600  0.07373800  0.06902000  1
  Fe  Fe6  1  0.70912200  0.17819800  0.17830400  1
  Fe  Fe7  1  0.79366800  0.57257900  0.07502400  1
  Fe  Fe8  1  0.21252800  0.67584400  0.17483900  1
  Fe  Fe9  1  0.78928500  0.07273500  0.57559400  1
  Fe  Fe10  1  0.29202300  0.31960500  0.32477400  1
  Fe  Fe11  1  0.78932000  0.82316100  0.31991200  1
  Fe  Fe12  1  0.70969000  0.67923600  0.67661200  1
  Fe  Fe13  1  0.78672500  0.32163300  0.82231900  1
  Fe  Fe14  1  0.19451400  0.17380900  0.67549400  1
  Fe  Fe15  1  0.29308300  0.82401000  0.82476300  1
  O  O16  1  0.85968700  0.37488400  0.03320400  1
  O  O17  1  0.84543600  0.78282600  0.11004900  1
  O  O18  1  0.35954900  0.28411000  0.10653900  1
  O  O19  1  0.97832800  0.47661700  0.28523900  1
  O  O20  1  0.35500200  0.88201600  0.01709800  1
  O  O21  1  0.00420200  0.03167800  0.22517700  1
  O  O22  1  0.50989500  0.52235900  0.22683100  1
  O  O23  1  0.66380200  0.22166300  0.37545800  1
  O  O24  1  0.84306700  0.28074600  0.60941700  1
  O  O25  1  0.47533200  0.98039200  0.28222400  1
  O  O26  1  0.15899000  0.10997100  0.47733600  1
  O  O27  1  0.64697600  0.61132200  0.48384000  1
  O  O28  1  0.85209700  0.87405400  0.53012900  1
  O  O29  1  0.34618400  0.38638900  0.53129700  1
  O  O30  1  0.50783600  0.02366400  0.72626700  1
  O  O31  1  0.16414500  0.71965800  0.38941700  1
  O  O32  1  0.34940300  0.78477600  0.61867000  1
  O  O33  1  0.48425300  0.48004700  0.78057600  1
  O  O34  1  0.99109900  0.96841600  0.78631200  1
  O  O35  1  0.65902500  0.10690600  0.98357100  1
  O  O36  1  0.01028000  0.53558100  0.71551400  1
  O  O37  1  0.64998800  0.72233100  0.87407200  1
  O  O38  1  0.15579000  0.22954100  0.87633000  1
  O  O39  1  0.15491000  0.61732900  0.96262100  1
