# generated using pymatgen
data_V2Cu(PO4)3
_symmetry_space_group_name_H-M   'P 1'
_cell_length_a   8.62611637
_cell_length_b   8.62611721
_cell_length_c   8.62611746
_cell_angle_alpha   59.85521412
_cell_angle_beta   59.85520782
_cell_angle_gamma   59.85520361
_symmetry_Int_Tables_number   1
_chemical_formula_structural   V2Cu(PO4)3
_chemical_formula_sum   'V4 Cu2 P6 O24'
_cell_volume   452.37823260
_cell_formula_units_Z   2
loop_
 _symmetry_equiv_pos_site_id
 _symmetry_equiv_pos_as_xyz
  1  'x, y, z'
loop_
 _atom_site_type_symbol
 _atom_site_label
 _atom_site_symmetry_multiplicity
 _atom_site_fract_x
 _atom_site_fract_y
 _atom_site_fract_z
 _atom_site_occupancy
  V  V0  1  0.14225200  0.14225200  0.14225200  1
  V  V1  1  0.35774800  0.35774800  0.35774800  1
  V  V2  1  0.64225200  0.64225200  0.64225200  1
  V  V3  1  0.85774800  0.85774800  0.85774800  1
  Cu  Cu4  1  0.00000000  0.00000000  0.00000000  1
  Cu  Cu5  1  0.50000000  0.50000000  0.50000000  1
  P  P6  1  0.03998900  0.75000000  0.46001100  1
  P  P7  1  0.46001100  0.03998900  0.75000000  1
  P  P8  1  0.75000000  0.46001100  0.03998900  1
  P  P9  1  0.25000000  0.53998900  0.96001100  1
  P  P10  1  0.53998900  0.96001100  0.25000000  1
  P  P11  1  0.96001100  0.25000000  0.53998900  1
  O  O12  1  0.12427300  0.30228900  0.50401700  1
  O  O13  1  0.30228900  0.50401700  0.12427300  1
  O  O14  1  0.05803200  0.91701700  0.26921600  1
  O  O15  1  0.50401700  0.12427300  0.30228900  1
  O  O16  1  0.00401700  0.80228900  0.62427300  1
  O  O17  1  0.23078400  0.58298300  0.44196800  1
  O  O18  1  0.26921600  0.05803200  0.91701700  1
  O  O19  1  0.44196800  0.23078400  0.58298300  1
  O  O20  1  0.19771100  0.37572700  0.99598300  1
  O  O21  1  0.58298300  0.44196800  0.23078400  1
  O  O22  1  0.08298300  0.73078400  0.94196800  1
  O  O23  1  0.37572700  0.99598300  0.19771100  1
  O  O24  1  0.62427300  0.00401700  0.80228900  1
  O  O25  1  0.91701700  0.26921600  0.05803200  1
  O  O26  1  0.41701700  0.55803200  0.76921600  1
  O  O27  1  0.80228900  0.62427300  0.00401700  1
  O  O28  1  0.55803200  0.76921600  0.41701700  1
  O  O29  1  0.73078400  0.94196800  0.08298300  1
  O  O30  1  0.76921600  0.41701700  0.55803200  1
  O  O31  1  0.99598300  0.19771100  0.37572700  1
  O  O32  1  0.49598300  0.87572700  0.69771100  1
  O  O33  1  0.94196800  0.08298300  0.73078400  1
  O  O34  1  0.69771100  0.49598300  0.87572700  1
  O  O35  1  0.87572700  0.69771100  0.49598300  1
