# generated using pymatgen
data_Ti2Sn3O10
_symmetry_space_group_name_H-M   'P 1'
_cell_length_a   4.76039417
_cell_length_b   4.76039417
_cell_length_c   15.72266700
_cell_angle_alpha   90.00000000
_cell_angle_beta   90.00000000
_cell_angle_gamma   90.08813670
_symmetry_Int_Tables_number   1
_chemical_formula_structural   Ti2Sn3O10
_chemical_formula_sum   'Ti4 Sn6 O20'
_cell_volume   356.29647934
_cell_formula_units_Z   2
loop_
 _symmetry_equiv_pos_site_id
 _symmetry_equiv_pos_as_xyz
  1  'x, y, z'
loop_
 _atom_site_type_symbol
 _atom_site_label
 _atom_site_symmetry_multiplicity
 _atom_site_fract_x
 _atom_site_fract_y
 _atom_site_fract_z
 _atom_site_occupancy
  Ti  Ti0  1  0.00000000  0.00000000  0.99594000  1
  Ti  Ti1  1  0.00000000  0.00000000  0.59700800  1
  Ti  Ti2  1  0.00000000  0.00000000  0.40349000  1
  Ti  Ti3  1  0.50000000  0.50000000  0.90312700  1
  Sn  Sn4  1  0.00000000  0.00000000  0.80126300  1
  Sn  Sn5  1  0.00000000  0.00000000  0.19996100  1
  Sn  Sn6  1  0.50000000  0.50000000  0.30195600  1
  Sn  Sn7  1  0.50000000  0.50000000  0.50078300  1
  Sn  Sn8  1  0.50000000  0.50000000  0.70050400  1
  Sn  Sn9  1  0.50000000  0.50000000  0.09560600  1
  O  O10  1  0.81434300  0.18565700  0.50040400  1
  O  O11  1  0.80165500  0.19834500  0.90538100  1
  O  O12  1  0.80993900  0.19006100  0.69566200  1
  O  O13  1  0.80995100  0.19004900  0.30577800  1
  O  O14  1  0.80994800  0.19005200  0.09405700  1
  O  O15  1  0.30130000  0.30130000  0.99322100  1
  O  O16  1  0.30960900  0.30960900  0.80523300  1
  O  O17  1  0.30609100  0.30609100  0.19908100  1
  O  O18  1  0.29681200  0.29681200  0.59943300  1
  O  O19  1  0.29676500  0.29676500  0.40193100  1
  O  O20  1  0.69870000  0.69870000  0.99322100  1
  O  O21  1  0.69039100  0.69039100  0.80523300  1
  O  O22  1  0.70318800  0.70318800  0.59943300  1
  O  O23  1  0.70323500  0.70323500  0.40193100  1
  O  O24  1  0.69390900  0.69390900  0.19908100  1
  O  O25  1  0.18565700  0.81434300  0.50040400  1
  O  O26  1  0.19834500  0.80165500  0.90538100  1
  O  O27  1  0.19006100  0.80993900  0.69566200  1
  O  O28  1  0.19004900  0.80995100  0.30577800  1
  O  O29  1  0.19005200  0.80994800  0.09405700  1
