# generated using pymatgen
data_Be(HO)2
_symmetry_space_group_name_H-M   'P 1'
_cell_length_a   10.89520124
_cell_length_b   4.77683100
_cell_length_c   8.64051006
_cell_angle_alpha   90.00000000
_cell_angle_beta   95.62661421
_cell_angle_gamma   90.00000000
_symmetry_Int_Tables_number   1
_chemical_formula_structural   Be(HO)2
_chemical_formula_sum   'Be12 H24 O24'
_cell_volume   447.52470010
_cell_formula_units_Z   12
loop_
 _symmetry_equiv_pos_site_id
 _symmetry_equiv_pos_as_xyz
  1  'x, y, z'
loop_
 _atom_site_type_symbol
 _atom_site_label
 _atom_site_symmetry_multiplicity
 _atom_site_fract_x
 _atom_site_fract_y
 _atom_site_fract_z
 _atom_site_occupancy
  Be  Be0  1  0.67720900  0.07484700  0.59209000  1
  Be  Be1  1  0.32279100  0.57484700  0.40791000  1
  Be  Be2  1  0.68623000  0.58251200  0.78349900  1
  Be  Be3  1  0.31377000  0.08251200  0.21650100  1
  Be  Be4  1  0.67745900  0.87342700  0.07996000  1
  Be  Be5  1  0.32254100  0.37342700  0.92004000  1
  Be  Be6  1  0.30201400  0.81153500  0.71452700  1
  Be  Be7  1  0.69798600  0.31153500  0.28547300  1
  Be  Be8  1  0.08775800  0.71742100  0.53588400  1
  Be  Be9  1  0.91224200  0.21742100  0.46411600  1
  Be  Be10  1  0.91938500  0.73462700  0.97724700  1
  Be  Be11  1  0.08061500  0.23462700  0.02275300  1
  H  H12  1  0.65255000  0.62639800  0.53751900  1
  H  H13  1  0.34745000  0.12639800  0.46248100  1
  H  H14  1  0.35815400  0.83980500  0.96177800  1
  H  H15  1  0.64184600  0.33980500  0.03822200  1
  H  H16  1  0.37805400  0.36280800  0.67538700  1
  H  H17  1  0.62194600  0.86280800  0.32461300  1
  H  H18  1  0.68115400  0.13493200  0.83200100  1
  H  H19  1  0.31884600  0.63493200  0.16799900  1
  H  H20  1  0.86376600  0.03102600  0.68719500  1
  H  H21  1  0.13623400  0.53102600  0.31280500  1
  H  H22  1  0.47408100  0.71561100  0.59470200  1
  H  H23  1  0.52591900  0.21561100  0.40529800  1
  H  H24  1  0.04983800  0.33063500  0.64431800  1
  H  H25  1  0.95016200  0.83063500  0.35568200  1
  H  H26  1  0.87845600  0.55604800  0.73494400  1
  H  H27  1  0.12154400  0.05604800  0.26505600  1
  H  H28  1  0.15100000  0.53403500  0.84158900  1
  H  H29  1  0.84900000  0.03403500  0.15841100  1
  H  H30  1  0.48265500  0.19607900  0.77065200  1
  H  H31  1  0.51734500  0.69607900  0.22934800  1
  H  H32  1  0.06552500  0.92173300  0.83976300  1
  H  H33  1  0.93447500  0.42173300  0.16023700  1
  H  H34  1  0.52710800  0.70015300  0.91167200  1
  H  H35  1  0.47289200  0.20015300  0.08832800  1
  O  O36  1  0.62762600  0.74589900  0.62061600  1
  O  O37  1  0.37237400  0.24589900  0.37938400  1
  O  O38  1  0.63549000  0.24660800  0.75074700  1
  O  O39  1  0.36451000  0.74660800  0.24925300  1
  O  O40  1  0.61778400  0.18995800  0.42221500  1
  O  O41  1  0.38221600  0.68995800  0.57778500  1
  O  O42  1  0.81897100  0.09141500  0.58982800  1
  O  O43  1  0.18102900  0.59141500  0.41017200  1
  O  O44  1  0.61920900  0.70103000  0.93193000  1
  O  O45  1  0.38079200  0.20103000  0.06807000  1
  O  O46  1  0.83016300  0.61785900  0.81957400  1
  O  O47  1  0.16983700  0.11785900  0.18042500  1
  O  O48  1  0.62696000  0.19534800  0.11543900  1
  O  O49  1  0.37304000  0.69534800  0.88456100  1
  O  O50  1  0.82004200  0.87901400  0.08732400  1
  O  O51  1  0.17995800  0.37901400  0.91267600  1
  O  O52  1  0.61139900  0.71019100  0.24425100  1
  O  O53  1  0.38860100  0.21019100  0.75574900  1
  O  O54  1  0.99618600  0.44892000  0.57447800  1
  O  O55  1  0.00381400  0.94892000  0.42552200  1
  O  O56  1  0.01250200  0.97464600  0.92282700  1
  O  O57  1  0.98749800  0.47464600  0.07717300  1
  O  O58  1  0.16561600  0.81748100  0.69060600  1
  O  O59  1  0.83438400  0.31748100  0.30939400  1
