# generated using pymatgen
data_Na2Th(SO6)3
_symmetry_space_group_name_H-M   'P 1'
_cell_length_a   17.38247900
_cell_length_b   5.39575200
_cell_length_c   17.05889006
_cell_angle_alpha   89.44335642
_cell_angle_beta   90.00000000
_cell_angle_gamma   90.00000000
_symmetry_Int_Tables_number   1
_chemical_formula_structural   Na2Th(SO6)3
_chemical_formula_sum   'Na8 Th4 S12 O72'
_cell_volume   1599.90416104
_cell_formula_units_Z   4
loop_
 _symmetry_equiv_pos_site_id
 _symmetry_equiv_pos_as_xyz
  1  'x, y, z'
loop_
 _atom_site_type_symbol
 _atom_site_label
 _atom_site_symmetry_multiplicity
 _atom_site_fract_x
 _atom_site_fract_y
 _atom_site_fract_z
 _atom_site_occupancy
  Na  Na0  1  0.20903800  0.49902700  0.94254700  1
  Na  Na1  1  0.70903800  0.50097300  0.55745300  1
  Na  Na2  1  0.79096200  0.50097300  0.05745300  1
  Na  Na3  1  0.29096200  0.49902700  0.44254700  1
  Na  Na4  1  0.11537400  0.47386300  0.60476900  1
  Na  Na5  1  0.61537400  0.52613700  0.89523100  1
  Na  Na6  1  0.88462600  0.52613700  0.39523100  1
  Na  Na7  1  0.38462600  0.47386300  0.10476900  1
  Th  Th8  1  0.41990900  0.16080100  0.74750900  1
  Th  Th9  1  0.91990900  0.83919900  0.75249100  1
  Th  Th10  1  0.58009100  0.83919900  0.25249100  1
  Th  Th11  1  0.08009100  0.16080100  0.24750900  1
  S  S12  1  0.06695800  0.32136900  0.79607400  1
  S  S13  1  0.56695800  0.67863100  0.70392600  1
  S  S14  1  0.93304200  0.67863100  0.20392600  1
  S  S15  1  0.43304200  0.32136900  0.29607400  1
  S  S16  1  0.30225000  0.67336900  0.64849700  1
  S  S17  1  0.80225000  0.32663100  0.85150300  1
  S  S18  1  0.69775000  0.32663100  0.35150300  1
  S  S19  1  0.19775000  0.67336900  0.14849700  1
  S  S20  1  0.41344700  0.66320500  0.90537600  1
  S  S21  1  0.91344700  0.33679500  0.59462400  1
  S  S22  1  0.58655300  0.33679500  0.09462400  1
  S  S23  1  0.08655300  0.66320500  0.40537600  1
  O  O24  1  0.00428700  0.12762000  0.80485900  1
  O  O25  1  0.50428700  0.87238000  0.69514100  1
  O  O26  1  0.99571300  0.87238000  0.19514100  1
  O  O27  1  0.49571300  0.12762000  0.30485900  1
  O  O28  1  0.20625800  0.25025800  0.52032900  1
  O  O29  1  0.70625800  0.74974200  0.97967100  1
  O  O30  1  0.79374200  0.74974200  0.47967100  1
  O  O31  1  0.29374200  0.25025800  0.02032900  1
  O  O32  1  0.11350600  0.27060500  0.72782100  1
  O  O33  1  0.61350600  0.72939500  0.77217900  1
  O  O34  1  0.88649400  0.72939500  0.27217900  1
  O  O35  1  0.38649400  0.27060500  0.22782100  1
  O  O36  1  0.98933200  0.29633800  0.56270800  1
  O  O37  1  0.48933200  0.70366200  0.93729200  1
  O  O38  1  0.01066800  0.70366200  0.43729200  1
  O  O39  1  0.51066800  0.29633800  0.06270800  1
  O  O40  1  0.49142600  0.23426000  0.55496200  1
  O  O41  1  0.99142600  0.76574000  0.94503800  1
  O  O42  1  0.50857400  0.76574000  0.44503800  1
  O  O43  1  0.00857400  0.23426000  0.05496200  1
  O  O44  1  0.10854500  0.34229800  0.86995700  1
  O  O45  1  0.60854500  0.65770200  0.63004300  1
  O  O46  1  0.89145500  0.65770200  0.13004300  1
  O  O47  1  0.39145500  0.34229800  0.36995700  1
  O  O48  1  0.25106700  0.10421300  0.83057600  1
  O  O49  1  0.75106700  0.89578700  0.66942400  1
  O  O50  1  0.74893300  0.89578700  0.16942400  1
  O  O51  1  0.24893300  0.10421300  0.33057600  1
  O  O52  1  0.02346000  0.56842100  0.78349600  1
  O  O53  1  0.52346000  0.43157900  0.71650400  1
  O  O54  1  0.97654000  0.43157900  0.21650400  1
  O  O55  1  0.47654000  0.56842100  0.28349600  1
  O  O56  1  0.02643000  0.77298500  0.66358900  1
  O  O57  1  0.52643000  0.22701500  0.83641100  1
  O  O58  1  0.97357000  0.22701500  0.33641100  1
  O  O59  1  0.47357000  0.77298500  0.16358900  1
  O  O60  1  0.05989100  0.81862300  0.95217300  1
  O  O61  1  0.55989100  0.18137700  0.54782700  1
  O  O62  1  0.94010900  0.18137700  0.04782700  1
  O  O63  1  0.44010900  0.81862300  0.45217300  1
  O  O64  1  0.39367900  0.86041200  0.84500500  1
  O  O65  1  0.89367900  0.13958800  0.65499500  1
  O  O66  1  0.60632100  0.13958800  0.15499500  1
  O  O67  1  0.10632100  0.86041200  0.34500500  1
  O  O68  1  0.31767300  0.62172900  0.56540000  1
  O  O69  1  0.81767300  0.37827100  0.93460000  1
  O  O70  1  0.68232700  0.37827100  0.43460000  1
  O  O71  1  0.18232700  0.62172900  0.06540000  1
  O  O72  1  0.34585000  0.48134000  0.69798500  1
  O  O73  1  0.84585000  0.51866000  0.80201500  1
  O  O74  1  0.65415000  0.51866000  0.30201500  1
  O  O75  1  0.15415000  0.48134000  0.19798500  1
  O  O76  1  0.22141100  0.67153900  0.66908000  1
  O  O77  1  0.72141100  0.32846100  0.83092000  1
  O  O78  1  0.77858900  0.32846100  0.33092000  1
  O  O79  1  0.27858900  0.67153900  0.16908000  1
  O  O80  1  0.21845500  0.90367800  0.83851900  1
  O  O81  1  0.71845500  0.09632200  0.66148100  1
  O  O82  1  0.78154500  0.09632200  0.16148100  1
  O  O83  1  0.28154500  0.90367800  0.33851900  1
  O  O84  1  0.33752300  0.92194100  0.66898100  1
  O  O85  1  0.83752300  0.07805900  0.83101900  1
  O  O86  1  0.66247700  0.07805900  0.33101900  1
  O  O87  1  0.16247700  0.92194100  0.16898100  1
  O  O88  1  0.41023500  0.41586400  0.86177300  1
  O  O89  1  0.91023500  0.58413600  0.63822700  1
  O  O90  1  0.58976500  0.58413600  0.13822700  1
  O  O91  1  0.08976500  0.41586400  0.36177300  1
  O  O92  1  0.35035000  0.65119100  0.96394300  1
  O  O93  1  0.85035000  0.34880900  0.53605700  1
  O  O94  1  0.64965000  0.34880900  0.03605700  1
  O  O95  1  0.14965000  0.65119100  0.46394300  1
