# generated using pymatgen
data_Li7V3P8O29
_symmetry_space_group_name_H-M   'P 1'
_cell_length_a   9.85947600
_cell_length_b   9.86703054
_cell_length_c   13.88665355
_cell_angle_alpha   90.29085704
_cell_angle_beta   90.01623565
_cell_angle_gamma   119.80118276
_symmetry_Int_Tables_number   1
_chemical_formula_structural   Li7V3P8O29
_chemical_formula_sum   'Li14 V6 P16 O58'
_cell_volume   1172.26895013
_cell_formula_units_Z   2
loop_
 _symmetry_equiv_pos_site_id
 _symmetry_equiv_pos_as_xyz
  1  'x, y, z'
loop_
 _atom_site_type_symbol
 _atom_site_label
 _atom_site_symmetry_multiplicity
 _atom_site_fract_x
 _atom_site_fract_y
 _atom_site_fract_z
 _atom_site_occupancy
  Li  Li0  1  0.77313600  0.68693600  0.93714800  1
  Li  Li1  1  0.90732700  0.67243600  0.43796400  1
  Li  Li2  1  0.32744100  0.23499600  0.43766500  1
  Li  Li3  1  0.66161700  0.32445200  0.61902600  1
  Li  Li4  1  0.66552200  0.33430200  0.11616100  1
  Li  Li5  1  0.31735900  0.08910200  0.93335400  1
  Li  Li6  1  0.91250700  0.22504600  0.93711600  1
  Li  Li7  1  0.76617800  0.09177200  0.43889900  1
  Li  Li8  1  0.09749500  0.77297500  0.05839500  1
  Li  Li9  1  0.68437700  0.90789000  0.05879200  1
  Li  Li10  1  0.66697300  0.76537000  0.56054600  1
  Li  Li11  1  0.10344400  0.33740800  0.56000400  1
  Li  Li12  1  0.22624800  0.32036800  0.06187100  1
  Li  Li13  1  0.03138700  0.97961300  0.50778200  1
  V  V14  1  0.43096200  0.99707400  0.74731000  1
  V  V15  1  0.56142200  0.99902000  0.25261900  1
  V  V16  1  0.00164300  0.56750400  0.25192600  1
  V  V17  1  0.00215100  0.43585700  0.74866300  1
  V  V18  1  0.56194900  0.56640600  0.75070100  1
  V  V19  1  0.43399000  0.43280300  0.25178900  1
  P  P20  1  0.76921100  0.67688800  0.15789800  1
  P  P21  1  0.90797500  0.68412700  0.65551000  1
  P  P22  1  0.31564600  0.22584100  0.65781200  1
  P  P23  1  0.66666400  0.33509000  0.87252600  1
  P  P24  1  0.66789800  0.33263800  0.37573600  1
  P  P25  1  0.31935800  0.08822500  0.15399100  1
  P  P26  1  0.22401600  0.91818200  0.34138500  1
  P  P27  1  0.90731800  0.22989500  0.15745400  1
  P  P28  1  0.08547900  0.76874100  0.84134300  1
  P  P29  1  0.77476200  0.09064900  0.65715800  1
  P  P30  1  0.68009600  0.91374700  0.84277300  1
  P  P31  1  0.33106700  0.66249900  0.62717600  1
  P  P32  1  0.33242500  0.66782700  0.12806700  1
  P  P33  1  0.68480800  0.77157200  0.34334600  1
  P  P34  1  0.08439900  0.31438000  0.34314800  1
  P  P35  1  0.23129200  0.32059500  0.84322600  1
  O  O36  1  0.77849500  0.77671200  0.43183300  1
  O  O37  1  0.74217800  0.66325800  0.65757600  1
  O  O38  1  0.99314800  0.75169000  0.93165100  1
  O  O39  1  0.92170400  0.66629200  0.15824000  1
  O  O40  1  0.63136200  0.51076500  0.17301200  1
  O  O41  1  0.66881900  0.48646100  0.83169300  1
  O  O42  1  0.47892300  0.37580200  0.66930600  1
  O  O43  1  0.24066900  0.24023600  0.93280500  1
  O  O44  1  0.32831500  0.24756300  0.15508100  1
  O  O45  1  0.81329400  0.48704200  0.33700100  1
  O  O46  1  0.89431600  0.52103300  0.66796600  1
  O  O47  1  0.51362400  0.32204900  0.34051000  1
  O  O48  1  0.67623900  0.34308400  0.98104100  1
  O  O49  1  0.67515900  0.32957300  0.48392700  1
  O  O50  1  0.51562200  0.18958800  0.83643900  1
  O  O51  1  0.88378000  0.37303800  0.17564400  1
  O  O52  1  0.81498600  0.33258700  0.83069700  1
  O  O53  1  0.33655500  0.08432000  0.65820300  1
  O  O54  1  0.20614800  0.98952300  0.24063300  1
  O  O55  1  0.20688600  0.01056200  0.42196700  1
  O  O56  1  0.25096200  0.99701900  0.06260600  1
  O  O57  1  0.48693000  0.11469700  0.17511400  1
  O  O58  1  0.67690000  0.18750900  0.33269700  1
  O  O59  1  0.24491100  0.91514000  0.84196300  1
  O  O60  1  0.63214800  0.11237200  0.66570400  1
  O  O61  1  0.92395200  0.25458800  0.65716600  1
  O  O62  1  0.99396500  0.78625300  0.74959800  1
  O  O63  1  0.99051600  0.77064400  0.56582000  1
  O  O64  1  0.99439500  0.23156100  0.43248500  1
  O  O65  1  0.08346200  0.74855200  0.34142500  1
  O  O66  1  0.38226500  0.92246600  0.33709900  1
  O  O67  1  0.74502500  0.08137000  0.15573000  1
  O  O68  1  0.32893700  0.80437900  0.66821000  1
  O  O69  1  0.52291500  0.90245600  0.82765500  1
  O  O70  1  0.76407500  0.00400500  0.93266000  1
  O  O71  1  0.77274300  0.99799400  0.56886500  1
  O  O72  1  0.79178400  0.00438900  0.75065400  1
  O  O73  1  0.66809400  0.91963000  0.34133200  1
  O  O74  1  0.18247100  0.66887900  0.16907100  1
  O  O75  1  0.09548000  0.61918600  0.82288100  1
  O  O76  1  0.48001300  0.81914800  0.17644200  1
  O  O77  1  0.34225100  0.68497100  0.02151500  1
  O  O78  1  0.33552200  0.64639900  0.52040000  1
  O  O79  1  0.48451900  0.66440500  0.67062700  1
  O  O80  1  0.08891200  0.47245000  0.32756700  1
  O  O81  1  0.18452700  0.50813500  0.66850200  1
  O  O82  1  0.66787600  0.75132200  0.84152200  1
  O  O83  1  0.78975000  0.78771800  0.24895200  1
  O  O84  1  0.75416300  0.75449000  0.06866800  1
  O  O85  1  0.52888100  0.62331600  0.33295100  1
  O  O86  1  0.33115800  0.51962600  0.16517200  1
  O  O87  1  0.37877200  0.47967600  0.82844600  1
  O  O88  1  0.08237700  0.33495000  0.84184000  1
  O  O89  1  0.00143800  0.24826400  0.06836500  1
  O  O90  1  0.99572300  0.21014000  0.24906700  1
  O  O91  1  0.24678500  0.33218400  0.34309400  1
  O  O92  1  0.22744800  0.22943000  0.56864500  1
  O  O93  1  0.21090800  0.21242300  0.75041100  1
