# generated using pymatgen
data_Ba2Zn(P3O14)2
_symmetry_space_group_name_H-M   'P 1'
_cell_length_a   13.32657118
_cell_length_b   13.32657118
_cell_length_c   13.76308150
_cell_angle_alpha   82.44884492
_cell_angle_beta   82.44884492
_cell_angle_gamma   33.44361976
_symmetry_Int_Tables_number   1
_chemical_formula_structural   Ba2Zn(P3O14)2
_chemical_formula_sum   'Ba4 Zn2 P12 O56'
_cell_volume   1334.34562035
_cell_formula_units_Z   2
loop_
 _symmetry_equiv_pos_site_id
 _symmetry_equiv_pos_as_xyz
  1  'x, y, z'
loop_
 _atom_site_type_symbol
 _atom_site_label
 _atom_site_symmetry_multiplicity
 _atom_site_fract_x
 _atom_site_fract_y
 _atom_site_fract_z
 _atom_site_occupancy
  Ba  Ba0  1  0.09880800  0.47586700  0.28966700  1
  Ba  Ba1  1  0.52413300  0.90119200  0.21033300  1
  Ba  Ba2  1  0.90119200  0.52413300  0.71033300  1
  Ba  Ba3  1  0.47586700  0.09880800  0.78966700  1
  Zn  Zn4  1  0.11280800  0.88719200  0.25000000  1
  Zn  Zn5  1  0.88719200  0.11280800  0.75000000  1
  P  P6  1  0.98906000  0.37519700  0.15419600  1
  P  P7  1  0.62480300  0.01094000  0.34580400  1
  P  P8  1  0.01094000  0.62480300  0.84580400  1
  P  P9  1  0.37519700  0.98906000  0.65419600  1
  P  P10  1  0.93341800  0.86700600  0.38640700  1
  P  P11  1  0.13299400  0.06658200  0.11359300  1
  P  P12  1  0.06658200  0.13299400  0.61359300  1
  P  P13  1  0.86700600  0.93341800  0.88640700  1
  P  P14  1  0.02093200  0.30742300  0.94897000  1
  P  P15  1  0.69257700  0.97906800  0.55103000  1
  P  P16  1  0.97906800  0.69257700  0.05103000  1
  P  P17  1  0.30742300  0.02093200  0.44897000  1
  O  O18  1  0.06710500  0.15408900  0.00491500  1
  O  O19  1  0.84591100  0.93289500  0.49508500  1
  O  O20  1  0.93289500  0.84591100  0.99508500  1
  O  O21  1  0.15408900  0.06710500  0.50491500  1
  O  O22  1  0.92951300  0.43443900  0.04168600  1
  O  O23  1  0.56556100  0.07048700  0.45831400  1
  O  O24  1  0.07048700  0.56556100  0.95831400  1
  O  O25  1  0.43443900  0.92951300  0.54168600  1
  O  O26  1  0.00269500  0.24011900  0.17957300  1
  O  O27  1  0.75988100  0.99730500  0.32042700  1
  O  O28  1  0.99730500  0.75988100  0.82042700  1
  O  O29  1  0.24011900  0.00269500  0.67957300  1
  O  O30  1  0.83675300  0.53773700  0.21633400  1
  O  O31  1  0.46226300  0.16324700  0.28366600  1
  O  O32  1  0.16324700  0.46226300  0.78366600  1
  O  O33  1  0.53773700  0.83675300  0.71633400  1
  O  O34  1  0.17397200  0.26714700  0.16321600  1
  O  O35  1  0.73285300  0.82602800  0.33678400  1
  O  O36  1  0.82602800  0.73285300  0.83678400  1
  O  O37  1  0.26714700  0.17397200  0.66321600  1
  O  O38  1  0.07948700  0.67038600  0.37255900  1
  O  O39  1  0.32961400  0.92051300  0.12744100  1
  O  O40  1  0.92051300  0.32961400  0.62744100  1
  O  O41  1  0.67038600  0.07948700  0.87255900  1
  O  O42  1  0.98669600  0.93520000  0.36119600  1
  O  O43  1  0.06480000  0.01330400  0.13880400  1
  O  O44  1  0.01330400  0.06480000  0.63880400  1
  O  O45  1  0.93520000  0.98669600  0.86119600  1
  O  O46  1  0.12558300  0.58237200  0.12084300  1
  O  O47  1  0.41762800  0.87441700  0.37915700  1
  O  O48  1  0.87441700  0.41762800  0.87915700  1
  O  O49  1  0.58237200  0.12558300  0.62084300  1
  O  O50  1  0.80707900  0.78248500  0.08931000  1
  O  O51  1  0.21751500  0.19292100  0.41069000  1
  O  O52  1  0.19292100  0.21751500  0.91069000  1
  O  O53  1  0.78248500  0.80707900  0.58931000  1
  O  O54  1  0.94389000  0.51491800  0.49058300  1
  O  O55  1  0.48508200  0.05611000  0.00941700  1
  O  O56  1  0.05611000  0.48508200  0.50941700  1
  O  O57  1  0.51491800  0.94389000  0.99058300  1
  O  O58  1  0.45420600  0.52380900  0.35953800  1
  O  O59  1  0.47619100  0.54579400  0.14046200  1
  O  O60  1  0.54579400  0.47619100  0.64046200  1
  O  O61  1  0.52380900  0.45420600  0.85953800  1
  O  O62  1  0.66134500  0.49110800  0.40312200  1
  O  O63  1  0.50889200  0.33865500  0.09687800  1
  O  O64  1  0.33865500  0.50889200  0.59687800  1
  O  O65  1  0.49110800  0.66134500  0.90312200  1
  O  O66  1  0.33592500  0.60928400  0.15525400  1
  O  O67  1  0.39071600  0.66407500  0.34474600  1
  O  O68  1  0.66407500  0.39071600  0.84474600  1
  O  O69  1  0.60928400  0.33592500  0.65525400  1
  O  O70  1  0.63555600  0.29336700  0.08826300  1
  O  O71  1  0.70663300  0.36444400  0.41173700  1
  O  O72  1  0.36444400  0.70663300  0.91173700  1
  O  O73  1  0.29336700  0.63555600  0.58826300  1
