# generated using pymatgen
data_Ba8CuSi16
_symmetry_space_group_name_H-M   'P 1'
_cell_length_a   8.42489466
_cell_length_b   7.03655519
_cell_length_c   12.32113326
_cell_angle_alpha   93.63067685
_cell_angle_beta   86.20976613
_cell_angle_gamma   93.66467129
_symmetry_Int_Tables_number   1
_chemical_formula_structural   Ba8CuSi16
_chemical_formula_sum   'Ba8 Cu1 Si16'
_cell_volume   726.05427090
_cell_formula_units_Z   1
loop_
 _symmetry_equiv_pos_site_id
 _symmetry_equiv_pos_as_xyz
  1  'x, y, z'
loop_
 _atom_site_type_symbol
 _atom_site_label
 _atom_site_symmetry_multiplicity
 _atom_site_fract_x
 _atom_site_fract_y
 _atom_site_fract_z
 _atom_site_occupancy
  Ba  Ba0  1  0.99165500  0.23250000  0.70489200  1
  Ba  Ba1  1  0.49297300  0.72746700  0.20765700  1
  Ba  Ba2  1  0.99474900  0.74421000  0.29685600  1
  Ba  Ba3  1  0.46884100  0.33845600  0.78087100  1
  Ba  Ba4  1  0.81107400  0.23501900  0.07422900  1
  Ba  Ba5  1  0.67077300  0.77030800  0.58419700  1
  Ba  Ba6  1  0.20977200  0.73681300  0.92694400  1
  Ba  Ba7  1  0.31926000  0.27895100  0.42696200  1
  Cu  Cu8  1  0.03551200  0.25212600  0.26835000  1
  Si  Si9  1  0.42761300  0.24629000  0.07890400  1
  Si  Si10  1  0.06425800  0.76837500  0.57530700  1
  Si  Si11  1  0.60869400  0.75609100  0.92831600  1
  Si  Si12  1  0.92364400  0.28357100  0.43938100  1
  Si  Si13  1  0.18594700  0.22176100  0.97609600  1
  Si  Si14  1  0.32004500  0.77468600  0.46847300  1
  Si  Si15  1  0.83088100  0.73092800  0.04143900  1
  Si  Si16  1  0.66838900  0.25015600  0.52113200  1
  Si  Si17  1  0.19460200  0.06003900  0.14226400  1
  Si  Si18  1  0.30099900  0.94848500  0.64198400  1
  Si  Si19  1  0.81698500  0.54333000  0.86895200  1
  Si  Si20  1  0.70131500  0.40134300  0.35457300  1
  Si  Si21  1  0.89214900  0.87698300  0.86678100  1
  Si  Si22  1  0.67682600  0.03729000  0.82813500  1
  Si  Si23  1  0.19395000  0.42614100  0.13820500  1
  Si  Si24  1  0.28319500  0.60868000  0.63399800  1
