# generated using pymatgen
data_Y11Ta5O28
_symmetry_space_group_name_H-M   'P 1'
_cell_length_a   6.45334104
_cell_length_b   13.02979030
_cell_length_c   7.37129476
_cell_angle_alpha   106.42101524
_cell_angle_beta   89.92171127
_cell_angle_gamma   80.49362388
_symmetry_Int_Tables_number   1
_chemical_formula_structural   Y11Ta5O28
_chemical_formula_sum   'Y11 Ta5 O28'
_cell_volume   585.61643727
_cell_formula_units_Z   1
loop_
 _symmetry_equiv_pos_site_id
 _symmetry_equiv_pos_as_xyz
  1  'x, y, z'
loop_
 _atom_site_type_symbol
 _atom_site_label
 _atom_site_symmetry_multiplicity
 _atom_site_fract_x
 _atom_site_fract_y
 _atom_site_fract_z
 _atom_site_occupancy
  Y  Y0  1  0.03333000  0.50329200  0.25087300  1
  Y  Y1  1  0.25013600  0.74885300  0.37601400  1
  Y  Y2  1  0.97231800  0.49731600  0.74880400  1
  Y  Y3  1  0.25086600  0.25006200  0.37374300  1
  Y  Y4  1  0.74290500  0.74726700  0.61884100  1
  Y  Y5  1  0.75434800  0.75155700  0.13037100  1
  Y  Y6  1  0.25212500  0.24921700  0.87343400  1
  Y  Y7  1  0.52843500  0.00089100  0.99878100  1
  Y  Y8  1  0.77246600  0.22959400  0.11428900  1
  Y  Y9  1  0.46725800  0.99527300  0.49706300  1
  Y  Y10  1  0.72928700  0.26842000  0.63384100  1
  Ta  Ta11  1  0.24989800  0.74897100  0.87458800  1
  Ta  Ta12  1  0.99156400  0.00374500  0.73597100  1
  Ta  Ta13  1  0.50918700  0.49411600  0.48074700  1
  Ta  Ta14  1  0.50943100  0.49477700  0.01180600  1
  Ta  Ta15  1  0.99165600  0.00418900  0.26680100  1
  O  O16  1  0.12993900  0.94097800  0.46969000  1
  O  O17  1  0.89500900  0.03274400  0.01592400  1
  O  O18  1  0.11019200  0.84139200  0.72221300  1
  O  O19  1  0.10145200  0.83857000  0.11891900  1
  O  O20  1  0.04467800  0.31834200  0.65968400  1
  O  O21  1  0.05389900  0.31831900  0.15833600  1
  O  O22  1  0.52011600  0.81792400  0.91034400  1
  O  O23  1  0.54883700  0.80393000  0.40053700  1
  O  O24  1  0.21844400  0.46043400  0.95573700  1
  O  O25  1  0.71915000  0.94614400  0.69498800  1
  O  O26  1  0.39412300  0.65828800  0.02753700  1
  O  O27  1  0.39842200  0.66008200  0.62819100  1
  O  O28  1  0.71787300  0.94749100  0.25075400  1
  O  O29  1  0.21857500  0.45961200  0.50309800  1
  O  O30  1  0.60685400  0.46527300  0.73185100  1
  O  O31  1  0.37100800  0.55682300  0.27796700  1
  O  O32  1  0.78228300  0.55152400  0.05323500  1
  O  O33  1  0.28215500  0.04026200  0.79199700  1
  O  O34  1  0.28187900  0.03789300  0.24398600  1
  O  O35  1  0.58843900  0.33573900  0.94675800  1
  O  O36  1  0.78266300  0.55025900  0.49621400  1
  O  O37  1  0.58873200  0.33552900  0.38752100  1
  O  O38  1  0.95029500  0.69525700  0.34930400  1
  O  O39  1  0.45761600  0.17993600  0.08935800  1
  O  O40  1  0.44684700  0.18039700  0.58855200  1
  O  O41  1  0.98196600  0.68026200  0.83676900  1
  O  O42  1  0.91136200  0.16268800  0.36028700  1
  O  O43  1  0.90950100  0.16217000  0.80083400  1
