# generated using pymatgen
data_Sr3La4O9
_symmetry_space_group_name_H-M   'P 1'
_cell_length_a   6.97616830
_cell_length_b   6.97616830
_cell_length_c   13.53559925
_cell_angle_alpha   68.58225492
_cell_angle_beta   68.58225492
_cell_angle_gamma   63.54010823
_symmetry_Int_Tables_number   1
_chemical_formula_structural   Sr3La4O9
_chemical_formula_sum   'Sr6 La8 O18'
_cell_volume   532.56066060
_cell_formula_units_Z   2
loop_
 _symmetry_equiv_pos_site_id
 _symmetry_equiv_pos_as_xyz
  1  'x, y, z'
loop_
 _atom_site_type_symbol
 _atom_site_label
 _atom_site_symmetry_multiplicity
 _atom_site_fract_x
 _atom_site_fract_y
 _atom_site_fract_z
 _atom_site_occupancy
  Sr  Sr0  1  0.45804700  0.58352500  0.44686000  1
  Sr  Sr1  1  0.45536400  0.78223900  0.17162400  1
  Sr  Sr2  1  0.58352500  0.45804700  0.94686000  1
  Sr  Sr3  1  0.29175100  0.11777100  0.50233900  1
  Sr  Sr4  1  0.78223900  0.45536400  0.67162400  1
  Sr  Sr5  1  0.11777100  0.29175100  0.00233900  1
  La  La6  1  0.70718300  0.94527700  0.88231000  1
  La  La7  1  0.19578100  0.56610100  0.72178400  1
  La  La8  1  0.94527700  0.70718300  0.38231000  1
  La  La9  1  0.25940300  0.98345700  0.79049600  1
  La  La10  1  0.56610100  0.19578100  0.22178400  1
  La  La11  1  0.02843000  0.76676000  0.08652400  1
  La  La12  1  0.98345700  0.25940300  0.29049600  1
  La  La13  1  0.76676000  0.02843000  0.58652400  1
  O  O14  1  0.08760000  0.70241300  0.90397800  1
  O  O15  1  0.31395000  0.99692500  0.33904900  1
  O  O16  1  0.71960300  0.45857100  0.09552600  1
  O  O17  1  0.03026300  0.67828600  0.55196100  1
  O  O18  1  0.34532400  0.88468200  0.97663100  1
  O  O19  1  0.02032800  0.98352000  0.19733000  1
  O  O20  1  0.65670300  0.78079400  0.76702800  1
  O  O21  1  0.99692500  0.31395000  0.83904900  1
  O  O22  1  0.31849600  0.48546400  0.32581300  1
  O  O23  1  0.45857100  0.71960300  0.59552600  1
  O  O24  1  0.67828600  0.03026300  0.05196100  1
  O  O25  1  0.24682500  0.38291100  0.12851200  1
  O  O26  1  0.88468200  0.34532400  0.47663100  1
  O  O27  1  0.98352000  0.02032800  0.69733000  1
  O  O28  1  0.78079400  0.65670300  0.26702800  1
  O  O29  1  0.48546400  0.31849600  0.82581300  1
  O  O30  1  0.38291100  0.24682500  0.62851200  1
  O  O31  1  0.70241300  0.08760000  0.40397800  1
