# generated using pymatgen
data_VOF
_symmetry_space_group_name_H-M   'P 1'
_cell_length_a   3.10357600
_cell_length_b   4.75421400
_cell_length_c   14.19985200
_cell_angle_alpha   90.00000000
_cell_angle_beta   90.00000000
_cell_angle_gamma   90.00000000
_symmetry_Int_Tables_number   1
_chemical_formula_structural   VOF
_chemical_formula_sum   'V6 O6 F6'
_cell_volume   209.51973171
_cell_formula_units_Z   6
loop_
 _symmetry_equiv_pos_site_id
 _symmetry_equiv_pos_as_xyz
  1  'x, y, z'
loop_
 _atom_site_type_symbol
 _atom_site_label
 _atom_site_symmetry_multiplicity
 _atom_site_fract_x
 _atom_site_fract_y
 _atom_site_fract_z
 _atom_site_occupancy
  V  V0  1  0.00000000  0.72780800  0.00029400  1
  V  V1  1  0.00000000  0.82677900  0.33276300  1
  V  V2  1  0.00000000  0.73141800  0.66695500  1
  V  V3  1  0.50000000  0.26858200  0.16695500  1
  V  V4  1  0.50000000  0.27219200  0.50029400  1
  V  V5  1  0.50000000  0.17322100  0.83276300  1
  O  O6  1  0.50000000  0.98551900  0.26516000  1
  O  O7  1  0.50000000  0.91820500  0.93515500  1
  O  O8  1  0.00000000  0.01448100  0.76516000  1
  O  O9  1  0.00000000  0.08179500  0.43515500  1
  O  O10  1  0.00000000  0.45365000  0.56741600  1
  O  O11  1  0.50000000  0.54635000  0.06741600  1
  F  F12  1  0.50000000  0.94111200  0.60164300  1
  F  F13  1  0.00000000  0.05888800  0.10164300  1
  F  F14  1  0.00000000  0.47524900  0.23485600  1
  F  F15  1  0.00000000  0.41566200  0.89575900  1
  F  F16  1  0.50000000  0.58433800  0.39575900  1
  F  F17  1  0.50000000  0.52475100  0.73485600  1
