# generated using pymatgen
data_Ba4In2O7
_symmetry_space_group_name_H-M   'P 1'
_cell_length_a   14.85759477
_cell_length_b   14.85759477
_cell_length_c   6.04465500
_cell_angle_alpha   90.00000000
_cell_angle_beta   90.00000000
_cell_angle_gamma   156.58677914
_symmetry_Int_Tables_number   1
_chemical_formula_structural   Ba4In2O7
_chemical_formula_sum   'Ba8 In4 O14'
_cell_volume   530.21535512
_cell_formula_units_Z   2
loop_
 _symmetry_equiv_pos_site_id
 _symmetry_equiv_pos_as_xyz
  1  'x, y, z'
loop_
 _atom_site_type_symbol
 _atom_site_label
 _atom_site_symmetry_multiplicity
 _atom_site_fract_x
 _atom_site_fract_y
 _atom_site_fract_z
 _atom_site_occupancy
  Ba  Ba0  1  0.82039600  0.17960400  0.75000000  1
  Ba  Ba1  1  0.94948300  0.05051700  0.75000000  1
  Ba  Ba2  1  0.17960400  0.82039600  0.25000000  1
  Ba  Ba3  1  0.05051700  0.94948300  0.25000000  1
  Ba  Ba4  1  0.68067800  0.31932200  0.75000000  1
  Ba  Ba5  1  0.54757000  0.45243000  0.75000000  1
  Ba  Ba6  1  0.45243000  0.54757000  0.25000000  1
  Ba  Ba7  1  0.31932200  0.68067800  0.25000000  1
  In  In8  1  0.10794300  0.89205700  0.75000000  1
  In  In9  1  0.37988300  0.62011700  0.75000000  1
  In  In10  1  0.89205700  0.10794300  0.25000000  1
  In  In11  1  0.62011700  0.37988300  0.25000000  1
  O  O12  1  0.88413100  0.63259900  0.50799600  1
  O  O13  1  0.03608200  0.96391800  0.75000000  1
  O  O14  1  0.88413100  0.63259900  0.99200400  1
  O  O15  1  0.96391800  0.03608200  0.25000000  1
  O  O16  1  0.36740100  0.11586900  0.50799600  1
  O  O17  1  0.45673100  0.54326900  0.75000000  1
  O  O18  1  0.11586900  0.36740100  0.49200400  1
  O  O19  1  0.30278200  0.69721800  0.75000000  1
  O  O20  1  0.36740100  0.11586900  0.99200400  1
  O  O21  1  0.11586900  0.36740100  0.00799600  1
  O  O22  1  0.63259900  0.88413100  0.49200400  1
  O  O23  1  0.54326900  0.45673100  0.25000000  1
  O  O24  1  0.69721800  0.30278200  0.25000000  1
  O  O25  1  0.63259900  0.88413100  0.00799600  1
