# generated using pymatgen
data_CSNOF5
_symmetry_space_group_name_H-M   'P 1'
_cell_length_a   5.96261932
_cell_length_b   10.78200802
_cell_length_c   13.23823016
_cell_angle_alpha   73.16571883
_cell_angle_beta   91.82044094
_cell_angle_gamma   87.32390743
_symmetry_Int_Tables_number   1
_chemical_formula_structural   CSNOF5
_chemical_formula_sum   'C4 S4 N4 O4 F20'
_cell_volume   812.79940222
_cell_formula_units_Z   4
loop_
 _symmetry_equiv_pos_site_id
 _symmetry_equiv_pos_as_xyz
  1  'x, y, z'
loop_
 _atom_site_type_symbol
 _atom_site_label
 _atom_site_symmetry_multiplicity
 _atom_site_fract_x
 _atom_site_fract_y
 _atom_site_fract_z
 _atom_site_occupancy
  C  C0  1  0.44732300  0.71402100  0.99545400  1
  C  C1  1  0.56779400  0.06529200  0.79732400  1
  C  C2  1  0.43220600  0.93470800  0.20267600  1
  C  C3  1  0.55267700  0.28597900  0.00454600  1
  S  S4  1  0.48955700  0.09869700  0.66238400  1
  S  S5  1  0.96440400  0.61176300  0.71933000  1
  S  S6  1  0.51044300  0.90130300  0.33761600  1
  S  S7  1  0.03559600  0.38823700  0.28067000  1
  N  N8  1  0.63084800  0.05948100  0.88285300  1
  N  N9  1  0.61167900  0.52274800  0.28360100  1
  N  N10  1  0.38832100  0.47725200  0.71639900  1
  N  N11  1  0.36915200  0.94051900  0.11714700  1
  O  O12  1  0.74323600  0.25022700  0.01186000  1
  O  O13  1  0.25676400  0.74977300  0.98814000  1
  O  O14  1  0.36185600  0.32274000  0.99701100  1
  O  O15  1  0.63814400  0.67726000  0.00298900  1
  F  F16  1  0.72204600  0.02872100  0.64301400  1
  F  F17  1  0.81804800  0.55380600  0.63169100  1
  F  F18  1  0.62955000  0.03605300  0.31921700  1
  F  F19  1  0.57645900  0.86361900  0.46100900  1
  F  F20  1  0.26272300  0.31700100  0.26149100  1
  F  F21  1  0.39058600  0.76609100  0.35715600  1
  F  F22  1  0.37045000  0.96394700  0.68078300  1
  F  F23  1  0.95196500  0.28098000  0.37985100  1
  F  F24  1  0.25543100  0.16721400  0.68161500  1
  F  F25  1  0.73727700  0.68299900  0.73850900  1
  F  F26  1  0.74456900  0.83278600  0.31838500  1
  F  F27  1  0.42354100  0.13638100  0.53899100  1
  F  F28  1  0.27795400  0.97127900  0.35698600  1
  F  F29  1  0.04803500  0.71902000  0.62014900  1
  F  F30  1  0.35779100  0.46536300  0.61953100  1
  F  F31  1  0.60941400  0.23390900  0.64284400  1
  F  F32  1  0.10140800  0.68474500  0.79698300  1
  F  F33  1  0.89859200  0.31525500  0.20301700  1
  F  F34  1  0.64220900  0.53463700  0.38046900  1
  F  F35  1  0.18195200  0.44619400  0.36830900  1
