# generated using pymatgen
data_V12Fe6O35
_symmetry_space_group_name_H-M   'P 1'
_cell_length_a   10.28928412
_cell_length_b   9.46856163
_cell_length_c   6.63194048
_cell_angle_alpha   100.71189917
_cell_angle_beta   95.00189075
_cell_angle_gamma   98.42985299
_symmetry_Int_Tables_number   1
_chemical_formula_structural   V12Fe6O35
_chemical_formula_sum   'V12 Fe6 O35'
_cell_volume   623.62900981
_cell_formula_units_Z   1
loop_
 _symmetry_equiv_pos_site_id
 _symmetry_equiv_pos_as_xyz
  1  'x, y, z'
loop_
 _atom_site_type_symbol
 _atom_site_label
 _atom_site_symmetry_multiplicity
 _atom_site_fract_x
 _atom_site_fract_y
 _atom_site_fract_z
 _atom_site_occupancy
  V  V0  1  0.01445600  0.94154600  0.23381600  1
  V  V1  1  0.10552900  0.30195100  0.38324000  1
  V  V2  1  0.18065400  0.71607100  0.21496800  1
  V  V3  1  0.22226900  0.62560500  0.72706100  1
  V  V4  1  0.30019300  0.99940900  0.83726700  1
  V  V5  1  0.42458100  0.31139800  0.20753200  1
  V  V6  1  0.50435800  0.68149900  0.28948100  1
  V  V7  1  0.49311300  0.31705900  0.71240200  1
  V  V8  1  0.70196100  0.00222800  0.16690200  1
  V  V9  1  0.77800700  0.37418800  0.27732000  1
  V  V10  1  0.82138100  0.28469500  0.78539800  1
  V  V11  1  0.89618400  0.69529500  0.61370000  1
  Fe  Fe12  1  0.18500600  0.34902400  0.90813900  1
  Fe  Fe13  1  0.38766500  0.00615500  0.34358300  1
  Fe  Fe14  1  0.61182800  0.99080400  0.65568300  1
  Fe  Fe15  1  0.58681200  0.69327300  0.79761600  1
  Fe  Fe16  1  0.80931500  0.64918500  0.08943100  1
  Fe  Fe17  1  0.98963800  0.05680800  0.74121800  1
  O  O18  1  0.01939400  0.61417400  0.69135100  1
  O  O19  1  0.00424600  0.73062400  0.15637000  1
  O  O20  1  0.03604000  0.12526000  0.42154700  1
  O  O21  1  0.00553700  0.99839900  0.01134900  1
  O  O22  1  0.19406500  0.92383500  0.29813600  1
  O  O23  1  0.21913200  0.83087700  0.85121500  1
  O  O24  1  0.19229300  0.56845500  0.99758700  1
  O  O25  1  0.19319100  0.65102600  0.43043100  1
  O  O26  1  0.18845200  0.40762200  0.62266100  1
  O  O27  1  0.18762100  0.10789200  0.77849200  1
  O  O28  1  0.21331300  0.29840100  0.18958500  1
  O  O29  1  0.40935700  0.98588100  0.64604300  1
  O  O30  1  0.38022600  0.78368100  0.22896900  1
  O  O31  1  0.38751000  0.65482600  0.75294800  1
  O  O32  1  0.39076000  0.33470000  0.91914700  1
  O  O33  1  0.42914000  0.51096500  0.30628400  1
  O  O34  1  0.40724500  0.23192700  0.46120600  1
  O  O35  1  0.38593500  0.09027200  0.08145300  1
  O  O36  1  0.61572700  0.91736900  0.92497300  1
  O  O37  1  0.59169000  0.77047700  0.52769500  1
  O  O38  1  0.56917500  0.48090000  0.69481700  1
  O  O39  1  0.61003800  0.66508200  0.09778000  1
  O  O40  1  0.60369000  0.34045900  0.23780100  1
  O  O41  1  0.61454800  0.21773500  0.77002600  1
  O  O42  1  0.59038300  0.01588400  0.35260800  1
  O  O43  1  0.79040700  0.70479200  0.81179400  1
  O  O44  1  0.82076700  0.89494600  0.22694400  1
  O  O45  1  0.81039200  0.58985700  0.37542900  1
  O  O46  1  0.80419500  0.34767200  0.56490600  1
  O  O47  1  0.80273100  0.42939700  0.00553400  1
  O  O48  1  0.77994300  0.17055500  0.15201100  1
  O  O49  1  0.79915600  0.08320300  0.70556900  1
  O  O50  1  0.96492100  0.86372200  0.56794800  1
  O  O51  1  0.99331300  0.28021100  0.84731500  1
  O  O52  1  0.98251600  0.38272900  0.30731400  1
