# generated using pymatgen
data_MgH16C4S4N2(O4F3)4
_symmetry_space_group_name_H-M   'P 1'
_cell_length_a   14.30692800
_cell_length_b   7.11100100
_cell_length_c   17.93053747
_cell_angle_alpha   73.04956633
_cell_angle_beta   90.00000000
_cell_angle_gamma   90.00000000
_symmetry_Int_Tables_number   1
_chemical_formula_structural   MgH16C4S4N2(O4F3)4
_chemical_formula_sum   'Mg2 H32 C8 S8 N4 O32 F24'
_cell_volume   1744.94379120
_cell_formula_units_Z   2
loop_
 _symmetry_equiv_pos_site_id
 _symmetry_equiv_pos_as_xyz
  1  'x, y, z'
loop_
 _atom_site_type_symbol
 _atom_site_label
 _atom_site_symmetry_multiplicity
 _atom_site_fract_x
 _atom_site_fract_y
 _atom_site_fract_z
 _atom_site_occupancy
  Mg  Mg0  1  0.00000000  0.00000000  0.00000000  1
  Mg  Mg1  1  0.50000000  0.00000000  0.50000000  1
  H  H2  1  0.03689900  0.10881400  0.24667100  1
  H  H3  1  0.21552600  0.41611900  0.67099700  1
  H  H4  1  0.18942100  0.57248200  0.36914100  1
  H  H5  1  0.46310100  0.10881400  0.74667100  1
  H  H6  1  0.62976600  0.05590700  0.29154800  1
  H  H7  1  0.81057900  0.42751800  0.63085900  1
  H  H8  1  0.16776800  0.15854400  0.21198700  1
  H  H9  1  0.78447400  0.58388100  0.32900300  1
  H  H10  1  0.37023400  0.94409300  0.70845200  1
  H  H11  1  0.30813300  0.48960100  0.69716800  1
  H  H12  1  0.80813300  0.51039900  0.80283200  1
  H  H13  1  0.87714100  0.18544300  0.20105000  1
  H  H14  1  0.53689900  0.89118600  0.25332900  1
  H  H15  1  0.83223200  0.84145600  0.78801300  1
  H  H16  1  0.71552600  0.58388100  0.82900300  1
  H  H17  1  0.12976600  0.94409300  0.20845200  1
  H  H18  1  0.75548800  0.04458800  0.58504300  1
  H  H19  1  0.37714100  0.81455700  0.29895000  1
  H  H20  1  0.24451200  0.95541200  0.41495700  1
  H  H21  1  0.28447400  0.41611900  0.17099700  1
  H  H22  1  0.96310100  0.89118600  0.75332900  1
  H  H23  1  0.68942100  0.42751800  0.13085900  1
  H  H24  1  0.25548800  0.95541200  0.91495700  1
  H  H25  1  0.69186700  0.51039900  0.30283200  1
  H  H26  1  0.31057900  0.57248200  0.86914100  1
  H  H27  1  0.12285900  0.81455700  0.79895000  1
  H  H28  1  0.66776800  0.84145600  0.28801300  1
  H  H29  1  0.87023400  0.05590700  0.79154800  1
  H  H30  1  0.62285900  0.18544300  0.70105000  1
  H  H31  1  0.74451200  0.04458800  0.08504300  1
  H  H32  1  0.19186700  0.48960100  0.19716800  1
  H  H33  1  0.33223200  0.15854400  0.71198700  1
  C  C34  1  0.86085100  0.49919000  0.58491200  1
  C  C35  1  0.65562300  0.15246900  0.89359000  1
  C  C36  1  0.84437700  0.15246900  0.39359000  1
  C  C37  1  0.34437700  0.84753100  0.10641000  1
  C  C38  1  0.36085100  0.50081000  0.91508800  1
  C  C39  1  0.13914900  0.50081000  0.41508800  1
  C  C40  1  0.15562300  0.84753100  0.60641000  1
  C  C41  1  0.63914900  0.49919000  0.08491200  1
  S  S42  1  0.64668800  0.18938300  0.42343100  1
  S  S43  1  0.67969300  0.99964300  0.63446900  1
  S  S44  1  0.35331200  0.81061700  0.57656900  1
  S  S45  1  0.85331200  0.18938300  0.92343100  1
  S  S46  1  0.17969300  0.00035700  0.86553100  1
  S  S47  1  0.32030700  0.00035700  0.36553100  1
  S  S48  1  0.14668800  0.81061700  0.07656900  1
  S  S49  1  0.82030700  0.99964300  0.13446900  1
  N  N50  1  0.81784400  0.17767200  0.16744300  1
  N  N51  1  0.18215600  0.82232800  0.83255700  1
  N  N52  1  0.68215600  0.17767200  0.66744300  1
  N  N53  1  0.31784400  0.82232800  0.33255700  1
  O  O54  1  0.22822400  0.36964200  0.20138200  1
  O  O55  1  0.95038700  0.55186100  0.25826600  1
  O  O56  1  0.62343300  0.95199200  0.26586100  1
  O  O57  1  0.77177600  0.63035800  0.79861800  1
  O  O58  1  0.39896100  0.02986800  0.41875700  1
  O  O59  1  0.54842000  0.72797000  0.47835600  1
  O  O60  1  0.04842000  0.27203000  0.02164400  1
  O  O61  1  0.13279200  0.73616100  0.16514000  1
  O  O62  1  0.60547900  0.60755700  0.51998200  1
  O  O63  1  0.89896100  0.97013200  0.08124300  1
  O  O64  1  0.60103900  0.97013200  0.58124300  1
  O  O65  1  0.10103900  0.02986800  0.91875700  1
  O  O66  1  0.72822400  0.63035800  0.29861800  1
  O  O67  1  0.45158000  0.27203000  0.52164400  1
  O  O68  1  0.12343300  0.04800800  0.23413900  1
  O  O69  1  0.04961300  0.44813900  0.74173400  1
  O  O70  1  0.95076700  0.71953900  0.26513900  1
  O  O71  1  0.39452100  0.39244300  0.48001800  1
  O  O72  1  0.54923300  0.71953900  0.76513900  1
  O  O73  1  0.27177600  0.36964200  0.70138200  1
  O  O74  1  0.45076700  0.28046100  0.23486100  1
  O  O75  1  0.36720800  0.73616100  0.66514000  1
  O  O76  1  0.89452100  0.60755700  0.01998200  1
  O  O77  1  0.54961300  0.55186100  0.75826600  1
  O  O78  1  0.04923300  0.28046100  0.73486100  1
  O  O79  1  0.87656700  0.95199200  0.76586100  1
  O  O80  1  0.95158000  0.72797000  0.97835600  1
  O  O81  1  0.63279200  0.26383900  0.33486000  1
  O  O82  1  0.86720800  0.26383900  0.83486000  1
  O  O83  1  0.45038700  0.44813900  0.24173400  1
  O  O84  1  0.37656700  0.04800800  0.73413900  1
  O  O85  1  0.10547900  0.39244300  0.98001800  1
  F  F86  1  0.56227000  0.38540500  0.08818500  1
  F  F87  1  0.97226200  0.15986800  0.25928000  1
  F  F88  1  0.61134300  0.67638300  0.09190700  1
  F  F89  1  0.17866700  0.46938100  0.48701900  1
  F  F90  1  0.66348700  0.97732400  0.88113700  1
  F  F91  1  0.11134300  0.32361700  0.40809300  1
  F  F92  1  0.33651300  0.02267600  0.11886300  1
  F  F93  1  0.47226200  0.84013200  0.24072000  1
  F  F94  1  0.67866700  0.53061900  0.01298100  1
  F  F95  1  0.43773000  0.61459500  0.91181500  1
  F  F96  1  0.02773800  0.84013200  0.74072000  1
  F  F97  1  0.06227000  0.61459500  0.41181500  1
  F  F98  1  0.90151300  0.12168300  0.45449700  1
  F  F99  1  0.09848700  0.87831700  0.54550300  1
  F  F100  1  0.38865700  0.32361700  0.90809300  1
  F  F101  1  0.16348700  0.02267600  0.61886300  1
  F  F102  1  0.83651300  0.97732400  0.38113700  1
  F  F103  1  0.52773800  0.15986800  0.75928000  1
  F  F104  1  0.93773000  0.38540500  0.58818500  1
  F  F105  1  0.32133300  0.46938100  0.98701900  1
  F  F106  1  0.40151300  0.87831700  0.04550300  1
  F  F107  1  0.82133300  0.53061900  0.51298100  1
  F  F108  1  0.59848700  0.12168300  0.95449700  1
  F  F109  1  0.88865700  0.67638300  0.59190700  1
