# generated using pymatgen
data_FeBi25O39
_symmetry_space_group_name_H-M   'P 1'
_cell_length_a   8.97004700
_cell_length_b   8.97143979
_cell_length_c   14.61159603
_cell_angle_alpha   90.18273982
_cell_angle_beta   90.08104058
_cell_angle_gamma   109.56518163
_symmetry_Int_Tables_number   1
_chemical_formula_structural   FeBi25O39
_chemical_formula_sum   'Fe1 Bi25 O39'
_cell_volume   1107.95489913
_cell_formula_units_Z   1
loop_
 _symmetry_equiv_pos_site_id
 _symmetry_equiv_pos_as_xyz
  1  'x, y, z'
loop_
 _atom_site_type_symbol
 _atom_site_label
 _atom_site_symmetry_multiplicity
 _atom_site_fract_x
 _atom_site_fract_y
 _atom_site_fract_z
 _atom_site_occupancy
  Fe  Fe0  1  0.50033700  0.50159200  0.50001700  1
  Bi  Bi1  1  0.56558300  0.76776200  0.91747500  1
  Bi  Bi2  1  0.23418600  0.38856600  0.90790100  1
  Bi  Bi3  1  0.17232000  0.49167000  0.64719800  1
  Bi  Bi4  1  0.52953100  0.82984100  0.65951400  1
  Bi  Bi5  1  0.33253700  0.02474700  0.83030300  1
  Bi  Bi6  1  0.99195200  0.64023500  0.84151400  1
  Bi  Bi7  1  0.24194600  0.73599500  0.43045000  1
  Bi  Bi8  1  0.08271200  0.94264600  0.24913500  1
  Bi  Bi9  1  0.57915100  0.44507100  0.74444500  1
  Bi  Bi10  1  0.73379900  0.23460400  0.92916100  1
  Bi  Bi11  1  0.08969000  0.27625200  0.41632300  1
  Bi  Bi12  1  0.90083100  0.73009600  0.59442900  1
  Bi  Bi13  1  0.27893800  0.08807600  0.57999400  1
  Bi  Bi14  1  0.73337900  0.90120700  0.40629800  1
  Bi  Bi15  1  0.93705400  0.09015500  0.73959300  1
  Bi  Bi16  1  0.44405400  0.57945800  0.25681000  1
  Bi  Bi17  1  0.73288600  0.25257600  0.56552200  1
  Bi  Bi18  1  0.23092300  0.73531400  0.07610500  1
  Bi  Bi19  1  0.02293900  0.32687200  0.16722800  1
  Bi  Bi20  1  0.65307600  0.98668300  0.15577200  1
  Bi  Bi21  1  0.83054700  0.52514400  0.33742100  1
  Bi  Bi22  1  0.48588100  0.16114900  0.34740600  1
  Bi  Bi23  1  0.98226700  0.97960900  0.98495200  1
  Bi  Bi24  1  0.39342100  0.23286100  0.09652900  1
  Bi  Bi25  1  0.77290900  0.58076300  0.08578000  1
  O  O26  1  0.99797700  0.62960200  0.99940300  1
  O  O27  1  0.04389200  0.92886300  0.69149400  1
  O  O28  1  0.31639500  0.70258700  0.94301000  1
  O  O29  1  0.00583100  0.22274600  0.00122900  1
  O  O30  1  0.06040800  0.43467600  0.82338300  1
  O  O31  1  0.56931600  0.92628000  0.81059600  1
  O  O32  1  0.22301500  0.00293100  0.00507800  1
  O  O33  1  0.42681700  0.54793000  0.81123300  1
  O  O34  1  0.20411600  0.82138100  0.56083500  1
  O  O35  1  0.18370600  0.18431500  0.81305700  1
  O  O36  1  0.49712200  0.23831000  0.88037300  1
  O  O37  1  0.75161100  0.51397100  0.86643100  1
  O  O38  1  0.01972400  0.25341900  0.62935600  1
  O  O39  1  0.74401500  0.00559600  0.62061700  1
  O  O40  1  0.62922200  0.99881500  0.99950200  1
  O  O41  1  0.69218500  0.69250800  0.69103700  1
  O  O42  1  0.11770100  0.50041900  0.50049800  1
  O  O43  1  0.50205400  0.71656900  0.50323500  1
  O  O44  1  0.38955700  0.39661100  0.60786800  1
  O  O45  1  0.42973600  0.07681400  0.68958600  1
  O  O46  1  0.56019400  0.94172100  0.32131600  1
  O  O47  1  0.94539200  0.55979200  0.68072000  1
  O  O48  1  0.07426000  0.42982600  0.31050100  1
  O  O49  1  0.71410200  0.49614100  0.50330600  1
  O  O50  1  0.39522500  0.39396300  0.39230800  1
  O  O51  1  0.69236900  0.69138500  0.31069300  1
  O  O52  1  0.50180700  0.11886100  0.50047100  1
  O  O53  1  0.00120400  0.73767300  0.38322400  1
  O  O54  1  0.25115600  0.01304200  0.37257800  1
  O  O55  1  0.23418500  0.49616200  0.11865600  1
  O  O56  1  0.50637900  0.75068200  0.13154300  1
  O  O57  1  0.19134800  0.19144800  0.19423400  1
  O  O58  1  0.82247500  0.20516700  0.43975400  1
  O  O59  1  0.54939400  0.42922200  0.19148100  1
  O  O60  1  0.89371900  0.89477600  0.11588400  1
  O  O61  1  0.92823900  0.56702800  0.19150300  1
  O  O62  1  0.43768000  0.06031500  0.18001300  1
  O  O63  1  0.93156800  0.04859600  0.31254600  1
  O  O64  1  0.70096700  0.31982700  0.05948600  1
