# generated using pymatgen
data_Mn(Bi5O8)5
_symmetry_space_group_name_H-M   'P 1'
_cell_length_a   8.98959366
_cell_length_b   8.98959366
_cell_length_c   14.68229801
_cell_angle_alpha   89.99832092
_cell_angle_beta   89.99832092
_cell_angle_gamma   70.53753290
_symmetry_Int_Tables_number   1
_chemical_formula_structural   Mn(Bi5O8)5
_chemical_formula_sum   'Mn1 Bi25 O40'
_cell_volume   1118.71986442
_cell_formula_units_Z   1
loop_
 _symmetry_equiv_pos_site_id
 _symmetry_equiv_pos_as_xyz
  1  'x, y, z'
loop_
 _atom_site_type_symbol
 _atom_site_label
 _atom_site_symmetry_multiplicity
 _atom_site_fract_x
 _atom_site_fract_y
 _atom_site_fract_z
 _atom_site_occupancy
  Mn  Mn0  1  0.99885100  0.00114900  0.00000000  1
  Bi  Bi1  1  0.57867200  0.21900900  0.92142400  1
  Bi  Bi2  1  0.24060900  0.60107800  0.90225900  1
  Bi  Bi3  1  0.52671000  0.16676500  0.66465100  1
  Bi  Bi4  1  0.15971900  0.51231000  0.65246200  1
  Bi  Bi5  1  0.32740400  0.97500600  0.83013300  1
  Bi  Bi6  1  0.98921300  0.35141400  0.84699200  1
  Bi  Bi7  1  0.08825600  0.05537200  0.24964500  1
  Bi  Bi8  1  0.58222700  0.55645600  0.74855500  1
  Bi  Bi9  1  0.24233900  0.26116200  0.43064800  1
  Bi  Bi10  1  0.72767700  0.77112600  0.92803000  1
  Bi  Bi11  1  0.08985400  0.72675300  0.41465400  1
  Bi  Bi12  1  0.90457600  0.26500700  0.59526500  1
  Bi  Bi13  1  0.50172000  0.49828000  0.50000000  1
  Bi  Bi14  1  0.73499300  0.09542400  0.40473500  1
  Bi  Bi15  1  0.27324700  0.91014600  0.58534600  1
  Bi  Bi16  1  0.94462800  0.91174400  0.75035500  1
  Bi  Bi17  1  0.73883800  0.75766100  0.56935200  1
  Bi  Bi18  1  0.44354400  0.41777300  0.25144500  1
  Bi  Bi19  1  0.22887400  0.27232300  0.07197000  1
  Bi  Bi20  1  0.02499400  0.67259600  0.16986700  1
  Bi  Bi21  1  0.64858600  0.01078700  0.15300800  1
  Bi  Bi22  1  0.48769000  0.84028100  0.34753800  1
  Bi  Bi23  1  0.83323500  0.47329000  0.33534900  1
  Bi  Bi24  1  0.39892200  0.75939100  0.09774100  1
  Bi  Bi25  1  0.78099100  0.42132800  0.07857600  1
  O  O26  1  0.00275400  0.39310200  0.99908000  1
  O  O27  1  0.31990700  0.29861400  0.94210900  1
  O  O28  1  0.05190000  0.06562100  0.69297500  1
  O  O29  1  0.99807200  0.80860600  0.99981700  1
  O  O30  1  0.06388000  0.55938800  0.82121500  1
  O  O31  1  0.56847600  0.06903300  0.81262100  1
  O  O32  1  0.90374400  0.09612000  0.90348300  1
  O  O33  1  0.19139400  0.00192800  0.00018300  1
  O  O34  1  0.43415000  0.45115800  0.81596300  1
  O  O35  1  0.19065900  0.18095800  0.55758400  1
  O  O36  1  0.19547100  0.80413300  0.80686400  1
  O  O37  1  0.75193800  0.48858900  0.87129700  1
  O  O38  1  0.49611400  0.76448800  0.88080700  1
  O  O39  1  0.74190000  0.99734900  0.62608600  1
  O  O40  1  0.00517000  0.74581900  0.63300000  1
  O  O41  1  0.60689800  0.99724600  0.00092000  1
  O  O42  1  0.68258700  0.31701300  0.68579500  1
  O  O43  1  0.13624100  0.50318400  0.49940800  1
  O  O44  1  0.37478900  0.62523700  0.62620500  1
  O  O45  1  0.50225700  0.24427500  0.50039400  1
  O  O46  1  0.42377000  0.93726100  0.68988400  1
  O  O47  1  0.56589900  0.05609400  0.31690500  1
  O  O48  1  0.94390600  0.43410100  0.68309500  1
  O  O49  1  0.06273900  0.57623000  0.31011600  1
  O  O50  1  0.37476300  0.62521100  0.37379500  1
  O  O51  1  0.75572500  0.49774300  0.49960600  1
  O  O52  1  0.68298700  0.31741300  0.31420500  1
  O  O53  1  0.49681600  0.86375900  0.50059200  1
  O  O54  1  0.25418100  0.99483000  0.36700000  1
  O  O55  1  0.00265100  0.25810000  0.37391400  1
  O  O56  1  0.51141100  0.24806200  0.12870300  1
  O  O57  1  0.23551200  0.50388600  0.11919300  1
  O  O58  1  0.19586700  0.80452900  0.19313600  1
  O  O59  1  0.81904200  0.80934100  0.44241600  1
  O  O60  1  0.54884200  0.56585000  0.18403700  1
  O  O61  1  0.90388000  0.09625600  0.09651700  1
  O  O62  1  0.93096700  0.43152400  0.18737900  1
  O  O63  1  0.44061200  0.93612000  0.17878500  1
  O  O64  1  0.93437900  0.94810000  0.30702500  1
  O  O65  1  0.70138600  0.68009300  0.05789100  1
