# generated using pymatgen
data_Ca(BO5)2
_symmetry_space_group_name_H-M   'P 1'
_cell_length_a   12.39382726
_cell_length_b   7.02383700
_cell_length_c   10.61923532
_cell_angle_alpha   90.00000000
_cell_angle_beta   110.55099897
_cell_angle_gamma   90.00000000
_symmetry_Int_Tables_number   1
_chemical_formula_structural   Ca(BO5)2
_chemical_formula_sum   'Ca2 B4 O20'
_cell_volume   865.59752707
_cell_formula_units_Z   2
loop_
 _symmetry_equiv_pos_site_id
 _symmetry_equiv_pos_as_xyz
  1  'x, y, z'
loop_
 _atom_site_type_symbol
 _atom_site_label
 _atom_site_symmetry_multiplicity
 _atom_site_fract_x
 _atom_site_fract_y
 _atom_site_fract_z
 _atom_site_occupancy
  Ca  Ca0  1  0.00000000  0.04269400  0.75000000  1
  Ca  Ca1  1  0.00000000  0.95730600  0.25000000  1
  B  B2  1  0.09892400  0.74639600  0.55691800  1
  B  B3  1  0.90107600  0.74639600  0.94308200  1
  B  B4  1  0.90107600  0.25360400  0.44308200  1
  B  B5  1  0.09892400  0.25360400  0.05691800  1
  O  O6  1  0.85212100  0.74977700  0.52520500  1
  O  O7  1  0.14787900  0.74977700  0.97479500  1
  O  O8  1  0.14787900  0.25022300  0.47479500  1
  O  O9  1  0.85212100  0.25022300  0.02520500  1
  O  O10  1  0.11414700  0.86381100  0.66417400  1
  O  O11  1  0.88585300  0.86381100  0.83582600  1
  O  O12  1  0.88585300  0.13618900  0.33582600  1
  O  O13  1  0.11414700  0.13618900  0.16417400  1
  O  O14  1  0.09865600  0.79986700  0.43605000  1
  O  O15  1  0.90134400  0.79986700  0.06395000  1
  O  O16  1  0.90134400  0.20013300  0.56395000  1
  O  O17  1  0.09865600  0.20013300  0.93605000  1
  O  O18  1  0.08089400  0.56535500  0.59338600  1
  O  O19  1  0.91910600  0.56535500  0.90661400  1
  O  O20  1  0.91910600  0.43464500  0.40661400  1
  O  O21  1  0.08089400  0.43464500  0.09338600  1
  O  O22  1  0.23245600  0.80546100  0.06734700  1
  O  O23  1  0.76754400  0.80546100  0.43265300  1
  O  O24  1  0.76754400  0.19453900  0.93265300  1
  O  O25  1  0.23245600  0.19453900  0.56734700  1
