# generated using pymatgen
data_Na4TeMo6H40(NO20)2
_symmetry_space_group_name_H-M   'P 1'
_cell_length_a   10.97243600
_cell_length_b   10.98665080
_cell_length_c   11.03972209
_cell_angle_alpha   118.77059161
_cell_angle_beta   112.83688973
_cell_angle_gamma   96.70929603
_symmetry_Int_Tables_number   1
_chemical_formula_structural   Na4TeMo6H40(NO20)2
_chemical_formula_sum   'Na4 Te1 Mo6 H40 N2 O40'
_cell_volume   996.28467220
_cell_formula_units_Z   1
loop_
 _symmetry_equiv_pos_site_id
 _symmetry_equiv_pos_as_xyz
  1  'x, y, z'
loop_
 _atom_site_type_symbol
 _atom_site_label
 _atom_site_symmetry_multiplicity
 _atom_site_fract_x
 _atom_site_fract_y
 _atom_site_fract_z
 _atom_site_occupancy
  Na  Na0  1  0.87079500  0.53900300  0.37398800  1
  Na  Na1  1  0.12920500  0.46099700  0.62601200  1
  Na  Na2  1  0.28467500  0.65220400  0.25191000  1
  Na  Na3  1  0.71532500  0.34779600  0.74809000  1
  Te  Te4  1  0.00000000  0.00000000  0.00000000  1
  Mo  Mo5  1  0.33486100  0.13446000  0.09394300  1
  Mo  Mo6  1  0.66513900  0.86554000  0.90605700  1
  Mo  Mo7  1  0.73251000  0.82584400  0.62129200  1
  Mo  Mo8  1  0.26749000  0.17415600  0.37870800  1
  Mo  Mo9  1  0.06907200  0.95974400  0.71819100  1
  Mo  Mo10  1  0.93092800  0.04025600  0.28180900  1
  H  H11  1  0.47318500  0.03531700  0.77222900  1
  H  H12  1  0.52681500  0.96468300  0.22777100  1
  H  H13  1  0.47822800  0.19873200  0.78082100  1
  H  H14  1  0.52177200  0.80126800  0.21917900  1
  H  H15  1  0.59434400  0.96993900  0.39662600  1
  H  H16  1  0.40565600  0.03006100  0.60337400  1
  H  H17  1  0.32248400  0.07139100  0.70822300  1
  H  H18  1  0.67751600  0.92860900  0.29177700  1
  H  H19  1  0.95445300  0.64585100  0.69558100  1
  H  H20  1  0.04554700  0.35414900  0.30441900  1
  H  H21  1  0.84164700  0.48665900  0.59821400  1
  H  H22  1  0.15835300  0.51334100  0.40178600  1
  H  H23  1  0.61115700  0.28028000  0.12868000  1
  H  H24  1  0.38884300  0.71972000  0.87132000  1
  H  H25  1  0.72554900  0.20608600  0.15144100  1
  H  H26  1  0.27445100  0.79391400  0.84855900  1
  H  H27  1  0.84756200  0.58162700  0.10926400  1
  H  H28  1  0.15243800  0.41837300  0.89073600  1
  H  H29  1  0.80376800  0.69783000  0.21438400  1
  H  H30  1  0.19623200  0.30217000  0.78561600  1
  H  H31  1  0.10963800  0.31600600  0.01977600  1
  H  H32  1  0.89036200  0.68399400  0.98022400  1
  H  H33  1  0.99918300  0.39136700  0.01267500  1
  H  H34  1  0.00081700  0.60863300  0.98732500  1
  H  H35  1  0.76373600  0.30017000  0.01170800  1
  H  H36  1  0.23626400  0.69983000  0.98829200  1
  H  H37  1  0.80554100  0.18026500  0.90657900  1
  H  H38  1  0.19445900  0.81973500  0.09342100  1
  H  H39  1  0.48589500  0.43205800  0.79936200  1
  H  H40  1  0.51410500  0.56794200  0.20063800  1
  H  H41  1  0.61818100  0.47441300  0.96042900  1
  H  H42  1  0.38181900  0.52558700  0.03957100  1
  H  H43  1  0.66194200  0.54525800  0.63252000  1
  H  H44  1  0.33805800  0.45474200  0.36748000  1
  H  H45  1  0.57596200  0.37957200  0.48178000  1
  H  H46  1  0.42403800  0.62042800  0.51822000  1
  H  H47  1  0.84088200  0.12009800  0.63732500  1
  H  H48  1  0.15911800  0.87990200  0.36267500  1
  H  H49  1  0.86566800  0.21240500  0.57160200  1
  H  H50  1  0.13433200  0.78759500  0.42839800  1
  N  N51  1  0.42133100  0.08440100  0.71739000  1
  N  N52  1  0.57866900  0.91559900  0.28261000  1
  O  O53  1  0.34199400  0.27317700  0.29861200  1
  O  O54  1  0.65800600  0.72682300  0.70138800  1
  O  O55  1  0.23866700  0.95911300  0.86954200  1
  O  O56  1  0.76133300  0.04088700  0.13045800  1
  O  O57  1  0.41817000  0.27149600  0.08284700  1
  O  O58  1  0.58183000  0.72850400  0.91715300  1
  O  O59  1  0.46649400  0.07200200  0.16566600  1
  O  O60  1  0.53350600  0.92799800  0.83433400  1
  O  O61  1  0.81856900  0.01045200  0.88488600  1
  O  O62  1  0.18143100  0.98954800  0.11511400  1
  O  O63  1  0.11179100  0.13156300  0.97606100  1
  O  O64  1  0.88820900  0.86843700  0.02393900  1
  O  O65  1  0.95585200  0.83804600  0.78658200  1
  O  O66  1  0.04414800  0.16195400  0.21341800  1
  O  O67  1  0.88110200  0.97265400  0.64801500  1
  O  O68  1  0.11889800  0.02734600  0.35198500  1
  O  O69  1  0.71003800  0.66192100  0.45352700  1
  O  O70  1  0.28996200  0.33807900  0.54647300  1
  O  O71  1  0.59308900  0.88001900  0.54934500  1
  O  O72  1  0.40691100  0.11998100  0.45065500  1
  O  O73  1  0.15505400  0.10463900  0.71752300  1
  O  O74  1  0.84494600  0.89536100  0.28247700  1
  O  O75  1  0.03727400  0.79255000  0.54654200  1
  O  O76  1  0.96272600  0.20745000  0.45345800  1
  O  O77  1  0.93385600  0.53920700  0.61835800  1
  O  O78  1  0.06614400  0.46079300  0.38164200  1
  O  O79  1  0.71015800  0.29437700  0.15424300  1
  O  O80  1  0.28984200  0.70562300  0.84575700  1
  O  O81  1  0.21068300  0.40946200  0.83975600  1
  O  O82  1  0.78931700  0.59053800  0.16024400  1
  O  O83  1  0.90268100  0.59117000  0.96690200  1
  O  O84  1  0.09731900  0.40883000  0.03309800  1
  O  O85  1  0.79553200  0.27716900  0.93327100  1
  O  O86  1  0.20446800  0.72283100  0.06672900  1
  O  O87  1  0.44937100  0.60745200  0.15468600  1
  O  O88  1  0.55062900  0.39254800  0.84531400  1
  O  O89  1  0.66384800  0.44302800  0.58722200  1
  O  O90  1  0.33615200  0.55697200  0.41277800  1
  O  O91  1  0.19275100  0.81107800  0.38855200  1
  O  O92  1  0.80724900  0.18892200  0.61144800  1
