# generated using pymatgen
data_Mn2Ni3P6WO24
_symmetry_space_group_name_H-M   'P 1'
_cell_length_a   8.65326289
_cell_length_b   8.65326289
_cell_length_c   8.65326312
_cell_angle_alpha   60.53402564
_cell_angle_beta   60.53402564
_cell_angle_gamma   60.53402537
_symmetry_Int_Tables_number   1
_chemical_formula_structural   Mn2Ni3P6WO24
_chemical_formula_sum   'Mn2 Ni3 P6 W1 O24'
_cell_volume   463.69631373
_cell_formula_units_Z   1
loop_
 _symmetry_equiv_pos_site_id
 _symmetry_equiv_pos_as_xyz
  1  'x, y, z'
loop_
 _atom_site_type_symbol
 _atom_site_label
 _atom_site_symmetry_multiplicity
 _atom_site_fract_x
 _atom_site_fract_y
 _atom_site_fract_z
 _atom_site_occupancy
  Mn  Mn0  1  0.00867100  0.00867100  0.00867100  1
  Mn  Mn1  1  0.50092100  0.50092100  0.50092100  1
  Ni  Ni2  1  0.35749700  0.35749700  0.35749700  1
  Ni  Ni3  1  0.14542500  0.14542500  0.14542500  1
  Ni  Ni4  1  0.64318000  0.64318000  0.64318000  1
  P  P5  1  0.45249600  0.74461700  0.04625400  1
  P  P6  1  0.74461700  0.04625400  0.45249600  1
  P  P7  1  0.04625400  0.45249600  0.74461700  1
  P  P8  1  0.95518000  0.53666000  0.25636300  1
  P  P9  1  0.25636300  0.95518000  0.53666000  1
  P  P10  1  0.53666000  0.25636300  0.95518000  1
  W  W11  1  0.85743100  0.85743100  0.85743100  1
  O  O12  1  0.67907500  0.89353700  0.49449300  1
  O  O13  1  0.89353700  0.49449300  0.67907500  1
  O  O14  1  0.49449300  0.67907500  0.89353700  1
  O  O15  1  0.26512000  0.90846500  0.06238500  1
  O  O16  1  0.62018100  0.81852100  0.98677500  1
  O  O17  1  0.45777000  0.58943000  0.23811000  1
  O  O18  1  0.90846500  0.06238500  0.26512000  1
  O  O19  1  0.58943000  0.23811000  0.45777000  1
  O  O20  1  0.98900500  0.38932300  0.18725100  1
  O  O21  1  0.23811000  0.45777000  0.58943000  1
  O  O22  1  0.92639400  0.74108400  0.08744400  1
  O  O23  1  0.18725100  0.98900500  0.38932300  1
  O  O24  1  0.81852100  0.98677500  0.62018100  1
  O  O25  1  0.06238500  0.26512000  0.90846500  1
  O  O26  1  0.75712200  0.56146900  0.40964000  1
  O  O27  1  0.98677500  0.62018100  0.81852100  1
  O  O28  1  0.40964000  0.75712200  0.56146900  1
  O  O29  1  0.08744400  0.92639400  0.74108400  1
  O  O30  1  0.56146900  0.40964000  0.75712200  1
  O  O31  1  0.38932300  0.18725100  0.98900500  1
  O  O32  1  0.74108400  0.08744400  0.92639400  1
  O  O33  1  0.51801800  0.30344600  0.11124800  1
  O  O34  1  0.11124800  0.51801800  0.30344600  1
  O  O35  1  0.30344600  0.11124800  0.51801800  1
