# generated using pymatgen
data_KUVO6
_symmetry_space_group_name_H-M   'P 1'
_cell_length_a   6.76766289
_cell_length_b   8.10639800
_cell_length_c   14.69813624
_cell_angle_alpha   90.00000000
_cell_angle_beta   89.03939596
_cell_angle_gamma   90.00000000
_symmetry_Int_Tables_number   1
_chemical_formula_structural   KUVO6
_chemical_formula_sum   'K4 U4 V4 O24'
_cell_volume   806.24654830
_cell_formula_units_Z   4
loop_
 _symmetry_equiv_pos_site_id
 _symmetry_equiv_pos_as_xyz
  1  'x, y, z'
loop_
 _atom_site_type_symbol
 _atom_site_label
 _atom_site_symmetry_multiplicity
 _atom_site_fract_x
 _atom_site_fract_y
 _atom_site_fract_z
 _atom_site_occupancy
  K  K0  1  0.52171400  0.83440500  0.73505500  1
  K  K1  1  0.52171400  0.66559500  0.23505500  1
  K  K2  1  0.47828600  0.16559500  0.26494500  1
  K  K3  1  0.47828600  0.33440500  0.76494500  1
  U  U4  1  0.98884500  0.56467200  0.71935500  1
  U  U5  1  0.98884500  0.93532800  0.21935500  1
  U  U6  1  0.01115500  0.43532800  0.28064500  1
  U  U7  1  0.01115500  0.06467200  0.78064500  1
  V  V8  1  0.81410100  0.50824800  0.96462000  1
  V  V9  1  0.18589900  0.49175200  0.03538000  1
  V  V10  1  0.18589900  0.00824800  0.53538000  1
  V  V11  1  0.81410100  0.99175200  0.46462000  1
  O  O12  1  0.06949500  0.18824200  0.24002700  1
  O  O13  1  0.42187800  0.00143700  0.46526000  1
  O  O14  1  0.93050500  0.68824200  0.25997300  1
  O  O15  1  0.80513400  0.98336900  0.34621400  1
  O  O16  1  0.25013100  0.03327400  0.83859000  1
  O  O17  1  0.19486600  0.01663100  0.65378600  1
  O  O18  1  0.42187800  0.49856300  0.96526000  1
  O  O19  1  0.80513400  0.51663100  0.84621400  1
  O  O20  1  0.06949500  0.31175800  0.74002700  1
  O  O21  1  0.99949000  0.65471900  0.01022900  1
  O  O22  1  0.25064400  0.89684300  0.25073100  1
  O  O23  1  0.25013100  0.46672600  0.33859000  1
  O  O24  1  0.74986900  0.53327400  0.66141000  1
  O  O25  1  0.19486600  0.48336900  0.15378600  1
  O  O26  1  0.57812200  0.50143700  0.03474000  1
  O  O27  1  0.00051000  0.15471900  0.48977100  1
  O  O28  1  0.00051000  0.34528100  0.98977100  1
  O  O29  1  0.25064400  0.60315700  0.75073100  1
  O  O30  1  0.57812200  0.99856300  0.53474000  1
  O  O31  1  0.74986900  0.96672600  0.16141000  1
  O  O32  1  0.74935600  0.39684300  0.24926900  1
  O  O33  1  0.74935600  0.10315700  0.74926900  1
  O  O34  1  0.93050500  0.81175800  0.75997300  1
  O  O35  1  0.99949000  0.84528100  0.51022900  1
