# generated using pymatgen
data_Fe2H4O2F5
_symmetry_space_group_name_H-M   'P 1'
_cell_length_a   7.51706898
_cell_length_b   7.51706898
_cell_length_c   7.51706898
_cell_angle_alpha   128.09930343
_cell_angle_beta   119.15324120
_cell_angle_gamma   84.02045430
_symmetry_Int_Tables_number   1
_chemical_formula_structural   Fe2H4O2F5
_chemical_formula_sum   'Fe4 H8 O4 F10'
_cell_volume   279.74357614
_cell_formula_units_Z   2
loop_
 _symmetry_equiv_pos_site_id
 _symmetry_equiv_pos_as_xyz
  1  'x, y, z'
loop_
 _atom_site_type_symbol
 _atom_site_label
 _atom_site_symmetry_multiplicity
 _atom_site_fract_x
 _atom_site_fract_y
 _atom_site_fract_z
 _atom_site_occupancy
  Fe  Fe0  1  0.50000000  0.50000000  0.00000000  1
  Fe  Fe1  1  0.00000000  0.00000000  0.00000000  1
  Fe  Fe2  1  0.50000000  0.00000000  0.00000000  1
  Fe  Fe3  1  0.00000000  0.00000000  0.50000000  1
  H  H4  1  0.51512500  0.79064300  0.48289800  1
  H  H5  1  0.69225500  0.20935700  0.72448200  1
  H  H6  1  0.98487500  0.46777300  0.27551800  1
  H  H7  1  0.80774500  0.53222700  0.51710200  1
  H  H8  1  0.19225500  0.46777300  0.48289800  1
  H  H9  1  0.01512500  0.53222700  0.72448200  1
  H  H10  1  0.30774500  0.79064300  0.27551800  1
  H  H11  1  0.48487500  0.20935700  0.51710200  1
  O  O12  1  0.56420700  0.26483700  0.70062900  1
  O  O13  1  0.06420700  0.36357800  0.29937100  1
  O  O14  1  0.93579300  0.63642200  0.70062900  1
  O  O15  1  0.43579300  0.73516300  0.29937100  1
  F  F16  1  0.58337300  0.32707900  0.16101000  1
  F  F17  1  0.83393100  0.67292100  0.25629400  1
  F  F18  1  0.66606900  0.92236300  0.83899000  1
  F  F19  1  0.91662700  0.07763700  0.74370600  1
  F  F20  1  0.75000000  0.08466900  0.33466900  1
  F  F21  1  0.25000000  0.91533100  0.66533100  1
  F  F22  1  0.08337300  0.92236300  0.25629400  1
  F  F23  1  0.33393100  0.07763700  0.16101000  1
  F  F24  1  0.16606900  0.32707900  0.74370600  1
  F  F25  1  0.41662700  0.67292100  0.83899000  1
