# generated using pymatgen
data_Sr21Co14O43
_symmetry_space_group_name_H-M   'P 1'
_cell_length_a   11.88443670
_cell_length_b   11.88443670
_cell_length_c   8.68209225
_cell_angle_alpha   85.49082430
_cell_angle_beta   85.49082430
_cell_angle_gamma   117.07228317
_symmetry_Int_Tables_number   1
_chemical_formula_structural   Sr21Co14O43
_chemical_formula_sum   'Sr21 Co14 O43'
_cell_volume   1079.44302069
_cell_formula_units_Z   1
loop_
 _symmetry_equiv_pos_site_id
 _symmetry_equiv_pos_as_xyz
  1  'x, y, z'
loop_
 _atom_site_type_symbol
 _atom_site_label
 _atom_site_symmetry_multiplicity
 _atom_site_fract_x
 _atom_site_fract_y
 _atom_site_fract_z
 _atom_site_occupancy
  Sr  Sr0  1  0.70755800  0.70755800  0.86015900  1
  Sr  Sr1  1  0.53155900  0.89381500  0.85621300  1
  Sr  Sr2  1  0.89381500  0.53155900  0.85621300  1
  Sr  Sr3  1  0.00000000  0.00000000  0.00000000  1
  Sr  Sr4  1  0.18464500  0.81535500  0.00000000  1
  Sr  Sr5  1  0.81535500  0.18464500  0.00000000  1
  Sr  Sr6  1  0.75065200  0.38837600  0.28480400  1
  Sr  Sr7  1  0.10618500  0.46844100  0.14378700  1
  Sr  Sr8  1  0.38837600  0.75065200  0.28480400  1
  Sr  Sr9  1  0.56683100  0.56683100  0.27684100  1
  Sr  Sr10  1  0.29244200  0.29244200  0.13984100  1
  Sr  Sr11  1  0.46844100  0.10618500  0.14378700  1
  Sr  Sr12  1  0.32652300  0.96184200  0.57124300  1
  Sr  Sr13  1  0.96184200  0.32652300  0.57124300  1
  Sr  Sr14  1  0.03815800  0.67347700  0.42875700  1
  Sr  Sr15  1  0.85501800  0.85501800  0.43107200  1
  Sr  Sr16  1  0.67347700  0.03815800  0.42875700  1
  Sr  Sr17  1  0.14498200  0.14498200  0.56892800  1
  Sr  Sr18  1  0.24934800  0.61162400  0.71519600  1
  Sr  Sr19  1  0.61162400  0.24934800  0.71519600  1
  Sr  Sr20  1  0.43316900  0.43316900  0.72315900  1
  Co  Co21  1  0.31507700  0.11064200  0.85557100  1
  Co  Co22  1  0.11064200  0.31507700  0.85557100  1
  Co  Co23  1  0.59506500  0.40493500  0.00000000  1
  Co  Co24  1  0.88935800  0.68492300  0.14442900  1
  Co  Co25  1  0.68492300  0.88935800  0.14442900  1
  Co  Co26  1  0.40493500  0.59506500  0.00000000  1
  Co  Co27  1  0.45986300  0.25588600  0.43128900  1
  Co  Co28  1  0.17628400  0.97296400  0.28712400  1
  Co  Co29  1  0.25588600  0.45986300  0.43128900  1
  Co  Co30  1  0.97296400  0.17628400  0.28712400  1
  Co  Co31  1  0.74411400  0.54013700  0.56871100  1
  Co  Co32  1  0.54013700  0.74411400  0.56871100  1
  Co  Co33  1  0.82371600  0.02703600  0.71287600  1
  Co  Co34  1  0.02703600  0.82371600  0.71287600  1
  O  O35  1  0.78145300  0.94802100  0.91599300  1
  O  O36  1  0.94802100  0.78145300  0.91599300  1
  O  O37  1  0.40723200  0.01187100  0.85775300  1
  O  O38  1  0.01187100  0.40723200  0.85775300  1
  O  O39  1  0.74406700  0.56673800  0.07656200  1
  O  O40  1  0.25593300  0.43326200  0.92343800  1
  O  O41  1  0.43326200  0.25593300  0.92343800  1
  O  O42  1  0.30875900  0.69124100  0.00000000  1
  O  O43  1  0.69124100  0.30875900  0.00000000  1
  O  O44  1  0.56673800  0.74406700  0.07656200  1
  O  O45  1  0.50000000  0.50000000  0.00000000  1
  O  O46  1  0.00249100  0.83421000  0.21280200  1
  O  O47  1  0.51222400  0.33415200  0.22823800  1
  O  O48  1  0.33415200  0.51222400  0.22823800  1
  O  O49  1  0.21854700  0.05197900  0.08400700  1
  O  O50  1  0.98812900  0.59276800  0.14224700  1
  O  O51  1  0.05197900  0.21854700  0.08400700  1
  O  O52  1  0.83421000  0.00249100  0.21280200  1
  O  O53  1  0.59276800  0.98812900  0.14224700  1
  O  O54  1  0.12751200  0.29841300  0.35954000  1
  O  O55  1  0.29841300  0.12751200  0.35954000  1
  O  O56  1  0.62540800  0.79436800  0.36763500  1
  O  O57  1  0.15804700  0.55283800  0.43346600  1
  O  O58  1  0.26281700  0.87018000  0.28598200  1
  O  O59  1  0.79436800  0.62540800  0.36763500  1
  O  O60  1  0.55283800  0.15804700  0.43346600  1
  O  O61  1  0.87018000  0.26281700  0.28598200  1
  O  O62  1  0.41444300  0.58555700  0.50000000  1
  O  O63  1  0.44716200  0.84195300  0.56653400  1
  O  O64  1  0.58555700  0.41444300  0.50000000  1
  O  O65  1  0.91600900  0.08399100  0.50000000  1
  O  O66  1  0.20563200  0.37459200  0.63236500  1
  O  O67  1  0.37459200  0.20563200  0.63236500  1
  O  O68  1  0.08399100  0.91600900  0.50000000  1
  O  O69  1  0.84195300  0.44716200  0.56653400  1
  O  O70  1  0.87248800  0.70158700  0.64046000  1
  O  O71  1  0.70158700  0.87248800  0.64046000  1
  O  O72  1  0.73718300  0.12982000  0.71401800  1
  O  O73  1  0.16579000  0.99750900  0.78719800  1
  O  O74  1  0.12982000  0.73718300  0.71401800  1
  O  O75  1  0.99750900  0.16579000  0.78719800  1
  O  O76  1  0.66584800  0.48777600  0.77176200  1
  O  O77  1  0.48777600  0.66584800  0.77176200  1
