# generated using pymatgen
data_Bi2WO6
_symmetry_space_group_name_H-M   'P 1'
_cell_length_a   15.67026700
_cell_length_b   10.46479400
_cell_length_c   3.69015400
_cell_angle_alpha   90.00000000
_cell_angle_beta   90.00000000
_cell_angle_gamma   90.00000000
_symmetry_Int_Tables_number   1
_chemical_formula_structural   Bi2WO6
_chemical_formula_sum   'Bi8 W4 O24'
_cell_volume   605.13402220
_cell_formula_units_Z   4
loop_
 _symmetry_equiv_pos_site_id
 _symmetry_equiv_pos_as_xyz
  1  'x, y, z'
loop_
 _atom_site_type_symbol
 _atom_site_label
 _atom_site_symmetry_multiplicity
 _atom_site_fract_x
 _atom_site_fract_y
 _atom_site_fract_z
 _atom_site_occupancy
  Bi  Bi0  1  0.89606700  0.36620500  0.01051200  1
  Bi  Bi1  1  0.10393300  0.86620500  0.98948800  1
  Bi  Bi2  1  0.60393300  0.86620500  0.01051200  1
  Bi  Bi3  1  0.17611400  0.46103400  0.97665900  1
  Bi  Bi4  1  0.39606700  0.36620500  0.98948800  1
  Bi  Bi5  1  0.67611400  0.46103400  0.02334100  1
  Bi  Bi6  1  0.32388600  0.96103400  0.97665900  1
  Bi  Bi7  1  0.82388600  0.96103400  0.02334100  1
  W  W8  1  0.94530900  0.67471400  0.51642900  1
  W  W9  1  0.44530900  0.67471400  0.48357100  1
  W  W10  1  0.55469100  0.17471400  0.51642900  1
  W  W11  1  0.05469100  0.17471400  0.48357100  1
  O  O12  1  0.60694300  0.34257100  0.52959800  1
  O  O13  1  0.53137100  0.10736300  0.01497000  1
  O  O14  1  0.76681000  0.31855700  0.03377000  1
  O  O15  1  0.10694300  0.34257100  0.47040200  1
  O  O16  1  0.23318900  0.81855700  0.96623000  1
  O  O17  1  0.24976000  0.05303200  0.47213700  1
  O  O18  1  0.39305700  0.84257100  0.47040200  1
  O  O19  1  0.75024000  0.55303200  0.52786300  1
  O  O20  1  0.57006300  0.74570200  0.50673900  1
  O  O21  1  0.65630600  0.02952200  0.53085400  1
  O  O22  1  0.07006300  0.74570200  0.49326100  1
  O  O23  1  0.46862900  0.60736300  0.98503000  1
  O  O24  1  0.15630600  0.02952200  0.46914600  1
  O  O25  1  0.25024000  0.55303200  0.47213700  1
  O  O26  1  0.89305700  0.84257100  0.52959800  1
  O  O27  1  0.34369400  0.52952200  0.46914600  1
  O  O28  1  0.03137100  0.10736300  0.98503000  1
  O  O29  1  0.26681100  0.31855700  0.96623000  1
  O  O30  1  0.84369400  0.52952200  0.53085400  1
  O  O31  1  0.96862900  0.60736300  0.01497000  1
  O  O32  1  0.74976000  0.05303200  0.52786300  1
  O  O33  1  0.92993700  0.24570200  0.50673900  1
  O  O34  1  0.73319000  0.81855700  0.03377000  1
  O  O35  1  0.42993700  0.24570200  0.49326100  1
