# generated using pymatgen
data_Co25Cu11O48
_symmetry_space_group_name_H-M   'P 1'
_cell_length_a   9.95099650
_cell_length_b   9.95099650
_cell_length_c   9.92570129
_cell_angle_alpha   80.54132318
_cell_angle_beta   80.54132318
_cell_angle_gamma   120.17730687
_symmetry_Int_Tables_number   1
_chemical_formula_structural   Co25Cu11O48
_chemical_formula_sum   'Co25 Cu11 O48'
_cell_volume   802.19662022
_cell_formula_units_Z   1
loop_
 _symmetry_equiv_pos_site_id
 _symmetry_equiv_pos_as_xyz
  1  'x, y, z'
loop_
 _atom_site_type_symbol
 _atom_site_label
 _atom_site_symmetry_multiplicity
 _atom_site_fract_x
 _atom_site_fract_y
 _atom_site_fract_z
 _atom_site_occupancy
  Co  Co0  1  0.14617700  0.14617700  0.06231800  1
  Co  Co1  1  0.25103000  0.41782000  0.24869300  1
  Co  Co2  1  0.08475200  0.58470600  0.24982500  1
  Co  Co3  1  0.41782000  0.25103000  0.24869300  1
  Co  Co4  1  0.25165300  0.91729500  0.25032500  1
  Co  Co5  1  0.00078100  0.66683100  0.50028300  1
  Co  Co6  1  0.33205700  0.33205700  0.49932400  1
  Co  Co7  1  0.08141100  0.08141100  0.75017700  1
  Co  Co8  1  0.58373800  0.58373800  0.25068600  1
  Co  Co9  1  0.91743700  0.75057900  0.25173000  1
  Co  Co10  1  0.58470600  0.08475200  0.24982500  1
  Co  Co11  1  0.08290100  0.58339900  0.74994700  1
  Co  Co12  1  0.75057900  0.91743700  0.25173000  1
  Co  Co13  1  0.41618600  0.24890600  0.74895700  1
  Co  Co14  1  0.24890600  0.41618600  0.74895700  1
  Co  Co15  1  0.16672100  0.50148200  0.99923600  1
  Co  Co16  1  0.66683100  0.00078100  0.50028300  1
  Co  Co17  1  0.41548300  0.75007300  0.74931400  1
  Co  Co18  1  0.91729500  0.25165300  0.25032500  1
  Co  Co19  1  0.91453500  0.74815700  0.75100300  1
  Co  Co20  1  0.74815700  0.91453500  0.75100300  1
  Co  Co21  1  0.58339900  0.08290100  0.74994700  1
  Co  Co22  1  0.75007300  0.41548300  0.74931400  1
  Co  Co23  1  0.50148200  0.16672100  0.99923600  1
  Co  Co24  1  0.83200300  0.83200300  0.00169900  1
  Cu  Cu25  1  0.02080800  0.02080800  0.43957700  1
  Cu  Cu26  1  0.48127900  0.81357000  0.06229600  1
  Cu  Cu27  1  0.35520800  0.68727700  0.43707500  1
  Cu  Cu28  1  0.31169700  0.97874600  0.56172800  1
  Cu  Cu29  1  0.81357000  0.48127900  0.06229600  1
  Cu  Cu30  1  0.64467900  0.64467900  0.56413300  1
  Cu  Cu31  1  0.68727700  0.35520800  0.43707500  1
  Cu  Cu32  1  0.18699000  0.85419700  0.93775600  1
  Cu  Cu33  1  0.51948900  0.51948900  0.93479500  1
  Cu  Cu34  1  0.97874600  0.31169700  0.56172800  1
  Cu  Cu35  1  0.85419700  0.18699000  0.93775600  1
  O  O36  1  0.04664500  0.85983900  0.36987400  1
  O  O37  1  0.30921400  0.12230700  0.13070300  1
  O  O38  1  0.12230700  0.30921400  0.13070300  1
  O  O39  1  0.05086100  0.38393800  0.35338500  1
  O  O40  1  0.27201200  0.60529000  0.13130900  1
  O  O41  1  0.11838300  0.78516700  0.14639900  1
  O  O42  1  0.22911900  0.22911900  0.36545500  1
  O  O43  1  0.45248200  0.45248200  0.14429600  1
  O  O44  1  0.52503100  0.37791500  0.36768100  1
  O  O45  1  0.19318200  0.71188600  0.36874700  1
  O  O46  1  0.02309100  0.87542100  0.86946200  1
  O  O47  1  0.37791500  0.52503100  0.36768100  1
  O  O48  1  0.45719000  0.97549600  0.13151400  1
  O  O49  1  0.78987700  0.64185900  0.13388300  1
  O  O50  1  0.13943400  0.28670500  0.63177100  1
  O  O51  1  0.28670500  0.13943400  0.63177100  1
  O  O52  1  0.64185900  0.78987700  0.13388300  1
  O  O53  1  0.93733100  0.93733100  0.13372500  1
  O  O54  1  0.60529000  0.27201200  0.13130900  1
  O  O55  1  0.10285100  0.77061100  0.63347000  1
  O  O56  1  0.38393800  0.05086100  0.35338500  1
  O  O57  1  0.43608000  0.43608000  0.63256600  1
  O  O58  1  0.71689800  0.71689800  0.35570700  1
  O  O59  1  0.21518200  0.21518200  0.85314600  1
  O  O60  1  0.06190100  0.39645700  0.86698100  1
  O  O61  1  0.28298800  0.61729700  0.64558800  1
  O  O62  1  0.56332500  0.89724000  0.36781700  1
  O  O63  1  0.78516700  0.11838300  0.14639900  1
  O  O64  1  0.21076000  0.69295700  0.86768800  1
  O  O65  1  0.71188600  0.19318200  0.36874700  1
  O  O66  1  0.35812800  0.54479200  0.86686800  1
  O  O67  1  0.85983900  0.04664500  0.36987400  1
  O  O68  1  0.54479200  0.35812800  0.86686800  1
  O  O69  1  0.62064400  0.80740100  0.63141300  1
  O  O70  1  0.80740100  0.62064400  0.63141300  1
  O  O71  1  0.47424800  0.95603300  0.63133400  1
  O  O72  1  0.97549600  0.45719000  0.13151400  1
  O  O73  1  0.77061100  0.10285100  0.63347000  1
  O  O74  1  0.54783500  0.88154600  0.85392300  1
  O  O75  1  0.89724000  0.56332500  0.36781700  1
  O  O76  1  0.39645700  0.06190100  0.86698100  1
  O  O77  1  0.61729700  0.28298800  0.64558800  1
  O  O78  1  0.72725200  0.72725200  0.86907800  1
  O  O79  1  0.94786200  0.94786200  0.64736200  1
  O  O80  1  0.69295700  0.21076000  0.86768800  1
  O  O81  1  0.87542100  0.02309100  0.86946200  1
  O  O82  1  0.95603300  0.47424800  0.63133400  1
  O  O83  1  0.88154600  0.54783500  0.85392300  1
