# generated using pymatgen
data_Ti3V2Fe(PO4)6
_symmetry_space_group_name_H-M   'P 1'
_cell_length_a   8.54931685
_cell_length_b   8.54931685
_cell_length_c   8.54931683
_cell_angle_alpha   61.20229255
_cell_angle_beta   61.20229255
_cell_angle_gamma   61.20229916
_symmetry_Int_Tables_number   1
_chemical_formula_structural   Ti3V2Fe(PO4)6
_chemical_formula_sum   'Ti3 V2 Fe1 P6 O24'
_cell_volume   453.80406683
_cell_formula_units_Z   1
loop_
 _symmetry_equiv_pos_site_id
 _symmetry_equiv_pos_as_xyz
  1  'x, y, z'
loop_
 _atom_site_type_symbol
 _atom_site_label
 _atom_site_symmetry_multiplicity
 _atom_site_fract_x
 _atom_site_fract_y
 _atom_site_fract_z
 _atom_site_occupancy
  Ti  Ti0  1  0.35525700  0.35525700  0.35525700  1
  Ti  Ti1  1  0.14224100  0.14224100  0.14224100  1
  Ti  Ti2  1  0.64506800  0.64506800  0.64506800  1
  V  V3  1  0.99876900  0.99876900  0.99876900  1
  V  V4  1  0.49900400  0.49900400  0.49900400  1
  Fe  Fe5  1  0.85654600  0.85654600  0.85654600  1
  P  P6  1  0.75141800  0.04616900  0.45590400  1
  P  P7  1  0.04616900  0.45590400  0.75141800  1
  P  P8  1  0.45590400  0.75141800  0.04616900  1
  P  P9  1  0.54282500  0.25161100  0.95528000  1
  P  P10  1  0.95528000  0.54282500  0.25161100  1
  P  P11  1  0.25161100  0.95528000  0.54282500  1
  O  O12  1  0.88167800  0.50290600  0.68549900  1
  O  O13  1  0.50290600  0.68549900  0.88167800  1
  O  O14  1  0.68549900  0.88167800  0.50290600  1
  O  O15  1  0.90862300  0.05807700  0.25739100  1
  O  O16  1  0.81715100  0.01591800  0.60474300  1
  O  O17  1  0.58939200  0.24179000  0.43278600  1
  O  O18  1  0.05807700  0.25739100  0.90862300  1
  O  O19  1  0.24179000  0.43278600  0.58939200  1
  O  O20  1  0.38120700  0.18490700  0.00008700  1
  O  O21  1  0.43278600  0.58939200  0.24179000  1
  O  O22  1  0.73540100  0.09892100  0.94819700  1
  O  O23  1  0.00008700  0.38120700  0.18490700  1
  O  O24  1  0.01591800  0.60474300  0.81715100  1
  O  O25  1  0.25739100  0.90862300  0.05807700  1
  O  O26  1  0.55385900  0.41271800  0.76019300  1
  O  O27  1  0.60474300  0.81715100  0.01591800  1
  O  O28  1  0.76019300  0.55385900  0.41271800  1
  O  O29  1  0.94819700  0.73540100  0.09892100  1
  O  O30  1  0.41271800  0.76019300  0.55385900  1
  O  O31  1  0.18490700  0.00008700  0.38120700  1
  O  O32  1  0.09892100  0.94819700  0.73540100  1
  O  O33  1  0.32888300  0.11276500  0.48680500  1
  O  O34  1  0.48680500  0.32888300  0.11276500  1
  O  O35  1  0.11276500  0.48680500  0.32888300  1
