# generated using pymatgen
data_La2Ti3O9
_symmetry_space_group_name_H-M   'P 1'
_cell_length_a   8.71066458
_cell_length_b   8.71066458
_cell_length_c   9.59966585
_cell_angle_alpha   57.02291834
_cell_angle_beta   57.02291834
_cell_angle_gamma   36.87060486
_symmetry_Int_Tables_number   1
_chemical_formula_structural   La2Ti3O9
_chemical_formula_sum   'La4 Ti6 O18'
_cell_volume   357.94648528
_cell_formula_units_Z   2
loop_
 _symmetry_equiv_pos_site_id
 _symmetry_equiv_pos_as_xyz
  1  'x, y, z'
loop_
 _atom_site_type_symbol
 _atom_site_label
 _atom_site_symmetry_multiplicity
 _atom_site_fract_x
 _atom_site_fract_y
 _atom_site_fract_z
 _atom_site_occupancy
  La  La0  1  0.00000000  0.00000000  0.00000000  1
  La  La1  1  0.66696400  0.66696400  0.99922900  1
  La  La2  1  0.50000000  0.50000000  0.50000000  1
  La  La3  1  0.33303600  0.33303600  0.00077100  1
  Ti  Ti4  1  0.91786100  0.91786100  0.74541400  1
  Ti  Ti5  1  0.74844100  0.74844100  0.26528100  1
  Ti  Ti6  1  0.59057400  0.59057400  0.73938600  1
  Ti  Ti7  1  0.40942600  0.40942600  0.26061400  1
  Ti  Ti8  1  0.25155900  0.25155900  0.73471900  1
  Ti  Ti9  1  0.08213900  0.08213900  0.25458600  1
  O  O10  1  0.00000000  0.00000000  0.50000000  1
  O  O11  1  0.83217800  0.83217800  0.99872400  1
  O  O12  1  0.65417700  0.65417700  0.50115700  1
  O  O13  1  0.73116100  0.25261600  0.76441700  1
  O  O14  1  0.90575400  0.42927400  0.23781700  1
  O  O15  1  0.50000000  0.50000000  0.00000000  1
  O  O16  1  0.59290800  0.09065700  0.22458900  1
  O  O17  1  0.90934300  0.40709200  0.77541100  1
  O  O18  1  0.74738400  0.26883900  0.23558300  1
  O  O19  1  0.57072600  0.09424600  0.76218300  1
  O  O20  1  0.42927400  0.90575400  0.23781700  1
  O  O21  1  0.25261600  0.73116100  0.76441700  1
  O  O22  1  0.09065700  0.59290800  0.22458900  1
  O  O23  1  0.34582300  0.34582300  0.49884300  1
  O  O24  1  0.16782200  0.16782200  0.00127600  1
  O  O25  1  0.40709200  0.90934300  0.77541100  1
  O  O26  1  0.26883900  0.74738400  0.23558300  1
  O  O27  1  0.09424600  0.57072600  0.76218300  1
