# generated using pymatgen
data_CdSe2O9
_symmetry_space_group_name_H-M   'P 1'
_cell_length_a   8.33038468
_cell_length_b   5.42291900
_cell_length_c   20.30553302
_cell_angle_alpha   90.00000000
_cell_angle_beta   95.68289842
_cell_angle_gamma   90.00000000
_symmetry_Int_Tables_number   1
_chemical_formula_structural   CdSe2O9
_chemical_formula_sum   'Cd4 Se8 O36'
_cell_volume   912.79409707
_cell_formula_units_Z   4
loop_
 _symmetry_equiv_pos_site_id
 _symmetry_equiv_pos_as_xyz
  1  'x, y, z'
loop_
 _atom_site_type_symbol
 _atom_site_label
 _atom_site_symmetry_multiplicity
 _atom_site_fract_x
 _atom_site_fract_y
 _atom_site_fract_z
 _atom_site_occupancy
  Cd  Cd0  1  0.25564800  0.76996700  0.01091200  1
  Cd  Cd1  1  0.75564800  0.73003300  0.51091200  1
  Cd  Cd2  1  0.74435200  0.23003300  0.98908800  1
  Cd  Cd3  1  0.24435200  0.26996700  0.48908800  1
  Se  Se4  1  0.49364200  0.20454400  0.11963400  1
  Se  Se5  1  0.99364200  0.29545600  0.61963400  1
  Se  Se6  1  0.50635800  0.79545600  0.88036600  1
  Se  Se7  1  0.00635800  0.70454400  0.38036600  1
  Se  Se8  1  0.90277100  0.71121300  0.88649700  1
  Se  Se9  1  0.40277100  0.78878700  0.38649700  1
  Se  Se10  1  0.09722900  0.28878700  0.11350300  1
  Se  Se11  1  0.59722900  0.21121300  0.61350300  1
  O  O12  1  0.35286700  0.43441000  0.95848000  1
  O  O13  1  0.85286700  0.06559000  0.45848000  1
  O  O14  1  0.64713300  0.56559000  0.04152000  1
  O  O15  1  0.14713300  0.93441000  0.54152000  1
  O  O16  1  0.38374300  0.93801100  0.92632900  1
  O  O17  1  0.88374300  0.56198900  0.42632900  1
  O  O18  1  0.61625700  0.06198900  0.07367100  1
  O  O19  1  0.11625700  0.43801100  0.57367100  1
  O  O20  1  0.48633300  0.44887400  0.92703800  1
  O  O21  1  0.98633300  0.05112600  0.42703800  1
  O  O22  1  0.51366700  0.55112600  0.07296200  1
  O  O23  1  0.01366700  0.94887400  0.57296200  1
  O  O24  1  0.33644500  0.24716000  0.78822000  1
  O  O25  1  0.83644500  0.25284000  0.28822000  1
  O  O26  1  0.66355500  0.75284000  0.21178000  1
  O  O27  1  0.16355500  0.74716000  0.71178000  1
  O  O28  1  0.87700400  0.42414000  0.91302400  1
  O  O29  1  0.37700400  0.07586000  0.41302400  1
  O  O30  1  0.12299600  0.57586000  0.08697600  1
  O  O31  1  0.62299600  0.92414000  0.58697600  1
  O  O32  1  0.70258500  0.87729400  0.92013500  1
  O  O33  1  0.20258500  0.62270600  0.42013500  1
  O  O34  1  0.29741500  0.12270600  0.07986500  1
  O  O35  1  0.79741500  0.37729400  0.57986500  1
  O  O36  1  0.03123100  0.86072100  0.94027300  1
  O  O37  1  0.53123100  0.63927900  0.44027300  1
  O  O38  1  0.96876900  0.13927900  0.05972700  1
  O  O39  1  0.46876900  0.36072100  0.55972700  1
  O  O40  1  0.89401800  0.71919000  0.71178300  1
  O  O41  1  0.39401800  0.78081000  0.21178300  1
  O  O42  1  0.10598200  0.28081000  0.28821700  1
  O  O43  1  0.60598200  0.21919000  0.78821700  1
  O  O44  1  0.03565800  0.79404800  0.74236200  1
  O  O45  1  0.53565800  0.70595200  0.24236200  1
  O  O46  1  0.96434200  0.20595200  0.25763800  1
  O  O47  1  0.46434200  0.29404800  0.75763800  1
