# generated using pymatgen
data_Ga(MoSe2)4
_symmetry_space_group_name_H-M   'P 1'
_cell_length_a   15.79430302
_cell_length_b   6.68325481
_cell_length_c   8.90169972
_cell_angle_alpha   128.81305281
_cell_angle_beta   152.51739520
_cell_angle_gamma   45.04830786
_symmetry_Int_Tables_number   1
_chemical_formula_structural   Ga(MoSe2)4
_chemical_formula_sum   'Ga1 Mo4 Se8'
_cell_volume   306.87711610
_cell_formula_units_Z   1
loop_
 _symmetry_equiv_pos_site_id
 _symmetry_equiv_pos_as_xyz
  1  'x, y, z'
loop_
 _atom_site_type_symbol
 _atom_site_label
 _atom_site_symmetry_multiplicity
 _atom_site_fract_x
 _atom_site_fract_y
 _atom_site_fract_z
 _atom_site_occupancy
  Ga  Ga0  1  0.97140900  0.18251600  0.00000000  1
  Mo  Mo1  1  0.81497900  0.16225400  0.00000000  1
  Mo  Mo2  1  0.17138300  0.05020500  0.00000000  1
  Mo  Mo3  1  0.67132900  0.01024700  0.48958000  1
  Mo  Mo4  1  0.18174900  0.01024700  0.51042000  1
  Se  Se5  1  0.35107600  0.57097000  0.00000000  1
  Se  Se6  1  0.61834400  0.30697100  0.00000000  1
  Se  Se7  1  0.34075300  0.92198200  0.47077500  1
  Se  Se8  1  0.86997800  0.92198200  0.52922500  1
  Se  Se9  1  0.29305000  0.17490800  0.00000000  1
  Se  Se10  1  0.75886800  0.61012300  0.00000000  1
  Se  Se11  1  0.21659900  0.55309700  0.41891800  1
  Se  Se12  1  0.79768200  0.55309700  0.58108200  1
