# generated using pymatgen
data_Ba3(P3O13)2
_symmetry_space_group_name_H-M   'P 1'
_cell_length_a   11.55574524
_cell_length_b   11.55574524
_cell_length_c   15.21044817
_cell_angle_alpha   62.57605580
_cell_angle_beta   117.42394420
_cell_angle_gamma   142.61186166
_symmetry_Int_Tables_number   1
_chemical_formula_structural   Ba3(P3O13)2
_chemical_formula_sum   'Ba6 P12 O52'
_cell_volume   1077.72353427
_cell_formula_units_Z   2
loop_
 _symmetry_equiv_pos_site_id
 _symmetry_equiv_pos_as_xyz
  1  'x, y, z'
loop_
 _atom_site_type_symbol
 _atom_site_label
 _atom_site_symmetry_multiplicity
 _atom_site_fract_x
 _atom_site_fract_y
 _atom_site_fract_z
 _atom_site_occupancy
  Ba  Ba0  1  0.38775600  0.76589200  0.26003200  1
  Ba  Ba1  1  0.76589200  0.38775600  0.23996800  1
  Ba  Ba2  1  0.61224400  0.23410800  0.73996800  1
  Ba  Ba3  1  0.23410800  0.61224400  0.76003200  1
  Ba  Ba4  1  0.74447700  0.74447700  0.25000000  1
  Ba  Ba5  1  0.25552300  0.25552300  0.75000000  1
  P  P6  1  0.21744100  0.96955600  0.26763100  1
  P  P7  1  0.96955600  0.21744100  0.23236900  1
  P  P8  1  0.78255900  0.03044400  0.73236900  1
  P  P9  1  0.03044400  0.78255900  0.76763100  1
  P  P10  1  0.64586300  0.69330800  0.89001700  1
  P  P11  1  0.69330800  0.64586300  0.60998300  1
  P  P12  1  0.35413700  0.30669200  0.10998300  1
  P  P13  1  0.30669200  0.35413700  0.39001700  1
  P  P14  1  0.19664400  0.45442500  0.06842500  1
  P  P15  1  0.45442500  0.19664400  0.43157500  1
  P  P16  1  0.80335600  0.54557400  0.93157500  1
  P  P17  1  0.54557400  0.80335600  0.56842500  1
  O  O18  1  0.01445400  0.27318200  0.12352500  1
  O  O19  1  0.27318200  0.01445400  0.37647500  1
  O  O20  1  0.98554600  0.72681800  0.87647500  1
  O  O21  1  0.72681800  0.98554600  0.62352500  1
  O  O22  1  0.01934400  0.37428800  0.24607200  1
  O  O23  1  0.37428800  0.01934400  0.25392800  1
  O  O24  1  0.98065600  0.62571200  0.75392800  1
  O  O25  1  0.62571200  0.98065600  0.74607200  1
  O  O26  1  0.76883300  0.01259500  0.23552800  1
  O  O27  1  0.01259500  0.76883300  0.26447200  1
  O  O28  1  0.23116700  0.98740500  0.76447200  1
  O  O29  1  0.98740500  0.23116700  0.73552800  1
  O  O30  1  0.45537300  0.54890000  0.32852700  1
  O  O31  1  0.54890000  0.45537300  0.17147300  1
  O  O32  1  0.54462700  0.45110000  0.67147300  1
  O  O33  1  0.45110000  0.54462700  0.82852700  1
  O  O34  1  0.24971600  0.33843000  0.46708400  1
  O  O35  1  0.33843000  0.24971600  0.03291600  1
  O  O36  1  0.75028400  0.66157000  0.53291600  1
  O  O37  1  0.66157000  0.75028400  0.96708400  1
  O  O38  1  0.62648000  0.74821400  0.55892700  1
  O  O39  1  0.74821400  0.62648000  0.94107300  1
  O  O40  1  0.37352000  0.25178600  0.44107300  1
  O  O41  1  0.25178600  0.37352000  0.05892700  1
  O  O42  1  0.37097600  0.64765400  0.61569500  1
  O  O43  1  0.64765400  0.37097600  0.88430500  1
  O  O44  1  0.62902400  0.35234600  0.38430500  1
  O  O45  1  0.35234600  0.62902400  0.11569500  1
  O  O46  1  0.11499000  0.49624200  0.95415700  1
  O  O47  1  0.49624200  0.11499000  0.54584300  1
  O  O48  1  0.88501000  0.50375800  0.04584300  1
  O  O49  1  0.50375800  0.88501000  0.45415700  1
  O  O50  1  0.11668400  0.20653800  0.30887600  1
  O  O51  1  0.20653800  0.11668400  0.19112400  1
  O  O52  1  0.88331600  0.79346200  0.69112400  1
  O  O53  1  0.79346200  0.88331600  0.80887600  1
  O  O54  1  0.50751400  0.08132700  0.10148200  1
  O  O55  1  0.08132700  0.50751400  0.39851800  1
  O  O56  1  0.49248600  0.91867300  0.89851800  1
  O  O57  1  0.91867300  0.49248600  0.60148200  1
  O  O58  1  0.02127400  0.65104300  0.53130200  1
  O  O59  1  0.65104300  0.02127400  0.96869800  1
  O  O60  1  0.97872600  0.34895700  0.46869800  1
  O  O61  1  0.34895700  0.97872600  0.03130200  1
  O  O62  1  0.33939200  0.98423500  0.60117000  1
  O  O63  1  0.98423500  0.33939200  0.89883000  1
  O  O64  1  0.66060800  0.01576500  0.39883000  1
  O  O65  1  0.01576500  0.66060800  0.10117000  1
  O  O66  1  0.06831200  0.31532400  0.53912300  1
  O  O67  1  0.31532400  0.06831200  0.96087700  1
  O  O68  1  0.93168800  0.68467600  0.46087700  1
  O  O69  1  0.68467600  0.93168800  0.03912300  1
