# generated using pymatgen
data_La16Cu8O31
_symmetry_space_group_name_H-M   'P 1'
_cell_length_a   7.05246900
_cell_length_b   11.15412815
_cell_length_c   11.80578494
_cell_angle_alpha   118.08530592
_cell_angle_beta   104.21799164
_cell_angle_gamma   90.14787130
_symmetry_Int_Tables_number   1
_chemical_formula_structural   La16Cu8O31
_chemical_formula_sum   'La16 Cu8 O31'
_cell_volume   786.61481752
_cell_formula_units_Z   1
loop_
 _symmetry_equiv_pos_site_id
 _symmetry_equiv_pos_as_xyz
  1  'x, y, z'
loop_
 _atom_site_type_symbol
 _atom_site_label
 _atom_site_symmetry_multiplicity
 _atom_site_fract_x
 _atom_site_fract_y
 _atom_site_fract_z
 _atom_site_occupancy
  La  La0  1  0.45610900  0.58008200  0.17924900  1
  La  La1  1  0.04417400  0.16572400  0.31989000  1
  La  La2  1  0.45675000  0.08533700  0.18002700  1
  La  La3  1  0.79625900  0.77938500  0.07395600  1
  La  La4  1  0.04323000  0.66642400  0.31910400  1
  La  La5  1  0.80709400  0.28393400  0.08879300  1
  La  La6  1  0.28787900  0.52445200  0.56417900  1
  La  La7  1  0.70879300  0.47914500  0.43943000  1
  La  La8  1  0.70046600  0.97225400  0.42791800  1
  La  La9  1  0.27991400  0.01622300  0.55051900  1
  La  La10  1  0.54977500  0.42543700  0.81641600  1
  La  La11  1  0.20263000  0.72913500  0.93238600  1
  La  La12  1  0.55467200  0.89317800  0.81433300  1
  La  La13  1  0.18216300  0.22944600  0.93619200  1
  La  La14  1  0.96230100  0.32831200  0.68066900  1
  La  La15  1  0.96445900  0.83680000  0.67958500  1
  Cu  Cu16  1  0.99521600  0.00152500  0.00152500  1
  Cu  Cu17  1  0.99409800  0.50130800  0.00181400  1
  Cu  Cu18  1  0.25712400  0.87276200  0.24545000  1
  Cu  Cu19  1  0.25937200  0.37433200  0.24969900  1
  Cu  Cu20  1  0.50065000  0.24930200  0.50047300  1
  Cu  Cu21  1  0.49949300  0.75028000  0.49996100  1
  Cu  Cu22  1  0.73430800  0.12649700  0.75408900  1
  Cu  Cu23  1  0.76053600  0.62175500  0.74715700  1
  O  O24  1  0.13970700  0.18530300  0.12083500  1
  O  O25  1  0.14633900  0.68344300  0.11709800  1
  O  O26  1  0.11248000  0.93921900  0.12840100  1
  O  O27  1  0.11389300  0.43829600  0.12822600  1
  O  O28  1  0.51381100  0.34311000  0.13279000  1
  O  O29  1  0.72338200  0.58482800  0.10020500  1
  O  O30  1  0.72345900  0.07939900  0.10063600  1
  O  O31  1  0.53855100  0.86288300  0.16020800  1
  O  O32  1  0.36096500  0.06431900  0.37764000  1
  O  O33  1  0.36329900  0.56417300  0.37836900  1
  O  O34  1  0.39194000  0.80850400  0.36760600  1
  O  O35  1  0.39499300  0.30987800  0.37009000  1
  O  O36  1  0.05058800  0.11004100  0.67324800  1
  O  O37  1  0.02838900  0.61123000  0.65093100  1
  O  O38  1  0.20973800  0.33002500  0.58901700  1
  O  O39  1  0.78506800  0.67278400  0.40765700  1
  O  O40  1  0.79007800  0.17017200  0.41317700  1
  O  O41  1  0.21433600  0.82407800  0.58762600  1
  O  O42  1  0.95720100  0.38902500  0.33692100  1
  O  O43  1  0.97379700  0.89620100  0.35144000  1
  O  O44  1  0.59524200  0.19137600  0.63525200  1
  O  O45  1  0.60786400  0.68676500  0.62912100  1
  O  O46  1  0.62461500  0.93797900  0.62606000  1
  O  O47  1  0.64173500  0.43346800  0.62066400  1
  O  O48  1  0.29173600  0.40264900  0.89693000  1
  O  O49  1  0.28666400  0.93283400  0.89863000  1
  O  O50  1  0.46675600  0.65330400  0.84611800  1
  O  O51  1  0.84931300  0.31494200  0.88734100  1
  O  O52  1  0.89796600  0.55666400  0.86703000  1
  O  O53  1  0.86597300  0.81301300  0.87982600  1
  O  O54  1  0.86727700  0.06411400  0.87655600  1
