# generated using pymatgen
data_CoTe(PbO2)2
_symmetry_space_group_name_H-M   'P 1'
_cell_length_a   6.21490272
_cell_length_b   6.16117454
_cell_length_c   6.21490272
_cell_angle_alpha   131.08540121
_cell_angle_beta   125.30678209
_cell_angle_gamma   76.61713231
_symmetry_Int_Tables_number   1
_chemical_formula_structural   CoTe(PbO2)2
_chemical_formula_sum   'Co1 Te1 Pb2 O4'
_cell_volume   142.05593045
_cell_formula_units_Z   1
loop_
 _symmetry_equiv_pos_site_id
 _symmetry_equiv_pos_as_xyz
  1  'x, y, z'
loop_
 _atom_site_type_symbol
 _atom_site_label
 _atom_site_symmetry_multiplicity
 _atom_site_fract_x
 _atom_site_fract_y
 _atom_site_fract_z
 _atom_site_occupancy
  Co  Co0  1  0.00000000  0.00000000  0.00000000  1
  Te  Te1  1  0.50000000  0.50000000  0.00000000  1
  Pb  Pb2  1  0.24315300  0.75626700  0.51311400  1
  Pb  Pb3  1  0.75684700  0.24373300  0.48688600  1
  O  O4  1  0.66548800  0.12653400  0.98376100  1
  O  O5  1  0.85722700  0.87346600  0.53895400  1
  O  O6  1  0.33451200  0.87346600  0.01623900  1
  O  O7  1  0.14277300  0.12653400  0.46104600  1
