# generated using pymatgen
data_Fe2(CO3)3
_symmetry_space_group_name_H-M   'P 1'
_cell_length_a   7.63148901
_cell_length_b   7.63148901
_cell_length_c   7.63148831
_cell_angle_alpha   109.07792927
_cell_angle_beta   109.07792927
_cell_angle_gamma   109.07792998
_symmetry_Int_Tables_number   1
_chemical_formula_structural   Fe2(CO3)3
_chemical_formula_sum   'Fe4 C6 O18'
_cell_volume   347.03421083
_cell_formula_units_Z   2
loop_
 _symmetry_equiv_pos_site_id
 _symmetry_equiv_pos_as_xyz
  1  'x, y, z'
loop_
 _atom_site_type_symbol
 _atom_site_label
 _atom_site_symmetry_multiplicity
 _atom_site_fract_x
 _atom_site_fract_y
 _atom_site_fract_z
 _atom_site_occupancy
  Fe  Fe0  1  0.54123700  0.04155400  0.17074400  1
  Fe  Fe1  1  0.04155400  0.17074400  0.54123700  1
  Fe  Fe2  1  0.45905200  0.45905200  0.45905200  1
  Fe  Fe3  1  0.17074400  0.54123700  0.04155400  1
  C  C4  1  0.25988400  0.17498800  0.94224700  1
  C  C5  1  0.94224700  0.25988400  0.17498800  1
  C  C6  1  0.80642400  0.41258800  0.59878400  1
  C  C7  1  0.41258800  0.59878400  0.80642400  1
  C  C8  1  0.59878400  0.80642400  0.41258800  1
  C  C9  1  0.17498800  0.94224700  0.25988400  1
  O  O10  1  0.35837000  0.06746300  0.94455200  1
  O  O11  1  0.77586600  0.08454800  0.10884900  1
  O  O12  1  0.08454800  0.10884900  0.77586600  1
  O  O13  1  0.35385000  0.10777800  0.32002800  1
  O  O14  1  0.98058000  0.40861200  0.70280200  1
  O  O15  1  0.73214900  0.34612400  0.39617200  1
  O  O16  1  0.71109000  0.47775400  0.68919600  1
  O  O17  1  0.94455200  0.35837000  0.06746300  1
  O  O18  1  0.34612400  0.39617200  0.73214900  1
  O  O19  1  0.32002800  0.35385000  0.10777800  1
  O  O20  1  0.10777800  0.32002800  0.35385000  1
  O  O21  1  0.40861200  0.70280200  0.98058000  1
  O  O22  1  0.68919600  0.71109000  0.47775400  1
  O  O23  1  0.47775400  0.68919600  0.71109000  1
  O  O24  1  0.39617200  0.73214900  0.34612400  1
  O  O25  1  0.70280200  0.98058000  0.40861200  1
  O  O26  1  0.06746300  0.94455200  0.35837000  1
  O  O27  1  0.10884900  0.77586600  0.08454800  1
