# generated using pymatgen
data_K(WO3)3
_symmetry_space_group_name_H-M   'P 1'
_cell_length_a   32.61674896
_cell_length_b   32.61674896
_cell_length_c   3.85342100
_cell_angle_alpha   90.00000000
_cell_angle_beta   90.00000000
_cell_angle_gamma   166.84402466
_symmetry_Int_Tables_number   1
_chemical_formula_structural   K(WO3)3
_chemical_formula_sum   'K5 W15 O45'
_cell_volume   933.05075020
_cell_formula_units_Z   5
loop_
 _symmetry_equiv_pos_site_id
 _symmetry_equiv_pos_as_xyz
  1  'x, y, z'
loop_
 _atom_site_type_symbol
 _atom_site_label
 _atom_site_symmetry_multiplicity
 _atom_site_fract_x
 _atom_site_fract_y
 _atom_site_fract_z
 _atom_site_occupancy
  K  K0  1  0.09991500  0.90008500  0.09985500  1
  K  K1  1  0.69981500  0.30018500  0.10013400  1
  K  K2  1  0.30018500  0.69981500  0.10013400  1
  K  K3  1  0.90008500  0.09991500  0.09985500  1
  K  K4  1  0.50000000  0.50000000  0.90040000  1
  W  W5  1  0.59978600  0.40021400  0.50159900  1
  W  W6  1  0.40017300  0.10054500  0.50115100  1
  W  W7  1  0.19980200  0.80019800  0.50111100  1
  W  W8  1  0.89945500  0.59982700  0.50115100  1
  W  W9  1  0.50000000  0.00000000  0.50104400  1
  W  W10  1  0.00000000  0.50000000  0.50104400  1
  W  W11  1  0.80019800  0.19980200  0.50111100  1
  W  W12  1  0.59982700  0.89945500  0.50115100  1
  W  W13  1  0.10054500  0.40017300  0.50115100  1
  W  W14  1  0.40021400  0.59978600  0.50159900  1
  W  W15  1  0.70010600  0.80036900  0.49997900  1
  W  W16  1  0.19963100  0.29989400  0.49997900  1
  W  W17  1  0.00000000  0.00000000  0.49802900  1
  W  W18  1  0.29989400  0.19963100  0.49997900  1
  W  W19  1  0.80036900  0.70010600  0.49997900  1
  O  O20  1  0.05758200  0.94241800  0.49894200  1
  O  O21  1  0.39531000  0.23782000  0.49924200  1
  O  O22  1  0.76218000  0.60469000  0.49924200  1
  O  O23  1  0.59986000  0.40014000  0.99982300  1
  O  O24  1  0.43785100  0.19577200  0.49958100  1
  O  O25  1  0.14210600  0.85789400  0.49964700  1
  O  O26  1  0.40009600  0.10037600  0.99997000  1
  O  O27  1  0.80422800  0.56214900  0.49958100  1
  O  O28  1  0.65757200  0.34242800  0.49962200  1
  O  O29  1  0.36193100  0.00452300  0.49960100  1
  O  O30  1  0.19986300  0.80013700  0.00005800  1
  O  O31  1  0.89962400  0.59990500  0.99997000  1
  O  O32  1  0.99547700  0.63806900  0.49960100  1
  O  O33  1  0.40477100  0.96288400  0.49962000  1
  O  O34  1  0.25759000  0.74241000  0.49959500  1
  O  O35  1  0.50000000  0.00000000  0.99992700  1
  O  O36  1  0.03711600  0.59522900  0.49962000  1
  O  O37  1  0.74241000  0.25759000  0.49959500  1
  O  O38  1  0.00000000  0.50000000  0.99992700  1
  O  O39  1  0.59522900  0.03711600  0.49962000  1
  O  O40  1  0.96288400  0.40477100  0.49962000  1
  O  O41  1  0.80013700  0.19986300  0.00005800  1
  O  O42  1  0.63806900  0.99547700  0.49960100  1
  O  O43  1  0.59990500  0.89962400  0.99997000  1
  O  O44  1  0.00452300  0.36193100  0.49960100  1
  O  O45  1  0.56214900  0.80422800  0.49958100  1
  O  O46  1  0.85789400  0.14210600  0.49964700  1
  O  O47  1  0.10037600  0.40009500  0.99997000  1
  O  O48  1  0.34242800  0.65757200  0.49962200  1
  O  O49  1  0.60469000  0.76218000  0.49924200  1
  O  O50  1  0.19577200  0.43785100  0.49958100  1
  O  O51  1  0.70002800  0.80032500  0.99996000  1
  O  O52  1  0.40014000  0.59986000  0.99982300  1
  O  O53  1  0.94241800  0.05758200  0.49894200  1
  O  O54  1  0.23782000  0.39531000  0.49924200  1
  O  O55  1  0.19967500  0.29997200  0.99996000  1
  O  O56  1  0.79532500  0.83783300  0.50079500  1
  O  O57  1  0.16216700  0.20467500  0.50079500  1
  O  O58  1  0.45758000  0.54242000  0.50101200  1
  O  O59  1  0.00000000  0.00000000  0.00031600  1
  O  O60  1  0.83783300  0.79532500  0.50079500  1
  O  O61  1  0.20467500  0.16216700  0.50079500  1
  O  O62  1  0.29997200  0.19967500  0.99996000  1
  O  O63  1  0.54242000  0.45758000  0.50101200  1
  O  O64  1  0.80032500  0.70002800  0.99996000  1
