# generated using pymatgen
data_Th4Ta18O53
_symmetry_space_group_name_H-M   'P 1'
_cell_length_a   6.41393915
_cell_length_b   6.41393915
_cell_length_c   28.11237400
_cell_angle_alpha   90.00000000
_cell_angle_beta   90.00000000
_cell_angle_gamma   119.99999126
_symmetry_Int_Tables_number   1
_chemical_formula_structural   Th4Ta18O53
_chemical_formula_sum   'Th4 Ta18 O53'
_cell_volume   1001.56205606
_cell_formula_units_Z   1
loop_
 _symmetry_equiv_pos_site_id
 _symmetry_equiv_pos_as_xyz
  1  'x, y, z'
loop_
 _atom_site_type_symbol
 _atom_site_label
 _atom_site_symmetry_multiplicity
 _atom_site_fract_x
 _atom_site_fract_y
 _atom_site_fract_z
 _atom_site_occupancy
  Th  Th0  1  0.66666700  0.33333300  0.99317400  1
  Th  Th1  1  0.66666700  0.33333300  0.50145900  1
  Th  Th2  1  0.00000000  0.00000000  0.99894800  1
  Th  Th3  1  0.00000000  0.00000000  0.50146500  1
  Ta  Ta4  1  0.29829400  0.32033900  0.11410900  1
  Ta  Ta5  1  0.33340800  0.31732400  0.38798600  1
  Ta  Ta6  1  0.33425300  0.31077200  0.25191300  1
  Ta  Ta7  1  0.33336600  0.02087400  0.74875700  1
  Ta  Ta8  1  0.33338000  0.01574700  0.61309600  1
  Ta  Ta9  1  0.33106600  0.01517400  0.88534300  1
  Ta  Ta10  1  0.67966100  0.97795500  0.11410900  1
  Ta  Ta11  1  0.68267600  0.01608300  0.38798600  1
  Ta  Ta12  1  0.68922800  0.02348100  0.25191300  1
  Ta  Ta13  1  0.97912600  0.31249200  0.74875700  1
  Ta  Ta14  1  0.98482600  0.31589200  0.88534300  1
  Ta  Ta15  1  0.98425300  0.31763200  0.61309600  1
  Ta  Ta16  1  0.68410800  0.66893400  0.88534300  1
  Ta  Ta17  1  0.68236800  0.66662000  0.61309600  1
  Ta  Ta18  1  0.68750800  0.66663400  0.74875700  1
  Ta  Ta19  1  0.97651900  0.66574700  0.25191300  1
  Ta  Ta20  1  0.02204500  0.70170600  0.11410900  1
  Ta  Ta21  1  0.98391700  0.66659200  0.38798600  1
  O  O22  1  0.33334600  0.42540100  0.74996500  1
  O  O23  1  0.33430000  0.42424400  0.88840400  1
  O  O24  1  0.33338400  0.42552600  0.61185400  1
  O  O25  1  0.34209400  0.27735600  0.17741400  1
  O  O26  1  0.33305400  0.27671100  0.31906200  1
  O  O27  1  0.35579000  0.27832000  0.04660500  1
  O  O28  1  0.33343700  0.28601700  0.45853600  1
  O  O29  1  0.33345500  0.04653100  0.54084800  1
  O  O30  1  0.32297900  0.03821000  0.96066900  1
  O  O31  1  0.33358500  0.05679800  0.82003700  1
  O  O32  1  0.33338500  0.05739300  0.68013000  1
  O  O33  1  0.35399000  0.93630300  0.11196800  1
  O  O34  1  0.33344200  0.90728000  0.38790400  1
  O  O35  1  0.33329100  0.90938700  0.24920300  1
  O  O36  1  0.66666700  0.33333300  0.24824700  1
  O  O37  1  0.66666700  0.33333300  0.60467400  1
  O  O38  1  0.66666700  0.33333300  0.89830800  1
  O  O39  1  0.66666700  0.33333300  0.75066100  1
  O  O40  1  0.66666700  0.33333300  0.39348000  1
  O  O41  1  0.57459900  0.90794600  0.74996500  1
  O  O42  1  0.57447400  0.90785800  0.61185400  1
  O  O43  1  0.57575600  0.91005600  0.88840400  1
  O  O44  1  0.72264400  0.06473900  0.17741400  1
  O  O45  1  0.72328900  0.05634300  0.31906200  1
  O  O46  1  0.71398300  0.04742000  0.45853600  1
  O  O47  1  0.72168000  0.07747000  0.04660500  1
  O  O48  1  0.57609600  0.66670900  0.24920300  1
  O  O49  1  0.57383800  0.66655800  0.38790400  1
  O  O50  1  0.58231300  0.64601000  0.11196800  1
  O  O51  1  0.95346900  0.28692500  0.54084800  1
  O  O52  1  0.96179000  0.28477000  0.96066900  1
  O  O53  1  0.94260700  0.27599200  0.68013000  1
  O  O54  1  0.94320200  0.27678700  0.82003700  1
  O  O55  1  0.06369700  0.41768700  0.11196800  1
  O  O56  1  0.09272000  0.42616200  0.38790400  1
  O  O57  1  0.09061300  0.42390400  0.24920300  1
  O  O58  1  0.72400800  0.66661500  0.68013000  1
  O  O59  1  0.72321300  0.66641500  0.82003700  1
  O  O60  1  0.71307500  0.66654500  0.54084800  1
  O  O61  1  0.71523000  0.67702100  0.96066900  1
  O  O62  1  0.00000000  0.00000000  0.60467400  1
  O  O63  1  0.00000000  0.00000000  0.75065500  1
  O  O64  1  0.00000000  0.00000000  0.89608100  1
  O  O65  1  0.00000000  0.00000000  0.24671800  1
  O  O66  1  0.00000000  0.00000000  0.10446800  1
  O  O67  1  0.00000000  0.00000000  0.39347000  1
  O  O68  1  0.92253000  0.64421000  0.04660500  1
  O  O69  1  0.95258000  0.66656300  0.45853600  1
  O  O70  1  0.93526100  0.65790600  0.17741400  1
  O  O71  1  0.94365700  0.66694600  0.31906200  1
  O  O72  1  0.08994400  0.66570000  0.88840400  1
  O  O73  1  0.09214200  0.66661600  0.61185400  1
  O  O74  1  0.09205400  0.66665400  0.74996500  1
