# generated using pymatgen
data_Cd2Ni(ClO2)6
_symmetry_space_group_name_H-M   'P 1'
_cell_length_a   17.16432520
_cell_length_b   14.47736484
_cell_length_c   10.66380768
_cell_angle_alpha   84.66724152
_cell_angle_beta   57.11963636
_cell_angle_gamma   38.21312212
_symmetry_Int_Tables_number   1
_chemical_formula_structural   Cd2Ni(ClO2)6
_chemical_formula_sum   'Cd4 Ni2 Cl12 O24'
_cell_volume   1055.22910712
_cell_formula_units_Z   2
loop_
 _symmetry_equiv_pos_site_id
 _symmetry_equiv_pos_as_xyz
  1  'x, y, z'
loop_
 _atom_site_type_symbol
 _atom_site_label
 _atom_site_symmetry_multiplicity
 _atom_site_fract_x
 _atom_site_fract_y
 _atom_site_fract_z
 _atom_site_occupancy
  Cd  Cd0  1  0.45038200  0.05625900  0.53074500  1
  Cd  Cd1  1  0.96261400  0.53074500  0.05625900  1
  Cd  Cd2  1  0.19374100  0.79961800  0.28738600  1
  Cd  Cd3  1  0.71925500  0.28738600  0.79961800  1
  Ni  Ni4  1  0.96834100  0.53165900  0.53165900  1
  Ni  Ni5  1  0.71834100  0.28165900  0.28165900  1
  Cl  Cl6  1  0.11037700  0.28185500  0.80513500  1
  Cl  Cl7  1  0.80263300  0.80513500  0.28185500  1
  Cl  Cl8  1  0.96814500  0.13962300  0.44736700  1
  Cl  Cl9  1  0.44486500  0.44736700  0.13962300  1
  Cl  Cl10  1  0.60832800  0.79490500  0.28409000  1
  Cl  Cl11  1  0.31267700  0.28409000  0.79490500  1
  Cl  Cl12  1  0.45509500  0.64167200  0.93732300  1
  Cl  Cl13  1  0.96591000  0.93732300  0.64167200  1
  Cl  Cl14  1  0.31203000  0.32523300  0.40445000  1
  Cl  Cl15  1  0.95828700  0.40445000  0.32523300  1
  Cl  Cl16  1  0.92476700  0.93797000  0.29171300  1
  Cl  Cl17  1  0.84555000  0.29171300  0.93797000  1
  O  O18  1  0.47944500  0.83774600  0.68040100  1
  O  O19  1  0.00240900  0.68040100  0.83774600  1
  O  O20  1  0.41225400  0.77055500  0.24759100  1
  O  O21  1  0.56959900  0.24759100  0.77055500  1
  O  O22  1  0.11293900  0.50078500  0.46774100  1
  O  O23  1  0.91853400  0.46774100  0.50078500  1
  O  O24  1  0.74921500  0.13706100  0.33146600  1
  O  O25  1  0.78225900  0.33146600  0.13706100  1
  O  O26  1  0.35231800  0.12529100  0.20104900  1
  O  O27  1  0.32134200  0.20104900  0.12529100  1
  O  O28  1  0.12470900  0.89768200  0.92865800  1
  O  O29  1  0.04895100  0.92865800  0.89768200  1
  O  O30  1  0.81602700  0.62078800  0.82776600  1
  O  O31  1  0.73542000  0.82776600  0.62078800  1
  O  O32  1  0.62921200  0.43397300  0.51458000  1
  O  O33  1  0.42223400  0.51458000  0.43397300  1
  O  O34  1  0.44602300  0.88269400  0.81567000  1
  O  O35  1  0.85561300  0.81567000  0.88269400  1
  O  O36  1  0.36730600  0.80397700  0.39438700  1
  O  O37  1  0.43433000  0.39438700  0.80397700  1
  O  O38  1  0.65037800  0.73230400  0.95555600  1
  O  O39  1  0.66176100  0.95555600  0.73230400  1
  O  O40  1  0.51769600  0.59962200  0.58823900  1
  O  O41  1  0.29444400  0.58823900  0.59962200  1
