# generated using pymatgen
data_Zr4N2O5
_symmetry_space_group_name_H-M   'P 1'
_cell_length_a   8.90776324
_cell_length_b   8.90776324
_cell_length_c   8.90776324
_cell_angle_alpha   109.15423455
_cell_angle_beta   109.15423455
_cell_angle_gamma   110.10707006
_symmetry_Int_Tables_number   1
_chemical_formula_structural   Zr4N2O5
_chemical_formula_sum   'Zr16 N8 O20'
_cell_volume   544.05641737
_cell_formula_units_Z   4
loop_
 _symmetry_equiv_pos_site_id
 _symmetry_equiv_pos_as_xyz
  1  'x, y, z'
loop_
 _atom_site_type_symbol
 _atom_site_label
 _atom_site_symmetry_multiplicity
 _atom_site_fract_x
 _atom_site_fract_y
 _atom_site_fract_z
 _atom_site_occupancy
  Zr  Zr0  1  0.78322600  0.99707300  0.27467600  1
  Zr  Zr1  1  0.00144700  0.00144700  0.00000000  1
  Zr  Zr2  1  0.53654600  0.03654600  0.50000000  1
  Zr  Zr3  1  0.50144700  0.50144700  0.00000000  1
  Zr  Zr4  1  0.22239700  0.49707300  0.21384700  1
  Zr  Zr5  1  0.79690700  0.75370400  0.50000000  1
  Zr  Zr6  1  0.29690700  0.79690700  0.04320300  1
  Zr  Zr7  1  0.50855100  0.78322600  0.78615300  1
  Zr  Zr8  1  0.00855100  0.22239700  0.72532400  1
  Zr  Zr9  1  0.99707300  0.72239700  0.21384700  1
  Zr  Zr10  1  0.49707300  0.28322600  0.27467600  1
  Zr  Zr11  1  0.25370400  0.29690700  0.50000000  1
  Zr  Zr12  1  0.75370400  0.25370400  0.95679700  1
  Zr  Zr13  1  0.28322600  0.00855100  0.78615300  1
  Zr  Zr14  1  0.03654600  0.53654600  0.50000000  1
  Zr  Zr15  1  0.72239700  0.50855100  0.72532400  1
  N  N16  1  0.75089300  0.97789600  0.50000000  1
  N  N17  1  0.78249600  0.50289900  0.50000000  1
  N  N18  1  0.28249600  0.78249600  0.27959800  1
  N  N19  1  0.97789600  0.47789600  0.22700300  1
  N  N20  1  0.25089300  0.75089300  0.77299700  1
  N  N21  1  0.00289900  0.28249600  0.50000000  1
  N  N22  1  0.50289900  0.00289900  0.72040200  1
  N  N23  1  0.47789600  0.25089300  0.50000000  1
  O  O24  1  0.99235800  0.23279600  0.96736600  1
  O  O25  1  0.73422000  0.76659200  0.73367900  1
  O  O26  1  0.50054100  0.53291300  0.26632100  1
  O  O27  1  0.80360800  0.30360800  0.74481100  1
  O  O28  1  0.52499200  0.76542900  0.03263400  1
  O  O29  1  0.55879700  0.05879700  0.25518900  1
  O  O30  1  0.76659200  0.03291300  0.03237100  1
  O  O31  1  0.49235800  0.52499200  0.75956200  1
  O  O32  1  0.23422000  0.50054100  0.96762900  1
  O  O33  1  0.53291300  0.26659200  0.03237100  1
  O  O34  1  0.76542900  0.73279600  0.24043800  1
  O  O35  1  0.26542900  0.02499200  0.03263400  1
  O  O36  1  0.00054100  0.73422000  0.96762900  1
  O  O37  1  0.30360800  0.55879700  0.50000000  1
  O  O38  1  0.73279600  0.49235800  0.96736600  1
  O  O39  1  0.23279600  0.26542900  0.24043800  1
  O  O40  1  0.02499200  0.99235800  0.75956200  1
  O  O41  1  0.05879700  0.80360800  0.50000000  1
  O  O42  1  0.26659200  0.23422000  0.73367900  1
  O  O43  1  0.03291300  0.00054100  0.26632100  1
