# generated using pymatgen
data_La9Mn10O30
_symmetry_space_group_name_H-M   'P 1'
_cell_length_a   7.86049500
_cell_length_b   9.53795650
_cell_length_c   9.63317755
_cell_angle_alpha   80.99561165
_cell_angle_beta   113.81817367
_cell_angle_gamma   113.56143588
_symmetry_Int_Tables_number   1
_chemical_formula_structural   La9Mn10O30
_chemical_formula_sum   'La9 Mn10 O30'
_cell_volume   605.62460386
_cell_formula_units_Z   1
loop_
 _symmetry_equiv_pos_site_id
 _symmetry_equiv_pos_as_xyz
  1  'x, y, z'
loop_
 _atom_site_type_symbol
 _atom_site_label
 _atom_site_symmetry_multiplicity
 _atom_site_fract_x
 _atom_site_fract_y
 _atom_site_fract_z
 _atom_site_occupancy
  La  La0  1  0.55244500  0.70059400  0.89956600  1
  La  La1  1  0.65684100  0.10820600  0.70839700  1
  La  La2  1  0.14825400  0.09837700  0.70180700  1
  La  La3  1  0.04934100  0.68959700  0.90513200  1
  La  La4  1  0.74538500  0.49745700  0.49956600  1
  La  La5  1  0.24341800  0.49421500  0.49084700  1
  La  La6  1  0.45077200  0.30007600  0.10159000  1
  La  La7  1  0.84962100  0.90778900  0.29346100  1
  La  La8  1  0.35354100  0.90282200  0.29813900  1
  Mn  Mn9  1  0.60274200  0.39969200  0.80334100  1
  Mn  Mn10  1  0.09876700  0.39837000  0.80147600  1
  Mn  Mn11  1  0.80036200  0.20088000  0.39649000  1
  Mn  Mn12  1  0.19990500  0.80032000  0.59940300  1
  Mn  Mn13  1  0.70014000  0.80107500  0.60001500  1
  Mn  Mn14  1  0.29763300  0.20065700  0.39755100  1
  Mn  Mn15  1  0.90018500  0.59770700  0.19944800  1
  Mn  Mn16  1  0.39615800  0.59636100  0.19975000  1
  Mn  Mn17  1  0.50313700  0.00170000  0.00109300  1
  Mn  Mn18  1  0.00081000  0.00328900  0.00109800  1
  O  O19  1  0.72585100  0.99338300  0.96031600  1
  O  O20  1  0.10536400  0.20682400  0.91177400  1
  O  O21  1  0.49840700  0.18597600  0.87456700  1
  O  O22  1  0.28706400  0.52525900  0.98523800  1
  O  O23  1  0.85421800  0.39529800  0.81298100  1
  O  O24  1  0.33586000  0.41196700  0.75974800  1
  O  O25  1  0.30647100  0.87364100  0.81023600  1
  O  O26  1  0.91859100  0.27458600  0.61326300  1
  O  O27  1  0.30200900  0.01270200  0.52927000  1
  O  O28  1  0.69618500  0.61323800  0.72344200  1
  O  O29  1  0.88334500  0.92124200  0.78867500  1
  O  O30  1  0.48032600  0.32038100  0.59007500  1
  O  O31  1  0.10436900  0.58955600  0.67453800  1
  O  O32  1  0.46103200  0.78883500  0.63480800  1
  O  O33  1  0.06195900  0.18615000  0.43693200  1
  O  O34  1  0.93693600  0.81365400  0.56015300  1
  O  O35  1  0.54122000  0.21276800  0.36950500  1
  O  O36  1  0.13091400  0.06511900  0.21933400  1
  O  O37  1  0.51615100  0.67905500  0.41226700  1
  O  O38  1  0.88865700  0.41777900  0.33597100  1
  O  O39  1  0.08772200  0.72647300  0.38981300  1
  O  O40  1  0.70708100  0.99017400  0.48041500  1
  O  O41  1  0.33326200  0.39580400  0.29223100  1
  O  O42  1  0.66177000  0.10748000  0.19587000  1
  O  O43  1  0.66334400  0.59339800  0.23374900  1
  O  O44  1  0.15176000  0.62814600  0.17355000  1
  O  O45  1  0.49534500  0.80988100  0.11966900  1
  O  O46  1  0.70036300  0.48763700  0.00491600  1
  O  O47  1  0.90579700  0.78810900  0.07754200  1
  O  O48  1  0.25916900  0.98630500  0.03098500  1
