# generated using pymatgen
data_KCaCoC6(S3O5)2
_symmetry_space_group_name_H-M   'P 1'
_cell_length_a   11.74295900
_cell_length_b   12.11076200
_cell_length_c   13.66919700
_cell_angle_alpha   90.00000000
_cell_angle_beta   90.00000000
_cell_angle_gamma   90.00000000
_symmetry_Int_Tables_number   1
_chemical_formula_structural   KCaCoC6(S3O5)2
_chemical_formula_sum   'K4 Ca4 Co4 C24 S24 O40'
_cell_volume   1943.98100322
_cell_formula_units_Z   4
loop_
 _symmetry_equiv_pos_site_id
 _symmetry_equiv_pos_as_xyz
  1  'x, y, z'
loop_
 _atom_site_type_symbol
 _atom_site_label
 _atom_site_symmetry_multiplicity
 _atom_site_fract_x
 _atom_site_fract_y
 _atom_site_fract_z
 _atom_site_occupancy
  K  K0  1  0.81137900  0.15246600  0.53061800  1
  K  K1  1  0.18862100  0.65246600  0.96938200  1
  K  K2  1  0.31137900  0.34753400  0.46938200  1
  K  K3  1  0.68862100  0.84753400  0.03061800  1
  Ca  Ca4  1  0.83905000  0.02168100  0.78724000  1
  Ca  Ca5  1  0.16095000  0.52168100  0.71276000  1
  Ca  Ca6  1  0.33905000  0.47831900  0.21276000  1
  Ca  Ca7  1  0.66095000  0.97831900  0.28724000  1
  Co  Co8  1  0.81554900  0.45960400  0.27954600  1
  Co  Co9  1  0.18445100  0.95960400  0.22045400  1
  Co  Co10  1  0.31554900  0.04039600  0.72045400  1
  Co  Co11  1  0.68445100  0.54039600  0.77954600  1
  C  C12  1  0.68953500  0.23651000  0.32566300  1
  C  C13  1  0.31046500  0.73651000  0.17433700  1
  C  C14  1  0.18953500  0.26349000  0.67433700  1
  C  C15  1  0.81046500  0.76349000  0.82566300  1
  C  C16  1  0.67190400  0.69099700  0.26942400  1
  C  C17  1  0.32809600  0.19099700  0.23057600  1
  C  C18  1  0.17190400  0.80900300  0.73057600  1
  C  C19  1  0.82809600  0.30900300  0.76942400  1
  C  C20  1  0.72673800  0.22307900  0.21873000  1
  C  C21  1  0.27326200  0.72307900  0.28127000  1
  C  C22  1  0.22673800  0.27692100  0.78127000  1
  C  C23  1  0.77326200  0.77692100  0.71873000  1
  C  C24  1  0.74721000  0.63476700  0.32327200  1
  C  C25  1  0.25279000  0.13476700  0.17672800  1
  C  C26  1  0.24721000  0.86523300  0.67672800  1
  C  C27  1  0.75279000  0.36523300  0.82327200  1
  C  C28  1  0.08074200  0.42871500  0.28114600  1
  C  C29  1  0.91925800  0.92871500  0.21885400  1
  C  C30  1  0.58074200  0.07128500  0.71885400  1
  C  C31  1  0.41925800  0.57128500  0.78114600  1
  C  C32  1  0.06165000  0.50419700  0.19345700  1
  C  C33  1  0.93835000  0.00419700  0.30654300  1
  C  C34  1  0.56165000  0.99580300  0.80654300  1
  C  C35  1  0.43835000  0.49580300  0.69345700  1
  S  S36  1  0.71329000  0.35858500  0.38514600  1
  S  S37  1  0.28671000  0.85858500  0.11485400  1
  S  S38  1  0.21329000  0.14141500  0.61485400  1
  S  S39  1  0.78671000  0.64141500  0.88514600  1
  S  S40  1  0.63069600  0.55183100  0.22681300  1
  S  S41  1  0.36930400  0.05183100  0.27318700  1
  S  S42  1  0.13069600  0.94816900  0.77318700  1
  S  S43  1  0.86930400  0.44816900  0.72681300  1
  S  S44  1  0.78378100  0.33478200  0.16042600  1
  S  S45  1  0.21621900  0.83478200  0.33957400  1
  S  S46  1  0.28378100  0.16521800  0.83957400  1
  S  S47  1  0.71621900  0.66521800  0.66042600  1
  S  S48  1  0.84402200  0.59013000  0.39908400  1
  S  S49  1  0.15597800  0.09013000  0.10091600  1
  S  S50  1  0.34402200  0.90987000  0.60091600  1
  S  S51  1  0.65597800  0.40987000  0.89908400  1
  S  S52  1  0.96583000  0.37030300  0.33606300  1
  S  S53  1  0.03417000  0.87030300  0.16393700  1
  S  S54  1  0.46583000  0.12969700  0.66393700  1
  S  S55  1  0.53417000  0.62969700  0.83606300  1
  S  S56  1  0.92683100  0.54811000  0.16940100  1
  S  S57  1  0.07316900  0.04811000  0.33059900  1
  S  S58  1  0.42683100  0.95189000  0.83059900  1
  S  S59  1  0.57316900  0.45189000  0.66940100  1
  O  O60  1  0.64409500  0.15500700  0.36717800  1
  O  O61  1  0.35590500  0.65500700  0.13282200  1
  O  O62  1  0.14409500  0.34499300  0.63282200  1
  O  O63  1  0.85590500  0.84499300  0.86717800  1
  O  O64  1  0.62904000  0.78455100  0.25052900  1
  O  O65  1  0.37096000  0.28455100  0.24947100  1
  O  O66  1  0.12904000  0.71544900  0.74947100  1
  O  O67  1  0.87096000  0.21544900  0.75052900  1
  O  O68  1  0.71289000  0.13006200  0.18041500  1
  O  O69  1  0.28711000  0.63006200  0.31958500  1
  O  O70  1  0.21289000  0.36993800  0.81958500  1
  O  O71  1  0.78711000  0.86993800  0.68041500  1
  O  O72  1  0.93460900  0.81617900  0.45450400  1
  O  O73  1  0.06539100  0.31617900  0.04549600  1
  O  O74  1  0.43460900  0.68382100  0.54549600  1
  O  O75  1  0.56539100  0.18382100  0.95450400  1
  O  O76  1  0.18169200  0.40918000  0.30724100  1
  O  O77  1  0.81830800  0.90918000  0.19275900  1
  O  O78  1  0.68169200  0.09082000  0.69275900  1
  O  O79  1  0.31830800  0.59082000  0.80724100  1
  O  O80  1  0.14811100  0.53026000  0.14347100  1
  O  O81  1  0.85188900  0.03026000  0.35652900  1
  O  O82  1  0.64811100  0.96974000  0.85652900  1
  O  O83  1  0.35188900  0.46974000  0.64347100  1
  O  O84  1  0.02419800  0.32598900  0.96269200  1
  O  O85  1  0.97580200  0.82598900  0.53730800  1
  O  O86  1  0.52419800  0.17401100  0.03730800  1
  O  O87  1  0.47580200  0.67401100  0.46269200  1
  O  O88  1  0.98403300  0.07465600  0.92107100  1
  O  O89  1  0.01596700  0.57465600  0.57892900  1
  O  O90  1  0.48403300  0.42534400  0.07892900  1
  O  O91  1  0.51596700  0.92534400  0.42107100  1
  O  O92  1  0.97848800  0.48574800  0.77686200  1
  O  O93  1  0.02151200  0.98574800  0.72313800  1
  O  O94  1  0.47848800  0.01425200  0.22313800  1
  O  O95  1  0.52151200  0.51425200  0.27686200  1
  O  O96  1  0.89817000  0.05737500  0.97570600  1
  O  O97  1  0.10183000  0.55737500  0.52429400  1
  O  O98  1  0.39817000  0.44262500  0.02429400  1
  O  O99  1  0.60183000  0.94262500  0.47570600  1
