# generated using pymatgen
data_P2H12N7Cl
_symmetry_space_group_name_H-M   'P 1'
_cell_length_a   5.92605437
_cell_length_b   7.47476652
_cell_length_c   11.04930077
_cell_angle_alpha   70.20058693
_cell_angle_beta   75.73440843
_cell_angle_gamma   88.82672794
_symmetry_Int_Tables_number   1
_chemical_formula_structural   P2H12N7Cl
_chemical_formula_sum   'P4 H24 N14 Cl2'
_cell_volume   445.23853834
_cell_formula_units_Z   2
loop_
 _symmetry_equiv_pos_site_id
 _symmetry_equiv_pos_as_xyz
  1  'x, y, z'
loop_
 _atom_site_type_symbol
 _atom_site_label
 _atom_site_symmetry_multiplicity
 _atom_site_fract_x
 _atom_site_fract_y
 _atom_site_fract_z
 _atom_site_occupancy
  P  P0  1  0.23274900  0.26124700  0.43007200  1
  P  P1  1  0.40073100  0.15280600  0.19370300  1
  P  P2  1  0.59926900  0.84719400  0.80629700  1
  P  P3  1  0.76725100  0.73875300  0.56992800  1
  H  H4  1  0.21479000  0.31029400  0.03122600  1
  H  H5  1  0.18763300  0.42324600  0.14402200  1
  H  H6  1  0.18252400  0.90987100  0.17269400  1
  H  H7  1  0.15404100  0.83460800  0.50272900  1
  H  H8  1  0.09717200  0.62026100  0.63257400  1
  H  H9  1  0.25095400  0.58037700  0.40072800  1
  H  H10  1  0.19516300  0.20351200  0.65402200  1
  H  H11  1  0.47527300  0.87151900  0.15435700  1
  H  H12  1  0.21331900  0.75483500  0.82850600  1
  H  H13  1  0.38483500  0.05824600  0.59491800  1
  H  H14  1  0.50843600  0.51964700  0.31425000  1
  H  H15  1  0.23597400  0.80731300  0.96383300  1
  H  H16  1  0.76402600  0.19268700  0.03616700  1
  H  H17  1  0.49156400  0.48035300  0.68575000  1
  H  H18  1  0.61516500  0.94175400  0.40508200  1
  H  H19  1  0.78668100  0.24516500  0.17149400  1
  H  H20  1  0.52472700  0.12848100  0.84564300  1
  H  H21  1  0.80483700  0.79648800  0.34597800  1
  H  H22  1  0.74904600  0.41962300  0.59927200  1
  H  H23  1  0.90282800  0.37973900  0.36742600  1
  H  H24  1  0.84595900  0.16539200  0.49727100  1
  H  H25  1  0.81747600  0.09012900  0.82730600  1
  H  H26  1  0.81236700  0.57675400  0.85597800  1
  H  H27  1  0.78521000  0.68970600  0.96877400  1
  N  N28  1  0.21687800  0.29801000  0.12628700  1
  N  N29  1  0.05093200  0.71033600  0.55035700  1
  N  N30  1  0.34736200  0.96347100  0.15949700  1
  N  N31  1  0.33405500  0.48546100  0.35959200  1
  N  N32  1  0.24647400  0.14126900  0.58263500  1
  N  N33  1  0.36686900  0.13639200  0.34589200  1
  N  N34  1  0.31777100  0.80470600  0.87204100  1
  N  N35  1  0.68222900  0.19529400  0.12795900  1
  N  N36  1  0.63313100  0.86360800  0.65410800  1
  N  N37  1  0.75352600  0.85873100  0.41736500  1
  N  N38  1  0.66594500  0.51453900  0.64040800  1
  N  N39  1  0.65263800  0.03652900  0.84050300  1
  N  N40  1  0.94906800  0.28966400  0.44964300  1
  N  N41  1  0.78312200  0.70199000  0.87371300  1
  Cl  Cl42  1  0.12907200  0.33671800  0.82257600  1
  Cl  Cl43  1  0.87092800  0.66328200  0.17742400  1
