# generated using pymatgen
data_Sr7Bi23O40
_symmetry_space_group_name_H-M   'P 1'
_cell_length_a   14.09425369
_cell_length_b   14.09425369
_cell_length_c   6.92548501
_cell_angle_alpha   85.25387510
_cell_angle_beta   85.25387510
_cell_angle_gamma   90.88669523
_symmetry_Int_Tables_number   1
_chemical_formula_structural   Sr7Bi23O40
_chemical_formula_sum   'Sr7 Bi23 O40'
_cell_volume   1365.97020128
_cell_formula_units_Z   1
loop_
 _symmetry_equiv_pos_site_id
 _symmetry_equiv_pos_as_xyz
  1  'x, y, z'
loop_
 _atom_site_type_symbol
 _atom_site_label
 _atom_site_symmetry_multiplicity
 _atom_site_fract_x
 _atom_site_fract_y
 _atom_site_fract_z
 _atom_site_occupancy
  Sr  Sr0  1  0.70172100  0.29827900  0.00000000  1
  Sr  Sr1  1  0.29827900  0.70172100  0.00000000  1
  Sr  Sr2  1  0.59950500  0.40049500  0.50000000  1
  Sr  Sr3  1  0.90113600  0.09886400  0.00000000  1
  Sr  Sr4  1  0.09886400  0.90113600  0.00000000  1
  Sr  Sr5  1  0.40049500  0.59950500  0.50000000  1
  Sr  Sr6  1  0.00000000  0.00000000  0.50000000  1
  Bi  Bi7  1  0.50000000  0.50000000  0.00000000  1
  Bi  Bi8  1  0.85502300  0.46548600  0.61968400  1
  Bi  Bi9  1  0.84098300  0.84098300  0.87344800  1
  Bi  Bi10  1  0.80013600  0.19986400  0.50000000  1
  Bi  Bi11  1  0.44094600  0.23839500  0.89376300  1
  Bi  Bi12  1  0.64314100  0.03427200  0.88126500  1
  Bi  Bi13  1  0.53451400  0.14497700  0.38031600  1
  Bi  Bi14  1  0.66272400  0.66272400  0.62070100  1
  Bi  Bi15  1  0.23839500  0.44094600  0.89376300  1
  Bi  Bi16  1  0.46548600  0.85502300  0.61968400  1
  Bi  Bi17  1  0.03427200  0.64314100  0.88126500  1
  Bi  Bi18  1  0.05992800  0.26424600  0.60132700  1
  Bi  Bi19  1  0.76160500  0.55905400  0.10623700  1
  Bi  Bi20  1  0.73575400  0.94007200  0.39867300  1
  Bi  Bi21  1  0.33727600  0.33727600  0.37929900  1
  Bi  Bi22  1  0.55905400  0.76160500  0.10623700  1
  Bi  Bi23  1  0.15901700  0.15901700  0.12655200  1
  Bi  Bi24  1  0.19986400  0.80013600  0.50000000  1
  Bi  Bi25  1  0.14497700  0.53451400  0.38031600  1
  Bi  Bi26  1  0.26424600  0.05992800  0.60132700  1
  Bi  Bi27  1  0.35685900  0.96572800  0.11873500  1
  Bi  Bi28  1  0.94007200  0.73575400  0.39867300  1
  Bi  Bi29  1  0.96572800  0.35685900  0.11873500  1
  O  O30  1  0.85963300  0.44241300  0.95930300  1
  O  O31  1  0.74959400  0.13962300  0.82874100  1
  O  O32  1  0.54134600  0.35015300  0.86644500  1
  O  O33  1  0.66296200  0.66296200  0.96505300  1
  O  O34  1  0.75530100  0.35361900  0.64373900  1
  O  O35  1  0.74854900  0.56031400  0.43245800  1
  O  O36  1  0.43968600  0.25145100  0.56754200  1
  O  O37  1  0.44241300  0.85963300  0.95930300  1
  O  O38  1  0.85427100  0.85427100  0.51054700  1
  O  O39  1  0.55653200  0.55653200  0.67146900  1
  O  O40  1  0.35015300  0.54134600  0.86644500  1
  O  O41  1  0.06271900  0.25042500  0.92586800  1
  O  O42  1  0.86037700  0.25040600  0.17125900  1
  O  O43  1  0.64638100  0.24469900  0.35626100  1
  O  O44  1  0.35361900  0.75530100  0.64373900  1
  O  O45  1  0.64984700  0.45865400  0.13355500  1
  O  O46  1  0.25042500  0.06271900  0.92586800  1
  O  O47  1  0.94429000  0.16738600  0.62908800  1
  O  O48  1  0.44346800  0.44346800  0.32853100  1
  O  O49  1  0.14572900  0.14572900  0.48945300  1
  O  O50  1  0.13962300  0.74959400  0.82874100  1
  O  O51  1  0.83261400  0.05571000  0.37091200  1
  O  O52  1  0.25145100  0.43968600  0.56754200  1
  O  O53  1  0.56031400  0.74854900  0.43245800  1
  O  O54  1  0.55758700  0.14036700  0.04069700  1
  O  O55  1  0.61822500  0.04388200  0.55508700  1
  O  O56  1  0.16738600  0.94429000  0.62908800  1
  O  O57  1  0.04388200  0.61822500  0.55508700  1
  O  O58  1  0.38177500  0.95611800  0.44491300  1
  O  O59  1  0.33703800  0.33703800  0.03494700  1
  O  O60  1  0.24469900  0.64638100  0.35626100  1
  O  O61  1  0.95611800  0.38177500  0.44491300  1
  O  O62  1  0.45865400  0.64984700  0.13355500  1
  O  O63  1  0.94636400  0.94636400  0.84596200  1
  O  O64  1  0.74957500  0.93728100  0.07413200  1
  O  O65  1  0.25040600  0.86037700  0.17125900  1
  O  O66  1  0.05571000  0.83261400  0.37091200  1
  O  O67  1  0.14036700  0.55758700  0.04069700  1
  O  O68  1  0.93728100  0.74957500  0.07413200  1
  O  O69  1  0.05363600  0.05363600  0.15403800  1
