# generated using pymatgen
data_Ba(H9O5)2
_symmetry_space_group_name_H-M   'P 1'
_cell_length_a   10.22504700
_cell_length_b   9.30672700
_cell_length_c   15.70903439
_cell_angle_alpha   60.12192214
_cell_angle_beta   90.00000000
_cell_angle_gamma   90.00000000
_symmetry_Int_Tables_number   1
_chemical_formula_structural   Ba(H9O5)2
_chemical_formula_sum   'Ba4 H72 O40'
_cell_volume   1296.20788876
_cell_formula_units_Z   4
loop_
 _symmetry_equiv_pos_site_id
 _symmetry_equiv_pos_as_xyz
  1  'x, y, z'
loop_
 _atom_site_type_symbol
 _atom_site_label
 _atom_site_symmetry_multiplicity
 _atom_site_fract_x
 _atom_site_fract_y
 _atom_site_fract_z
 _atom_site_occupancy
  Ba  Ba0  1  0.70082400  0.75941800  0.71826600  1
  Ba  Ba1  1  0.79917600  0.75941800  0.21826600  1
  Ba  Ba2  1  0.29917600  0.24058200  0.28173400  1
  Ba  Ba3  1  0.20082400  0.24058200  0.78173400  1
  H  H4  1  0.08025500  0.62198600  0.07812200  1
  H  H5  1  0.41974500  0.62198600  0.57812200  1
  H  H6  1  0.91974500  0.37801400  0.92187800  1
  H  H7  1  0.58025500  0.37801400  0.42187800  1
  H  H8  1  0.13593400  0.68210400  0.92183600  1
  H  H9  1  0.36406600  0.68210400  0.42183600  1
  H  H10  1  0.86406600  0.31789600  0.07816400  1
  H  H11  1  0.63593400  0.31789600  0.57816400  1
  H  H12  1  0.65090300  0.32013500  0.92820000  1
  H  H13  1  0.84909700  0.32013500  0.42820000  1
  H  H14  1  0.34909700  0.67986500  0.07180000  1
  H  H15  1  0.15090300  0.67986500  0.57180000  1
  H  H16  1  0.49889100  0.29978500  0.07638600  1
  H  H17  1  0.00110900  0.29978500  0.57638600  1
  H  H18  1  0.50110900  0.70021500  0.92361400  1
  H  H19  1  0.99889100  0.70021500  0.42361400  1
  H  H20  1  0.85853700  0.20202300  0.00229000  1
  H  H21  1  0.64146300  0.20202300  0.50229000  1
  H  H22  1  0.14146300  0.79797700  0.99771000  1
  H  H23  1  0.35853700  0.79797700  0.49771000  1
  H  H24  1  0.49179300  0.77590300  0.87378500  1
  H  H25  1  0.00820700  0.77590300  0.37378500  1
  H  H26  1  0.50820700  0.22409700  0.12621500  1
  H  H27  1  0.99179300  0.22409700  0.62621500  1
  H  H28  1  0.40253600  0.93830200  0.92988800  1
  H  H29  1  0.09746400  0.93830200  0.42988800  1
  H  H30  1  0.59746400  0.06169800  0.07011200  1
  H  H31  1  0.90253600  0.06169800  0.57011200  1
  H  H32  1  0.26408000  0.68218900  0.86472900  1
  H  H33  1  0.23592000  0.68218900  0.36472900  1
  H  H34  1  0.73592000  0.31781100  0.13527100  1
  H  H35  1  0.76408000  0.31781100  0.63527100  1
  H  H36  1  0.59665100  0.05503500  0.85848800  1
  H  H37  1  0.90334900  0.05503500  0.35848800  1
  H  H38  1  0.40334900  0.94496500  0.14151200  1
  H  H39  1  0.09665100  0.94496500  0.64151200  1
  H  H40  1  0.79656300  0.73427600  0.95011200  1
  H  H41  1  0.70343700  0.73427600  0.45011200  1
  H  H42  1  0.20343700  0.26572400  0.04988800  1
  H  H43  1  0.29656300  0.26572400  0.54988800  1
  H  H44  1  0.08121900  0.64960400  0.58281300  1
  H  H45  1  0.41878100  0.64960400  0.08281300  1
  H  H46  1  0.91878100  0.35039600  0.41718700  1
  H  H47  1  0.58121900  0.35039600  0.91718700  1
  H  H48  1  0.68011600  0.49570700  0.62448200  1
  H  H49  1  0.81988400  0.49570700  0.12448200  1
  H  H50  1  0.31988400  0.50429300  0.37551800  1
  H  H51  1  0.18011600  0.50429300  0.87551800  1
  H  H52  1  0.54373700  0.94829300  0.32864600  1
  H  H53  1  0.95626300  0.94829300  0.82864600  1
  H  H54  1  0.45626300  0.05170700  0.67135400  1
  H  H55  1  0.04373700  0.05170700  0.17135400  1
  H  H56  1  0.32932800  0.86088700  0.61626200  1
  H  H57  1  0.17067200  0.86088700  0.11626200  1
  H  H58  1  0.67067200  0.13911300  0.38373800  1
  H  H59  1  0.82932800  0.13911300  0.88373800  1
  H  H60  1  0.34263800  0.80501300  0.67020100  1
  H  H61  1  0.15736200  0.80501300  0.17020100  1
  H  H62  1  0.65736200  0.19498700  0.32979900  1
  H  H63  1  0.84263800  0.19498700  0.82979900  1
  H  H64  1  0.88799700  0.02901100  0.41130500  1
  H  H65  1  0.61200300  0.02901100  0.91130500  1
  H  H66  1  0.11200300  0.97098900  0.58869500  1
  H  H67  1  0.38799700  0.97098900  0.08869500  1
  H  H68  1  0.58839300  0.10301500  0.69627300  1
  H  H69  1  0.91160700  0.10301500  0.19627300  1
  H  H70  1  0.41160700  0.89698500  0.30372700  1
  H  H71  1  0.08839300  0.89698500  0.80372700  1
  H  H72  1  0.22774400  0.10185400  0.61879800  1
  H  H73  1  0.27225600  0.10185400  0.11879800  1
  H  H74  1  0.77225600  0.89814600  0.38120200  1
  H  H75  1  0.72774400  0.89814600  0.88120200  1
  O  O76  1  0.16865400  0.69890300  0.85621200  1
  O  O77  1  0.33134600  0.69890300  0.35621200  1
  O  O78  1  0.83134600  0.30109700  0.14378800  1
  O  O79  1  0.66865400  0.30109700  0.64378800  1
  O  O80  1  0.14235700  0.02924500  0.43216900  1
  O  O81  1  0.35764300  0.02924500  0.93216900  1
  O  O82  1  0.85764300  0.97075500  0.56783100  1
  O  O83  1  0.64235700  0.97075500  0.06783100  1
  O  O84  1  0.41783300  0.47539600  0.70955800  1
  O  O85  1  0.08216700  0.47539600  0.20955800  1
  O  O86  1  0.58216700  0.52460400  0.29044200  1
  O  O87  1  0.91783300  0.52460400  0.79044200  1
  O  O88  1  0.23507700  0.40089600  0.89777300  1
  O  O89  1  0.26492300  0.40089600  0.39777300  1
  O  O90  1  0.76492300  0.59910400  0.10222700  1
  O  O91  1  0.73507700  0.59910400  0.60222700  1
  O  O92  1  0.35876100  0.46043600  0.90736500  1
  O  O93  1  0.14123900  0.46043600  0.40736500  1
  O  O94  1  0.64123900  0.53956400  0.09263500  1
  O  O95  1  0.85876100  0.53956400  0.59263500  1
  O  O96  1  0.78594200  0.81569100  0.87986600  1
  O  O97  1  0.71405800  0.81569100  0.37986600  1
  O  O98  1  0.21405800  0.18430900  0.12013400  1
  O  O99  1  0.28594200  0.18430900  0.62013400  1
  O  O100  1  0.42043600  0.70628800  0.50796100  1
  O  O101  1  0.07956400  0.70628800  0.00796100  1
  O  O102  1  0.57956400  0.29371200  0.49203900  1
  O  O103  1  0.92043600  0.29371200  0.99203900  1
  O  O104  1  0.47437300  0.54274500  0.75500000  1
  O  O105  1  0.02562700  0.54274500  0.25500000  1
  O  O106  1  0.52562700  0.45725500  0.24500000  1
  O  O107  1  0.97437300  0.45725500  0.74500000  1
  O  O108  1  0.53247000  0.00446700  0.71477000  1
  O  O109  1  0.96753000  0.00446700  0.21477000  1
  O  O110  1  0.46753000  0.99553300  0.28523000  1
  O  O111  1  0.03247000  0.99553300  0.78523000  1
  O  O112  1  0.71762300  0.01992000  0.55767400  1
  O  O113  1  0.78237700  0.01992000  0.05767400  1
  O  O114  1  0.28237700  0.98008000  0.44232600  1
  O  O115  1  0.21762300  0.98008000  0.94232600  1
