# generated using pymatgen
data_Li2Fe3CoO8
_symmetry_space_group_name_H-M   'P 1'
_cell_length_a   8.11536000
_cell_length_b   8.11536000
_cell_length_c   8.11536000
_cell_angle_alpha   90.00000000
_cell_angle_beta   90.00000000
_cell_angle_gamma   90.00000000
_symmetry_Int_Tables_number   1
_chemical_formula_structural   Li2Fe3CoO8
_chemical_formula_sum   'Li8 Fe12 Co4 O32'
_cell_volume   534.47004551
_cell_formula_units_Z   4
loop_
 _symmetry_equiv_pos_site_id
 _symmetry_equiv_pos_as_xyz
  1  'x, y, z'
loop_
 _atom_site_type_symbol
 _atom_site_label
 _atom_site_symmetry_multiplicity
 _atom_site_fract_x
 _atom_site_fract_y
 _atom_site_fract_z
 _atom_site_occupancy
  Li  Li0  1  0.12567600  0.87432400  0.37432400  1
  Li  Li1  1  0.25158700  0.75158700  0.74841300  1
  Li  Li2  1  0.24841300  0.24841300  0.24841300  1
  Li  Li3  1  0.37432400  0.12567600  0.87432400  1
  Li  Li4  1  0.62567600  0.62567600  0.62567600  1
  Li  Li5  1  0.75158700  0.74841300  0.25158700  1
  Li  Li6  1  0.74841300  0.25158700  0.75158700  1
  Li  Li7  1  0.87432400  0.37432400  0.12567600  1
  Fe  Fe8  1  0.12698600  0.62042100  0.12010800  1
  Fe  Fe9  1  0.12042100  0.37989200  0.87301400  1
  Fe  Fe10  1  0.12010800  0.12698600  0.62042100  1
  Fe  Fe11  1  0.37989200  0.87301400  0.12042100  1
  Fe  Fe12  1  0.37957900  0.62010800  0.37301400  1
  Fe  Fe13  1  0.37301400  0.37957900  0.62010800  1
  Fe  Fe14  1  0.62698600  0.87957900  0.87989200  1
  Fe  Fe15  1  0.62042100  0.12010800  0.12698600  1
  Fe  Fe16  1  0.62010800  0.37301400  0.37957900  1
  Fe  Fe17  1  0.87989200  0.62698600  0.87957900  1
  Fe  Fe18  1  0.87957900  0.87989200  0.62698600  1
  Fe  Fe19  1  0.87301400  0.12042100  0.37989200  1
  Co  Co20  1  0.99455600  0.50544400  0.49455600  1
  Co  Co21  1  0.50544400  0.49455600  0.99455600  1
  Co  Co22  1  0.49455600  0.99455600  0.50544400  1
  Co  Co23  1  0.00544400  0.00544400  0.00544400  1
  O  O24  1  0.10421000  0.12751300  0.39486900  1
  O  O25  1  0.10513100  0.89579000  0.62751300  1
  O  O26  1  0.11469100  0.61469100  0.88530900  1
  O  O27  1  0.12751300  0.39486900  0.10421000  1
  O  O28  1  0.12198600  0.14437800  0.86238600  1
  O  O29  1  0.13295300  0.36704700  0.63295300  1
  O  O30  1  0.13761400  0.62198600  0.35562200  1
  O  O31  1  0.14437800  0.86238600  0.12198600  1
  O  O32  1  0.35562200  0.13761400  0.62198600  1
  O  O33  1  0.36238600  0.37801400  0.85562200  1
  O  O34  1  0.36704700  0.63295300  0.13295300  1
  O  O35  1  0.37801400  0.85562200  0.36238600  1
  O  O36  1  0.37248700  0.60513100  0.60421000  1
  O  O37  1  0.38530900  0.38530900  0.38530900  1
  O  O38  1  0.39486900  0.10421000  0.12751300  1
  O  O39  1  0.39579000  0.87248700  0.89486900  1
  O  O40  1  0.60421000  0.37248700  0.60513100  1
  O  O41  1  0.60513100  0.60421000  0.37248700  1
  O  O42  1  0.61469100  0.88530900  0.11469100  1
  O  O43  1  0.62751300  0.10513100  0.89579000  1
  O  O44  1  0.62198600  0.35562200  0.13761400  1
  O  O45  1  0.63295300  0.13295300  0.36704700  1
  O  O46  1  0.63761400  0.87801400  0.64437800  1
  O  O47  1  0.64437800  0.63761400  0.87801400  1
  O  O48  1  0.85562200  0.36238600  0.37801400  1
  O  O49  1  0.86238600  0.12198600  0.14437800  1
  O  O50  1  0.86704700  0.86704700  0.86704700  1
  O  O51  1  0.87801400  0.64437800  0.63761400  1
  O  O52  1  0.87248700  0.89486900  0.39579000  1
  O  O53  1  0.88530900  0.11469100  0.61469100  1
  O  O54  1  0.89486900  0.39579000  0.87248700  1
  O  O55  1  0.89579000  0.62751300  0.10513100  1
