# generated using pymatgen
data_Na2P2H4N2O5
_symmetry_space_group_name_H-M   'P 1'
_cell_length_a   11.50515565
_cell_length_b   11.50515565
_cell_length_c   15.70977047
_cell_angle_alpha   47.45073463
_cell_angle_beta   47.45073463
_cell_angle_gamma   26.46781836
_symmetry_Int_Tables_number   1
_chemical_formula_structural   Na2P2H4N2O5
_chemical_formula_sum   'Na8 P8 H16 N8 O20'
_cell_volume   666.68223468
_cell_formula_units_Z   4
loop_
 _symmetry_equiv_pos_site_id
 _symmetry_equiv_pos_as_xyz
  1  'x, y, z'
loop_
 _atom_site_type_symbol
 _atom_site_label
 _atom_site_symmetry_multiplicity
 _atom_site_fract_x
 _atom_site_fract_y
 _atom_site_fract_z
 _atom_site_occupancy
  Na  Na0  1  0.56253700  0.24615100  0.10333000  1
  Na  Na1  1  0.17980200  0.31381900  0.40520400  1
  Na  Na2  1  0.68618100  0.82019800  0.09479600  1
  Na  Na3  1  0.75384900  0.43746300  0.39667000  1
  Na  Na4  1  0.24615100  0.56253700  0.60333000  1
  Na  Na5  1  0.31381900  0.17980200  0.90520400  1
  Na  Na6  1  0.82019800  0.68618100  0.59479600  1
  Na  Na7  1  0.43746300  0.75384900  0.89667000  1
  P  P8  1  0.15614100  0.08054400  0.68946400  1
  P  P9  1  0.10628800  0.78527000  0.92249600  1
  P  P10  1  0.21473000  0.89371200  0.57750400  1
  P  P11  1  0.91945600  0.84385900  0.81053600  1
  P  P12  1  0.08054400  0.15614100  0.18946400  1
  P  P13  1  0.78527000  0.10628800  0.42249600  1
  P  P14  1  0.89371200  0.21473000  0.07750400  1
  P  P15  1  0.84385900  0.91945600  0.31053600  1
  H  H16  1  0.78238400  0.24204700  0.84459500  1
  H  H17  1  0.53203600  0.67363500  0.63718500  1
  H  H18  1  0.04567400  0.60906500  0.15618900  1
  H  H19  1  0.63506100  0.86325800  0.28739100  1
  H  H20  1  0.13674200  0.36493900  0.21260900  1
  H  H21  1  0.39093500  0.95432600  0.34381100  1
  H  H22  1  0.32636500  0.46796400  0.86281500  1
  H  H23  1  0.75795300  0.21761600  0.65540500  1
  H  H24  1  0.24204700  0.78238400  0.34459500  1
  H  H25  1  0.67363500  0.53203600  0.13718500  1
  H  H26  1  0.60906500  0.04567400  0.65618900  1
  H  H27  1  0.86325800  0.63506100  0.78739100  1
  H  H28  1  0.36493900  0.13674200  0.71260900  1
  H  H29  1  0.95432600  0.39093500  0.84381100  1
  H  H30  1  0.46796400  0.32636500  0.36281500  1
  H  H31  1  0.21761600  0.75795300  0.15540500  1
  N  N32  1  0.98558800  0.06505900  0.82609900  1
  N  N33  1  0.33655300  0.85876500  0.62925400  1
  N  N34  1  0.14123500  0.66344700  0.87074600  1
  N  N35  1  0.93494100  0.01441200  0.67390100  1
  N  N36  1  0.06505900  0.98558800  0.32609900  1
  N  N37  1  0.85876500  0.33655300  0.12925400  1
  N  N38  1  0.66344700  0.14123500  0.37074600  1
  N  N39  1  0.01441200  0.93494100  0.17390100  1
  O  O40  1  0.64333100  0.01530900  0.29911300  1
  O  O41  1  0.94969600  0.35853100  0.61746500  1
  O  O42  1  0.38339200  0.57266700  0.92832500  1
  O  O43  1  0.89331100  0.87222200  0.03728100  1
  O  O44  1  0.15411200  0.43383400  0.21350000  1
  O  O45  1  0.56616600  0.84588800  0.28650000  1
  O  O46  1  0.12777800  0.10668900  0.46271900  1
  O  O47  1  0.42733300  0.61660800  0.57167500  1
  O  O48  1  0.64146900  0.05030400  0.88253500  1
  O  O49  1  0.98469100  0.35666900  0.20088700  1
  O  O50  1  0.01530900  0.64333100  0.79911300  1
  O  O51  1  0.35853100  0.94969600  0.11746500  1
  O  O52  1  0.57266700  0.38339200  0.42832500  1
  O  O53  1  0.87222200  0.89331100  0.53728100  1
  O  O54  1  0.43383400  0.15411200  0.71350000  1
  O  O55  1  0.84588800  0.56616600  0.78650000  1
  O  O56  1  0.10668900  0.12777800  0.96271900  1
  O  O57  1  0.61660800  0.42733300  0.07167500  1
  O  O58  1  0.05030400  0.64146900  0.38253500  1
  O  O59  1  0.35666900  0.98469100  0.70088700  1
