# generated using pymatgen
data_AlO2
_symmetry_space_group_name_H-M   'P 1'
_cell_length_a   2.91890500
_cell_length_b   4.80073900
_cell_length_c   9.33569200
_cell_angle_alpha   90.00000000
_cell_angle_beta   90.00000000
_cell_angle_gamma   90.00000000
_symmetry_Int_Tables_number   1
_chemical_formula_structural   AlO2
_chemical_formula_sum   'Al4 O8'
_cell_volume   130.82012842
_cell_formula_units_Z   4
loop_
 _symmetry_equiv_pos_site_id
 _symmetry_equiv_pos_as_xyz
  1  'x, y, z'
loop_
 _atom_site_type_symbol
 _atom_site_label
 _atom_site_symmetry_multiplicity
 _atom_site_fract_x
 _atom_site_fract_y
 _atom_site_fract_z
 _atom_site_occupancy
  Al  Al0  1  0.25000000  0.55552000  0.66209200  1
  Al  Al1  1  0.25000000  0.94448000  0.16209200  1
  Al  Al2  1  0.75000000  0.44448000  0.33790800  1
  Al  Al3  1  0.75000000  0.05552000  0.83790800  1
  O  O4  1  0.75000000  0.34754500  0.53474600  1
  O  O5  1  0.75000000  0.15245500  0.03474600  1
  O  O6  1  0.25000000  0.65245500  0.46525400  1
  O  O7  1  0.25000000  0.84754500  0.96525400  1
  O  O8  1  0.75000000  0.75254600  0.22563900  1
  O  O9  1  0.75000000  0.74745400  0.72563900  1
  O  O10  1  0.25000000  0.24745400  0.77436100  1
  O  O11  1  0.25000000  0.25254600  0.27436100  1
