# generated using pymatgen
data_Li3Mn(CO3)4
_symmetry_space_group_name_H-M   'P 1'
_cell_length_a   9.85683000
_cell_length_b   8.49489500
_cell_length_c   11.55772693
_cell_angle_alpha   87.89585275
_cell_angle_beta   90.00000000
_cell_angle_gamma   90.00000000
_symmetry_Int_Tables_number   1
_chemical_formula_structural   Li3Mn(CO3)4
_chemical_formula_sum   'Li12 Mn4 C16 O48'
_cell_volume   967.10757309
_cell_formula_units_Z   4
loop_
 _symmetry_equiv_pos_site_id
 _symmetry_equiv_pos_as_xyz
  1  'x, y, z'
loop_
 _atom_site_type_symbol
 _atom_site_label
 _atom_site_symmetry_multiplicity
 _atom_site_fract_x
 _atom_site_fract_y
 _atom_site_fract_z
 _atom_site_occupancy
  Li  Li0  1  0.32901400  0.31897800  0.20912800  1
  Li  Li1  1  0.67098600  0.81897800  0.20912800  1
  Li  Li2  1  0.58979300  0.48118500  0.34035400  1
  Li  Li3  1  0.41020700  0.98118500  0.34035400  1
  Li  Li4  1  0.08896700  0.03200400  0.65868300  1
  Li  Li5  1  0.91103300  0.53200400  0.65868300  1
  Li  Li6  1  0.84710700  0.19894300  0.76883800  1
  Li  Li7  1  0.15289300  0.69894300  0.76883800  1
  Li  Li8  1  0.60985800  0.06098500  0.86109500  1
  Li  Li9  1  0.39014200  0.56098500  0.86109500  1
  Li  Li10  1  0.12658900  0.05877000  0.92837200  1
  Li  Li11  1  0.87341100  0.55877000  0.92837200  1
  Mn  Mn12  1  0.83552500  0.24904800  0.26919100  1
  Mn  Mn13  1  0.16447500  0.74904800  0.26919100  1
  Mn  Mn14  1  0.35941300  0.23119900  0.72545100  1
  Mn  Mn15  1  0.64058700  0.73119900  0.72545100  1
  C  C16  1  0.86832300  0.23350200  0.01744500  1
  C  C17  1  0.13167700  0.73350200  0.01744500  1
  C  C18  1  0.60250800  0.15647100  0.22077500  1
  C  C19  1  0.39749200  0.65647100  0.22077500  1
  C  C20  1  0.10814300  0.10939700  0.28939500  1
  C  C21  1  0.89185700  0.60939700  0.28939500  1
  C  C22  1  0.39189600  0.25799800  0.48016900  1
  C  C23  1  0.60810400  0.75799800  0.48016900  1
  C  C24  1  0.89069400  0.24455500  0.51966200  1
  C  C25  1  0.10930600  0.74455500  0.51966200  1
  C  C26  1  0.60910300  0.38537400  0.72032800  1
  C  C27  1  0.39089700  0.88537400  0.72032800  1
  C  C28  1  0.11028900  0.36525000  0.79204800  1
  C  C29  1  0.88971100  0.86525000  0.79204800  1
  C  C30  1  0.35917000  0.24833500  0.97118600  1
  C  C31  1  0.64083000  0.74833500  0.97118600  1
  O  O32  1  0.40864500  0.38064300  0.99571300  1
  O  O33  1  0.59135500  0.88064300  0.99571300  1
  O  O34  1  0.26142700  0.18429800  0.02518000  1
  O  O35  1  0.73857300  0.68429800  0.02518000  1
  O  O36  1  0.88300100  0.31608600  0.11135600  1
  O  O37  1  0.11699900  0.81608600  0.11135600  1
  O  O38  1  0.48008600  0.12179000  0.20836900  1
  O  O39  1  0.70576300  0.06297700  0.20897800  1
  O  O40  1  0.51991400  0.62179000  0.20836900  1
  O  O41  1  0.29423700  0.56297700  0.20897800  1
  O  O42  1  0.63971200  0.29795800  0.25040100  1
  O  O43  1  0.36028800  0.79795800  0.25040100  1
  O  O44  1  0.97970700  0.09457800  0.27158100  1
  O  O45  1  0.02029300  0.59457800  0.27158100  1
  O  O46  1  0.17016100  0.23809300  0.29417400  1
  O  O47  1  0.82983900  0.73809300  0.29417400  1
  O  O48  1  0.17904700  0.98046300  0.30628200  1
  O  O49  1  0.82095300  0.48046300  0.30628200  1
  O  O50  1  0.41690200  0.36069600  0.40018700  1
  O  O51  1  0.58309800  0.86069600  0.40018700  1
  O  O52  1  0.81654500  0.19597200  0.43502900  1
  O  O53  1  0.18345500  0.69597200  0.43502900  1
  O  O54  1  0.93412900  0.38535900  0.52313100  1
  O  O55  1  0.06587100  0.88535900  0.52313100  1
  O  O56  1  0.44086800  0.11994300  0.47480200  1
  O  O57  1  0.55913200  0.61994300  0.47480200  1
  O  O58  1  0.31428400  0.29459900  0.56694300  1
  O  O59  1  0.68571600  0.79459900  0.56694300  1
  O  O60  1  0.91811600  0.14863700  0.60469500  1
  O  O61  1  0.08188400  0.64863700  0.60469500  1
  O  O62  1  0.69214800  0.50250900  0.70034800  1
  O  O63  1  0.30785200  0.00250900  0.70034800  1
  O  O64  1  0.65111100  0.24510500  0.72787800  1
  O  O65  1  0.34888900  0.74510500  0.72787800  1
  O  O66  1  0.47949600  0.41957900  0.73093200  1
  O  O67  1  0.52050400  0.91957900  0.73093200  1
  O  O68  1  0.14912400  0.21878700  0.77432500  1
  O  O69  1  0.85087600  0.71878700  0.77432500  1
  O  O70  1  0.20269800  0.46893300  0.80292100  1
  O  O71  1  0.98236800  0.39503900  0.79601400  1
  O  O72  1  0.79730200  0.96893300  0.80292100  1
  O  O73  1  0.01763200  0.89503900  0.79601400  1
  O  O74  1  0.41500800  0.17087500  0.88318100  1
  O  O75  1  0.58499200  0.67087500  0.88318100  1
  O  O76  1  0.76929200  0.27180200  0.95150800  1
  O  O77  1  0.23070800  0.77180200  0.95150800  1
  O  O78  1  0.95468800  0.13095300  0.99275400  1
  O  O79  1  0.04531200  0.63095300  0.99275400  1
