# generated using pymatgen
data_Mn13Fe11O32
_symmetry_space_group_name_H-M   'P 1'
_cell_length_a   6.06050915
_cell_length_b   6.06050915
_cell_length_c   20.07435105
_cell_angle_alpha   81.73321834
_cell_angle_beta   81.73321834
_cell_angle_gamma   59.60990914
_symmetry_Int_Tables_number   1
_chemical_formula_structural   Mn13Fe11O32
_chemical_formula_sum   'Mn13 Fe11 O32'
_cell_volume   627.22625329
_cell_formula_units_Z   1
loop_
 _symmetry_equiv_pos_site_id
 _symmetry_equiv_pos_as_xyz
  1  'x, y, z'
loop_
 _atom_site_type_symbol
 _atom_site_label
 _atom_site_symmetry_multiplicity
 _atom_site_fract_x
 _atom_site_fract_y
 _atom_site_fract_z
 _atom_site_occupancy
  Mn  Mn0  1  0.41015000  0.41015000  0.28134900  1
  Mn  Mn1  1  0.75196700  0.75196700  0.25020500  1
  Mn  Mn2  1  0.87459200  0.87459200  0.37439600  1
  Mn  Mn3  1  0.34262500  0.34262500  0.47017800  1
  Mn  Mn4  1  0.09251600  0.09251600  0.22023000  1
  Mn  Mn5  1  0.65737500  0.65737500  0.52982200  1
  Mn  Mn6  1  0.24803300  0.24803300  0.74979500  1
  Mn  Mn7  1  0.12540800  0.12540800  0.62560400  1
  Mn  Mn8  1  0.58985000  0.58985000  0.71865100  1
  Mn  Mn9  1  0.15865800  0.15865800  0.02936800  1
  Mn  Mn10  1  0.90748400  0.90748400  0.77977000  1
  Mn  Mn11  1  0.50000000  0.50000000  0.00000000  1
  Mn  Mn12  1  0.84134200  0.84134200  0.97063200  1
  Fe  Fe13  1  0.87544500  0.37080600  0.37663500  1
  Fe  Fe14  1  0.37080600  0.87544500  0.37663500  1
  Fe  Fe15  1  0.12455500  0.62919400  0.62336500  1
  Fe  Fe16  1  0.62919400  0.12455500  0.62336500  1
  Fe  Fe17  1  0.00000000  0.00000000  0.50000000  1
  Fe  Fe18  1  0.87612600  0.37644000  0.87465000  1
  Fe  Fe19  1  0.37644000  0.87612600  0.87465000  1
  Fe  Fe20  1  0.37688000  0.37688000  0.87435700  1
  Fe  Fe21  1  0.62312000  0.62312000  0.12564300  1
  Fe  Fe22  1  0.62356000  0.12387400  0.12535000  1
  Fe  Fe23  1  0.12387400  0.62356000  0.12535000  1
  O  O24  1  0.16559000  0.71136200  0.43128800  1
  O  O25  1  0.71136200  0.16559000  0.43128800  1
  O  O26  1  0.02809900  0.59123000  0.31373200  1
  O  O27  1  0.59123000  0.02809900  0.31373200  1
  O  O28  1  0.58618500  0.58618500  0.31063100  1
  O  O29  1  0.82546900  0.82546900  0.56445800  1
  O  O30  1  0.70068700  0.70068700  0.42803800  1
  O  O31  1  0.17453100  0.17453100  0.43554200  1
  O  O32  1  0.29931300  0.29931300  0.57196200  1
  O  O33  1  0.04871600  0.04871600  0.32173600  1
  O  O34  1  0.40877000  0.97190100  0.68626800  1
  O  O35  1  0.97190100  0.40877000  0.68626800  1
  O  O36  1  0.28863800  0.83441000  0.56871200  1
  O  O37  1  0.83441000  0.28863800  0.56871200  1
  O  O38  1  0.19417800  0.19417800  0.92782400  1
  O  O39  1  0.95128400  0.95128400  0.67826400  1
  O  O40  1  0.08296800  0.08296800  0.81070000  1
  O  O41  1  0.55978100  0.55978100  0.82025300  1
  O  O42  1  0.41381500  0.41381500  0.68936900  1
  O  O43  1  0.66966100  0.66966100  0.93932600  1
  O  O44  1  0.67416600  0.22074900  0.93847100  1
  O  O45  1  0.22074900  0.67416600  0.93847100  1
  O  O46  1  0.53112400  0.07828300  0.80940900  1
  O  O47  1  0.07828300  0.53112400  0.80940900  1
  O  O48  1  0.32583400  0.77925100  0.06152900  1
  O  O49  1  0.77925100  0.32583400  0.06152900  1
  O  O50  1  0.33033900  0.33033900  0.06067400  1
  O  O51  1  0.44021900  0.44021900  0.17974700  1
  O  O52  1  0.91703200  0.91703200  0.18930000  1
  O  O53  1  0.80582200  0.80582200  0.07217600  1
  O  O54  1  0.92171700  0.46887600  0.19059100  1
  O  O55  1  0.46887600  0.92171700  0.19059100  1
