# generated using pymatgen
data_Na2FeO3
_symmetry_space_group_name_H-M   'P 1'
_cell_length_a   5.35289384
_cell_length_b   5.35289384
_cell_length_c   11.02317800
_cell_angle_alpha   90.00000000
_cell_angle_beta   90.00000000
_cell_angle_gamma   119.99999799
_symmetry_Int_Tables_number   1
_chemical_formula_structural   Na2FeO3
_chemical_formula_sum   'Na8 Fe4 O12'
_cell_volume   273.53614453
_cell_formula_units_Z   4
loop_
 _symmetry_equiv_pos_site_id
 _symmetry_equiv_pos_as_xyz
  1  'x, y, z'
loop_
 _atom_site_type_symbol
 _atom_site_label
 _atom_site_symmetry_multiplicity
 _atom_site_fract_x
 _atom_site_fract_y
 _atom_site_fract_z
 _atom_site_occupancy
  Na  Na0  1  0.00000000  0.67986500  0.75000000  1
  Na  Na1  1  0.32013500  0.00000000  0.25000000  1
  Na  Na2  1  0.00000000  0.32013500  0.25000000  1
  Na  Na3  1  0.00000000  0.00000000  0.50000000  1
  Na  Na4  1  0.00000000  0.00000000  0.00000000  1
  Na  Na5  1  0.32013500  0.32013500  0.75000000  1
  Na  Na6  1  0.67986500  0.00000000  0.75000000  1
  Na  Na7  1  0.67986500  0.67986500  0.25000000  1
  Fe  Fe8  1  0.33333300  0.66666700  0.50000000  1
  Fe  Fe9  1  0.66666700  0.33333300  0.50000000  1
  Fe  Fe10  1  0.66666700  0.33333300  0.00000000  1
  Fe  Fe11  1  0.33333300  0.66666700  0.00000000  1
  O  O12  1  0.00000000  0.62220600  0.10125600  1
  O  O13  1  0.00000000  0.62220600  0.39874400  1
  O  O14  1  0.00000000  0.37779400  0.60125600  1
  O  O15  1  0.00000000  0.37779400  0.89874400  1
  O  O16  1  0.37779400  0.00000000  0.60125600  1
  O  O17  1  0.37779400  0.00000000  0.89874400  1
  O  O18  1  0.62220600  0.00000000  0.10125600  1
  O  O19  1  0.62220600  0.00000000  0.39874400  1
  O  O20  1  0.37779400  0.37779400  0.10125600  1
  O  O21  1  0.37779400  0.37779400  0.39874400  1
  O  O22  1  0.62220600  0.62220600  0.60125600  1
  O  O23  1  0.62220600  0.62220600  0.89874400  1
