# generated using pymatgen
data_V2Bi24O41
_symmetry_space_group_name_H-M   'P 1'
_cell_length_a   10.35213700
_cell_length_b   10.35524800
_cell_length_c   10.44411900
_cell_angle_alpha   90.00000000
_cell_angle_beta   90.00000000
_cell_angle_gamma   90.00000000
_symmetry_Int_Tables_number   1
_chemical_formula_structural   V2Bi24O41
_chemical_formula_sum   'V2 Bi24 O41'
_cell_volume   1119.59854833
_cell_formula_units_Z   1
loop_
 _symmetry_equiv_pos_site_id
 _symmetry_equiv_pos_as_xyz
  1  'x, y, z'
loop_
 _atom_site_type_symbol
 _atom_site_label
 _atom_site_symmetry_multiplicity
 _atom_site_fract_x
 _atom_site_fract_y
 _atom_site_fract_z
 _atom_site_occupancy
  V  V0  1  0.50000000  0.50000000  0.50000000  1
  V  V1  1  0.00000000  0.00000000  0.00000000  1
  Bi  Bi2  1  0.97706800  0.32050100  0.17970900  1
  Bi  Bi3  1  0.97706800  0.67949900  0.82029100  1
  Bi  Bi4  1  0.81992900  0.01983000  0.33023200  1
  Bi  Bi5  1  0.81992900  0.98017000  0.66976800  1
  Bi  Bi6  1  0.83540400  0.33277900  0.51838300  1
  Bi  Bi7  1  0.83540400  0.66722100  0.48161700  1
  Bi  Bi8  1  0.67926700  0.17760900  0.02456900  1
  Bi  Bi9  1  0.67926700  0.82239100  0.97543100  1
  Bi  Bi10  1  0.67641900  0.52468900  0.17741000  1
  Bi  Bi11  1  0.67641900  0.47531100  0.82259000  1
  Bi  Bi12  1  0.52604000  0.18056200  0.67849900  1
  Bi  Bi13  1  0.52604000  0.81943800  0.32150100  1
  Bi  Bi14  1  0.47396000  0.81943800  0.67849900  1
  Bi  Bi15  1  0.47396000  0.18056200  0.32150100  1
  Bi  Bi16  1  0.32358100  0.52468900  0.82259000  1
  Bi  Bi17  1  0.32358100  0.47531100  0.17741000  1
  Bi  Bi18  1  0.32073300  0.82239100  0.02456900  1
  Bi  Bi19  1  0.32073300  0.17760900  0.97543100  1
  Bi  Bi20  1  0.16459600  0.66722100  0.51838300  1
  Bi  Bi21  1  0.16459600  0.33277900  0.48161700  1
  Bi  Bi22  1  0.18007100  0.98017000  0.33023200  1
  Bi  Bi23  1  0.18007100  0.01983000  0.66976800  1
  Bi  Bi24  1  0.02293200  0.67949900  0.17970900  1
  Bi  Bi25  1  0.02293200  0.32050100  0.82029100  1
  O  O26  1  0.99611400  0.75356100  0.36870500  1
  O  O27  1  0.99611400  0.24643900  0.63129500  1
  O  O28  1  0.90214200  0.90086900  0.09537100  1
  O  O29  1  0.90214200  0.09913100  0.90462900  1
  O  O30  1  0.86719600  0.49256800  0.24161400  1
  O  O31  1  0.86719600  0.50743200  0.75838600  1
  O  O32  1  0.80030100  0.19894400  0.19928800  1
  O  O33  1  0.80030100  0.80105600  0.80071200  1
  O  O34  1  0.75657900  0.13086900  0.49607600  1
  O  O35  1  0.75657900  0.86913100  0.50392400  1
  O  O36  1  0.74711800  0.63217200  0.00762400  1
  O  O37  1  0.74711800  0.36782800  0.99237600  1
  O  O38  1  0.70124400  0.69747300  0.29858900  1
  O  O39  1  0.70124400  0.30252700  0.70141100  1
  O  O40  1  0.63146100  0.99241100  0.25349200  1
  O  O41  1  0.63146100  0.00758900  0.74650800  1
  O  O42  1  0.59661000  0.40331900  0.40089200  1
  O  O43  1  0.59661000  0.59668100  0.59910800  1
  O  O44  1  0.50706300  0.24679300  0.13127500  1
  O  O45  1  0.50706300  0.75320700  0.86872500  1
  O  O46  1  0.49293700  0.75320700  0.13127500  1
  O  O47  1  0.49293700  0.24679300  0.86872500  1
  O  O48  1  0.40339000  0.59668100  0.40089200  1
  O  O49  1  0.40339000  0.40331900  0.59910800  1
  O  O50  1  0.36853900  0.99241100  0.74650800  1
  O  O51  1  0.36853900  0.00758900  0.25349200  1
  O  O52  1  0.29875600  0.69747300  0.70141100  1
  O  O53  1  0.29875600  0.30252700  0.29858900  1
  O  O54  1  0.25288200  0.63217200  0.99237600  1
  O  O55  1  0.25288200  0.36782800  0.00762400  1
  O  O56  1  0.24342100  0.86913100  0.49607600  1
  O  O57  1  0.24342100  0.13086900  0.50392400  1
  O  O58  1  0.19969900  0.80105600  0.19928800  1
  O  O59  1  0.19969900  0.19894400  0.80071200  1
  O  O60  1  0.13280400  0.49256800  0.75838600  1
  O  O61  1  0.13280400  0.50743200  0.24161400  1
  O  O62  1  0.09785800  0.90086900  0.90462900  1
  O  O63  1  0.09785800  0.09913100  0.09537100  1
  O  O64  1  0.00388600  0.75356100  0.63129500  1
  O  O65  1  0.00388600  0.24643900  0.36870500  1
  O  O66  1  0.00000000  0.50000000  0.50000000  1
