# generated using pymatgen
data_CrH18I7N6
_symmetry_space_group_name_H-M   'P 1'
_cell_length_a   8.94123913
_cell_length_b   8.94123913
_cell_length_c   10.04119230
_cell_angle_alpha   61.02639563
_cell_angle_beta   61.02639563
_cell_angle_gamma   53.85903069
_symmetry_Int_Tables_number   1
_chemical_formula_structural   CrH18I7N6
_chemical_formula_sum   'Cr1 H18 I7 N6'
_cell_volume   544.24353805
_cell_formula_units_Z   1
loop_
 _symmetry_equiv_pos_site_id
 _symmetry_equiv_pos_as_xyz
  1  'x, y, z'
loop_
 _atom_site_type_symbol
 _atom_site_label
 _atom_site_symmetry_multiplicity
 _atom_site_fract_x
 _atom_site_fract_y
 _atom_site_fract_z
 _atom_site_occupancy
  Cr  Cr0  1  0.50000000  0.50000000  0.50000000  1
  H  H1  1  0.27078800  0.55359800  0.78709100  1
  H  H2  1  0.55359800  0.27078800  0.78709100  1
  H  H3  1  0.75608900  0.28131600  0.66779400  1
  H  H4  1  0.28131600  0.75608900  0.66779400  1
  H  H5  1  0.76453900  0.56262000  0.49045800  1
  H  H6  1  0.56262000  0.76453900  0.49045800  1
  H  H7  1  0.70011300  0.14090300  0.66084200  1
  H  H8  1  0.14090300  0.70011300  0.66084200  1
  H  H9  1  0.69876800  0.69876800  0.32556800  1
  H  H10  1  0.30123200  0.30123200  0.67443200  1
  H  H11  1  0.85909700  0.29988700  0.33915800  1
  H  H12  1  0.29988700  0.85909700  0.33915800  1
  H  H13  1  0.43738000  0.23546100  0.50954200  1
  H  H14  1  0.23546100  0.43738000  0.50954200  1
  H  H15  1  0.24391100  0.71868400  0.33220600  1
  H  H16  1  0.71868400  0.24391100  0.33220600  1
  H  H17  1  0.72921200  0.44640200  0.21290900  1
  H  H18  1  0.44640200  0.72921200  0.21290900  1
  I  I19  1  0.16349100  0.16349100  0.45398700  1
  I  I20  1  0.60260100  0.60260100  0.87075500  1
  I  I21  1  0.39739900  0.39739900  0.12924500  1
  I  I22  1  0.83650900  0.83650900  0.54601300  1
  I  I23  1  0.00000000  0.00000000  0.00000000  1
  I  I24  1  0.18724700  0.18724700  0.99110600  1
  I  I25  1  0.81275300  0.81275300  0.00889400  1
  N  N26  1  0.64204200  0.27496500  0.67270300  1
  N  N27  1  0.27496500  0.64204200  0.67270300  1
  N  N28  1  0.64677800  0.64677800  0.44650400  1
  N  N29  1  0.35322200  0.35322200  0.55349600  1
  N  N30  1  0.35795800  0.72503500  0.32729700  1
  N  N31  1  0.72503500  0.35795800  0.32729700  1
