# generated using pymatgen
data_Ga2P3H12(NO4)3
_symmetry_space_group_name_H-M   'P 1'
_cell_length_a   8.48348914
_cell_length_b   8.48348914
_cell_length_c   9.17572115
_cell_angle_alpha   73.72449251
_cell_angle_beta   73.72449251
_cell_angle_gamma   75.33203570
_symmetry_Int_Tables_number   1
_chemical_formula_structural   Ga2P3H12(NO4)3
_chemical_formula_sum   'Ga4 P6 H24 N6 O24'
_cell_volume   597.47178609
_cell_formula_units_Z   2
loop_
 _symmetry_equiv_pos_site_id
 _symmetry_equiv_pos_as_xyz
  1  'x, y, z'
loop_
 _atom_site_type_symbol
 _atom_site_label
 _atom_site_symmetry_multiplicity
 _atom_site_fract_x
 _atom_site_fract_y
 _atom_site_fract_z
 _atom_site_occupancy
  Ga  Ga0  1  0.74361000  0.59123200  0.42112900  1
  Ga  Ga1  1  0.59123200  0.74361000  0.92112900  1
  Ga  Ga2  1  0.40876800  0.25639000  0.07887100  1
  Ga  Ga3  1  0.25639000  0.40876800  0.57887100  1
  P  P4  1  0.66978700  0.91881800  0.16098200  1
  P  P5  1  0.91881800  0.66978700  0.66098200  1
  P  P6  1  0.50303200  0.49696800  0.25000000  1
  P  P7  1  0.49696800  0.50303200  0.75000000  1
  P  P8  1  0.08118200  0.33021300  0.33901800  1
  P  P9  1  0.33021300  0.08118200  0.83901800  1
  H  H10  1  0.71469200  0.96358900  0.47800800  1
  H  H11  1  0.96358900  0.71469200  0.97800800  1
  H  H12  1  0.39885900  0.87754400  0.43527200  1
  H  H13  1  0.85256300  0.37684600  0.12690200  1
  H  H14  1  0.87754400  0.39885900  0.93527200  1
  H  H15  1  0.07082300  0.99186700  0.31392600  1
  H  H16  1  0.21886500  0.90136700  0.17896200  1
  H  H17  1  0.79290900  0.14178700  0.43544900  1
  H  H18  1  0.85821300  0.20709100  0.06455100  1
  H  H19  1  0.09863300  0.78113500  0.32103800  1
  H  H20  1  0.37684600  0.85256300  0.62690200  1
  H  H21  1  0.00813300  0.92917700  0.18607400  1
  H  H22  1  0.99186700  0.07082300  0.81392600  1
  H  H23  1  0.62315400  0.14743700  0.37309800  1
  H  H24  1  0.90136700  0.21886500  0.67896200  1
  H  H25  1  0.14178700  0.79290900  0.93544900  1
  H  H26  1  0.20709100  0.85821300  0.56455100  1
  H  H27  1  0.78113500  0.09863300  0.82103800  1
  H  H28  1  0.92917700  0.00813300  0.68607400  1
  H  H29  1  0.12245600  0.60114100  0.06472800  1
  H  H30  1  0.14743700  0.62315400  0.87309800  1
  H  H31  1  0.60114100  0.12245600  0.56472800  1
  H  H32  1  0.03641100  0.28530800  0.02199200  1
  H  H33  1  0.28530800  0.03641100  0.52199200  1
  N  N34  1  0.90718600  0.31738500  0.03532100  1
  N  N35  1  0.10204900  0.89795100  0.25000000  1
  N  N36  1  0.68261500  0.09281400  0.46467900  1
  N  N37  1  0.31738500  0.90718600  0.53532100  1
  N  N38  1  0.89795100  0.10204900  0.75000000  1
  N  N39  1  0.09281400  0.68261500  0.96467900  1
  O  O40  1  0.96695800  0.50621500  0.33979700  1
  O  O41  1  0.63364500  0.80175600  0.32771300  1
  O  O42  1  0.72248900  0.81912700  0.03141700  1
  O  O43  1  0.50621500  0.96695800  0.83979700  1
  O  O44  1  0.98753000  0.19099100  0.35825200  1
  O  O45  1  0.80175600  0.63364500  0.82771300  1
  O  O46  1  0.81912700  0.72248900  0.53141700  1
  O  O47  1  0.67518800  0.48707800  0.28273900  1
  O  O48  1  0.46057300  0.63997100  0.10897000  1
  O  O49  1  0.19099100  0.98753000  0.85825200  1
  O  O50  1  0.36002900  0.53942700  0.39103000  1
  O  O51  1  0.48707800  0.67518800  0.78273900  1
  O  O52  1  0.51292200  0.32481200  0.21726100  1
  O  O53  1  0.63997100  0.46057300  0.60897000  1
  O  O54  1  0.80900900  0.01247000  0.14174800  1
  O  O55  1  0.53942700  0.36002900  0.89103000  1
  O  O56  1  0.32481200  0.51292200  0.71726100  1
  O  O57  1  0.18087300  0.27751100  0.46858300  1
  O  O58  1  0.19824400  0.36635500  0.17228700  1
  O  O59  1  0.01247000  0.80900900  0.64174800  1
  O  O60  1  0.49378500  0.03304200  0.16020300  1
  O  O61  1  0.27751100  0.18087300  0.96858300  1
  O  O62  1  0.36635500  0.19824400  0.67228700  1
  O  O63  1  0.03304200  0.49378500  0.66020300  1
