# generated using pymatgen
data_AlH14C4NOF4
_symmetry_space_group_name_H-M   'P 1'
_cell_length_a   7.94127400
_cell_length_b   9.01929454
_cell_length_c   9.47212247
_cell_angle_alpha   68.17415390
_cell_angle_beta   77.90229945
_cell_angle_gamma   71.92430030
_symmetry_Int_Tables_number   1
_chemical_formula_structural   AlH14C4NOF4
_chemical_formula_sum   'Al2 H28 C8 N2 O2 F8'
_cell_volume   595.30124036
_cell_formula_units_Z   2
loop_
 _symmetry_equiv_pos_site_id
 _symmetry_equiv_pos_as_xyz
  1  'x, y, z'
loop_
 _atom_site_type_symbol
 _atom_site_label
 _atom_site_symmetry_multiplicity
 _atom_site_fract_x
 _atom_site_fract_y
 _atom_site_fract_z
 _atom_site_occupancy
  Al  Al0  1  0.36917400  0.58060400  0.60228700  1
  Al  Al1  1  0.63082600  0.41939600  0.39771300  1
  H  H2  1  0.51057500  0.99977700  0.21589400  1
  H  H3  1  0.70948700  0.56959800  0.98947300  1
  H  H4  1  0.34075900  0.16675900  0.43101500  1
  H  H5  1  0.43967100  0.82428400  0.77432400  1
  H  H6  1  0.09831700  0.19114500  0.40047100  1
  H  H7  1  0.72714400  0.69757900  0.24245400  1
  H  H8  1  0.79371700  0.98046000  0.82034400  1
  H  H9  1  0.96048100  0.78809100  0.84258700  1
  H  H10  1  0.88763700  0.55051500  0.83682600  1
  H  H11  1  0.29051300  0.43040200  0.01052700  1
  H  H12  1  0.65924100  0.83324100  0.56898500  1
  H  H13  1  0.66513000  0.56281300  0.81219300  1
  H  H14  1  0.52097100  0.17540700  0.04410000  1
  H  H15  1  0.11236300  0.44948500  0.16317400  1
  H  H16  1  0.48942500  0.00022300  0.78410600  1
  H  H17  1  0.20628300  0.01954000  0.17965600  1
  H  H18  1  0.03951900  0.21190900  0.15741300  1
  H  H19  1  0.56032900  0.17571600  0.22567600  1
  H  H20  1  0.27285600  0.30242100  0.75754600  1
  H  H21  1  0.67735800  0.13820300  0.45628500  1
  H  H22  1  0.90168300  0.80885500  0.59952900  1
  H  H23  1  0.47902900  0.82459300  0.95590000  1
  H  H24  1  0.21610800  0.19152700  0.00641300  1
  H  H25  1  0.82367400  0.22458100  0.73069400  1
  H  H26  1  0.32264200  0.86179700  0.54371500  1
  H  H27  1  0.33487000  0.43718700  0.18780700  1
  H  H28  1  0.78389200  0.80847300  0.99358700  1
  H  H29  1  0.17632600  0.77541900  0.26930600  1
  C  C30  1  0.25425700  0.39766900  0.13472900  1
  C  C31  1  0.18009800  0.15445700  0.13040400  1
  C  C32  1  0.24156600  0.16526600  0.36737200  1
  C  C33  1  0.74574300  0.60233100  0.86527100  1
  C  C34  1  0.51405500  0.86553400  0.83169300  1
  C  C35  1  0.81990200  0.84554300  0.86959600  1
  C  C36  1  0.48594500  0.13446600  0.16830700  1
  C  C37  1  0.75843400  0.83473400  0.63262800  1
  N  N38  1  0.70924400  0.78905100  0.79853000  1
  N  N39  1  0.29075600  0.21094900  0.20147000  1
  O  O40  1  0.57402700  0.23198900  0.44012600  1
  O  O41  1  0.42597300  0.76801100  0.55987400  1
  F  F42  1  0.80055900  0.76963900  0.23458100  1
  F  F43  1  0.19944100  0.23036100  0.76541900  1
  F  F44  1  0.14068200  0.64797700  0.64989000  1
  F  F45  1  0.39328700  0.40400800  0.76893900  1
  F  F46  1  0.85931800  0.35202300  0.35011000  1
  F  F47  1  0.60671300  0.59599200  0.23106100  1
  F  F48  1  0.63030900  0.48718700  0.55146400  1
  F  F49  1  0.36969100  0.51281300  0.44853600  1
