# generated using pymatgen
data_B5PH4Cl
_symmetry_space_group_name_H-M   'P 1'
_cell_length_a   12.67229300
_cell_length_b   13.61457100
_cell_length_c   13.94752400
_cell_angle_alpha   90.00000000
_cell_angle_beta   90.00000000
_cell_angle_gamma   90.00000000
_symmetry_Int_Tables_number   1
_chemical_formula_structural   B5PH4Cl
_chemical_formula_sum   'B80 P16 H64 Cl16'
_cell_volume   2406.33608839
_cell_formula_units_Z   16
loop_
 _symmetry_equiv_pos_site_id
 _symmetry_equiv_pos_as_xyz
  1  'x, y, z'
loop_
 _atom_site_type_symbol
 _atom_site_label
 _atom_site_symmetry_multiplicity
 _atom_site_fract_x
 _atom_site_fract_y
 _atom_site_fract_z
 _atom_site_occupancy
  B  B0  1  0.81175700  0.00635100  0.36653000  1
  B  B1  1  0.68824300  0.00635100  0.86653000  1
  B  B2  1  0.18319600  0.01321600  0.07648600  1
  B  B3  1  0.31680400  0.01321600  0.57648600  1
  B  B4  1  0.79655900  0.02066400  0.49134400  1
  B  B5  1  0.70344100  0.02066400  0.99134400  1
  B  B6  1  0.82888200  0.07221400  0.01900100  1
  B  B7  1  0.67111800  0.07221400  0.51900100  1
  B  B8  1  0.60087100  0.09703300  0.41163900  1
  B  B9  1  0.89912900  0.09703300  0.91163900  1
  B  B10  1  0.87196600  0.11031400  0.42917100  1
  B  B11  1  0.62803400  0.11031400  0.92917100  1
  B  B12  1  0.71476500  0.14692700  0.02239700  1
  B  B13  1  0.78523500  0.14692700  0.52239700  1
  B  B14  1  0.67164400  0.19328000  0.34681900  1
  B  B15  1  0.82835600  0.19328000  0.84681900  1
  B  B16  1  0.66627400  0.19403900  0.47278400  1
  B  B17  1  0.83372600  0.19403900  0.97278400  1
  B  B18  1  0.78946400  0.22051100  0.41762200  1
  B  B19  1  0.71053600  0.22051100  0.91762200  1
  B  B20  1  0.28946400  0.27948900  0.41762200  1
  B  B21  1  0.21053600  0.27948900  0.91762200  1
  B  B22  1  0.16627400  0.30596100  0.47278400  1
  B  B23  1  0.33372600  0.30596100  0.97278400  1
  B  B24  1  0.17164400  0.30672000  0.34681900  1
  B  B25  1  0.32835600  0.30672000  0.84681900  1
  B  B26  1  0.28523500  0.35307300  0.52239700  1
  B  B27  1  0.21476500  0.35307300  0.02239700  1
  B  B28  1  0.37196600  0.38968600  0.42917100  1
  B  B29  1  0.12803400  0.38968600  0.92917100  1
  B  B30  1  0.10087100  0.40296700  0.41163900  1
  B  B31  1  0.39912900  0.40296700  0.91163900  1
  B  B32  1  0.17111800  0.42778600  0.51900100  1
  B  B33  1  0.32888200  0.42778600  0.01900100  1
  B  B34  1  0.29655900  0.47933600  0.49134400  1
  B  B35  1  0.20344100  0.47933600  0.99134400  1
  B  B36  1  0.68319600  0.48678400  0.07648600  1
  B  B37  1  0.81680400  0.48678400  0.57648600  1
  B  B38  1  0.31175700  0.49364900  0.36653000  1
  B  B39  1  0.18824300  0.49364900  0.86653000  1
  B  B40  1  0.81175700  0.50635100  0.13347000  1
  B  B41  1  0.68824300  0.50635100  0.63347000  1
  B  B42  1  0.18319600  0.51321600  0.42351400  1
  B  B43  1  0.31680400  0.51321600  0.92351400  1
  B  B44  1  0.70344100  0.52066400  0.50865600  1
  B  B45  1  0.79655900  0.52066400  0.00865600  1
  B  B46  1  0.67111800  0.57221400  0.98099900  1
  B  B47  1  0.82888200  0.57221400  0.48099900  1
  B  B48  1  0.60087100  0.59703300  0.08836100  1
  B  B49  1  0.89912900  0.59703300  0.58836100  1
  B  B50  1  0.62803400  0.61031400  0.57082900  1
  B  B51  1  0.87196600  0.61031400  0.07082900  1
  B  B52  1  0.78523500  0.64692700  0.97760300  1
  B  B53  1  0.71476500  0.64692700  0.47760300  1
  B  B54  1  0.67164400  0.69328000  0.15318100  1
  B  B55  1  0.82835600  0.69328000  0.65318100  1
  B  B56  1  0.66627400  0.69403900  0.02721600  1
  B  B57  1  0.83372600  0.69403900  0.52721600  1
  B  B58  1  0.71053600  0.72051100  0.58237800  1
  B  B59  1  0.78946400  0.72051100  0.08237800  1
  B  B60  1  0.21053600  0.77948900  0.58237800  1
  B  B61  1  0.28946400  0.77948900  0.08237800  1
  B  B62  1  0.16627400  0.80596100  0.02721600  1
  B  B63  1  0.33372600  0.80596100  0.52721600  1
  B  B64  1  0.17164400  0.80672000  0.15318100  1
  B  B65  1  0.32835600  0.80672000  0.65318100  1
  B  B66  1  0.28523500  0.85307300  0.97760300  1
  B  B67  1  0.21476500  0.85307300  0.47760300  1
  B  B68  1  0.12803400  0.88968600  0.57082900  1
  B  B69  1  0.37196600  0.88968600  0.07082900  1
  B  B70  1  0.10087100  0.90296700  0.08836100  1
  B  B71  1  0.39912900  0.90296700  0.58836100  1
  B  B72  1  0.17111800  0.92778600  0.98099900  1
  B  B73  1  0.32888200  0.92778600  0.48099900  1
  B  B74  1  0.20344100  0.97933600  0.50865600  1
  B  B75  1  0.29655900  0.97933600  0.00865600  1
  B  B76  1  0.81680400  0.98678400  0.92351400  1
  B  B77  1  0.68319600  0.98678400  0.42351400  1
  B  B78  1  0.18824300  0.99364900  0.63347000  1
  B  B79  1  0.31175700  0.99364900  0.13347000  1
  P  P80  1  0.67214200  0.04729100  0.29132900  1
  P  P81  1  0.82785800  0.04729100  0.79132900  1
  P  P82  1  0.82151300  0.14543800  0.29610700  1
  P  P83  1  0.67848700  0.14543800  0.79610700  1
  P  P84  1  0.32151300  0.35456200  0.29610700  1
  P  P85  1  0.17848700  0.35456200  0.79610700  1
  P  P86  1  0.17214200  0.45270900  0.29132900  1
  P  P87  1  0.32785800  0.45270900  0.79132900  1
  P  P88  1  0.67214200  0.54729100  0.20867100  1
  P  P89  1  0.82785800  0.54729100  0.70867100  1
  P  P90  1  0.67848700  0.64543800  0.70389300  1
  P  P91  1  0.82151300  0.64543800  0.20389300  1
  P  P92  1  0.17848700  0.85456200  0.70389300  1
  P  P93  1  0.32151300  0.85456200  0.20389300  1
  P  P94  1  0.17214200  0.95270900  0.20867100  1
  P  P95  1  0.32785800  0.95270900  0.70867100  1
  H  H96  1  0.15929500  0.03724300  0.45839300  1
  H  H97  1  0.34070500  0.03724300  0.95839300  1
  H  H98  1  0.62389200  0.04911800  0.58965500  1
  H  H99  1  0.87610800  0.04911800  0.08965500  1
  H  H100  1  0.14533000  0.09355700  0.07639000  1
  H  H101  1  0.35467000  0.09355700  0.57639000  1
  H  H102  1  0.50726400  0.09250200  0.40343300  1
  H  H103  1  0.99273600  0.09250200  0.90343300  1
  H  H104  1  0.96601500  0.11448000  0.43313400  1
  H  H105  1  0.53398500  0.11448000  0.93313400  1
  H  H106  1  0.67914000  0.17842100  0.09544500  1
  H  H107  1  0.82086000  0.17842100  0.59544500  1
  H  H108  1  0.17376800  0.19884200  0.91405900  1
  H  H109  1  0.32623200  0.19884200  0.41405900  1
  H  H110  1  0.11633300  0.24114200  0.50829000  1
  H  H111  1  0.38366700  0.24114200  0.00829000  1
  H  H112  1  0.61633300  0.25885800  0.50829000  1
  H  H113  1  0.88366700  0.25885800  0.00829000  1
  H  H114  1  0.82623200  0.30115800  0.41405900  1
  H  H115  1  0.67376800  0.30115800  0.91405900  1
  H  H116  1  0.17914000  0.32157900  0.09544500  1
  H  H117  1  0.32086000  0.32157900  0.59544500  1
  H  H118  1  0.46601500  0.38552000  0.43313400  1
  H  H119  1  0.03398500  0.38552000  0.93313400  1
  H  H120  1  0.00726400  0.40749800  0.40343300  1
  H  H121  1  0.49273600  0.40749800  0.90343300  1
  H  H122  1  0.64533000  0.40644300  0.07639000  1
  H  H123  1  0.85467000  0.40644300  0.57639000  1
  H  H124  1  0.37610800  0.45088200  0.08965500  1
  H  H125  1  0.12389200  0.45088200  0.58965500  1
  H  H126  1  0.65929500  0.46275700  0.45839300  1
  H  H127  1  0.84070500  0.46275700  0.95839300  1
  H  H128  1  0.15929500  0.53724300  0.04160700  1
  H  H129  1  0.34070500  0.53724300  0.54160700  1
  H  H130  1  0.62389200  0.54911800  0.91034500  1
  H  H131  1  0.87610800  0.54911800  0.41034500  1
  H  H132  1  0.14533000  0.59355700  0.42361000  1
  H  H133  1  0.35467000  0.59355700  0.92361000  1
  H  H134  1  0.50726400  0.59250200  0.09656700  1
  H  H135  1  0.99273600  0.59250200  0.59656700  1
  H  H136  1  0.53398500  0.61448000  0.56686600  1
  H  H137  1  0.96601500  0.61448000  0.06686600  1
  H  H138  1  0.82086000  0.67842100  0.90455500  1
  H  H139  1  0.67914000  0.67842100  0.40455500  1
  H  H140  1  0.17376800  0.69884200  0.58594100  1
  H  H141  1  0.32623200  0.69884200  0.08594100  1
  H  H142  1  0.11633300  0.74114200  0.99171000  1
  H  H143  1  0.38366700  0.74114200  0.49171000  1
  H  H144  1  0.61633300  0.75885800  0.99171000  1
  H  H145  1  0.88366700  0.75885800  0.49171000  1
  H  H146  1  0.67376800  0.80115800  0.58594100  1
  H  H147  1  0.82623200  0.80115800  0.08594100  1
  H  H148  1  0.32086000  0.82157900  0.90455500  1
  H  H149  1  0.17914000  0.82157900  0.40455500  1
  H  H150  1  0.03398500  0.88552000  0.56686600  1
  H  H151  1  0.46601500  0.88552000  0.06686600  1
  H  H152  1  0.00726400  0.90749800  0.09656700  1
  H  H153  1  0.49273600  0.90749800  0.59656700  1
  H  H154  1  0.85467000  0.90644300  0.92361000  1
  H  H155  1  0.64533000  0.90644300  0.42361000  1
  H  H156  1  0.12389200  0.95088200  0.91034500  1
  H  H157  1  0.37610800  0.95088200  0.41034500  1
  H  H158  1  0.65929500  0.96275700  0.04160700  1
  H  H159  1  0.84070500  0.96275700  0.54160700  1
  Cl  Cl160  1  0.38719100  0.08842700  0.18925300  1
  Cl  Cl161  1  0.11280900  0.08842700  0.68925300  1
  Cl  Cl162  1  0.10695800  0.21853200  0.27251400  1
  Cl  Cl163  1  0.39304200  0.21853200  0.77251400  1
  Cl  Cl164  1  0.60695800  0.28146800  0.27251400  1
  Cl  Cl165  1  0.89304200  0.28146800  0.77251400  1
  Cl  Cl166  1  0.88719100  0.41157300  0.18925300  1
  Cl  Cl167  1  0.61280900  0.41157300  0.68925300  1
  Cl  Cl168  1  0.38719100  0.58842700  0.31074700  1
  Cl  Cl169  1  0.11280900  0.58842700  0.81074700  1
  Cl  Cl170  1  0.10695800  0.71853200  0.22748600  1
  Cl  Cl171  1  0.39304200  0.71853200  0.72748600  1
  Cl  Cl172  1  0.60695800  0.78146800  0.22748600  1
  Cl  Cl173  1  0.89304200  0.78146800  0.72748600  1
  Cl  Cl174  1  0.61280900  0.91157300  0.81074700  1
  Cl  Cl175  1  0.88719100  0.91157300  0.31074700  1
