# generated using pymatgen
data_DyTe3
_symmetry_space_group_name_H-M   'P 1'
_cell_length_a   14.35327422
_cell_length_b   14.35327422
_cell_length_c   4.61491000
_cell_angle_alpha   90.00000000
_cell_angle_beta   90.00000000
_cell_angle_gamma   163.95159108
_symmetry_Int_Tables_number   1
_chemical_formula_structural   DyTe3
_chemical_formula_sum   'Dy2 Te6'
_cell_volume   262.83360241
_cell_formula_units_Z   2
loop_
 _symmetry_equiv_pos_site_id
 _symmetry_equiv_pos_as_xyz
  1  'x, y, z'
loop_
 _atom_site_type_symbol
 _atom_site_label
 _atom_site_symmetry_multiplicity
 _atom_site_fract_x
 _atom_site_fract_y
 _atom_site_fract_z
 _atom_site_occupancy
  Dy  Dy0  1  0.94896200  0.05103800  0.25000000  1
  Dy  Dy1  1  0.05103800  0.94896200  0.75000000  1
  Te  Te2  1  0.83657200  0.16342800  0.25000000  1
  Te  Te3  1  0.16342800  0.83657200  0.75000000  1
  Te  Te4  1  0.68619900  0.31380100  0.25000000  1
  Te  Te5  1  0.31380100  0.68619900  0.75000000  1
  Te  Te6  1  0.55195100  0.44804900  0.25000000  1
  Te  Te7  1  0.44804900  0.55195100  0.75000000  1
