# generated using pymatgen
data_CuCO3
_symmetry_space_group_name_H-M   'P 1'
_cell_length_a   3.38051200
_cell_length_b   13.83440844
_cell_length_c   13.84116736
_cell_angle_alpha   60.19424392
_cell_angle_beta   88.81725120
_cell_angle_gamma   88.79106882
_symmetry_Int_Tables_number   1
_chemical_formula_structural   CuCO3
_chemical_formula_sum   'Cu9 C9 O27'
_cell_volume   561.52193704
_cell_formula_units_Z   9
loop_
 _symmetry_equiv_pos_site_id
 _symmetry_equiv_pos_as_xyz
  1  'x, y, z'
loop_
 _atom_site_type_symbol
 _atom_site_label
 _atom_site_symmetry_multiplicity
 _atom_site_fract_x
 _atom_site_fract_y
 _atom_site_fract_z
 _atom_site_occupancy
  Cu  Cu0  1  0.07449300  0.78215500  0.75874100  1
  Cu  Cu1  1  0.00171400  0.45639700  0.78713800  1
  Cu  Cu2  1  0.02119000  0.09395600  0.78652300  1
  Cu  Cu3  1  0.94114100  0.75936400  0.45779000  1
  Cu  Cu4  1  0.93712700  0.46161900  0.42654600  1
  Cu  Cu5  1  0.08045800  0.11309800  0.46102600  1
  Cu  Cu6  1  0.95204600  0.78787000  0.11916000  1
  Cu  Cu7  1  0.95003800  0.42544000  0.11220600  1
  Cu  Cu8  1  0.03304200  0.11797800  0.09405500  1
  C  C9  1  0.00303300  0.66870200  0.99606900  1
  C  C10  1  0.00060400  0.66706200  0.66654600  1
  C  C11  1  0.00630200  0.99568100  0.33556800  1
  C  C12  1  0.99103600  0.33549100  0.66983100  1
  C  C13  1  0.52225700  0.99761300  0.67265400  1
  C  C14  1  0.47527000  0.67263200  0.32983500  1
  C  C15  1  0.99858900  0.33297900  0.33414200  1
  C  C16  1  0.00384500  0.99986900  0.00027300  1
  C  C17  1  0.50723100  0.32876600  0.99924100  1
  O  O18  1  0.01413300  0.92298900  0.97323300  1
  O  O19  1  0.06551900  0.76053000  0.90433800  1
  O  O20  1  0.98937900  0.57572900  0.99512000  1
  O  O21  1  0.54735700  0.89357600  0.70083000  1
  O  O22  1  0.51760200  0.40561200  0.89544800  1
  O  O23  1  0.02130700  0.60527400  0.77357400  1
  O  O24  1  0.05701200  0.77319100  0.62126100  1
  O  O25  1  0.01794600  0.10351100  0.92451800  1
  O  O26  1  0.02805600  0.99470700  0.42919800  1
  O  O27  1  0.03697700  0.33487700  0.76229500  1
  O  O28  1  0.92430600  0.62385400  0.60536700  1
  O  O29  1  0.97068400  0.42934100  0.57693600  1
  O  O30  1  0.93370200  0.90482500  0.33497000  1
  O  O31  1  0.96706600  0.24331800  0.66868000  1
  O  O32  1  0.52147000  0.02959100  0.74706200  1
  O  O33  1  0.44859400  0.70116700  0.40551200  1
  O  O34  1  0.50605100  0.07384600  0.56722700  1
  O  O35  1  0.48878100  0.56650200  0.35967100  1
  O  O36  1  0.48194600  0.74684600  0.22428400  1
  O  O37  1  0.97889600  0.97268500  0.10419600  1
  O  O38  1  0.01975400  0.31977200  0.43339500  1
  O  O39  1  0.99326200  0.43211400  0.24862200  1
  O  O40  1  0.98178300  0.24693200  0.32129400  1
  O  O41  1  0.95459100  0.66800700  0.08894300  1
  O  O42  1  0.05588300  0.08789000  0.24353200  1
  O  O43  1  0.50087700  0.35845600  0.07605000  1
  O  O44  1  0.49961200  0.22370700  0.02947300  1
