# generated using pymatgen
data_AlS2NO20
_symmetry_space_group_name_H-M   'P 1'
_cell_length_a   11.66358400
_cell_length_b   11.66358400
_cell_length_c   11.66358400
_cell_angle_alpha   90.00000000
_cell_angle_beta   90.00000000
_cell_angle_gamma   90.00000000
_symmetry_Int_Tables_number   1
_chemical_formula_structural   AlS2NO20
_chemical_formula_sum   'Al4 S8 N4 O80'
_cell_volume   1586.70453998
_cell_formula_units_Z   4
loop_
 _symmetry_equiv_pos_site_id
 _symmetry_equiv_pos_as_xyz
  1  'x, y, z'
loop_
 _atom_site_type_symbol
 _atom_site_label
 _atom_site_symmetry_multiplicity
 _atom_site_fract_x
 _atom_site_fract_y
 _atom_site_fract_z
 _atom_site_occupancy
  Al  Al0  1  0.50000000  0.50000000  0.00000000  1
  Al  Al1  1  0.50000000  0.00000000  0.50000000  1
  Al  Al2  1  0.00000000  0.50000000  0.50000000  1
  Al  Al3  1  0.00000000  0.00000000  0.00000000  1
  S  S4  1  0.17052600  0.82947400  0.32947400  1
  S  S5  1  0.82947400  0.32947400  0.17052600  1
  S  S6  1  0.32947400  0.17052600  0.82947400  1
  S  S7  1  0.67052600  0.67052600  0.67052600  1
  S  S8  1  0.82947400  0.17052600  0.67052600  1
  S  S9  1  0.17052600  0.67052600  0.82947400  1
  S  S10  1  0.67052600  0.82947400  0.17052600  1
  S  S11  1  0.32947400  0.32947400  0.32947400  1
  N  N12  1  0.00000000  0.00000000  0.50000000  1
  N  N13  1  0.00000000  0.50000000  0.00000000  1
  N  N14  1  0.50000000  0.00000000  0.00000000  1
  N  N15  1  0.50000000  0.50000000  0.50000000  1
  O  O16  1  0.24455100  0.75544900  0.25544900  1
  O  O17  1  0.75544900  0.25544900  0.24455100  1
  O  O18  1  0.25544900  0.24455100  0.75544900  1
  O  O19  1  0.74455100  0.74455100  0.74455100  1
  O  O20  1  0.75544900  0.24455100  0.74455100  1
  O  O21  1  0.24455100  0.74455100  0.75544900  1
  O  O22  1  0.74455100  0.75544900  0.24455100  1
  O  O23  1  0.25544900  0.25544900  0.25544900  1
  O  O24  1  0.05206400  0.78318700  0.32587600  1
  O  O25  1  0.94793600  0.28318700  0.17412400  1
  O  O26  1  0.44793600  0.21681300  0.82587600  1
  O  O27  1  0.55206400  0.71681300  0.67412400  1
  O  O28  1  0.32587600  0.05206400  0.78318700  1
  O  O29  1  0.17412400  0.94793600  0.28318700  1
  O  O30  1  0.82587600  0.44793600  0.21681300  1
  O  O31  1  0.67412400  0.55206400  0.71681300  1
  O  O32  1  0.78318700  0.32587600  0.05206400  1
  O  O33  1  0.28318700  0.17412400  0.94793600  1
  O  O34  1  0.21681300  0.82587600  0.44793600  1
  O  O35  1  0.71681300  0.67412400  0.55206400  1
  O  O36  1  0.94793600  0.21681300  0.67412400  1
  O  O37  1  0.05206400  0.71681300  0.82587600  1
  O  O38  1  0.55206400  0.78318700  0.17412400  1
  O  O39  1  0.44793600  0.28318700  0.32587600  1
  O  O40  1  0.67412400  0.94793600  0.21681300  1
  O  O41  1  0.82587600  0.05206400  0.71681300  1
  O  O42  1  0.17412400  0.55206400  0.78318700  1
  O  O43  1  0.32587600  0.44793600  0.28318700  1
  O  O44  1  0.21681300  0.67412400  0.94793600  1
  O  O45  1  0.71681300  0.82587600  0.05206400  1
  O  O46  1  0.78318700  0.17412400  0.55206400  1
  O  O47  1  0.28318700  0.32587600  0.44793600  1
  O  O48  1  0.27810500  0.39592800  0.03268700  1
  O  O49  1  0.72189500  0.89592800  0.46731300  1
  O  O50  1  0.22189500  0.60407200  0.53268700  1
  O  O51  1  0.77810500  0.10407200  0.96731300  1
  O  O52  1  0.03268700  0.27810500  0.39592800  1
  O  O53  1  0.46731300  0.72189500  0.89592800  1
  O  O54  1  0.53268700  0.22189500  0.60407200  1
  O  O55  1  0.96731300  0.77810500  0.10407200  1
  O  O56  1  0.39592800  0.03268700  0.27810500  1
  O  O57  1  0.89592800  0.46731300  0.72189500  1
  O  O58  1  0.60407200  0.53268700  0.22189500  1
  O  O59  1  0.10407200  0.96731300  0.77810500  1
  O  O60  1  0.72189500  0.60407200  0.96731300  1
  O  O61  1  0.27810500  0.10407200  0.53268700  1
  O  O62  1  0.77810500  0.39592800  0.46731300  1
  O  O63  1  0.22189500  0.89592800  0.03268700  1
  O  O64  1  0.96731300  0.72189500  0.60407200  1
  O  O65  1  0.53268700  0.27810500  0.10407200  1
  O  O66  1  0.46731300  0.77810500  0.39592800  1
  O  O67  1  0.03268700  0.22189500  0.89592800  1
  O  O68  1  0.60407200  0.96731300  0.72189500  1
  O  O69  1  0.10407200  0.53268700  0.27810500  1
  O  O70  1  0.39592800  0.46731300  0.77810500  1
  O  O71  1  0.89592800  0.03268700  0.22189500  1
  O  O72  1  0.47388400  0.66553300  0.98803800  1
  O  O73  1  0.52611600  0.16553300  0.51196200  1
  O  O74  1  0.02611600  0.33446700  0.48803800  1
  O  O75  1  0.97388400  0.83446700  0.01196200  1
  O  O76  1  0.98803800  0.47388400  0.66553300  1
  O  O77  1  0.51196200  0.52611600  0.16553300  1
  O  O78  1  0.48803800  0.02611600  0.33446700  1
  O  O79  1  0.01196200  0.97388400  0.83446700  1
  O  O80  1  0.66553300  0.98803800  0.47388400  1
  O  O81  1  0.16553300  0.51196200  0.52611600  1
  O  O82  1  0.33446700  0.48803800  0.02611600  1
  O  O83  1  0.83446700  0.01196200  0.97388400  1
  O  O84  1  0.52611600  0.33446700  0.01196200  1
  O  O85  1  0.47388400  0.83446700  0.48803800  1
  O  O86  1  0.97388400  0.66553300  0.51196200  1
  O  O87  1  0.02611600  0.16553300  0.98803800  1
  O  O88  1  0.01196200  0.52611600  0.33446700  1
  O  O89  1  0.48803800  0.47388400  0.83446700  1
  O  O90  1  0.51196200  0.97388400  0.66553300  1
  O  O91  1  0.98803800  0.02611600  0.16553300  1
  O  O92  1  0.33446700  0.01196200  0.52611600  1
  O  O93  1  0.83446700  0.48803800  0.47388400  1
  O  O94  1  0.66553300  0.51196200  0.97388400  1
  O  O95  1  0.16553300  0.98803800  0.02611600  1
