# generated using pymatgen
data_TiMn3Te2(PO4)6
_symmetry_space_group_name_H-M   'P 1'
_cell_length_a   8.89045184
_cell_length_b   8.89045184
_cell_length_c   8.89045173
_cell_angle_alpha   59.83388028
_cell_angle_beta   59.83388028
_cell_angle_gamma   59.83388416
_symmetry_Int_Tables_number   1
_chemical_formula_structural   TiMn3Te2(PO4)6
_chemical_formula_sum   'Ti1 Mn3 Te2 P6 O24'
_cell_volume   495.01232252
_cell_formula_units_Z   1
loop_
 _symmetry_equiv_pos_site_id
 _symmetry_equiv_pos_as_xyz
  1  'x, y, z'
loop_
 _atom_site_type_symbol
 _atom_site_label
 _atom_site_symmetry_multiplicity
 _atom_site_fract_x
 _atom_site_fract_y
 _atom_site_fract_z
 _atom_site_occupancy
  Ti  Ti0  1  0.14678800  0.14678800  0.14678800  1
  Mn  Mn1  1  0.83751800  0.83751800  0.83751800  1
  Mn  Mn2  1  0.65106800  0.65106800  0.65106800  1
  Mn  Mn3  1  0.34397000  0.34397000  0.34397000  1
  Te  Te4  1  0.98133400  0.98133400  0.98133400  1
  Te  Te5  1  0.48880100  0.48880100  0.48880100  1
  P  P6  1  0.54365400  0.95568900  0.25161500  1
  P  P7  1  0.25161500  0.54365400  0.95568900  1
  P  P8  1  0.95568900  0.25161500  0.54365400  1
  P  P9  1  0.05694400  0.75594100  0.44649300  1
  P  P10  1  0.75594100  0.44649300  0.05694400  1
  P  P11  1  0.44649300  0.05694400  0.75594100  1
  O  O12  1  0.47206600  0.90833900  0.70036800  1
  O  O13  1  0.90833900  0.70036800  0.47206600  1
  O  O14  1  0.74506500  0.93564600  0.08159600  1
  O  O15  1  0.70036800  0.47206600  0.90833900  1
  O  O16  1  0.55996200  0.76022300  0.39485900  1
  O  O17  1  0.39251600  0.02084600  0.17223900  1
  O  O18  1  0.08159600  0.74506500  0.93564600  1
  O  O19  1  0.39485900  0.55996200  0.76022300  1
  O  O20  1  0.76022300  0.39485900  0.55996200  1
  O  O21  1  0.03247700  0.80298900  0.59949000  1
  O  O22  1  0.08942200  0.91557900  0.25451700  1
  O  O23  1  0.80298900  0.59949000  0.03247700  1
  O  O24  1  0.17223900  0.39251600  0.02084600  1
  O  O25  1  0.93564600  0.08159600  0.74506500  1
  O  O26  1  0.02084600  0.17223900  0.39251600  1
  O  O27  1  0.25645800  0.59227700  0.41992200  1
  O  O28  1  0.59227700  0.41992200  0.25645800  1
  O  O29  1  0.91557900  0.25451700  0.08942200  1
  O  O30  1  0.59949000  0.03247700  0.80298900  1
  O  O31  1  0.41992200  0.25645800  0.59227700  1
  O  O32  1  0.31473200  0.52483000  0.09376500  1
  O  O33  1  0.25451700  0.08942200  0.91557900  1
  O  O34  1  0.09376500  0.31473200  0.52483000  1
  O  O35  1  0.52483000  0.09376500  0.31473200  1
