# generated using pymatgen
data_Co3OF5
_symmetry_space_group_name_H-M   'P 1'
_cell_length_a   4.71390200
_cell_length_b   4.71760400
_cell_length_c   9.52587200
_cell_angle_alpha   90.00000000
_cell_angle_beta   90.00000000
_cell_angle_gamma   90.00000000
_symmetry_Int_Tables_number   1
_chemical_formula_structural   Co3OF5
_chemical_formula_sum   'Co6 O2 F10'
_cell_volume   211.83941773
_cell_formula_units_Z   2
loop_
 _symmetry_equiv_pos_site_id
 _symmetry_equiv_pos_as_xyz
  1  'x, y, z'
loop_
 _atom_site_type_symbol
 _atom_site_label
 _atom_site_symmetry_multiplicity
 _atom_site_fract_x
 _atom_site_fract_y
 _atom_site_fract_z
 _atom_site_occupancy
  Co  Co0  1  0.78285000  0.02886300  0.00000000  1
  Co  Co1  1  0.75348500  0.98910600  0.33868300  1
  Co  Co2  1  0.75348500  0.98910600  0.66131700  1
  Co  Co3  1  0.24651500  0.48910600  0.16131700  1
  Co  Co4  1  0.24651500  0.48910600  0.83868300  1
  Co  Co5  1  0.21715000  0.52886300  0.50000000  1
  O  O6  1  0.94804000  0.79614800  0.50000000  1
  O  O7  1  0.05196000  0.29614800  0.00000000  1
  F  F8  1  0.94701300  0.80259500  0.16484800  1
  F  F9  1  0.94701300  0.80259500  0.83515200  1
  F  F10  1  0.05298700  0.30259500  0.33515200  1
  F  F11  1  0.05298700  0.30259500  0.66484800  1
  F  F12  1  0.44062100  0.69021100  0.66719600  1
  F  F13  1  0.46676000  0.71116400  0.00000000  1
  F  F14  1  0.44062100  0.69021100  0.33280400  1
  F  F15  1  0.55937900  0.19021100  0.16719600  1
  F  F16  1  0.55937900  0.19021100  0.83280400  1
  F  F17  1  0.53324000  0.21116400  0.50000000  1
