# generated using pymatgen
data_VOF
_symmetry_space_group_name_H-M   'P 1'
_cell_length_a   7.84285652
_cell_length_b   7.84285652
_cell_length_c   4.70906782
_cell_angle_alpha   89.78904171
_cell_angle_beta   89.78904171
_cell_angle_gamma   105.84646271
_symmetry_Int_Tables_number   1
_chemical_formula_structural   VOF
_chemical_formula_sum   'V8 O8 F8'
_cell_volume   278.64358455
_cell_formula_units_Z   8
loop_
 _symmetry_equiv_pos_site_id
 _symmetry_equiv_pos_as_xyz
  1  'x, y, z'
loop_
 _atom_site_type_symbol
 _atom_site_label
 _atom_site_symmetry_multiplicity
 _atom_site_fract_x
 _atom_site_fract_y
 _atom_site_fract_z
 _atom_site_occupancy
  V  V0  1  0.61861400  0.61861400  0.56174400  1
  V  V1  1  0.36409900  0.86517400  0.47633100  1
  V  V2  1  0.13648900  0.13648900  0.45224700  1
  V  V3  1  0.86517400  0.36409900  0.47633100  1
  V  V4  1  0.51323200  0.24566600  0.01038400  1
  V  V5  1  0.76116800  0.99597000  0.01052100  1
  V  V6  1  0.24566600  0.51323200  0.01038400  1
  V  V7  1  0.99597000  0.76116800  0.01052100  1
  O  O8  1  0.97960400  0.97960400  0.20482300  1
  O  O9  1  0.72642900  0.21170000  0.19018600  1
  O  O10  1  0.21170000  0.72642900  0.19018600  1
  O  O11  1  0.35670200  0.09569000  0.29702900  1
  O  O12  1  0.09569000  0.35670200  0.29702900  1
  O  O13  1  0.65244700  0.39457200  0.69845100  1
  O  O14  1  0.39457200  0.65244700  0.69845100  1
  O  O15  1  0.78009000  0.78009000  0.81288000  1
  F  F16  1  0.47670300  0.47670300  0.20640600  1
  F  F17  1  0.59853000  0.83918600  0.30384100  1
  F  F18  1  0.83918600  0.59853000  0.30384100  1
  F  F19  1  0.90961800  0.15152800  0.69783000  1
  F  F20  1  0.15152800  0.90961800  0.69783000  1
  F  F21  1  0.01763200  0.53048000  0.79357300  1
  F  F22  1  0.53048000  0.01763200  0.79357300  1
  F  F23  1  0.27867700  0.27867700  0.80560700  1
