# generated using pymatgen
data_Ni6OF11
_symmetry_space_group_name_H-M   'P 1'
_cell_length_a   10.53723815
_cell_length_b   10.53723815
_cell_length_c   3.08926600
_cell_angle_alpha   90.00000000
_cell_angle_beta   90.00000000
_cell_angle_gamma   143.35256815
_symmetry_Int_Tables_number   1
_chemical_formula_structural   Ni6OF11
_chemical_formula_sum   'Ni6 O1 F11'
_cell_volume   204.73998738
_cell_formula_units_Z   1
loop_
 _symmetry_equiv_pos_site_id
 _symmetry_equiv_pos_as_xyz
  1  'x, y, z'
loop_
 _atom_site_type_symbol
 _atom_site_label
 _atom_site_symmetry_multiplicity
 _atom_site_fract_x
 _atom_site_fract_y
 _atom_site_fract_z
 _atom_site_occupancy
  Ni  Ni0  1  0.00347300  0.00347300  0.00000000  1
  Ni  Ni1  1  0.49215900  0.49215900  0.50000000  1
  Ni  Ni2  1  0.66763000  0.33353700  0.00000000  1
  Ni  Ni3  1  0.16630400  0.83317100  0.50000000  1
  Ni  Ni4  1  0.83317100  0.16630400  0.50000000  1
  Ni  Ni5  1  0.33353700  0.66763000  0.00000000  1
  O  O6  1  0.30650500  0.30650500  0.00000000  1
  F  F7  1  0.36333600  0.03013600  0.00000000  1
  F  F8  1  0.69731900  0.69731900  0.00000000  1
  F  F9  1  0.60149500  0.39830400  0.50000000  1
  F  F10  1  0.73234200  0.26768900  0.50000000  1
  F  F11  1  0.06569100  0.93366500  0.50000000  1
  F  F12  1  0.97056800  0.63660000  0.00000000  1
  F  F13  1  0.03013600  0.36333600  0.00000000  1
  F  F14  1  0.26768900  0.73234200  0.50000000  1
  F  F15  1  0.93366500  0.06569100  0.50000000  1
  F  F16  1  0.39830400  0.60149500  0.50000000  1
  F  F17  1  0.63660000  0.97056800  0.00000000  1
