# generated using pymatgen
data_TaSb3O8
_symmetry_space_group_name_H-M   'P 1'
_cell_length_a   5.57879800
_cell_length_b   4.96108960
_cell_length_c   23.91264076
_cell_angle_alpha   90.00410259
_cell_angle_beta   90.04287005
_cell_angle_gamma   90.02807570
_symmetry_Int_Tables_number   1
_chemical_formula_structural   TaSb3O8
_chemical_formula_sum   'Ta4 Sb12 O32'
_cell_volume   661.82790017
_cell_formula_units_Z   4
loop_
 _symmetry_equiv_pos_site_id
 _symmetry_equiv_pos_as_xyz
  1  'x, y, z'
loop_
 _atom_site_type_symbol
 _atom_site_label
 _atom_site_symmetry_multiplicity
 _atom_site_fract_x
 _atom_site_fract_y
 _atom_site_fract_z
 _atom_site_occupancy
  Ta  Ta0  1  0.87067900  0.99694900  0.42768300  1
  Ta  Ta1  1  0.63457200  0.50256800  0.17778700  1
  Ta  Ta2  1  0.37035200  0.50248500  0.42762900  1
  Ta  Ta3  1  0.36547600  0.49736300  0.92773000  1
  Sb  Sb4  1  0.01777400  0.45181600  0.30222700  1
  Sb  Sb5  1  0.01826000  0.45698800  0.80211400  1
  Sb  Sb6  1  0.86573000  0.99779800  0.92688300  1
  Sb  Sb7  1  0.63383000  0.50059900  0.67786200  1
  Sb  Sb8  1  0.48301700  0.95338700  0.05227300  1
  Sb  Sb9  1  0.48532500  0.95505500  0.55249900  1
  Sb  Sb10  1  0.52011900  0.04831400  0.30244300  1
  Sb  Sb11  1  0.51611300  0.04348800  0.80232500  1
  Sb  Sb12  1  0.13414500  0.00274100  0.17704100  1
  Sb  Sb13  1  0.13386800  0.99952000  0.67774700  1
  Sb  Sb14  1  0.98304500  0.54605900  0.05195100  1
  Sb  Sb15  1  0.98509800  0.54459200  0.55255400  1
  O  O16  1  0.91894600  0.28960700  0.14938500  1
  O  O17  1  0.92192300  0.29531400  0.64827200  1
  O  O18  1  0.85609700  0.78974800  0.70648800  1
  O  O19  1  0.86256100  0.78487300  0.20378500  1
  O  O20  1  0.84506500  0.16523800  0.34914100  1
  O  O21  1  0.84383400  0.16303200  0.84773900  1
  O  O22  1  0.82153000  0.83746800  0.50502200  1
  O  O23  1  0.82033500  0.84122200  0.00477600  1
  O  O24  1  0.68011100  0.34189400  0.25439700  1
  O  O25  1  0.67907300  0.34296400  0.75516700  1
  O  O26  1  0.65786500  0.66116500  0.59876700  1
  O  O27  1  0.65613200  0.66444200  0.09860000  1
  O  O28  1  0.63734500  0.28370000  0.95210800  1
  O  O29  1  0.63170900  0.27970600  0.45237200  1
  O  O30  1  0.57646200  0.78845900  0.40082500  1
  O  O31  1  0.57856600  0.79109300  0.90032600  1
  O  O32  1  0.42242800  0.20448100  0.64829000  1
  O  O33  1  0.42111500  0.20939200  0.15058300  1
  O  O34  1  0.35589600  0.71024500  0.70632600  1
  O  O35  1  0.36302700  0.71665600  0.20212800  1
  O  O36  1  0.34514300  0.33484500  0.34870700  1
  O  O37  1  0.34373400  0.33443800  0.84873300  1
  O  O38  1  0.32155100  0.66239200  0.50491200  1
  O  O39  1  0.32140200  0.65813700  0.00456800  1
  O  O40  1  0.18055800  0.15695300  0.25522800  1
  O  O41  1  0.17945300  0.15880900  0.75459200  1
  O  O42  1  0.15600700  0.83813500  0.09810800  1
  O  O43  1  0.15782600  0.83861500  0.59873200  1
  O  O44  1  0.13196100  0.21963400  0.45243300  1
  O  O45  1  0.13739500  0.21568000  0.95379000  1
  O  O46  1  0.08112500  0.71090600  0.89931400  1
  O  O47  1  0.07642400  0.71103800  0.40083700  1
