# generated using pymatgen
data_LiVP2(HO4)2
_symmetry_space_group_name_H-M   'P 1'
_cell_length_a   8.04406790
_cell_length_b   18.33983297
_cell_length_c   8.04710709
_cell_angle_alpha   102.91165890
_cell_angle_beta   60.03804954
_cell_angle_gamma   102.73485019
_symmetry_Int_Tables_number   1
_chemical_formula_structural   LiVP2(HO4)2
_chemical_formula_sum   'Li6 V6 P12 H12 O48'
_cell_volume   994.14111211
_cell_formula_units_Z   6
loop_
 _symmetry_equiv_pos_site_id
 _symmetry_equiv_pos_as_xyz
  1  'x, y, z'
loop_
 _atom_site_type_symbol
 _atom_site_label
 _atom_site_symmetry_multiplicity
 _atom_site_fract_x
 _atom_site_fract_y
 _atom_site_fract_z
 _atom_site_occupancy
  Li  Li0  1  0.24688900  0.75004100  0.25132700  1
  Li  Li1  1  0.18897000  0.57324800  0.19113200  1
  Li  Li2  1  0.69228000  0.07325100  0.68955500  1
  Li  Li3  1  0.30770800  0.92675000  0.31047700  1
  Li  Li4  1  0.81104600  0.42678000  0.80890000  1
  Li  Li5  1  0.75308900  0.24998900  0.74872300  1
  V  V6  1  0.00005200  0.99997300  0.99996700  1
  V  V7  1  0.08637700  0.25878100  0.08629700  1
  V  V8  1  0.41420200  0.24148700  0.41369600  1
  V  V9  1  0.50000600  0.49998800  0.50005800  1
  V  V10  1  0.58590800  0.75865600  0.58649800  1
  V  V11  1  0.91357200  0.74115700  0.91371100  1
  P  P12  1  0.25798200  0.86246100  0.68664100  1
  P  P13  1  0.24130500  0.63712200  0.58266200  1
  P  P14  1  0.31278700  0.13698100  0.08228400  1
  P  P15  1  0.41809200  0.36265000  0.18699400  1
  P  P16  1  0.08333700  0.13714500  0.74062400  1
  P  P17  1  0.18661600  0.36240600  0.75872900  1
  P  P18  1  0.81338700  0.63762700  0.24122600  1
  P  P19  1  0.91669700  0.86279900  0.25930000  1
  P  P20  1  0.58204700  0.63736300  0.81307800  1
  P  P21  1  0.68726300  0.86300500  0.91766000  1
  P  P22  1  0.75871700  0.36292600  0.41736300  1
  P  P23  1  0.74197800  0.13750800  0.31336700  1
  H  H24  1  0.09422000  0.63713900  0.97609800  1
  H  H25  1  0.97635700  0.63580200  0.56576200  1
  H  H26  1  0.06630000  0.13612800  0.47584700  1
  H  H27  1  0.52328000  0.86275000  0.40626300  1
  H  H28  1  0.56620500  0.63657200  0.09289500  1
  H  H29  1  0.40672400  0.86386400  0.93436600  1
  H  H30  1  0.59328600  0.13613300  0.06566000  1
  H  H31  1  0.47671900  0.13723800  0.59375300  1
  H  H32  1  0.43381800  0.36343400  0.90712500  1
  H  H33  1  0.93368900  0.86386200  0.52410700  1
  H  H34  1  0.02360600  0.36421100  0.43429200  1
  H  H35  1  0.90578300  0.36286900  0.02388700  1
  O  O36  1  0.02501800  0.80541000  0.08428900  1
  O  O37  1  0.03115100  0.87543200  0.38685100  1
  O  O38  1  0.04316900  0.62581500  0.11367700  1
  O  O39  1  0.08357000  0.80499000  0.69677000  1
  O  O40  1  0.11363600  0.62409300  0.46833000  1
  O  O41  1  0.45796400  0.87523300  0.03228700  1
  O  O42  1  0.20883700  0.93948900  0.79930400  1
  O  O43  1  0.20519000  0.33242900  0.23953000  1
  O  O44  1  0.11135500  0.66803500  0.79513000  1
  O  O45  1  0.38546300  0.87401800  0.45720800  1
  O  O46  1  0.46800800  0.62537800  0.04206900  1
  O  O47  1  0.19868400  0.05995500  0.07091200  1
  O  O48  1  0.28909000  0.56011300  0.57285000  1
  O  O49  1  0.41603200  0.69372500  0.47499600  1
  O  O50  1  0.69773200  0.80602400  0.02517300  1
  O  O51  1  0.26077100  0.16771000  0.29466100  1
  O  O52  1  0.38838000  0.83266500  0.73970200  1
  O  O53  1  0.19652500  0.30491500  0.58402500  1
  O  O54  1  0.43033800  0.43989700  0.30072200  1
  O  O55  1  0.07249800  0.06056300  0.78931400  1
  O  O56  1  0.29959500  0.43946200  0.70957300  1
  O  O57  1  0.52472600  0.30550500  0.19778800  1
  O  O58  1  0.70458200  0.83202000  0.38885200  1
  O  O59  1  0.76071800  0.66748600  0.11119300  1
  O  O60  1  0.23907300  0.33246100  0.88886600  1
  O  O61  1  0.29520200  0.16796600  0.61111400  1
  O  O62  1  0.47501000  0.69441200  0.80232400  1
  O  O63  1  0.70045700  0.56052100  0.29033800  1
  O  O64  1  0.92746600  0.93943100  0.21065900  1
  O  O65  1  0.56966800  0.56012400  0.69934800  1
  O  O66  1  0.80349300  0.69506100  0.41596200  1
  O  O67  1  0.61165500  0.16731500  0.26035000  1
  O  O68  1  0.73937200  0.83230400  0.70522500  1
  O  O69  1  0.58386600  0.30618400  0.52477000  1
  O  O70  1  0.30206200  0.19397700  0.97496300  1
  O  O71  1  0.71079900  0.43989600  0.42718800  1
  O  O72  1  0.80126800  0.94004300  0.92903000  1
  O  O73  1  0.53207700  0.37464500  0.95791400  1
  O  O74  1  0.61454600  0.12596500  0.54284700  1
  O  O75  1  0.88860500  0.33193900  0.20501300  1
  O  O76  1  0.79495400  0.66752900  0.76027700  1
  O  O77  1  0.79124600  0.06050400  0.20066700  1
  O  O78  1  0.88632000  0.37592800  0.53177000  1
  O  O79  1  0.54207400  0.12474500  0.96765100  1
  O  O80  1  0.91642500  0.19501000  0.30296800  1
  O  O81  1  0.96878500  0.12453700  0.61314900  1
  O  O82  1  0.95678900  0.37421900  0.88633600  1
  O  O83  1  0.97516000  0.19462500  0.91574000  1
