# generated using pymatgen
data_AgSbS2
_symmetry_space_group_name_H-M   'P 1'
_cell_length_a   7.99809717
_cell_length_b   7.99809717
_cell_length_c   13.91493362
_cell_angle_alpha   78.15543371
_cell_angle_beta   78.15543371
_cell_angle_gamma   42.49124318
_symmetry_Int_Tables_number   1
_chemical_formula_structural   AgSbS2
_chemical_formula_sum   'Ag4 Sb4 S8'
_cell_volume   586.50270428
_cell_formula_units_Z   4
loop_
 _symmetry_equiv_pos_site_id
 _symmetry_equiv_pos_as_xyz
  1  'x, y, z'
loop_
 _atom_site_type_symbol
 _atom_site_label
 _atom_site_symmetry_multiplicity
 _atom_site_fract_x
 _atom_site_fract_y
 _atom_site_fract_z
 _atom_site_occupancy
  Ag  Ag0  1  0.98811000  0.99924300  0.00360400  1
  Ag  Ag1  1  0.50008100  0.48844600  0.50319500  1
  Ag  Ag2  1  0.48844600  0.50008100  0.00319500  1
  Ag  Ag3  1  0.99924300  0.98811000  0.50360400  1
  Sb  Sb4  1  0.62008700  0.77647100  0.85975000  1
  Sb  Sb5  1  0.21988500  0.36317300  0.65837800  1
  Sb  Sb6  1  0.77647100  0.62008700  0.35975000  1
  Sb  Sb7  1  0.36317300  0.21988500  0.15837800  1
  S  S8  1  0.59896500  0.77829100  0.19870700  1
  S  S9  1  0.80223500  0.28821500  0.36417500  1
  S  S10  1  0.69105300  0.20322800  0.14313400  1
  S  S11  1  0.20322800  0.69105300  0.64313400  1
  S  S12  1  0.21477800  0.39614100  0.31905500  1
  S  S13  1  0.39614100  0.21477800  0.81905500  1
  S  S14  1  0.77829100  0.59896500  0.69870700  1
  S  S15  1  0.28821500  0.80223500  0.86417500  1
