# generated using pymatgen
data_Cr3P4O15
_symmetry_space_group_name_H-M   'P 1'
_cell_length_a   6.41838300
_cell_length_b   10.63778100
_cell_length_c   17.45242200
_cell_angle_alpha   90.00000000
_cell_angle_beta   90.00000000
_cell_angle_gamma   90.00000000
_symmetry_Int_Tables_number   1
_chemical_formula_structural   Cr3P4O15
_chemical_formula_sum   'Cr12 P16 O60'
_cell_volume   1191.60517285
_cell_formula_units_Z   4
loop_
 _symmetry_equiv_pos_site_id
 _symmetry_equiv_pos_as_xyz
  1  'x, y, z'
loop_
 _atom_site_type_symbol
 _atom_site_label
 _atom_site_symmetry_multiplicity
 _atom_site_fract_x
 _atom_site_fract_y
 _atom_site_fract_z
 _atom_site_occupancy
  Cr  Cr0  1  0.08189400  0.50643900  0.13308800  1
  Cr  Cr1  1  0.10476100  0.99768900  0.16586200  1
  Cr  Cr2  1  0.81626800  0.26081600  0.24800600  1
  Cr  Cr3  1  0.31626800  0.76081600  0.25199400  1
  Cr  Cr4  1  0.60476100  0.49768900  0.33413800  1
  Cr  Cr5  1  0.58189400  0.00643900  0.36691200  1
  Cr  Cr6  1  0.08189400  0.99356100  0.63308800  1
  Cr  Cr7  1  0.10476100  0.50231100  0.66586200  1
  Cr  Cr8  1  0.81626800  0.23918400  0.74800600  1
  Cr  Cr9  1  0.31626800  0.73918400  0.75199400  1
  Cr  Cr10  1  0.60476100  0.00231100  0.83413800  1
  Cr  Cr11  1  0.58189400  0.49356100  0.86691200  1
  P  P12  1  0.14579100  0.77159100  0.05289000  1
  P  P13  1  0.96235900  0.23640300  0.07429400  1
  P  P14  1  0.58284100  0.51881200  0.17784100  1
  P  P15  1  0.59798700  0.00050800  0.20764500  1
  P  P16  1  0.09798700  0.50050800  0.29235500  1
  P  P17  1  0.08284100  0.01881200  0.32215900  1
  P  P18  1  0.46235900  0.73640300  0.42570600  1
  P  P19  1  0.64579100  0.27159100  0.44711000  1
  P  P20  1  0.14579100  0.72840900  0.55289000  1
  P  P21  1  0.96235900  0.26359700  0.57429400  1
  P  P22  1  0.58284100  0.98118800  0.67784100  1
  P  P23  1  0.59798700  0.49949200  0.70764500  1
  P  P24  1  0.09798700  0.99949200  0.79235500  1
  P  P25  1  0.08284100  0.48118800  0.82215900  1
  P  P26  1  0.46235900  0.76359700  0.92570600  1
  P  P27  1  0.64579100  0.22840900  0.94711000  1
  O  O28  1  0.98241400  0.85478100  0.01735300  1
  O  O29  1  0.36370500  0.78756500  0.00813500  1
  O  O30  1  0.09855400  0.63096100  0.05120300  1
  O  O31  1  0.07973300  0.36123100  0.06582700  1
  O  O32  1  0.10645900  0.12415800  0.08525900  1
  O  O33  1  0.79098800  0.24173700  0.13631200  1
  O  O34  1  0.39216100  0.50214100  0.12836800  1
  O  O35  1  0.77891700  0.54133700  0.13175100  1
  O  O36  1  0.20173400  0.81580500  0.13647900  1
  O  O37  1  0.41028900  0.02350700  0.15751900  1
  O  O38  1  0.79524900  0.97029200  0.16380000  1
  O  O39  1  0.54950900  0.62534700  0.24209900  1
  O  O40  1  0.61147600  0.40264400  0.23498600  1
  O  O41  1  0.12305700  0.61454200  0.23298000  1
  O  O42  1  0.04696400  0.39307500  0.23071800  1
  O  O43  1  0.54696400  0.89307500  0.26928200  1
  O  O44  1  0.62305700  0.11454200  0.26702000  1
  O  O45  1  0.11147600  0.90264400  0.26501400  1
  O  O46  1  0.04950900  0.12534700  0.25790100  1
  O  O47  1  0.29524900  0.47029200  0.33620000  1
  O  O48  1  0.91028900  0.52350700  0.34248100  1
  O  O49  1  0.70173400  0.31580500  0.36352100  1
  O  O50  1  0.27891700  0.04133700  0.36824900  1
  O  O51  1  0.89216100  0.00214100  0.37163200  1
  O  O52  1  0.29098800  0.74173700  0.36368800  1
  O  O53  1  0.60645900  0.62415800  0.41474100  1
  O  O54  1  0.57973300  0.86123100  0.43417300  1
  O  O55  1  0.59855400  0.13096100  0.44879700  1
  O  O56  1  0.86370500  0.28756500  0.49186500  1
  O  O57  1  0.48241400  0.35478100  0.48264700  1
  O  O58  1  0.98241400  0.64521900  0.51735300  1
  O  O59  1  0.36370500  0.71243500  0.50813500  1
  O  O60  1  0.09855400  0.86903900  0.55120300  1
  O  O61  1  0.07973300  0.13876900  0.56582700  1
  O  O62  1  0.10645900  0.37584200  0.58525900  1
  O  O63  1  0.79098800  0.25826300  0.63631200  1
  O  O64  1  0.39216100  0.99785900  0.62836800  1
  O  O65  1  0.77891700  0.95866300  0.63175100  1
  O  O66  1  0.20173400  0.68419500  0.63647900  1
  O  O67  1  0.41028900  0.47649300  0.65751900  1
  O  O68  1  0.79524900  0.52970800  0.66380000  1
  O  O69  1  0.54950900  0.87465300  0.74209900  1
  O  O70  1  0.61147600  0.09735600  0.73498600  1
  O  O71  1  0.12305700  0.88545800  0.73298000  1
  O  O72  1  0.04696400  0.10692500  0.73071800  1
  O  O73  1  0.54696400  0.60692500  0.76928200  1
  O  O74  1  0.62305700  0.38545800  0.76702000  1
  O  O75  1  0.11147600  0.59735600  0.76501400  1
  O  O76  1  0.04950900  0.37465300  0.75790100  1
  O  O77  1  0.29524900  0.02970800  0.83620000  1
  O  O78  1  0.91028900  0.97649300  0.84248100  1
  O  O79  1  0.70173400  0.18419500  0.86352100  1
  O  O80  1  0.27891700  0.45866300  0.86824900  1
  O  O81  1  0.89216100  0.49785900  0.87163200  1
  O  O82  1  0.29098800  0.75826300  0.86368800  1
  O  O83  1  0.60645900  0.87584200  0.91474100  1
  O  O84  1  0.57973300  0.63876900  0.93417300  1
  O  O85  1  0.59855400  0.36903900  0.94879700  1
  O  O86  1  0.86370500  0.21243500  0.99186500  1
  O  O87  1  0.48241400  0.14521900  0.98264700  1
