# generated using pymatgen
data_GaH5(NF)2
_symmetry_space_group_name_H-M   'P 1'
_cell_length_a   6.33215750
_cell_length_b   6.33215750
_cell_length_c   5.01144601
_cell_angle_alpha   88.57212939
_cell_angle_beta   88.57212939
_cell_angle_gamma   55.11758873
_symmetry_Int_Tables_number   1
_chemical_formula_structural   GaH5(NF)2
_chemical_formula_sum   'Ga2 H10 N4 F4'
_cell_volume   164.77150459
_cell_formula_units_Z   2
loop_
 _symmetry_equiv_pos_site_id
 _symmetry_equiv_pos_as_xyz
  1  'x, y, z'
loop_
 _atom_site_type_symbol
 _atom_site_label
 _atom_site_symmetry_multiplicity
 _atom_site_fract_x
 _atom_site_fract_y
 _atom_site_fract_z
 _atom_site_occupancy
  Ga  Ga0  1  0.50000000  0.50000000  0.50000000  1
  Ga  Ga1  1  0.00000000  0.00000000  0.00000000  1
  H  H2  1  0.11181300  0.11181300  0.42612800  1
  H  H3  1  0.04292500  0.34015400  0.21157600  1
  H  H4  1  0.34015400  0.04292500  0.21157600  1
  H  H5  1  0.64877700  0.64877700  0.11107400  1
  H  H6  1  0.72364900  0.72364900  0.40196900  1
  H  H7  1  0.27635100  0.27635100  0.59803100  1
  H  H8  1  0.35122300  0.35122300  0.88892600  1
  H  H9  1  0.65984600  0.95707500  0.78842400  1
  H  H10  1  0.95707500  0.65984600  0.78842400  1
  H  H11  1  0.88818700  0.88818700  0.57387200  1
  N  N12  1  0.64402900  0.64402900  0.31217700  1
  N  N13  1  0.14319800  0.14319800  0.23231600  1
  N  N14  1  0.85680200  0.85680200  0.76768400  1
  N  N15  1  0.35597100  0.35597100  0.68782300  1
  F  F16  1  0.31041600  0.83194700  0.76414700  1
  F  F17  1  0.83194700  0.31041600  0.76414700  1
  F  F18  1  0.16805300  0.68958400  0.23585300  1
  F  F19  1  0.68958400  0.16805300  0.23585300  1
