# generated using pymatgen
data_AgC8S4N4Cl
_symmetry_space_group_name_H-M   'P 1'
_cell_length_a   10.01936989
_cell_length_b   10.01936989
_cell_length_c   10.01936989
_cell_angle_alpha   94.41394604
_cell_angle_beta   94.41394604
_cell_angle_gamma   147.78746605
_symmetry_Int_Tables_number   1
_chemical_formula_structural   AgC8S4N4Cl
_chemical_formula_sum   'Ag1 C8 S4 N4 Cl1'
_cell_volume   515.11987079
_cell_formula_units_Z   1
loop_
 _symmetry_equiv_pos_site_id
 _symmetry_equiv_pos_as_xyz
  1  'x, y, z'
loop_
 _atom_site_type_symbol
 _atom_site_label
 _atom_site_symmetry_multiplicity
 _atom_site_fract_x
 _atom_site_fract_y
 _atom_site_fract_z
 _atom_site_occupancy
  Ag  Ag0  1  0.00000000  0.00000000  0.00000000  1
  C  C1  1  0.85604500  0.52613500  0.81014300  1
  C  C2  1  0.71599100  0.04590100  0.18985700  1
  C  C3  1  0.95409900  0.14395500  0.67009000  1
  C  C4  1  0.47386500  0.28400900  0.32991000  1
  C  C5  1  0.84037500  0.50630200  0.93878700  1
  C  C6  1  0.56751600  0.90158800  0.06121300  1
  C  C7  1  0.09841200  0.15962500  0.66592800  1
  C  C8  1  0.49369800  0.43248400  0.33407200  1
  S  S9  1  0.82686400  0.50408600  0.09179600  1
  S  S10  1  0.41229100  0.73506700  0.90820400  1
  S  S11  1  0.26493300  0.17313600  0.67722400  1
  S  S12  1  0.49591400  0.58770900  0.32277600  1
  N  N13  1  0.87855100  0.56494900  0.69687200  1
  N  N14  1  0.86807700  0.18167900  0.30312800  1
  N  N15  1  0.81832100  0.12144900  0.68639900  1
  N  N16  1  0.43505100  0.13192300  0.31360100  1
  Cl  Cl17  1  0.75000000  0.25000000  0.50000000  1
