# generated using pymatgen
data_Li2FeSiO5
_symmetry_space_group_name_H-M   'P 1'
_cell_length_a   13.08094844
_cell_length_b   12.82397230
_cell_length_c   5.06824900
_cell_angle_alpha   90.00000000
_cell_angle_beta   90.00000000
_cell_angle_gamma   60.11508148
_symmetry_Int_Tables_number   1
_chemical_formula_structural   Li2FeSiO5
_chemical_formula_sum   'Li16 Fe8 Si8 O40'
_cell_volume   737.14485267
_cell_formula_units_Z   8
loop_
 _symmetry_equiv_pos_site_id
 _symmetry_equiv_pos_as_xyz
  1  'x, y, z'
loop_
 _atom_site_type_symbol
 _atom_site_label
 _atom_site_symmetry_multiplicity
 _atom_site_fract_x
 _atom_site_fract_y
 _atom_site_fract_z
 _atom_site_occupancy
  Li  Li0  1  0.34062500  0.82245200  0.72360400  1
  Li  Li1  1  0.08504000  0.57286500  0.76841300  1
  Li  Li2  1  0.16003600  0.66215700  0.20960000  1
  Li  Li3  1  0.58142500  0.83705600  0.72675500  1
  Li  Li4  1  0.41857500  0.66294400  0.22675500  1
  Li  Li5  1  0.83996400  0.83784300  0.70960000  1
  Li  Li6  1  0.34062500  0.32245200  0.77639600  1
  Li  Li7  1  0.08504000  0.07286500  0.73158700  1
  Li  Li8  1  0.91496000  0.92713500  0.26841300  1
  Li  Li9  1  0.65937500  0.67754800  0.22360400  1
  Li  Li10  1  0.16003600  0.16215800  0.29040000  1
  Li  Li11  1  0.58142500  0.33705600  0.77324500  1
  Li  Li12  1  0.41857500  0.16294400  0.27324500  1
  Li  Li13  1  0.83996400  0.33784200  0.79040000  1
  Li  Li14  1  0.91496000  0.42713500  0.23158700  1
  Li  Li15  1  0.65937500  0.17754800  0.27639600  1
  Fe  Fe16  1  0.06538600  0.81273300  0.73049600  1
  Fe  Fe17  1  0.43274000  0.88195800  0.27192000  1
  Fe  Fe18  1  0.06538600  0.31273300  0.76950400  1
  Fe  Fe19  1  0.56726000  0.61804200  0.77192000  1
  Fe  Fe20  1  0.43274000  0.38195800  0.22808000  1
  Fe  Fe21  1  0.93461400  0.68726700  0.23049600  1
  Fe  Fe22  1  0.56726000  0.11804200  0.72808000  1
  Fe  Fe23  1  0.93461400  0.18726700  0.26950400  1
  Si  Si24  1  0.16148100  0.90810300  0.22583000  1
  Si  Si25  1  0.66147000  0.92558400  0.21872300  1
  Si  Si26  1  0.16148100  0.40810300  0.27417000  1
  Si  Si27  1  0.33853000  0.57441600  0.71872300  1
  Si  Si28  1  0.66147000  0.42558400  0.28127700  1
  Si  Si29  1  0.83851900  0.59189700  0.72583000  1
  Si  Si30  1  0.33853000  0.07441600  0.78127700  1
  Si  Si31  1  0.83851900  0.09189700  0.77417000  1
  O  O32  1  0.13973600  0.90538900  0.90752800  1
  O  O33  1  0.99518500  0.78920700  0.01848600  1
  O  O34  1  0.12144900  0.82285400  0.38541600  1
  O  O35  1  0.39158300  0.94721600  0.62043900  1
  O  O36  1  0.30193100  0.84692700  0.30002100  1
  O  O37  1  0.09234900  0.54537700  0.15423700  1
  O  O38  1  0.19927400  0.65098100  0.80658900  1
  O  O39  1  0.64415600  0.95302900  0.90024000  1
  O  O40  1  0.48432700  0.79021700  0.98391800  1
  O  O41  1  0.13973600  0.40538900  0.59247200  1
  O  O42  1  0.99518500  0.28920700  0.48151400  1
  O  O43  1  0.59692400  0.85217900  0.32497700  1
  O  O44  1  0.40307600  0.64782100  0.82497700  1
  O  O45  1  0.12144900  0.32285400  0.11458400  1
  O  O46  1  0.51567300  0.70978300  0.48391800  1
  O  O47  1  0.35584400  0.54697100  0.40024000  1
  O  O48  1  0.39158300  0.44721600  0.87956100  1
  O  O49  1  0.30193100  0.34692700  0.19997900  1
  O  O50  1  0.80072600  0.84901900  0.30658900  1
  O  O51  1  0.90765100  0.95462300  0.65423700  1
  O  O52  1  0.09234900  0.04537700  0.34576300  1
  O  O53  1  0.19927400  0.15098100  0.69341100  1
  O  O54  1  0.69806900  0.65307300  0.80002100  1
  O  O55  1  0.60841700  0.55278400  0.12043900  1
  O  O56  1  0.64415600  0.45302900  0.59976000  1
  O  O57  1  0.48432700  0.29021700  0.51608200  1
  O  O58  1  0.87855100  0.67714600  0.88541600  1
  O  O59  1  0.59692400  0.35217900  0.17502300  1
  O  O60  1  0.40307600  0.14782100  0.67502300  1
  O  O61  1  0.00481500  0.71079300  0.51848600  1
  O  O62  1  0.86026400  0.59461100  0.40752800  1
  O  O63  1  0.51567300  0.20978300  0.01608200  1
  O  O64  1  0.35584400  0.04697100  0.09976000  1
  O  O65  1  0.80072600  0.34901900  0.19341100  1
  O  O66  1  0.90765100  0.45462300  0.84576300  1
  O  O67  1  0.69806900  0.15307300  0.69997900  1
  O  O68  1  0.60841700  0.05278400  0.37956100  1
  O  O69  1  0.87855100  0.17714600  0.61458400  1
  O  O70  1  0.00481500  0.21079300  0.98151400  1
  O  O71  1  0.86026400  0.09461100  0.09247200  1
