# generated using pymatgen
data_NbV2Fe3(PO4)6
_symmetry_space_group_name_H-M   'P 1'
_cell_length_a   8.67653530
_cell_length_b   8.67653530
_cell_length_c   8.67653559
_cell_angle_alpha   60.11938661
_cell_angle_beta   60.11938661
_cell_angle_gamma   60.11938939
_symmetry_Int_Tables_number   1
_chemical_formula_structural   NbV2Fe3(PO4)6
_chemical_formula_sum   'Nb1 V2 Fe3 P6 O24'
_cell_volume   463.12381198
_cell_formula_units_Z   1
loop_
 _symmetry_equiv_pos_site_id
 _symmetry_equiv_pos_as_xyz
  1  'x, y, z'
loop_
 _atom_site_type_symbol
 _atom_site_label
 _atom_site_symmetry_multiplicity
 _atom_site_fract_x
 _atom_site_fract_y
 _atom_site_fract_z
 _atom_site_occupancy
  Nb  Nb0  1  0.14381800  0.14381800  0.14381800  1
  V  V1  1  0.99722500  0.99722500  0.99722500  1
  V  V2  1  0.49944500  0.49944500  0.49944500  1
  Fe  Fe3  1  0.64505400  0.64505400  0.64505400  1
  Fe  Fe4  1  0.85322800  0.85322800  0.85322800  1
  Fe  Fe5  1  0.35495500  0.35495500  0.35495500  1
  P  P6  1  0.95442600  0.25239100  0.55049600  1
  P  P7  1  0.55049600  0.95442600  0.25239100  1
  P  P8  1  0.25239100  0.55049600  0.95442600  1
  P  P9  1  0.74386700  0.46199100  0.04285800  1
  P  P10  1  0.46199100  0.04285800  0.74386700  1
  P  P11  1  0.04285800  0.74386700  0.46199100  1
  O  O12  1  0.50499200  0.11335000  0.31185400  1
  O  O13  1  0.31185400  0.50499200  0.11335000  1
  O  O14  1  0.11335000  0.31185400  0.50499200  1
  O  O15  1  0.93982400  0.08671700  0.73893000  1
  O  O16  1  0.00405100  0.18743600  0.38443800  1
  O  O17  1  0.76216300  0.41171300  0.55612600  1
  O  O18  1  0.73893000  0.93982400  0.08671700  1
  O  O19  1  0.55612600  0.76216300  0.41171300  1
  O  O20  1  0.81274300  0.61245800  0.00382000  1
  O  O21  1  0.41171300  0.55612600  0.76216300  1
  O  O22  1  0.91083100  0.26281000  0.06162100  1
  O  O23  1  0.61245800  0.00382000  0.81274300  1
  O  O24  1  0.38443800  0.00405100  0.18743600  1
  O  O25  1  0.08671700  0.73893100  0.93982400  1
  O  O26  1  0.58658800  0.44089700  0.23816200  1
  O  O27  1  0.18743600  0.38443800  0.00405100  1
  O  O28  1  0.44089700  0.23816200  0.58658800  1
  O  O29  1  0.26281000  0.06162100  0.91083100  1
  O  O30  1  0.23816200  0.58658800  0.44089700  1
  O  O31  1  0.00382000  0.81274300  0.61245800  1
  O  O32  1  0.06162100  0.91083100  0.26281000  1
  O  O33  1  0.88507700  0.68975600  0.49390700  1
  O  O34  1  0.68975600  0.49390700  0.88507700  1
  O  O35  1  0.49390700  0.88507700  0.68975600  1
