# generated using pymatgen
data_Al2FeP2(HO)18
_symmetry_space_group_name_H-M   'P 1'
_cell_length_a   5.31934800
_cell_length_b   6.99687644
_cell_length_c   11.72707284
_cell_angle_alpha   100.32285139
_cell_angle_beta   89.18185980
_cell_angle_gamma   110.07266198
_symmetry_Int_Tables_number   1
_chemical_formula_structural   Al2FeP2(HO)18
_chemical_formula_sum   'Al2 Fe1 P2 H18 O18'
_cell_volume   402.79324948
_cell_formula_units_Z   1
loop_
 _symmetry_equiv_pos_site_id
 _symmetry_equiv_pos_as_xyz
  1  'x, y, z'
loop_
 _atom_site_type_symbol
 _atom_site_label
 _atom_site_symmetry_multiplicity
 _atom_site_fract_x
 _atom_site_fract_y
 _atom_site_fract_z
 _atom_site_occupancy
  Al  Al0  1  0.00000000  0.00000000  0.50000000  1
  Al  Al1  1  0.00000000  0.50000000  0.50000000  1
  Fe  Fe2  1  0.00000000  0.00000000  0.00000000  1
  P  P3  1  0.43313900  0.92136900  0.63816600  1
  P  P4  1  0.56686100  0.07863100  0.36183400  1
  H  H5  1  0.32849400  0.32781000  0.48311800  1
  H  H6  1  0.67150600  0.67219000  0.51688200  1
  H  H7  1  0.22596100  0.70633700  0.36049400  1
  H  H8  1  0.77403900  0.29366300  0.63950600  1
  H  H9  1  0.61819100  0.56553500  0.19160700  1
  H  H10  1  0.38180900  0.43446500  0.80839300  1
  H  H11  1  0.22999600  0.53711400  0.10656300  1
  H  H12  1  0.77000400  0.46288600  0.89343700  1
  H  H13  1  0.09869700  0.34193100  0.94253400  1
  H  H14  1  0.90130300  0.65806900  0.05746600  1
  H  H15  1  0.53687800  0.32860100  0.95473500  1
  H  H16  1  0.46312200  0.67139900  0.04526500  1
  H  H17  1  0.46693300  0.93687700  0.18264800  1
  H  H18  1  0.53306700  0.06312300  0.81735200  1
  H  H19  1  0.33470600  0.64758300  0.81865300  1
  H  H20  1  0.66529400  0.35241700  0.18134700  1
  H  H21  1  0.01698600  0.46794800  0.70750700  1
  H  H22  1  0.98301400  0.53205200  0.29249300  1
  O  O23  1  0.24324000  0.03811500  0.62603800  1
  O  O24  1  0.75676000  0.96188500  0.37396200  1
  O  O25  1  0.33558600  0.69504600  0.57475600  1
  O  O26  1  0.66441400  0.30495400  0.42524400  1
  O  O27  1  0.45111400  0.91589500  0.77676300  1
  O  O28  1  0.54888600  0.08410500  0.22323700  1
  O  O29  1  0.27831700  0.95936100  0.39105600  1
  O  O30  1  0.72168300  0.04063900  0.60894400  1
  O  O31  1  0.13778300  0.28721500  0.49879500  1
  O  O32  1  0.86221700  0.71278500  0.50120500  1
  O  O33  1  0.37906000  0.67352900  0.12003600  1
  O  O34  1  0.62094000  0.32647100  0.87996400  1
  O  O35  1  0.10594500  0.28349500  0.01221200  1
  O  O36  1  0.89405500  0.71650500  0.98778800  1
  O  O37  1  0.13577300  0.55174700  0.34763300  1
  O  O38  1  0.86422700  0.44825300  0.65236700  1
  O  O39  1  0.24333800  0.49960100  0.81999700  1
  O  O40  1  0.75666200  0.50039900  0.18000300  1
