# generated using pymatgen
data_NaAl11O17
_symmetry_space_group_name_H-M   'P 1'
_cell_length_a   11.79235952
_cell_length_b   11.79235952
_cell_length_c   11.79235964
_cell_angle_alpha   27.73418126
_cell_angle_beta   27.73418126
_cell_angle_gamma   27.73418062
_symmetry_Int_Tables_number   1
_chemical_formula_structural   NaAl11O17
_chemical_formula_sum   'Na1 Al11 O17'
_cell_volume   313.55894203
_cell_formula_units_Z   1
loop_
 _symmetry_equiv_pos_site_id
 _symmetry_equiv_pos_as_xyz
  1  'x, y, z'
loop_
 _atom_site_type_symbol
 _atom_site_label
 _atom_site_symmetry_multiplicity
 _atom_site_fract_x
 _atom_site_fract_y
 _atom_site_fract_z
 _atom_site_occupancy
  Na  Na0  1  0.82789800  0.82789800  0.82789800  1
  Al  Al1  1  0.59162000  0.09620600  0.09620600  1
  Al  Al2  1  0.99986300  0.99986300  0.99986300  1
  Al  Al3  1  0.09620600  0.09620600  0.59162000  1
  Al  Al4  1  0.09620600  0.59162000  0.09620600  1
  Al  Al5  1  0.45041700  0.45041700  0.45041700  1
  Al  Al6  1  0.54987100  0.54987100  0.54987100  1
  Al  Al7  1  0.34997500  0.34997500  0.34997500  1
  Al  Al8  1  0.64940700  0.64940700  0.64940700  1
  Al  Al9  1  0.90447100  0.40573200  0.90447100  1
  Al  Al10  1  0.90447100  0.90447100  0.40573200  1
  Al  Al11  1  0.40573200  0.90447100  0.90447100  1
  O  O12  1  0.29646300  0.29646300  0.29646300  1
  O  O13  1  0.09532500  0.09532500  0.09532500  1
  O  O14  1  0.81033100  0.27848100  0.81033100  1
  O  O15  1  0.71954000  0.19077500  0.19077500  1
  O  O16  1  0.60211400  0.08992500  0.60211400  1
  O  O17  1  0.90674700  0.40110000  0.40110000  1
  O  O18  1  0.60211400  0.60211400  0.08992500  1
  O  O19  1  0.50025100  0.50025100  0.50025100  1
  O  O20  1  0.19077500  0.19077500  0.71954000  1
  O  O21  1  0.81033100  0.81033100  0.27848100  1
  O  O22  1  0.40110000  0.40110000  0.90674700  1
  O  O23  1  0.08992500  0.60211400  0.60211400  1
  O  O24  1  0.40110000  0.90674700  0.40110000  1
  O  O25  1  0.27848100  0.81033100  0.81033100  1
  O  O26  1  0.19077500  0.71954000  0.19077500  1
  O  O27  1  0.70353900  0.70353900  0.70353900  1
  O  O28  1  0.90327100  0.90327100  0.90327100  1
