# generated using pymatgen
data_Ag2SnO3
_symmetry_space_group_name_H-M   'P 1'
_cell_length_a   5.75484615
_cell_length_b   5.75484615
_cell_length_c   12.88540800
_cell_angle_alpha   90.00000000
_cell_angle_beta   90.00000000
_cell_angle_gamma   120.00000168
_symmetry_Int_Tables_number   1
_chemical_formula_structural   Ag2SnO3
_chemical_formula_sum   'Ag8 Sn4 O12'
_cell_volume   369.56959471
_cell_formula_units_Z   4
loop_
 _symmetry_equiv_pos_site_id
 _symmetry_equiv_pos_as_xyz
  1  'x, y, z'
loop_
 _atom_site_type_symbol
 _atom_site_label
 _atom_site_symmetry_multiplicity
 _atom_site_fract_x
 _atom_site_fract_y
 _atom_site_fract_z
 _atom_site_occupancy
  Ag  Ag0  1  0.00000000  0.67694800  0.50000000  1
  Ag  Ag1  1  0.00000000  0.32305200  0.00000000  1
  Ag  Ag2  1  0.33333300  0.66666700  0.75000000  1
  Ag  Ag3  1  0.32305200  0.32305200  0.50000000  1
  Ag  Ag4  1  0.32305200  0.00000000  0.00000000  1
  Ag  Ag5  1  0.67694800  0.67694800  0.00000000  1
  Ag  Ag6  1  0.66666700  0.33333300  0.25000000  1
  Ag  Ag7  1  0.67694800  0.00000000  0.50000000  1
  Sn  Sn8  1  0.33333300  0.66666700  0.25000000  1
  Sn  Sn9  1  0.00000000  0.00000000  0.25000000  1
  Sn  Sn10  1  0.00000000  0.00000000  0.75000000  1
  Sn  Sn11  1  0.66666700  0.33333300  0.75000000  1
  O  O12  1  0.05288500  0.71913300  0.33747300  1
  O  O13  1  0.28086700  0.94711500  0.16252700  1
  O  O14  1  0.05288500  0.33375200  0.16252700  1
  O  O15  1  0.28086700  0.33375200  0.33747300  1
  O  O16  1  0.66624800  0.94711500  0.33747300  1
  O  O17  1  0.33375200  0.28086700  0.66252700  1
  O  O18  1  0.66624800  0.71913300  0.16252700  1
  O  O19  1  0.33375200  0.05288500  0.83747300  1
  O  O20  1  0.71913300  0.66624800  0.83747300  1
  O  O21  1  0.94711500  0.66624800  0.66252700  1
  O  O22  1  0.71913300  0.05288500  0.66252700  1
  O  O23  1  0.94711500  0.28086700  0.83747300  1
