# generated using pymatgen
data_V4O5F7
_symmetry_space_group_name_H-M   'P 1'
_cell_length_a   5.31613200
_cell_length_b   5.33823910
_cell_length_c   8.90390580
_cell_angle_alpha   75.33891198
_cell_angle_beta   90.00000000
_cell_angle_gamma   60.13689787
_symmetry_Int_Tables_number   1
_chemical_formula_structural   V4O5F7
_chemical_formula_sum   'V4 O5 F7'
_cell_volume   209.58998402
_cell_formula_units_Z   1
loop_
 _symmetry_equiv_pos_site_id
 _symmetry_equiv_pos_as_xyz
  1  'x, y, z'
loop_
 _atom_site_type_symbol
 _atom_site_label
 _atom_site_symmetry_multiplicity
 _atom_site_fract_x
 _atom_site_fract_y
 _atom_site_fract_z
 _atom_site_occupancy
  V  V0  1  0.73383200  0.51346800  0.25048500  1
  V  V1  1  0.49729800  0.98653200  0.49951500  1
  V  V2  1  0.29007000  0.50287700  0.73703400  1
  V  V3  1  0.04294700  0.99712300  0.01296600  1
  O  O4  1  0.95298200  0.23980700  0.12249600  1
  O  O5  1  0.55689600  0.75000000  0.37500000  1
  O  O6  1  0.40362200  0.75653500  0.07828400  1
  O  O7  1  0.41015600  0.74346500  0.67171600  1
  O  O8  1  0.44278900  0.26019300  0.62750400  1
  F  F9  1  0.92533400  0.74709100  0.59073400  1
  F  F10  1  0.92242400  0.75290900  0.15926600  1
  F  F11  1  0.57355700  0.25169000  0.32964800  1
  F  F12  1  0.56771400  0.25221900  0.91816900  1
  F  F13  1  0.03519800  0.75000000  0.87500000  1
  F  F14  1  0.06993300  0.24778100  0.83183100  1
  F  F15  1  0.07524700  0.24831000  0.42035200  1
