# generated using pymatgen
data_V2O3F
_symmetry_space_group_name_H-M   'P 1'
_cell_length_a   4.69622999
_cell_length_b   4.69622999
_cell_length_c   12.11244200
_cell_angle_alpha   90.00000000
_cell_angle_beta   90.00000000
_cell_angle_gamma   93.84797207
_symmetry_Int_Tables_number   1
_chemical_formula_structural   V2O3F
_chemical_formula_sum   'V8 O12 F4'
_cell_volume   266.53255300
_cell_formula_units_Z   4
loop_
 _symmetry_equiv_pos_site_id
 _symmetry_equiv_pos_as_xyz
  1  'x, y, z'
loop_
 _atom_site_type_symbol
 _atom_site_label
 _atom_site_symmetry_multiplicity
 _atom_site_fract_x
 _atom_site_fract_y
 _atom_site_fract_z
 _atom_site_occupancy
  V  V0  1  0.99655100  0.00344900  0.62534200  1
  V  V1  1  0.99655100  0.00344900  0.37465800  1
  V  V2  1  0.99094800  0.00905200  0.12470900  1
  V  V3  1  0.99094800  0.00905200  0.87529100  1
  V  V4  1  0.45052800  0.54947200  0.50000000  1
  V  V5  1  0.53508000  0.46492000  0.00000000  1
  V  V6  1  0.53892300  0.46107700  0.74944000  1
  V  V7  1  0.53892300  0.46107700  0.25056000  1
  O  O8  1  0.79995300  0.20004700  0.74992500  1
  O  O9  1  0.79995300  0.20004700  0.25007500  1
  O  O10  1  0.79778800  0.20221200  0.00000000  1
  O  O11  1  0.30349400  0.31163000  0.62464900  1
  O  O12  1  0.30349400  0.31163000  0.37535100  1
  O  O13  1  0.30673200  0.30689500  0.12538100  1
  O  O14  1  0.30673200  0.30689500  0.87461900  1
  O  O15  1  0.68837000  0.69650600  0.62464900  1
  O  O16  1  0.68837000  0.69650600  0.37535100  1
  O  O17  1  0.69310500  0.69326800  0.12538100  1
  O  O18  1  0.69310500  0.69326800  0.87461900  1
  O  O19  1  0.19115600  0.80884400  0.50000000  1
  F  F20  1  0.79615000  0.20385000  0.50000000  1
  F  F21  1  0.19769800  0.80230200  0.24939400  1
  F  F22  1  0.19774900  0.80225100  0.00000000  1
  F  F23  1  0.19769800  0.80230200  0.75060600  1
