# generated using pymatgen
data_Al2Si3H8(NO5)2
_symmetry_space_group_name_H-M   'P 1'
_cell_length_a   12.86677989
_cell_length_b   9.69798558
_cell_length_c   9.68580447
_cell_angle_alpha   83.17921300
_cell_angle_beta   48.45096247
_cell_angle_gamma   48.36982453
_symmetry_Int_Tables_number   1
_chemical_formula_structural   Al2Si3H8(NO5)2
_chemical_formula_sum   'Al4 Si6 H16 N4 O20'
_cell_volume   552.95617142
_cell_formula_units_Z   2
loop_
 _symmetry_equiv_pos_site_id
 _symmetry_equiv_pos_as_xyz
  1  'x, y, z'
loop_
 _atom_site_type_symbol
 _atom_site_label
 _atom_site_symmetry_multiplicity
 _atom_site_fract_x
 _atom_site_fract_y
 _atom_site_fract_z
 _atom_site_occupancy
  Al  Al0  1  0.74835000  0.44814100  0.31653400  1
  Al  Al1  1  0.48697400  0.31653400  0.44814100  1
  Al  Al2  1  0.93346600  0.76302600  0.50165000  1
  Al  Al3  1  0.80185900  0.50165000  0.76302600  1
  Si  Si4  1  0.23094200  0.76905800  0.76905800  1
  Si  Si5  1  0.48094200  0.01905800  0.01905800  1
  Si  Si6  1  0.97331900  0.45779500  0.32667600  1
  Si  Si7  1  0.24221000  0.32667600  0.45779500  1
  Si  Si8  1  0.92332400  0.00779000  0.27668100  1
  Si  Si9  1  0.79220500  0.27668100  0.00779000  1
  H  H10  1  0.30623200  0.10021200  0.86191400  1
  H  H11  1  0.73164200  0.86191400  0.10021200  1
  H  H12  1  0.42124900  0.89609800  0.66855500  1
  H  H13  1  0.01409700  0.66855500  0.89609800  1
  H  H14  1  0.37749400  0.10231800  0.63722200  1
  H  H15  1  0.88296700  0.63722200  0.10231800  1
  H  H16  1  0.57756300  0.90320100  0.60035700  1
  H  H17  1  0.91887800  0.60035700  0.90320100  1
  H  H18  1  0.34679900  0.67243700  0.33112200  1
  H  H19  1  0.64964300  0.33112200  0.67243700  1
  H  H20  1  0.35390200  0.82875100  0.23590300  1
  H  H21  1  0.58144500  0.23590300  0.82875100  1
  H  H22  1  0.14768200  0.87250600  0.36703300  1
  H  H23  1  0.61277800  0.36703300  0.87250600  1
  H  H24  1  0.14978800  0.94376800  0.51835800  1
  H  H25  1  0.38808600  0.51835800  0.94376800  1
  N  N26  1  0.41834400  0.00115700  0.69382600  1
  N  N27  1  0.88667300  0.69382600  0.00115700  1
  N  N28  1  0.24884300  0.83165600  0.36332700  1
  N  N29  1  0.55617400  0.36332700  0.83165600  1
  O  O30  1  0.26864200  0.58740700  0.68643600  1
  O  O31  1  0.45751600  0.68643600  0.58740700  1
  O  O32  1  0.66259300  0.98135800  0.79248400  1
  O  O33  1  0.56356400  0.79248400  0.98135800  1
  O  O34  1  0.87906300  0.50160700  0.24788400  1
  O  O35  1  0.37144700  0.24788400  0.50160700  1
  O  O36  1  0.00211600  0.87855300  0.37093700  1
  O  O37  1  0.74839300  0.37093700  0.87855300  1
  O  O38  1  0.87162100  0.21186900  0.32514300  1
  O  O39  1  0.59136700  0.32514300  0.21186900  1
  O  O40  1  0.03813100  0.37837900  0.65863300  1
  O  O41  1  0.92485700  0.65863300  0.37837900  1
  O  O42  1  0.84798700  0.45858000  0.54939300  1
  O  O43  1  0.14404100  0.54939300  0.45858000  1
  O  O44  1  0.70060700  0.10595900  0.40201300  1
  O  O45  1  0.79142000  0.40201300  0.10595900  1
  O  O46  1  0.24803600  0.20837900  0.10930000  1
  O  O47  1  0.43428600  0.10930000  0.20837900  1
  O  O48  1  0.04162100  0.00196400  0.81571400  1
  O  O49  1  0.14070000  0.81571400  0.00196400  1
