# generated using pymatgen
data_CsB10H13C
_symmetry_space_group_name_H-M   'P 1'
_cell_length_a   10.78228300
_cell_length_b   8.10194600
_cell_length_c   12.42363339
_cell_angle_alpha   86.31110874
_cell_angle_beta   90.00000000
_cell_angle_gamma   90.00000000
_symmetry_Int_Tables_number   1
_chemical_formula_structural   CsB10H13C
_chemical_formula_sum   'Cs4 B40 H52 C4'
_cell_volume   1083.04862312
_cell_formula_units_Z   4
loop_
 _symmetry_equiv_pos_site_id
 _symmetry_equiv_pos_as_xyz
  1  'x, y, z'
loop_
 _atom_site_type_symbol
 _atom_site_label
 _atom_site_symmetry_multiplicity
 _atom_site_fract_x
 _atom_site_fract_y
 _atom_site_fract_z
 _atom_site_occupancy
  Cs  Cs0  1  0.25715000  0.15672600  0.98879600  1
  Cs  Cs1  1  0.75715000  0.84327400  0.51120400  1
  Cs  Cs2  1  0.24285000  0.15672600  0.48879600  1
  Cs  Cs3  1  0.74285000  0.84327400  0.01120400  1
  B  B4  1  0.06852800  0.80708300  0.86594200  1
  B  B5  1  0.63588300  0.41254600  0.85719600  1
  B  B6  1  0.56969500  0.21461500  0.86167500  1
  B  B7  1  0.98463700  0.63106700  0.83684800  1
  B  B8  1  0.22523400  0.76963800  0.82350400  1
  B  B9  1  0.72687000  0.22313700  0.82526700  1
  B  B10  1  0.48434500  0.38767100  0.80410800  1
  B  B11  1  0.09457400  0.49589600  0.77817700  1
  B  B12  1  0.97350500  0.81172800  0.75039000  1
  B  B13  1  0.12442800  0.90584300  0.74413300  1
  B  B14  1  0.62442800  0.09415700  0.75586700  1
  B  B15  1  0.47350500  0.18827200  0.74961000  1
  B  B16  1  0.59457400  0.50410400  0.72182300  1
  B  B17  1  0.98434500  0.61232900  0.69589200  1
  B  B18  1  0.22687000  0.77686300  0.67473300  1
  B  B19  1  0.72523400  0.23036200  0.67649600  1
  B  B20  1  0.48463700  0.36893300  0.66315200  1
  B  B21  1  0.06969500  0.78538500  0.63832500  1
  B  B22  1  0.13588300  0.58745400  0.64280400  1
  B  B23  1  0.56852800  0.19291700  0.63405800  1
  B  B24  1  0.43147200  0.80708300  0.36594200  1
  B  B25  1  0.86411700  0.41254600  0.35719600  1
  B  B26  1  0.93030500  0.21461500  0.36167500  1
  B  B27  1  0.51536300  0.63106700  0.33684800  1
  B  B28  1  0.27476600  0.76963800  0.32350400  1
  B  B29  1  0.77313000  0.22313700  0.32526700  1
  B  B30  1  0.01565500  0.38767100  0.30410800  1
  B  B31  1  0.40542600  0.49589600  0.27817700  1
  B  B32  1  0.52649500  0.81172800  0.25039000  1
  B  B33  1  0.37557200  0.90584300  0.24413300  1
  B  B34  1  0.87557200  0.09415700  0.25586700  1
  B  B35  1  0.02649500  0.18827200  0.24961000  1
  B  B36  1  0.90542600  0.50410400  0.22182300  1
  B  B37  1  0.51565500  0.61232900  0.19589200  1
  B  B38  1  0.27313000  0.77686300  0.17473300  1
  B  B39  1  0.77476600  0.23036200  0.17649600  1
  B  B40  1  0.01536300  0.36893300  0.16315200  1
  B  B41  1  0.43030500  0.78538500  0.13832500  1
  B  B42  1  0.36411700  0.58745400  0.14280400  1
  B  B43  1  0.93147200  0.19291700  0.13405800  1
  H  H44  1  0.15355100  0.56649300  0.95420200  1
  H  H45  1  0.04988700  0.87724400  0.94645700  1
  H  H46  1  0.64584200  0.48485700  0.93791400  1
  H  H47  1  0.54758400  0.15380200  0.95060000  1
  H  H48  1  0.90571200  0.57258000  0.89523800  1
  H  H49  1  0.30865000  0.81969100  0.87647400  1
  H  H50  1  0.80521000  0.15937500  0.88230400  1
  H  H51  1  0.39696400  0.44596200  0.84802700  1
  H  H52  1  0.08134100  0.34993000  0.79800400  1
  H  H53  1  0.69946900  0.49551000  0.78510800  1
  H  H54  1  0.63404300  0.94613000  0.76600800  1
  H  H55  1  0.78772700  0.31093000  0.75332800  1
  H  H56  1  0.88042300  0.89268000  0.74333300  1
  H  H57  1  0.38042300  0.10732000  0.75666700  1
  H  H58  1  0.28772700  0.68907000  0.74667200  1
  H  H59  1  0.13404300  0.05387000  0.73399200  1
  H  H60  1  0.19946900  0.50449000  0.71489200  1
  H  H61  1  0.58134100  0.65007000  0.70199600  1
  H  H62  1  0.89696400  0.55403800  0.65197300  1
  H  H63  1  0.30521000  0.84062500  0.61769600  1
  H  H64  1  0.80865000  0.18030900  0.62352600  1
  H  H65  1  0.40571200  0.42742000  0.60476200  1
  H  H66  1  0.04758400  0.84619800  0.54940000  1
  H  H67  1  0.14584200  0.51514300  0.56208600  1
  H  H68  1  0.54988700  0.12275600  0.55354300  1
  H  H69  1  0.65355100  0.43350700  0.54579800  1
  H  H70  1  0.34644900  0.56649300  0.45420200  1
  H  H71  1  0.45011300  0.87724400  0.44645700  1
  H  H72  1  0.85415800  0.48485700  0.43791400  1
  H  H73  1  0.95241600  0.15380200  0.45060000  1
  H  H74  1  0.59428800  0.57258000  0.39523800  1
  H  H75  1  0.19135000  0.81969100  0.37647400  1
  H  H76  1  0.69479000  0.15937500  0.38230400  1
  H  H77  1  0.10303600  0.44596200  0.34802700  1
  H  H78  1  0.41865900  0.34993000  0.29800400  1
  H  H79  1  0.80053100  0.49551000  0.28510800  1
  H  H80  1  0.86595700  0.94613000  0.26600800  1
  H  H81  1  0.71227300  0.31093000  0.25332800  1
  H  H82  1  0.61957700  0.89268000  0.24333300  1
  H  H83  1  0.11957700  0.10732000  0.25666700  1
  H  H84  1  0.21227300  0.68907000  0.24667200  1
  H  H85  1  0.36595700  0.05387000  0.23399200  1
  H  H86  1  0.30053100  0.50449000  0.21489200  1
  H  H87  1  0.91865900  0.65007000  0.20199600  1
  H  H88  1  0.60303600  0.55403800  0.15197300  1
  H  H89  1  0.19479000  0.84062500  0.11769600  1
  H  H90  1  0.69135000  0.18030900  0.12352600  1
  H  H91  1  0.09428800  0.42742000  0.10476200  1
  H  H92  1  0.45241600  0.84619800  0.04940000  1
  H  H93  1  0.35415800  0.51514300  0.06208600  1
  H  H94  1  0.95011300  0.12275600  0.05354300  1
  H  H95  1  0.84644900  0.43350700  0.04579800  1
  C  C96  1  0.13467200  0.61892600  0.87308700  1
  C  C97  1  0.63467200  0.38107400  0.62691300  1
  C  C98  1  0.36532800  0.61892600  0.37308700  1
  C  C99  1  0.86532800  0.38107400  0.12691300  1
