# generated using pymatgen
data_NaV(PO4)2
_symmetry_space_group_name_H-M   'P 1'
_cell_length_a   13.72471800
_cell_length_b   6.25429000
_cell_length_c   7.63566582
_cell_angle_alpha   81.52243626
_cell_angle_beta   90.00000000
_cell_angle_gamma   90.00000000
_symmetry_Int_Tables_number   1
_chemical_formula_structural   NaV(PO4)2
_chemical_formula_sum   'Na4 V4 P8 O32'
_cell_volume   648.27160197
_cell_formula_units_Z   4
loop_
 _symmetry_equiv_pos_site_id
 _symmetry_equiv_pos_as_xyz
  1  'x, y, z'
loop_
 _atom_site_type_symbol
 _atom_site_label
 _atom_site_symmetry_multiplicity
 _atom_site_fract_x
 _atom_site_fract_y
 _atom_site_fract_z
 _atom_site_occupancy
  Na  Na0  1  0.20404900  0.34538700  0.08304700  1
  Na  Na1  1  0.29595100  0.84538700  0.08304700  1
  Na  Na2  1  0.70404900  0.15461300  0.91695300  1
  Na  Na3  1  0.79595100  0.65461300  0.91695300  1
  V  V4  1  0.92378700  0.23312100  0.23900100  1
  V  V5  1  0.57621300  0.73312100  0.23900100  1
  V  V6  1  0.42378700  0.26687900  0.76099900  1
  V  V7  1  0.07621300  0.76687900  0.76099900  1
  P  P8  1  0.51716700  0.24682400  0.17117000  1
  P  P9  1  0.98283300  0.74682400  0.17117000  1
  P  P10  1  0.36868800  0.46635300  0.35977600  1
  P  P11  1  0.13131200  0.96635300  0.35977600  1
  P  P12  1  0.86868800  0.03364700  0.64022400  1
  P  P13  1  0.63131200  0.53364700  0.64022400  1
  P  P14  1  0.01716700  0.25317600  0.82883000  1
  P  P15  1  0.48283300  0.75317600  0.82883000  1
  O  O16  1  0.01880600  0.25889900  0.02940800  1
  O  O17  1  0.48119400  0.75889900  0.02940800  1
  O  O18  1  0.82986700  0.30091800  0.10853800  1
  O  O19  1  0.67013300  0.80091800  0.10853800  1
  O  O20  1  0.40967700  0.29990500  0.22802600  1
  O  O21  1  0.54202200  0.02231100  0.27219300  1
  O  O22  1  0.58752800  0.42002500  0.21772500  1
  O  O23  1  0.22814100  0.03695400  0.28134600  1
  O  O24  1  0.09032300  0.79990500  0.22802600  1
  O  O25  1  0.95797800  0.52231100  0.27219300  1
  O  O26  1  0.91247200  0.92002500  0.21772500  1
  O  O27  1  0.27185900  0.53695400  0.28134600  1
  O  O28  1  0.05504000  0.14154500  0.36482200  1
  O  O29  1  0.44496000  0.64154500  0.36482200  1
  O  O30  1  0.85917100  0.17827700  0.45536100  1
  O  O31  1  0.64082900  0.67827700  0.45536100  1
  O  O32  1  0.35917100  0.32172300  0.54463900  1
  O  O33  1  0.14082900  0.82172300  0.54463900  1
  O  O34  1  0.55504000  0.35845500  0.63517800  1
  O  O35  1  0.94496000  0.85845500  0.63517800  1
  O  O36  1  0.72814100  0.46304600  0.71865400  1
  O  O37  1  0.08752800  0.07997500  0.78227500  1
  O  O38  1  0.04202200  0.47768900  0.72780700  1
  O  O39  1  0.90967700  0.20009500  0.77197400  1
  O  O40  1  0.77185900  0.96304600  0.71865400  1
  O  O41  1  0.41247200  0.57997500  0.78227500  1
  O  O42  1  0.45797800  0.97768900  0.72780700  1
  O  O43  1  0.59032300  0.70009500  0.77197400  1
  O  O44  1  0.32986700  0.19908200  0.89146200  1
  O  O45  1  0.17013300  0.69908200  0.89146200  1
  O  O46  1  0.51880600  0.24110100  0.97059200  1
  O  O47  1  0.98119400  0.74110100  0.97059200  1
