# generated using pymatgen
data_Li(CoO2)3
_symmetry_space_group_name_H-M   'P 1'
_cell_length_a   4.89543618
_cell_length_b   4.89725279
_cell_length_c   10.40741153
_cell_angle_alpha   76.55285839
_cell_angle_beta   76.37396969
_cell_angle_gamma   60.00696948
_symmetry_Int_Tables_number   1
_chemical_formula_structural   Li(CoO2)3
_chemical_formula_sum   'Li2 Co6 O12'
_cell_volume   208.05241692
_cell_formula_units_Z   2
loop_
 _symmetry_equiv_pos_site_id
 _symmetry_equiv_pos_as_xyz
  1  'x, y, z'
loop_
 _atom_site_type_symbol
 _atom_site_label
 _atom_site_symmetry_multiplicity
 _atom_site_fract_x
 _atom_site_fract_y
 _atom_site_fract_z
 _atom_site_occupancy
  Li  Li0  1  0.08352900  0.74918400  0.75409600  1
  Li  Li1  1  0.91327100  0.24915800  0.25409300  1
  Co  Co2  1  0.00212700  0.33142900  0.99468700  1
  Co  Co3  1  0.17191600  0.83150900  0.49468600  1
  Co  Co4  1  0.33483100  0.66589200  0.00342100  1
  Co  Co5  1  0.49581100  0.16582300  0.50344600  1
  Co  Co6  1  0.66267500  0.00177000  0.00343700  1
  Co  Co7  1  0.83202400  0.50177600  0.50344700  1
  O  O8  1  0.03239800  0.01909900  0.90353600  1
  O  O9  1  0.13300500  0.47595000  0.59841000  1
  O  O10  1  0.19227300  0.20375200  0.40440400  1
  O  O11  1  0.29244600  0.97577900  0.09845500  1
  O  O12  1  0.36498900  0.37132600  0.90427100  1
  O  O13  1  0.45871600  0.80166700  0.59816700  1
  O  O14  1  0.54519900  0.51897100  0.40353400  1
  O  O15  1  0.64147100  0.30150400  0.09808100  1
  O  O16  1  0.69980300  0.70369400  0.90443400  1
  O  O17  1  0.85964600  0.87126700  0.40437400  1
  O  O18  1  0.80958200  0.12690600  0.59552300  1
  O  O19  1  0.96776100  0.62701500  0.09553100  1
