# generated using pymatgen
data_Yb2TiO5
_symmetry_space_group_name_H-M   'P 1'
_cell_length_a   3.67788800
_cell_length_b   10.92997100
_cell_length_c   11.09842000
_cell_angle_alpha   90.00000000
_cell_angle_beta   90.00000000
_cell_angle_gamma   90.00000000
_symmetry_Int_Tables_number   1
_chemical_formula_structural   Yb2TiO5
_chemical_formula_sum   'Yb8 Ti4 O20'
_cell_volume   446.14770716
_cell_formula_units_Z   4
loop_
 _symmetry_equiv_pos_site_id
 _symmetry_equiv_pos_as_xyz
  1  'x, y, z'
loop_
 _atom_site_type_symbol
 _atom_site_label
 _atom_site_symmetry_multiplicity
 _atom_site_fract_x
 _atom_site_fract_y
 _atom_site_fract_z
 _atom_site_occupancy
  Yb  Yb0  1  0.25000000  0.10720000  0.28206000  1
  Yb  Yb1  1  0.25000000  0.14018500  0.93812500  1
  Yb  Yb2  1  0.75000000  0.35981500  0.43812500  1
  Yb  Yb3  1  0.75000000  0.39280000  0.78206000  1
  Yb  Yb4  1  0.25000000  0.60720000  0.21794000  1
  Yb  Yb5  1  0.25000000  0.64018500  0.56187500  1
  Yb  Yb6  1  0.75000000  0.85981500  0.06187500  1
  Yb  Yb7  1  0.75000000  0.89280000  0.71794000  1
  Ti  Ti8  1  0.25000000  0.17469500  0.62528900  1
  Ti  Ti9  1  0.75000000  0.32530500  0.12528900  1
  Ti  Ti10  1  0.25000000  0.67469500  0.87471100  1
  Ti  Ti11  1  0.75000000  0.82530500  0.37471100  1
  O  O12  1  0.75000000  0.00712000  0.90676600  1
  O  O13  1  0.25000000  0.01741000  0.66327900  1
  O  O14  1  0.25000000  0.22247800  0.45779000  1
  O  O15  1  0.75000000  0.23507900  0.61286000  1
  O  O16  1  0.75000000  0.23857300  0.27018700  1
  O  O17  1  0.25000000  0.26142700  0.77018700  1
  O  O18  1  0.25000000  0.26492100  0.11286000  1
  O  O19  1  0.75000000  0.27752200  0.95779000  1
  O  O20  1  0.75000000  0.48259000  0.16327900  1
  O  O21  1  0.25000000  0.49288000  0.40676600  1
  O  O22  1  0.75000000  0.50712000  0.59323400  1
  O  O23  1  0.25000000  0.51741000  0.83672100  1
  O  O24  1  0.25000000  0.72247800  0.04221000  1
  O  O25  1  0.75000000  0.73507900  0.88714000  1
  O  O26  1  0.75000000  0.73857300  0.22981300  1
  O  O27  1  0.25000000  0.76142700  0.72981300  1
  O  O28  1  0.25000000  0.76492100  0.38714000  1
  O  O29  1  0.75000000  0.77752200  0.54221000  1
  O  O30  1  0.75000000  0.98259000  0.33672100  1
  O  O31  1  0.25000000  0.99288000  0.09323400  1
