# generated using pymatgen
data_Al2(SeO4)3
_symmetry_space_group_name_H-M   'P 1'
_cell_length_a   10.16284205
_cell_length_b   10.16284205
_cell_length_c   5.67016577
_cell_angle_alpha   77.11795263
_cell_angle_beta   77.11795263
_cell_angle_gamma   92.43287650
_symmetry_Int_Tables_number   1
_chemical_formula_structural   Al2(SeO4)3
_chemical_formula_sum   'Al4 Se6 O24'
_cell_volume   553.90231897
_cell_formula_units_Z   2
loop_
 _symmetry_equiv_pos_site_id
 _symmetry_equiv_pos_as_xyz
  1  'x, y, z'
loop_
 _atom_site_type_symbol
 _atom_site_label
 _atom_site_symmetry_multiplicity
 _atom_site_fract_x
 _atom_site_fract_y
 _atom_site_fract_z
 _atom_site_occupancy
  Al  Al0  1  0.74964700  0.74907400  0.85830700  1
  Al  Al1  1  0.74907400  0.74964700  0.35830700  1
  Al  Al2  1  0.23272200  0.13242500  0.53069900  1
  Al  Al3  1  0.13242500  0.23272200  0.03069900  1
  Se  Se4  1  0.43957500  0.14735300  0.90168300  1
  Se  Se5  1  0.14735300  0.43957500  0.40168300  1
  Se  Se6  1  0.04399400  0.76358800  0.98222600  1
  Se  Se7  1  0.77573300  0.51304600  0.69003000  1
  Se  Se8  1  0.51304600  0.77573300  0.19003000  1
  Se  Se9  1  0.76358800  0.04399400  0.48222600  1
  O  O10  1  0.65488700  0.63552000  0.68961300  1
  O  O11  1  0.63552000  0.65488700  0.18961300  1
  O  O12  1  0.09342500  0.01044300  0.65703100  1
  O  O13  1  0.85817100  0.59443100  0.39027100  1
  O  O14  1  0.59443100  0.85817100  0.89027100  1
  O  O15  1  0.01044300  0.09342500  0.15703100  1
  O  O16  1  0.08746200  0.36483300  0.19345900  1
  O  O17  1  0.36483300  0.08746200  0.69345900  1
  O  O18  1  0.17229700  0.26982900  0.68111300  1
  O  O19  1  0.85698500  0.59359800  0.86062400  1
  O  O20  1  0.59359800  0.85698500  0.36062400  1
  O  O21  1  0.26982900  0.17229700  0.18111300  1
  O  O22  1  0.63788600  0.36245400  0.21765100  1
  O  O23  1  0.36245400  0.63788600  0.71765100  1
  O  O24  1  0.49359200  0.30573700  0.77108700  1
  O  O25  1  0.86949900  0.11025000  0.16065300  1
  O  O26  1  0.11025000  0.86949900  0.66065300  1
  O  O27  1  0.30573700  0.49359200  0.27108700  1
  O  O28  1  0.56823300  0.25367400  0.26002300  1
  O  O29  1  0.25367400  0.56823300  0.76002300  1
  O  O30  1  0.11699200  0.83034400  0.16149700  1
  O  O31  1  0.81594100  0.86154600  0.53772800  1
  O  O32  1  0.86154600  0.81594100  0.03772800  1
  O  O33  1  0.83034400  0.11699200  0.66149700  1
