# generated using pymatgen
data_AlSO10
_symmetry_space_group_name_H-M   'P 1'
_cell_length_a   7.94030454
_cell_length_b   10.49558000
_cell_length_c   8.74706220
_cell_angle_alpha   90.00000000
_cell_angle_beta   78.13107956
_cell_angle_gamma   90.00000000
_symmetry_Int_Tables_number   1
_chemical_formula_structural   AlSO10
_chemical_formula_sum   'Al4 S4 O40'
_cell_volume   713.37882345
_cell_formula_units_Z   4
loop_
 _symmetry_equiv_pos_site_id
 _symmetry_equiv_pos_as_xyz
  1  'x, y, z'
loop_
 _atom_site_type_symbol
 _atom_site_label
 _atom_site_symmetry_multiplicity
 _atom_site_fract_x
 _atom_site_fract_y
 _atom_site_fract_z
 _atom_site_occupancy
  Al  Al0  1  0.23242500  0.98162000  0.60780900  1
  Al  Al1  1  0.73242500  0.51838000  0.10780900  1
  Al  Al2  1  0.76757500  0.01838000  0.39219100  1
  Al  Al3  1  0.26757600  0.48162000  0.89219100  1
  S  S4  1  0.26683500  0.69982500  0.65703300  1
  S  S5  1  0.76683500  0.80017500  0.15703300  1
  S  S6  1  0.73316500  0.30017500  0.34296700  1
  S  S7  1  0.23316500  0.19982500  0.84296700  1
  O  O8  1  0.43655200  0.99039200  0.45737000  1
  O  O9  1  0.93655200  0.50960800  0.95737000  1
  O  O10  1  0.56344800  0.00960800  0.54263000  1
  O  O11  1  0.06344800  0.49039200  0.04263000  1
  O  O12  1  0.17967900  0.94707300  0.17599300  1
  O  O13  1  0.67967900  0.55292700  0.67599300  1
  O  O14  1  0.82032100  0.05292700  0.82400700  1
  O  O15  1  0.32032100  0.44707300  0.32400700  1
  O  O16  1  0.19404200  0.19150400  0.25736100  1
  O  O17  1  0.69404200  0.30849600  0.75736100  1
  O  O18  1  0.80595800  0.80849600  0.74263900  1
  O  O19  1  0.30595800  0.69150400  0.24263900  1
  O  O20  1  0.05758000  0.95065000  0.50027100  1
  O  O21  1  0.55758000  0.54935000  0.00027100  1
  O  O22  1  0.94242000  0.04935000  0.49972900  1
  O  O23  1  0.44242000  0.45065000  0.99972900  1
  O  O24  1  0.15615400  0.66040200  0.24911000  1
  O  O25  1  0.65615400  0.83959800  0.74911000  1
  O  O26  1  0.84384600  0.33959800  0.75089000  1
  O  O27  1  0.34384600  0.16040200  0.25089000  1
  O  O28  1  0.75715600  0.15893400  0.28481400  1
  O  O29  1  0.25715600  0.34106600  0.78481400  1
  O  O30  1  0.24284400  0.84106600  0.71518600  1
  O  O31  1  0.74284400  0.65893400  0.21518600  1
  O  O32  1  0.89144500  0.34710400  0.37765800  1
  O  O33  1  0.39144500  0.15289600  0.87765800  1
  O  O34  1  0.10855500  0.65289600  0.62234200  1
  O  O35  1  0.60855500  0.84710400  0.12234200  1
  O  O36  1  0.69920600  0.36792400  0.19371200  1
  O  O37  1  0.19920600  0.13207600  0.69371200  1
  O  O38  1  0.30079400  0.63207600  0.80628800  1
  O  O39  1  0.80079400  0.86792400  0.30628800  1
  O  O40  1  0.57966200  0.30755600  0.46373900  1
  O  O41  1  0.07966200  0.19244400  0.96373900  1
  O  O42  1  0.42033800  0.69244400  0.53626100  1
  O  O43  1  0.92033800  0.80755600  0.03626100  1
  O  O44  1  0.24630800  0.38901000  0.43904700  1
  O  O45  1  0.74630800  0.11099000  0.93904700  1
  O  O46  1  0.75369200  0.61099000  0.56095300  1
  O  O47  1  0.25369200  0.88901000  0.06095300  1
