# generated using pymatgen
data_Li7Mn3Co3O16
_symmetry_space_group_name_H-M   'P 1'
_cell_length_a   5.67569762
_cell_length_b   5.67569762
_cell_length_c   9.92152488
_cell_angle_alpha   87.55805022
_cell_angle_beta   87.55805022
_cell_angle_gamma   59.87690197
_symmetry_Int_Tables_number   1
_chemical_formula_structural   Li7Mn3Co3O16
_chemical_formula_sum   'Li7 Mn3 Co3 O16'
_cell_volume   276.10986622
_cell_formula_units_Z   1
loop_
 _symmetry_equiv_pos_site_id
 _symmetry_equiv_pos_as_xyz
  1  'x, y, z'
loop_
 _atom_site_type_symbol
 _atom_site_label
 _atom_site_symmetry_multiplicity
 _atom_site_fract_x
 _atom_site_fract_y
 _atom_site_fract_z
 _atom_site_occupancy
  Li  Li0  1  0.97557000  0.97557000  0.50913800  1
  Li  Li1  1  0.66268900  0.66268900  0.02213500  1
  Li  Li2  1  0.66607200  0.66607200  0.57892000  1
  Li  Li3  1  0.66497600  0.66497600  0.79661600  1
  Li  Li4  1  0.65892400  0.17224900  0.04407700  1
  Li  Li5  1  0.31495300  0.31495300  0.50086000  1
  Li  Li6  1  0.17224900  0.65892400  0.04407700  1
  Mn  Mn7  1  0.82650600  0.32950400  0.28204700  1
  Mn  Mn8  1  0.32950400  0.82650600  0.28204700  1
  Mn  Mn9  1  0.16328300  0.16328300  0.79444500  1
  Co  Co10  1  0.83087300  0.83087300  0.29032000  1
  Co  Co11  1  0.66202800  0.16576000  0.78762400  1
  Co  Co12  1  0.16576000  0.66202800  0.78762400  1
  O  O13  1  0.99684200  0.99684200  0.17914200  1
  O  O14  1  0.00268300  0.00268300  0.69029500  1
  O  O15  1  0.83693100  0.83693100  0.89475100  1
  O  O16  1  0.95863200  0.53699300  0.17512500  1
  O  O17  1  0.53699300  0.95863200  0.17512500  1
  O  O18  1  0.65568700  0.65568700  0.38804900  1
  O  O19  1  0.82183000  0.31144800  0.89552200  1
  O  O20  1  0.51134000  0.51134000  0.16792800  1
  O  O21  1  0.67261100  0.14533900  0.38681600  1
  O  O22  1  0.49085300  0.49085300  0.68649900  1
  O  O23  1  0.31144800  0.82183000  0.89552200  1
  O  O24  1  0.49693800  0.01809600  0.68489200  1
  O  O25  1  0.32870600  0.32870600  0.89544600  1
  O  O26  1  0.14533900  0.67261100  0.38681600  1
  O  O27  1  0.01809600  0.49693800  0.68489200  1
  O  O28  1  0.14229900  0.14229900  0.38979200  1
