# generated using pymatgen
data_Na2FeO3
_symmetry_space_group_name_H-M   'P 1'
_cell_length_a   5.36212083
_cell_length_b   5.36970330
_cell_length_c   11.04068601
_cell_angle_alpha   85.12286136
_cell_angle_beta   99.80371065
_cell_angle_gamma   119.95313462
_symmetry_Int_Tables_number   1
_chemical_formula_structural   Na2FeO3
_chemical_formula_sum   'Na8 Fe4 O12'
_cell_volume   271.41238218
_cell_formula_units_Z   4
loop_
 _symmetry_equiv_pos_site_id
 _symmetry_equiv_pos_as_xyz
  1  'x, y, z'
loop_
 _atom_site_type_symbol
 _atom_site_label
 _atom_site_symmetry_multiplicity
 _atom_site_fract_x
 _atom_site_fract_y
 _atom_site_fract_z
 _atom_site_occupancy
  Na  Na0  1  0.16293000  0.84572500  0.49930300  1
  Na  Na1  1  0.99992900  0.49998700  0.99996600  1
  Na  Na2  1  0.08688900  0.17378700  0.25000000  1
  Na  Na3  1  0.50005700  0.49996600  0.50003400  1
  Na  Na4  1  0.68278700  0.84571500  0.00069800  1
  Na  Na5  1  0.31723500  0.15435000  0.99929300  1
  Na  Na6  1  0.91307700  0.82614800  0.74999900  1
  Na  Na7  1  0.83712400  0.15435300  0.50070400  1
  Fe  Fe8  1  0.24693000  0.49381500  0.75001100  1
  Fe  Fe9  1  0.42065300  0.84131500  0.25000900  1
  Fe  Fe10  1  0.57936800  0.15872000  0.74999500  1
  Fe  Fe11  1  0.75317200  0.50634300  0.25002300  1
  O  O12  1  0.06095900  0.80137300  0.14710700  1
  O  O13  1  0.33248400  0.84004100  0.85059500  1
  O  O14  1  0.13401500  0.55829700  0.35083000  1
  O  O15  1  0.50756400  0.84003000  0.64939100  1
  O  O16  1  0.25961700  0.19851500  0.64712600  1
  O  O17  1  0.57574100  0.44170100  0.85082600  1
  O  O18  1  0.42425500  0.55829200  0.14916500  1
  O  O19  1  0.74040300  0.80137800  0.35289300  1
  O  O20  1  0.49243900  0.15996100  0.35062800  1
  O  O21  1  0.86596600  0.44171800  0.64915700  1
  O  O22  1  0.66751200  0.15996400  0.14937600  1
  O  O23  1  0.93889700  0.19850700  0.85287200  1
