# generated using pymatgen
data_FeOF
_symmetry_space_group_name_H-M   'P 1'
_cell_length_a   3.09471500
_cell_length_b   9.48013000
_cell_length_c   14.19952592
_cell_angle_alpha   89.68919077
_cell_angle_beta   90.00000000
_cell_angle_gamma   90.00000000
_symmetry_Int_Tables_number   1
_chemical_formula_structural   FeOF
_chemical_formula_sum   'Fe12 O12 F12'
_cell_volume   416.58382922
_cell_formula_units_Z   12
loop_
 _symmetry_equiv_pos_site_id
 _symmetry_equiv_pos_as_xyz
  1  'x, y, z'
loop_
 _atom_site_type_symbol
 _atom_site_label
 _atom_site_symmetry_multiplicity
 _atom_site_fract_x
 _atom_site_fract_y
 _atom_site_fract_z
 _atom_site_occupancy
  Fe  Fe0  1  0.00000000  0.99251100  0.99150300  1
  Fe  Fe1  1  0.00000000  0.50386700  0.99554400  1
  Fe  Fe2  1  0.50000000  0.21487200  0.83091000  1
  Fe  Fe3  1  0.50000000  0.74684100  0.84720000  1
  Fe  Fe4  1  0.00000000  0.99924400  0.66325400  1
  Fe  Fe5  1  0.00000000  0.49468100  0.65553600  1
  Fe  Fe6  1  0.50000000  0.75052000  0.51703100  1
  Fe  Fe7  1  0.50000000  0.27531000  0.49639400  1
  Fe  Fe8  1  0.00000000  0.99689400  0.32448500  1
  Fe  Fe9  1  0.00000000  0.48760500  0.32803100  1
  Fe  Fe10  1  0.50000000  0.24596400  0.18128000  1
  Fe  Fe11  1  0.50000000  0.78155400  0.16449500  1
  O  O12  1  0.50000000  0.90133600  0.93222300  1
  O  O13  1  0.00000000  0.15252600  0.90180500  1
  O  O14  1  0.00000000  0.64420700  0.90294800  1
  O  O15  1  0.50000000  0.09287600  0.72747400  1
  O  O16  1  0.50000000  0.39692000  0.60644900  1
  O  O17  1  0.50000000  0.90520400  0.60161100  1
  O  O18  1  0.00000000  0.65052100  0.56622500  1
  O  O19  1  0.00000000  0.35341700  0.43225400  1
  O  O20  1  0.50000000  0.41099800  0.26162500  1
  O  O21  1  0.50000000  0.90208300  0.27274000  1
  O  O22  1  0.00000000  0.15449300  0.23342100  1
  O  O23  1  0.00000000  0.85170600  0.09873500  1
  F  F24  1  0.50000000  0.40060400  0.93810300  1
  F  F25  1  0.00000000  0.35026200  0.77378500  1
  F  F26  1  0.00000000  0.83511400  0.76979500  1
  F  F27  1  0.50000000  0.59649800  0.73602600  1
  F  F28  1  0.00000000  0.15551300  0.55788400  1
  F  F29  1  0.00000000  0.85044600  0.43591200  1
  F  F30  1  0.50000000  0.09654300  0.40191800  1
  F  F31  1  0.50000000  0.60595600  0.39360500  1
  F  F32  1  0.00000000  0.65713900  0.22832200  1
  F  F33  1  0.00000000  0.35048400  0.09575300  1
  F  F34  1  0.50000000  0.10515500  0.06682500  1
  F  F35  1  0.50000000  0.59013700  0.06889500  1
