# generated using pymatgen
data_Al(NO6)3
_symmetry_space_group_name_H-M   'P 1'
_cell_length_a   10.13842100
_cell_length_b   11.29630600
_cell_length_c   16.84532807
_cell_angle_alpha   81.27617854
_cell_angle_beta   90.00000000
_cell_angle_gamma   90.00000000
_symmetry_Int_Tables_number   1
_chemical_formula_structural   Al(NO6)3
_chemical_formula_sum   'Al4 N12 O72'
_cell_volume   1906.92038978
_cell_formula_units_Z   4
loop_
 _symmetry_equiv_pos_site_id
 _symmetry_equiv_pos_as_xyz
  1  'x, y, z'
loop_
 _atom_site_type_symbol
 _atom_site_label
 _atom_site_symmetry_multiplicity
 _atom_site_fract_x
 _atom_site_fract_y
 _atom_site_fract_z
 _atom_site_occupancy
  Al  Al0  1  0.43834800  0.77786300  0.75537600  1
  Al  Al1  1  0.93834800  0.72213700  0.24462400  1
  Al  Al2  1  0.56165200  0.22213700  0.24462400  1
  Al  Al3  1  0.06165200  0.27786300  0.75537600  1
  N  N4  1  0.15437800  0.82281300  0.93978100  1
  N  N5  1  0.65437800  0.67718700  0.06021900  1
  N  N6  1  0.84562200  0.17718700  0.06021900  1
  N  N7  1  0.34562200  0.32281300  0.93978100  1
  N  N8  1  0.17639800  0.58115600  0.57349500  1
  N  N9  1  0.67639800  0.91884400  0.42650500  1
  N  N10  1  0.82360200  0.41884400  0.42650500  1
  N  N11  1  0.32360200  0.08115600  0.57349500  1
  N  N12  1  0.81849600  0.95404700  0.54943500  1
  N  N13  1  0.31849600  0.54595300  0.45056500  1
  N  N14  1  0.18150400  0.04595300  0.45056500  1
  N  N15  1  0.68150400  0.45404700  0.54943500  1
  O  O16  1  0.21161700  0.88627800  0.98377800  1
  O  O17  1  0.71161700  0.61372200  0.01622200  1
  O  O18  1  0.78838300  0.11372200  0.01622200  1
  O  O19  1  0.28838300  0.38627800  0.98377800  1
  O  O20  1  0.19846100  0.72069900  0.93413800  1
  O  O21  1  0.69846100  0.77930100  0.06586200  1
  O  O22  1  0.80153900  0.27930100  0.06586200  1
  O  O23  1  0.30153900  0.22069900  0.93413800  1
  O  O24  1  0.05331500  0.86028700  0.90152100  1
  O  O25  1  0.55331500  0.63971300  0.09847900  1
  O  O26  1  0.94668500  0.13971300  0.09847900  1
  O  O27  1  0.44668500  0.36028700  0.90152100  1
  O  O28  1  0.24313000  0.50713500  0.61398500  1
  O  O29  1  0.74313000  0.99286500  0.38601500  1
  O  O30  1  0.75687000  0.49286500  0.38601500  1
  O  O31  1  0.25687000  0.00713500  0.61398500  1
  O  O32  1  0.03032900  0.49663600  0.81332800  1
  O  O33  1  0.53032900  0.00336400  0.18667200  1
  O  O34  1  0.96967100  0.50336400  0.18667200  1
  O  O35  1  0.46967100  0.99663600  0.81332800  1
  O  O36  1  0.07446200  0.63081100  0.58493100  1
  O  O37  1  0.57446200  0.86918900  0.41506900  1
  O  O38  1  0.92553800  0.36918900  0.41506900  1
  O  O39  1  0.42553800  0.13081100  0.58493100  1
  O  O40  1  0.79533500  0.05919800  0.53170300  1
  O  O41  1  0.29533500  0.44080200  0.46829700  1
  O  O42  1  0.20466500  0.94080200  0.46829700  1
  O  O43  1  0.70466500  0.55919800  0.53170300  1
  O  O44  1  0.73135200  0.86744000  0.50969600  1
  O  O45  1  0.23135200  0.63256000  0.49030400  1
  O  O46  1  0.26864800  0.13256000  0.49030400  1
  O  O47  1  0.76864800  0.36744000  0.50969600  1
  O  O48  1  0.89334800  0.89724800  0.59603100  1
  O  O49  1  0.39334800  0.60275200  0.40396900  1
  O  O50  1  0.10665200  0.10275200  0.40396900  1
  O  O51  1  0.60665200  0.39724800  0.59603100  1
  O  O52  1  0.36544800  0.89567300  0.79619600  1
  O  O53  1  0.86544800  0.60432700  0.20380400  1
  O  O54  1  0.63455200  0.10432700  0.20380400  1
  O  O55  1  0.13455200  0.39567300  0.79619600  1
  O  O56  1  0.43173100  0.64378200  0.81961600  1
  O  O57  1  0.93173100  0.85621800  0.18038400  1
  O  O58  1  0.56826900  0.35621800  0.18038400  1
  O  O59  1  0.06826900  0.14378200  0.81961600  1
  O  O60  1  0.60023900  0.80665200  0.70093200  1
  O  O61  1  0.10023900  0.69334800  0.29906800  1
  O  O62  1  0.39976100  0.19334800  0.29906800  1
  O  O63  1  0.89976100  0.30665200  0.70093200  1
  O  O64  1  0.62010900  0.72928500  0.65164700  1
  O  O65  1  0.12010900  0.77071500  0.34835300  1
  O  O66  1  0.37989100  0.27071500  0.34835300  1
  O  O67  1  0.87989100  0.22928500  0.65164700  1
  O  O68  1  0.70995100  0.81911300  0.87154500  1
  O  O69  1  0.20995100  0.68088700  0.12845500  1
  O  O70  1  0.29004900  0.18088700  0.12845500  1
  O  O71  1  0.79004900  0.31911300  0.87154500  1
  O  O72  1  0.38569200  0.76885600  0.64868100  1
  O  O73  1  0.88569200  0.73114400  0.35131900  1
  O  O74  1  0.61430800  0.23114400  0.35131900  1
  O  O75  1  0.11430800  0.26885600  0.64868100  1
  O  O76  1  0.05438600  0.53384100  0.87708800  1
  O  O77  1  0.55438600  0.96615900  0.12291200  1
  O  O78  1  0.94561400  0.46615900  0.12291200  1
  O  O79  1  0.44561400  0.03384100  0.87708800  1
  O  O80  1  0.75199300  0.91765200  0.88209000  1
  O  O81  1  0.25199300  0.58234800  0.11791000  1
  O  O82  1  0.24800700  0.08234800  0.11791000  1
  O  O83  1  0.74800700  0.41765200  0.88209000  1
  O  O84  1  0.46753700  0.70363700  0.61350600  1
  O  O85  1  0.96753700  0.79636300  0.38649400  1
  O  O86  1  0.53246300  0.29636300  0.38649400  1
  O  O87  1  0.03246300  0.20363700  0.61350600  1
