# generated using pymatgen
data_Bi2O3
_symmetry_space_group_name_H-M   'P 1'
_cell_length_a   10.41362054
_cell_length_b   10.41362054
_cell_length_c   10.41362090
_cell_angle_alpha   90.04988955
_cell_angle_beta   90.04988955
_cell_angle_gamma   90.04989183
_symmetry_Int_Tables_number   1
_chemical_formula_structural   Bi2O3
_chemical_formula_sum   'Bi26 O39'
_cell_volume   1129.28813694
_cell_formula_units_Z   13
loop_
 _symmetry_equiv_pos_site_id
 _symmetry_equiv_pos_as_xyz
  1  'x, y, z'
loop_
 _atom_site_type_symbol
 _atom_site_label
 _atom_site_symmetry_multiplicity
 _atom_site_fract_x
 _atom_site_fract_y
 _atom_site_fract_z
 _atom_site_occupancy
  Bi  Bi0  1  0.98090500  0.18207800  0.33235200  1
  Bi  Bi1  1  0.98505200  0.82309200  0.68451000  1
  Bi  Bi2  1  0.81967500  0.32464000  0.01374100  1
  Bi  Bi3  1  0.82309200  0.68451000  0.98505200  1
  Bi  Bi4  1  0.81861200  0.49010400  0.67907300  1
  Bi  Bi5  1  0.81705800  0.51336300  0.32174200  1
  Bi  Bi6  1  0.68714100  0.01608800  0.17607100  1
  Bi  Bi7  1  0.68451000  0.98505200  0.82309200  1
  Bi  Bi8  1  0.67907300  0.81861200  0.49010400  1
  Bi  Bi9  1  0.67374600  0.17878300  0.51147400  1
  Bi  Bi10  1  0.51336300  0.32174200  0.81705800  1
  Bi  Bi11  1  0.51147400  0.67374600  0.17878300  1
  Bi  Bi12  1  0.50004200  0.50004200  0.50004200  1
  Bi  Bi13  1  0.48851100  0.32037700  0.18213400  1
  Bi  Bi14  1  0.49010400  0.67907300  0.81861200  1
  Bi  Bi15  1  0.32174200  0.81705800  0.51336300  1
  Bi  Bi16  1  0.32037700  0.18213400  0.48851100  1
  Bi  Bi17  1  0.33235200  0.98090500  0.18207800  1
  Bi  Bi18  1  0.32464000  0.01374100  0.81967500  1
  Bi  Bi19  1  0.17878300  0.51147400  0.67374600  1
  Bi  Bi20  1  0.18213400  0.48851100  0.32037700  1
  Bi  Bi21  1  0.18207800  0.33235200  0.98090500  1
  Bi  Bi22  1  0.17607100  0.68714100  0.01608800  1
  Bi  Bi23  1  0.01608800  0.17607100  0.68714100  1
  Bi  Bi24  1  0.01374100  0.81967500  0.32464000  1
  Bi  Bi25  1  0.01360500  0.01360500  0.01360500  1
  O  O26  1  0.00764300  0.36622100  0.25492500  1
  O  O27  1  0.00692400  0.63076700  0.74404400  1
  O  O28  1  0.88616100  0.10495100  0.88336500  1
  O  O29  1  0.88336500  0.88616100  0.10495100  1
  O  O30  1  0.86664900  0.24283400  0.49164500  1
  O  O31  1  0.87070100  0.75712000  0.50654600  1
  O  O32  1  0.81642300  0.18631300  0.18562200  1
  O  O33  1  0.80982200  0.80982200  0.80982200  1
  O  O34  1  0.75712000  0.50654600  0.87070100  1
  O  O35  1  0.75607800  0.49267300  0.12986700  1
  O  O36  1  0.74549800  0.99452900  0.36866800  1
  O  O37  1  0.74404400  0.00692400  0.63076700  1
  O  O38  1  0.68527200  0.31389300  0.68353400  1
  O  O39  1  0.68353400  0.68527200  0.31389300  1
  O  O40  1  0.63068600  0.25563000  0.99326800  1
  O  O41  1  0.63076700  0.74404400  0.00692400  1
  O  O42  1  0.62420200  0.37270200  0.37363700  1
  O  O43  1  0.62672000  0.62672000  0.62672000  1
  O  O44  1  0.49267300  0.12986700  0.75607800  1
  O  O45  1  0.49164500  0.86664900  0.24283400  1
  O  O46  1  0.50654600  0.87070100  0.75712000  1
  O  O47  1  0.50742000  0.12702600  0.24126300  1
  O  O48  1  0.37363700  0.62420200  0.37270200  1
  O  O49  1  0.37270200  0.37363700  0.62420200  1
  O  O50  1  0.36622100  0.25492500  0.00764300  1
  O  O51  1  0.36866800  0.74549800  0.99452900  1
  O  O52  1  0.31337200  0.31337200  0.31337200  1
  O  O53  1  0.31389300  0.68353400  0.68527200  1
  O  O54  1  0.25563000  0.99326800  0.63068600  1
  O  O55  1  0.25492500  0.00764300  0.36622100  1
  O  O56  1  0.24283400  0.49164500  0.86664900  1
  O  O57  1  0.24126300  0.50742000  0.12702600  1
  O  O58  1  0.18631300  0.18562200  0.81642300  1
  O  O59  1  0.18562200  0.81642300  0.18631300  1
  O  O60  1  0.12986700  0.75607800  0.49267300  1
  O  O61  1  0.12702600  0.24126300  0.50742000  1
  O  O62  1  0.10495100  0.88336500  0.88616100  1
  O  O63  1  0.99326800  0.63068600  0.25563000  1
  O  O64  1  0.99452900  0.36866800  0.74549800  1
