# generated using pymatgen
data_Li3Sb3(PO4)4
_symmetry_space_group_name_H-M   'P 1'
_cell_length_a   9.65900863
_cell_length_b   9.11802960
_cell_length_c   10.65275035
_cell_angle_alpha   107.75551572
_cell_angle_beta   106.05869129
_cell_angle_gamma   111.24097526
_symmetry_Int_Tables_number   1
_chemical_formula_structural   Li3Sb3(PO4)4
_chemical_formula_sum   'Li6 Sb6 P8 O32'
_cell_volume   749.44676529
_cell_formula_units_Z   2
loop_
 _symmetry_equiv_pos_site_id
 _symmetry_equiv_pos_as_xyz
  1  'x, y, z'
loop_
 _atom_site_type_symbol
 _atom_site_label
 _atom_site_symmetry_multiplicity
 _atom_site_fract_x
 _atom_site_fract_y
 _atom_site_fract_z
 _atom_site_occupancy
  Li  Li0  1  0.43905200  0.02209400  0.76436000  1
  Li  Li1  1  0.43314500  0.47815300  0.85139600  1
  Li  Li2  1  0.34984100  0.30570600  0.29211000  1
  Li  Li3  1  0.65015900  0.69429400  0.70789000  1
  Li  Li4  1  0.56685500  0.52184700  0.14860400  1
  Li  Li5  1  0.56094800  0.97790600  0.23564000  1
  Sb  Sb6  1  0.03393800  0.79253100  0.55387600  1
  Sb  Sb7  1  0.11907800  0.87461400  0.15260900  1
  Sb  Sb8  1  0.07025300  0.48524600  0.25006900  1
  Sb  Sb9  1  0.92974700  0.51475400  0.74993200  1
  Sb  Sb10  1  0.88092200  0.12538600  0.84739100  1
  Sb  Sb11  1  0.96606200  0.20746900  0.44612400  1
  P  P12  1  0.28155200  0.56634200  0.58500800  1
  P  P13  1  0.17622700  0.98441100  0.92209600  1
  P  P14  1  0.26996400  0.59981200  0.05853500  1
  P  P15  1  0.25271800  0.07164000  0.49274400  1
  P  P16  1  0.74728200  0.92836000  0.50725600  1
  P  P17  1  0.73003600  0.40018800  0.94146500  1
  P  P18  1  0.82377300  0.01558900  0.07790400  1
  P  P19  1  0.71844800  0.43365800  0.41499200  1
  O  O20  1  0.04307500  0.78593400  0.88026000  1
  O  O21  1  0.10424500  0.50493000  0.91721400  1
  O  O22  1  0.11796400  0.86430300  0.41219900  1
  O  O23  1  0.11755400  0.45953600  0.60323900  1
  O  O24  1  0.28343500  0.73972400  0.59778700  1
  O  O25  1  0.07829400  0.06132000  0.84923200  1
  O  O26  1  0.24516400  0.44455700  0.42348300  1
  O  O27  1  0.32067400  0.79823100  0.13617900  1
  O  O28  1  0.16208100  0.17199700  0.54475800  1
  O  O29  1  0.23015000  0.50523900  0.15845200  1
  O  O30  1  0.43042600  0.58295900  0.69914200  1
  O  O31  1  0.31606700  0.99612000  0.88376000  1
  O  O32  1  0.40014300  0.11793500  0.62138300  1
  O  O33  1  0.71747500  0.90154900  0.63943400  1
  O  O34  1  0.22724700  0.07086700  0.09416700  1
  O  O35  1  0.59646800  0.43181800  0.97215800  1
  O  O36  1  0.40353200  0.56818200  0.02784200  1
  O  O37  1  0.77275300  0.92913300  0.90583300  1
  O  O38  1  0.28252500  0.09845100  0.36056600  1
  O  O39  1  0.59985700  0.88206500  0.37861700  1
  O  O40  1  0.68393300  0.00388000  0.11624000  1
  O  O41  1  0.56957400  0.41704100  0.30085800  1
  O  O42  1  0.76985000  0.49476100  0.84154800  1
  O  O43  1  0.83791900  0.82800300  0.45524200  1
  O  O44  1  0.67932600  0.20176900  0.86382100  1
  O  O45  1  0.75483600  0.55544300  0.57651700  1
  O  O46  1  0.92170600  0.93868000  0.15076800  1
  O  O47  1  0.71656500  0.26027600  0.40221300  1
  O  O48  1  0.88244600  0.54046400  0.39676100  1
  O  O49  1  0.88203600  0.13569700  0.58780100  1
  O  O50  1  0.89575500  0.49507000  0.08278600  1
  O  O51  1  0.95692500  0.21406600  0.11974000  1
