# generated using pymatgen
data_V3O7F
_symmetry_space_group_name_H-M   'P 1'
_cell_length_a   3.61397500
_cell_length_b   9.96265100
_cell_length_c   15.06636500
_cell_angle_alpha   90.00000000
_cell_angle_beta   90.00000000
_cell_angle_gamma   90.00000000
_symmetry_Int_Tables_number   1
_chemical_formula_structural   V3O7F
_chemical_formula_sum   'V12 O28 F4'
_cell_volume   542.46103139
_cell_formula_units_Z   4
loop_
 _symmetry_equiv_pos_site_id
 _symmetry_equiv_pos_as_xyz
  1  'x, y, z'
loop_
 _atom_site_type_symbol
 _atom_site_label
 _atom_site_symmetry_multiplicity
 _atom_site_fract_x
 _atom_site_fract_y
 _atom_site_fract_z
 _atom_site_occupancy
  V  V0  1  0.94598300  0.25000000  0.54785500  1
  V  V1  1  0.99541000  0.55755300  0.66483300  1
  V  V2  1  0.99541000  0.94244700  0.66483300  1
  V  V3  1  0.49541000  0.05755300  0.83516700  1
  V  V4  1  0.49541000  0.44244700  0.83516700  1
  V  V5  1  0.44598300  0.75000000  0.95214500  1
  V  V6  1  0.55401700  0.25000000  0.04785500  1
  V  V7  1  0.50459000  0.55755300  0.16483300  1
  V  V8  1  0.50459000  0.94244700  0.16483300  1
  V  V9  1  0.00459000  0.05755300  0.33516700  1
  V  V10  1  0.00459000  0.44244700  0.33516700  1
  V  V11  1  0.05401700  0.75000000  0.45214500  1
  O  O12  1  0.48779500  0.25000000  0.52754400  1
  O  O13  1  0.00129400  0.62408600  0.56432700  1
  O  O14  1  0.00129400  0.87591400  0.56432700  1
  O  O15  1  0.99021700  0.11490600  0.62271600  1
  O  O16  1  0.99021700  0.38509400  0.62271600  1
  O  O17  1  0.49520700  0.95144500  0.69960400  1
  O  O18  1  0.49520700  0.54855500  0.69960400  1
  O  O19  1  0.99520700  0.04855500  0.80039600  1
  O  O20  1  0.99520700  0.45144500  0.80039600  1
  O  O21  1  0.49021700  0.61490600  0.87728400  1
  O  O22  1  0.49021700  0.88509400  0.87728400  1
  O  O23  1  0.50129400  0.12408600  0.93567300  1
  O  O24  1  0.50129400  0.37591400  0.93567300  1
  O  O25  1  0.98779500  0.75000000  0.97245600  1
  O  O26  1  0.01220500  0.25000000  0.02754400  1
  O  O27  1  0.49870600  0.62408600  0.06432700  1
  O  O28  1  0.49870600  0.87591400  0.06432700  1
  O  O29  1  0.50978300  0.11490600  0.12271600  1
  O  O30  1  0.50978300  0.38509400  0.12271600  1
  O  O31  1  0.00479300  0.54855500  0.19960400  1
  O  O32  1  0.00479300  0.95144500  0.19960400  1
  O  O33  1  0.50479300  0.04855500  0.30039600  1
  O  O34  1  0.50479300  0.45144500  0.30039600  1
  O  O35  1  0.00978300  0.61490600  0.37728400  1
  O  O36  1  0.00978300  0.88509400  0.37728400  1
  O  O37  1  0.99870600  0.12408600  0.43567300  1
  O  O38  1  0.99870600  0.37591400  0.43567300  1
  O  O39  1  0.51220500  0.75000000  0.47245600  1
  F  F40  1  0.99471600  0.75000000  0.71731200  1
  F  F41  1  0.49471600  0.25000000  0.78268800  1
  F  F42  1  0.50528400  0.75000000  0.21731200  1
  F  F43  1  0.00528400  0.25000000  0.28268800  1
