# generated using pymatgen
data_Ag3AsS3
_symmetry_space_group_name_H-M   'P 1'
_cell_length_a   5.31670925
_cell_length_b   6.42503061
_cell_length_c   10.33136748
_cell_angle_alpha   90.63658645
_cell_angle_beta   104.91045296
_cell_angle_gamma   87.52525657
_symmetry_Int_Tables_number   1
_chemical_formula_structural   Ag3AsS3
_chemical_formula_sum   'Ag6 As2 S6'
_cell_volume   340.71854330
_cell_formula_units_Z   2
loop_
 _symmetry_equiv_pos_site_id
 _symmetry_equiv_pos_as_xyz
  1  'x, y, z'
loop_
 _atom_site_type_symbol
 _atom_site_label
 _atom_site_symmetry_multiplicity
 _atom_site_fract_x
 _atom_site_fract_y
 _atom_site_fract_z
 _atom_site_occupancy
  Ag  Ag0  1  0.62887900  0.75454200  0.15986400  1
  Ag  Ag1  1  0.46901500  0.25454200  0.84013600  1
  Ag  Ag2  1  0.19877900  0.45834200  0.58356800  1
  Ag  Ag3  1  0.12496000  0.98374200  0.66454000  1
  Ag  Ag4  1  0.46041900  0.48374200  0.33546000  1
  Ag  Ag5  1  0.61521100  0.95834200  0.41643200  1
  As  As6  1  0.13175800  0.50880600  0.10618000  1
  As  As7  1  0.02557800  0.00880600  0.89382000  1
  S  S8  1  0.76040900  0.32752300  0.53692000  1
  S  S9  1  0.22348900  0.82752300  0.46308000  1
  S  S10  1  0.96088300  0.97745200  0.29649200  1
  S  S11  1  0.27797400  0.70779300  0.94692100  1
  S  S12  1  0.33105400  0.20779300  0.05307900  1
  S  S13  1  0.66439200  0.47745200  0.70350800  1
