# generated using pymatgen
data_V3O5F3
_symmetry_space_group_name_H-M   'P 1'
_cell_length_a   7.26717391
_cell_length_b   7.26717391
_cell_length_c   5.01579684
_cell_angle_alpha   89.63834691
_cell_angle_beta   89.63834691
_cell_angle_gamma   102.64377930
_symmetry_Int_Tables_number   1
_chemical_formula_structural   V3O5F3
_chemical_formula_sum   'V6 O10 F6'
_cell_volume   258.45644122
_cell_formula_units_Z   2
loop_
 _symmetry_equiv_pos_site_id
 _symmetry_equiv_pos_as_xyz
  1  'x, y, z'
loop_
 _atom_site_type_symbol
 _atom_site_label
 _atom_site_symmetry_multiplicity
 _atom_site_fract_x
 _atom_site_fract_y
 _atom_site_fract_z
 _atom_site_occupancy
  V  V0  1  0.34883900  0.17108700  0.27759600  1
  V  V1  1  0.67908800  0.31929600  0.76390700  1
  V  V2  1  0.17108700  0.34883900  0.77759600  1
  V  V3  1  0.82893100  0.66918500  0.21032900  1
  V  V4  1  0.31929600  0.67908800  0.26390700  1
  V  V5  1  0.66918500  0.82893100  0.71032900  1
  O  O6  1  0.67293800  0.06065900  0.64211300  1
  O  O7  1  0.54998300  0.21398900  0.08098300  1
  O  O8  1  0.93641700  0.32691400  0.86360800  1
  O  O9  1  0.43100300  0.29452800  0.59155300  1
  O  O10  1  0.29452800  0.43100300  0.09155300  1
  O  O11  1  0.69543800  0.57015700  0.89111300  1
  O  O12  1  0.21398900  0.54998300  0.58098300  1
  O  O13  1  0.57015700  0.69543800  0.39111300  1
  O  O14  1  0.06065900  0.67293800  0.14211300  1
  O  O15  1  0.32691400  0.93641700  0.36360800  1
  F  F16  1  0.18752500  0.10373200  0.95971000  1
  F  F17  1  0.10373200  0.18752500  0.45971000  1
  F  F18  1  0.78589200  0.43081500  0.42126900  1
  F  F19  1  0.90554000  0.81336000  0.54542700  1
  F  F20  1  0.43081500  0.78589200  0.92126900  1
  F  F21  1  0.81336000  0.90554000  0.04542700  1
