# generated using pymatgen
data_FeOF
_symmetry_space_group_name_H-M   'P 1'
_cell_length_a   3.08760500
_cell_length_b   9.55447000
_cell_length_c   14.26229533
_cell_angle_alpha   89.68224277
_cell_angle_beta   90.00000000
_cell_angle_gamma   90.00000000
_symmetry_Int_Tables_number   1
_chemical_formula_structural   FeOF
_chemical_formula_sum   'Fe12 O12 F12'
_cell_volume   420.73736534
_cell_formula_units_Z   12
loop_
 _symmetry_equiv_pos_site_id
 _symmetry_equiv_pos_as_xyz
  1  'x, y, z'
loop_
 _atom_site_type_symbol
 _atom_site_label
 _atom_site_symmetry_multiplicity
 _atom_site_fract_x
 _atom_site_fract_y
 _atom_site_fract_z
 _atom_site_occupancy
  Fe  Fe0  1  0.00000000  0.99898100  0.98573300  1
  Fe  Fe1  1  0.00000000  0.50024900  0.99702800  1
  Fe  Fe2  1  0.50000000  0.21903000  0.82782900  1
  Fe  Fe3  1  0.50000000  0.74327200  0.84870500  1
  Fe  Fe4  1  0.00000000  0.00547300  0.65898700  1
  Fe  Fe5  1  0.00000000  0.49712000  0.65632700  1
  Fe  Fe6  1  0.50000000  0.74957500  0.52000200  1
  Fe  Fe7  1  0.50000000  0.25024000  0.51586800  1
  Fe  Fe8  1  0.00000000  0.99412900  0.32682400  1
  Fe  Fe9  1  0.00000000  0.49671600  0.32267500  1
  Fe  Fe10  1  0.50000000  0.27785200  0.15991300  1
  Fe  Fe11  1  0.50000000  0.75087500  0.18275300  1
  O  O12  1  0.50000000  0.89984400  0.93803200  1
  O  O13  1  0.00000000  0.15813000  0.90156300  1
  O  O14  1  0.00000000  0.64389700  0.90239000  1
  O  O15  1  0.50000000  0.09175000  0.72937500  1
  O  O16  1  0.50000000  0.40515400  0.60432800  1
  O  O17  1  0.50000000  0.90222300  0.60254800  1
  O  O18  1  0.00000000  0.15235000  0.55648000  1
  O  O19  1  0.00000000  0.65100700  0.56575100  1
  O  O20  1  0.50000000  0.40054800  0.26847500  1
  O  O21  1  0.50000000  0.91182600  0.26788600  1
  O  O22  1  0.00000000  0.65593000  0.23233300  1
  O  O23  1  0.00000000  0.35446400  0.09509300  1
  F  F24  1  0.50000000  0.40558300  0.93284000  1
  F  F25  1  0.00000000  0.35097400  0.77004900  1
  F  F26  1  0.00000000  0.83373200  0.77300900  1
  F  F27  1  0.50000000  0.59526200  0.73594500  1
  F  F28  1  0.00000000  0.35156800  0.43287900  1
  F  F29  1  0.00000000  0.85166000  0.43306500  1
  F  F30  1  0.50000000  0.10193100  0.39150700  1
  F  F31  1  0.50000000  0.59648600  0.39789300  1
  F  F32  1  0.00000000  0.15761800  0.22857900  1
  F  F33  1  0.00000000  0.84793500  0.10368800  1
  F  F34  1  0.50000000  0.09650600  0.06923100  1
  F  F35  1  0.50000000  0.60010500  0.06441600  1
