# generated using pymatgen
data_Li4V3P8O29
_symmetry_space_group_name_H-M   'P 1'
_cell_length_a   9.74887885
_cell_length_b   9.72309730
_cell_length_c   14.17678674
_cell_angle_alpha   90.76331413
_cell_angle_beta   90.46710591
_cell_angle_gamma   60.27108874
_symmetry_Int_Tables_number   1
_chemical_formula_structural   Li4V3P8O29
_chemical_formula_sum   'Li8 V6 P16 O58'
_cell_volume   1166.83216618
_cell_formula_units_Z   2
loop_
 _symmetry_equiv_pos_site_id
 _symmetry_equiv_pos_as_xyz
  1  'x, y, z'
loop_
 _atom_site_type_symbol
 _atom_site_label
 _atom_site_symmetry_multiplicity
 _atom_site_fract_x
 _atom_site_fract_y
 _atom_site_fract_z
 _atom_site_occupancy
  Li  Li0  1  0.91533400  0.31128900  0.56433700  1
  Li  Li1  1  0.76971700  0.32922500  0.05489700  1
  Li  Li2  1  0.32721500  0.90765600  0.05881300  1
  Li  Li3  1  0.68649900  0.22560500  0.44835100  1
  Li  Li4  1  0.31764000  0.77328900  0.55813200  1
  Li  Li5  1  0.23123600  0.67006100  0.93943300  1
  Li  Li6  1  0.08361700  0.69020900  0.43705400  1
  Li  Li7  1  0.94637100  0.01500900  0.99067700  1
  V  V8  1  0.56909800  0.43340400  0.24841900  1
  V  V9  1  0.43271000  0.56767800  0.74936900  1
  V  V10  1  0.56768200  0.99896200  0.75118200  1
  V  V11  1  0.43548500  0.00184500  0.24958300  1
  V  V12  1  0.99433600  0.56915000  0.24653500  1
  V  V13  1  0.00833100  0.43191700  0.75486100  1
  P  P14  1  0.91626900  0.78170600  0.83557900  1
  P  P15  1  0.77093500  0.91803400  0.33986600  1
  P  P16  1  0.91252900  0.31948900  0.34595200  1
  P  P17  1  0.66235100  0.66712100  0.12982900  1
  P  P18  1  0.66992900  0.66418300  0.63195700  1
  P  P19  1  0.77510200  0.31579100  0.84206300  1
  P  P20  1  0.68042700  0.22700400  0.66274000  1
  P  P21  1  0.31307600  0.91568600  0.84553800  1
  P  P22  1  0.69399500  0.08220200  0.15512900  1
  P  P23  1  0.32034800  0.77352900  0.33935000  1
  P  P24  1  0.22739600  0.68311900  0.15966600  1
  P  P25  1  0.33575600  0.33682100  0.36693300  1
  P  P26  1  0.33576900  0.33237500  0.87058800  1
  P  P27  1  0.08773500  0.68101700  0.65285200  1
  P  P28  1  0.22690700  0.08446600  0.66275500  1
  P  P29  1  0.08318400  0.21999800  0.16339400  1
  O  O30  1  0.01089400  0.74528800  0.56099000  1
  O  O31  1  0.91640700  0.74920000  0.33786700  1
  O  O32  1  0.79133400  0.00605600  0.07033300  1
  O  O33  1  0.74281600  0.91726300  0.83417800  1
  O  O34  1  0.92204000  0.61896300  0.82870800  1
  O  O35  1  0.80601200  0.67533800  0.17249400  1
  O  O36  1  0.90580400  0.47839600  0.32246800  1
  O  O37  1  0.99024000  0.20404300  0.08467800  1
  O  O38  1  0.91653400  0.34592600  0.82967400  1
  O  O39  1  0.66280500  0.81534000  0.67998500  1
  O  O40  1  0.61907200  0.90648000  0.31902200  1
  O  O41  1  0.81939600  0.51740200  0.67389800  1
  O  O42  1  0.65196800  0.65529300  0.02545500  1
  O  O43  1  0.66886700  0.66462000  0.52712700  1
  O  O44  1  0.67279500  0.51095400  0.17336300  1
  O  O45  1  0.47092300  0.91309400  0.82833100  1
  O  O46  1  0.50768300  0.81385000  0.17010200  1
  O  O47  1  0.74353600  0.33901700  0.33582400  1
  O  O48  1  0.79240200  0.20508500  0.75174000  1
  O  O49  1  0.75652000  0.24120800  0.57476400  1
  O  O50  1  0.79397700  0.22744300  0.93070000  1
  O  O51  1  0.61781700  0.47027200  0.83061200  1
  O  O52  1  0.51570300  0.66639500  0.67071800  1
  O  O53  1  0.65760700  0.25861500  0.16272100  1
  O  O54  1  0.48003200  0.62034600  0.32022400  1
  O  O55  1  0.34311300  0.91861300  0.33397300  1
  O  O56  1  0.79503300  0.00134000  0.24882400  1
  O  O57  1  0.75804600  0.01177400  0.42554500  1
  O  O58  1  0.22807900  0.99068500  0.57932400  1
  O  O59  1  0.65838800  0.08138100  0.66557100  1
  O  O60  1  0.51954800  0.37988100  0.68094200  1
  O  O61  1  0.33924900  0.74365400  0.83499700  1
  O  O62  1  0.48599000  0.33622300  0.32320800  1
  O  O63  1  0.38367900  0.52542800  0.17462800  1
  O  O64  1  0.23023200  0.76450000  0.07101900  1
  O  O65  1  0.24478500  0.76097700  0.42821600  1
  O  O66  1  0.20737300  0.79350400  0.25038000  1
  O  O67  1  0.25516900  0.66362500  0.66050600  1
  O  O68  1  0.48252000  0.18701200  0.82400600  1
  O  O69  1  0.53841400  0.07693500  0.16751700  1
  O  O70  1  0.32451300  0.48918500  0.83382500  1
  O  O71  1  0.32907400  0.32912300  0.97505300  1
  O  O72  1  0.35236300  0.32518100  0.47115800  1
  O  O73  1  0.18453300  0.48686100  0.33084300  1
  O  O74  1  0.38182200  0.08956100  0.67867900  1
  O  O75  1  0.34029800  0.18739400  0.31709100  1
  O  O76  1  0.08589200  0.65480100  0.16587900  1
  O  O77  1  0.98928400  0.80048000  0.73796200  1
  O  O78  1  0.00703500  0.79820400  0.91629500  1
  O  O79  1  0.09802100  0.52139400  0.67870900  1
  O  O80  1  0.18799600  0.32841100  0.82295400  1
  O  O81  1  0.08425600  0.37780200  0.17178300  1
  O  O82  1  0.25648800  0.07848600  0.16291300  1
  O  O83  1  0.23487800  0.98558800  0.93710200  1
  O  O84  1  0.20027800  0.01069900  0.75878700  1
  O  O85  1  0.08317900  0.25573300  0.66254400  1
  O  O86  1  0.98073400  0.25341200  0.43920600  1
  O  O87  1  0.01316200  0.19928000  0.26264200  1
