# generated using pymatgen
data_ZnH20S2(NO7)2
_symmetry_space_group_name_H-M   'P 1'
_cell_length_a   13.34090400
_cell_length_b   6.21011300
_cell_length_c   9.34712669
_cell_angle_alpha   79.53459484
_cell_angle_beta   90.00000000
_cell_angle_gamma   90.00000000
_symmetry_Int_Tables_number   1
_chemical_formula_structural   ZnH20S2(NO7)2
_chemical_formula_sum   'Zn2 H40 S4 N4 O28'
_cell_volume   761.51336865
_cell_formula_units_Z   2
loop_
 _symmetry_equiv_pos_site_id
 _symmetry_equiv_pos_as_xyz
  1  'x, y, z'
loop_
 _atom_site_type_symbol
 _atom_site_label
 _atom_site_symmetry_multiplicity
 _atom_site_fract_x
 _atom_site_fract_y
 _atom_site_fract_z
 _atom_site_occupancy
  Zn  Zn0  1  0.00000000  0.00000000  0.00000000  1
  Zn  Zn1  1  0.50000000  0.00000000  0.50000000  1
  H  H2  1  0.86366300  0.05742400  0.14709700  1
  H  H3  1  0.84178900  0.66463200  0.03433200  1
  H  H4  1  0.06376800  0.38260000  0.05565200  1
  H  H5  1  0.33610300  0.50410400  0.11905400  1
  H  H6  1  0.34845300  0.77771100  0.09366000  1
  H  H7  1  0.63179700  0.11119000  0.22601300  1
  H  H8  1  0.51017000  0.77240200  0.22874900  1
  H  H9  1  0.24912800  0.66471300  0.18696300  1
  H  H10  1  0.36488400  0.62511900  0.26204000  1
  H  H11  1  0.58353500  0.31728200  0.27005400  1
  H  H12  1  0.08353500  0.68271800  0.22994600  1
  H  H13  1  0.86488400  0.37488100  0.23796000  1
  H  H14  1  0.74912800  0.33528700  0.31303700  1
  H  H15  1  0.01017000  0.22759800  0.27125100  1
  H  H16  1  0.13179700  0.88881000  0.27398700  1
  H  H17  1  0.84845300  0.22228900  0.40634000  1
  H  H18  1  0.83610300  0.49589600  0.38094600  1
  H  H19  1  0.56376800  0.61740000  0.44434800  1
  H  H20  1  0.34178900  0.33536800  0.46566800  1
  H  H21  1  0.36366300  0.94257600  0.35290300  1
  H  H22  1  0.63633700  0.05742400  0.64709700  1
  H  H23  1  0.65821100  0.66463200  0.53433200  1
  H  H24  1  0.43623200  0.38260000  0.55565200  1
  H  H25  1  0.16389700  0.50410400  0.61905400  1
  H  H26  1  0.15154700  0.77771100  0.59366000  1
  H  H27  1  0.86820300  0.11119000  0.72601300  1
  H  H28  1  0.98983000  0.77240200  0.72874900  1
  H  H29  1  0.25087200  0.66471300  0.68696300  1
  H  H30  1  0.13511600  0.62511900  0.76204000  1
  H  H31  1  0.91646500  0.31728200  0.77005400  1
  H  H32  1  0.41646500  0.68271800  0.72994600  1
  H  H33  1  0.63511600  0.37488100  0.73796000  1
  H  H34  1  0.75087200  0.33528700  0.81303700  1
  H  H35  1  0.48983000  0.22759800  0.77125100  1
  H  H36  1  0.36820300  0.88881000  0.77398700  1
  H  H37  1  0.65154700  0.22228900  0.90634000  1
  H  H38  1  0.66389700  0.49589600  0.88094600  1
  H  H39  1  0.93623200  0.61740000  0.94434800  1
  H  H40  1  0.15821100  0.33536800  0.96566800  1
  H  H41  1  0.13633700  0.94257600  0.85290300  1
  S  S42  1  0.62928600  0.76104400  0.06225300  1
  S  S43  1  0.12928600  0.23895600  0.43774700  1
  S  S44  1  0.87071400  0.76104400  0.56225300  1
  S  S45  1  0.37071400  0.23895600  0.93774700  1
  N  N46  1  0.32483200  0.64007000  0.16600100  1
  N  N47  1  0.82483200  0.35993000  0.33399900  1
  N  N48  1  0.17516800  0.64007000  0.66600100  1
  N  N49  1  0.67516800  0.35993000  0.83399900  1
  O  O50  1  0.42878900  0.25874500  0.06675600  1
  O  O51  1  0.91591700  0.67054900  0.03216800  1
  O  O52  1  0.92955200  0.12649200  0.14190400  1
  O  O53  1  0.71625600  0.61290400  0.08254400  1
  O  O54  1  0.65421200  0.98807500  0.07336400  1
  O  O55  1  0.12687700  0.80709700  0.19222300  1
  O  O56  1  0.56192800  0.66550800  0.20429200  1
  O  O57  1  0.06192800  0.33449200  0.29570800  1
  O  O58  1  0.62687700  0.19290300  0.30777700  1
  O  O59  1  0.15421200  0.01192500  0.42663600  1
  O  O60  1  0.21625600  0.38709600  0.41745600  1
  O  O61  1  0.42955200  0.87350800  0.35809600  1
  O  O62  1  0.41591700  0.32945100  0.46783200  1
  O  O63  1  0.07121100  0.25874500  0.56675600  1
  O  O64  1  0.92878900  0.74125500  0.43324400  1
  O  O65  1  0.58408300  0.67054900  0.53216800  1
  O  O66  1  0.57044800  0.12649200  0.64190400  1
  O  O67  1  0.78374400  0.61290400  0.58254400  1
  O  O68  1  0.84578800  0.98807500  0.57336400  1
  O  O69  1  0.37312300  0.80709700  0.69222300  1
  O  O70  1  0.93807200  0.66550800  0.70429200  1
  O  O71  1  0.43807200  0.33449200  0.79570800  1
  O  O72  1  0.87312300  0.19290300  0.80777700  1
  O  O73  1  0.34578800  0.01192500  0.92663600  1
  O  O74  1  0.28374400  0.38709600  0.91745600  1
  O  O75  1  0.07044800  0.87350800  0.85809600  1
  O  O76  1  0.08408300  0.32945100  0.96783200  1
  O  O77  1  0.57121100  0.74125500  0.93324400  1
