# generated using pymatgen
data_BiOF
_symmetry_space_group_name_H-M   'P 1'
_cell_length_a   7.20520814
_cell_length_b   7.20520814
_cell_length_c   7.20520863
_cell_angle_alpha   32.24177371
_cell_angle_beta   32.24177371
_cell_angle_gamma   32.24176933
_symmetry_Int_Tables_number   1
_chemical_formula_structural   BiOF
_chemical_formula_sum   'Bi2 O2 F2'
_cell_volume   94.62752155
_cell_formula_units_Z   2
loop_
 _symmetry_equiv_pos_site_id
 _symmetry_equiv_pos_as_xyz
  1  'x, y, z'
loop_
 _atom_site_type_symbol
 _atom_site_label
 _atom_site_symmetry_multiplicity
 _atom_site_fract_x
 _atom_site_fract_y
 _atom_site_fract_z
 _atom_site_occupancy
  Bi  Bi0  1  0.76093600  0.76093600  0.76093600  1
  Bi  Bi1  1  0.23906400  0.23906400  0.23906400  1
  O  O2  1  0.12805700  0.12805700  0.12805700  1
  O  O3  1  0.87194300  0.87194300  0.87194300  1
  F  F4  1  0.37757500  0.37757500  0.37757500  1
  F  F5  1  0.62242500  0.62242500  0.62242500  1
