# generated using pymatgen
data_Na8Fe5O14
_symmetry_space_group_name_H-M   'P 1'
_cell_length_a   8.40779500
_cell_length_b   8.64457587
_cell_length_c   10.57407939
_cell_angle_alpha   103.94215659
_cell_angle_beta   102.39367878
_cell_angle_gamma   112.83971547
_symmetry_Int_Tables_number   1
_chemical_formula_structural   Na8Fe5O14
_chemical_formula_sum   'Na16 Fe10 O28'
_cell_volume   645.33519719
_cell_formula_units_Z   2
loop_
 _symmetry_equiv_pos_site_id
 _symmetry_equiv_pos_as_xyz
  1  'x, y, z'
loop_
 _atom_site_type_symbol
 _atom_site_label
 _atom_site_symmetry_multiplicity
 _atom_site_fract_x
 _atom_site_fract_y
 _atom_site_fract_z
 _atom_site_occupancy
  Na  Na0  1  0.44742100  0.67282500  0.01613900  1
  Na  Na1  1  0.00000000  0.00000000  0.00000000  1
  Na  Na2  1  0.17711500  0.66404200  0.17347300  1
  Na  Na3  1  0.30364200  0.37354800  0.16565300  1
  Na  Na4  1  0.37285000  0.01231000  0.10747700  1
  Na  Na5  1  0.71212800  0.41830100  0.29472500  1
  Na  Na6  1  0.10906100  0.47659500  0.38199300  1
  Na  Na7  1  0.56246100  0.12664300  0.43520000  1
  Na  Na8  1  0.50000000  0.50000000  0.50000000  1
  Na  Na9  1  0.43753900  0.87335700  0.56480000  1
  Na  Na10  1  0.89093900  0.52340500  0.61800700  1
  Na  Na11  1  0.28787200  0.58169900  0.70527500  1
  Na  Na12  1  0.62715000  0.98769000  0.89252300  1
  Na  Na13  1  0.69635800  0.62645200  0.83434700  1
  Na  Na14  1  0.82288500  0.33595800  0.82652700  1
  Na  Na15  1  0.55257900  0.32717500  0.98386100  1
  Fe  Fe16  1  0.85848700  0.73028200  0.16120000  1
  Fe  Fe17  1  0.78561100  0.07056000  0.21704400  1
  Fe  Fe18  1  0.62773400  0.77592400  0.34873200  1
  Fe  Fe19  1  0.17898700  0.11047100  0.33262200  1
  Fe  Fe20  1  0.03626500  0.82799100  0.47114800  1
  Fe  Fe21  1  0.96373500  0.17200900  0.52885200  1
  Fe  Fe22  1  0.82101300  0.88952900  0.66737800  1
  Fe  Fe23  1  0.37226600  0.22407600  0.65126800  1
  Fe  Fe24  1  0.21438900  0.92944000  0.78295600  1
  Fe  Fe25  1  0.14151300  0.26971800  0.83880000  1
  O  O26  1  0.83005200  0.55845800  0.01255100  1
  O  O27  1  0.75367400  0.85624000  0.06493500  1
  O  O28  1  0.62737600  0.60312000  0.18835500  1
  O  O29  1  0.56356200  0.91186400  0.24108600  1
  O  O30  1  0.68233300  0.17105000  0.11767100  1
  O  O31  1  0.10327800  0.89819700  0.17607800  1
  O  O32  1  0.97627900  0.65150300  0.29758900  1
  O  O33  1  0.92104400  0.95476200  0.34942600  1
  O  O34  1  0.39812600  0.64353100  0.35163800  1
  O  O35  1  0.04125700  0.19800900  0.22701300  1
  O  O36  1  0.39370800  0.23390400  0.30827000  1
  O  O37  1  0.72513800  0.98527300  0.53057600  1
  O  O38  1  0.78097800  0.70561600  0.48539100  1
  O  O39  1  0.84989800  0.25942100  0.40627600  1
  O  O40  1  0.15010200  0.74057900  0.59372400  1
  O  O41  1  0.21902200  0.29438400  0.51460900  1
  O  O42  1  0.27486200  0.01472700  0.46942400  1
  O  O43  1  0.60629200  0.76609600  0.69173000  1
  O  O44  1  0.95874300  0.80199100  0.77298700  1
  O  O45  1  0.60187400  0.35646900  0.64836200  1
  O  O46  1  0.07895600  0.04523800  0.65057400  1
  O  O47  1  0.02372100  0.34849700  0.70241100  1
  O  O48  1  0.89672200  0.10180300  0.82392200  1
  O  O49  1  0.31766700  0.82895000  0.88232900  1
  O  O50  1  0.43643800  0.08813600  0.75891400  1
  O  O51  1  0.37262400  0.39688000  0.81164500  1
  O  O52  1  0.24632600  0.14376000  0.93506500  1
  O  O53  1  0.16994800  0.44154200  0.98744900  1
