# generated using pymatgen
data_Fe(PO3)3
_symmetry_space_group_name_H-M   'P 1'
_cell_length_a   6.37030600
_cell_length_b   9.95154800
_cell_length_c   10.99601900
_cell_angle_alpha   90.00000000
_cell_angle_beta   90.00000000
_cell_angle_gamma   90.00000000
_symmetry_Int_Tables_number   1
_chemical_formula_structural   Fe(PO3)3
_chemical_formula_sum   'Fe4 P12 O36'
_cell_volume   697.08609214
_cell_formula_units_Z   4
loop_
 _symmetry_equiv_pos_site_id
 _symmetry_equiv_pos_as_xyz
  1  'x, y, z'
loop_
 _atom_site_type_symbol
 _atom_site_label
 _atom_site_symmetry_multiplicity
 _atom_site_fract_x
 _atom_site_fract_y
 _atom_site_fract_z
 _atom_site_occupancy
  Fe  Fe0  1  0.00000000  0.00000000  0.00000000  1
  Fe  Fe1  1  0.50000000  0.00000000  0.50000000  1
  Fe  Fe2  1  0.00000000  0.50000000  0.50000000  1
  Fe  Fe3  1  0.50000000  0.50000000  0.00000000  1
  P  P4  1  0.75000000  0.91866400  0.75000000  1
  P  P5  1  0.36276500  0.78935500  0.86607200  1
  P  P6  1  0.13723500  0.78935500  0.63392800  1
  P  P7  1  0.86276500  0.71064500  0.13392800  1
  P  P8  1  0.63723500  0.71064500  0.36607200  1
  P  P9  1  0.25000000  0.58133600  0.25000000  1
  P  P10  1  0.75000000  0.41866400  0.75000000  1
  P  P11  1  0.36276500  0.28935500  0.63392800  1
  P  P12  1  0.13723500  0.28935500  0.86607200  1
  P  P13  1  0.63723500  0.21064500  0.13392800  1
  P  P14  1  0.86276500  0.21064500  0.36607200  1
  P  P15  1  0.25000000  0.08133600  0.25000000  1
  O  O16  1  0.15012700  0.99689800  0.15335600  1
  O  O17  1  0.34987300  0.99689800  0.34664400  1
  O  O18  1  0.24273200  0.91780300  0.59731200  1
  O  O19  1  0.25726800  0.91780300  0.90268800  1
  O  O20  1  0.61406500  0.81634500  0.46286600  1
  O  O21  1  0.88593500  0.81634500  0.03713400  1
  O  O22  1  0.59210200  0.81465500  0.80994000  1
  O  O23  1  0.90789800  0.81465500  0.69006000  1
  O  O24  1  0.75000000  0.77953200  0.25000000  1
  O  O25  1  0.25000000  0.72046800  0.75000000  1
  O  O26  1  0.09210200  0.68534500  0.19006000  1
  O  O27  1  0.40789800  0.68534500  0.30994000  1
  O  O28  1  0.11406500  0.68365500  0.53713400  1
  O  O29  1  0.38593500  0.68365500  0.96286600  1
  O  O30  1  0.75726800  0.58219700  0.09731200  1
  O  O31  1  0.74273200  0.58219700  0.40268800  1
  O  O32  1  0.84987300  0.50310200  0.65335600  1
  O  O33  1  0.65012700  0.50310200  0.84664400  1
  O  O34  1  0.34987300  0.49689800  0.15335600  1
  O  O35  1  0.15012700  0.49689800  0.34664400  1
  O  O36  1  0.25726800  0.41780300  0.59731200  1
  O  O37  1  0.24273200  0.41780300  0.90268800  1
  O  O38  1  0.61406500  0.31634500  0.03713400  1
  O  O39  1  0.88593500  0.31634500  0.46286600  1
  O  O40  1  0.59210200  0.31465500  0.69006000  1
  O  O41  1  0.90789800  0.31465500  0.80994000  1
  O  O42  1  0.75000000  0.27953200  0.25000000  1
  O  O43  1  0.25000000  0.22046800  0.75000000  1
  O  O44  1  0.40789800  0.18534500  0.19006000  1
  O  O45  1  0.09210200  0.18534500  0.30994000  1
  O  O46  1  0.38593500  0.18365500  0.53713400  1
  O  O47  1  0.11406500  0.18365500  0.96286600  1
  O  O48  1  0.74273200  0.08219700  0.09731200  1
  O  O49  1  0.75726800  0.08219700  0.40268800  1
  O  O50  1  0.65012700  0.00310200  0.65335600  1
  O  O51  1  0.84987300  0.00310200  0.84664400  1
