# generated using pymatgen
data_Na6Ti11O24
_symmetry_space_group_name_H-M   'P 1'
_cell_length_a   6.21517919
_cell_length_b   6.21517919
_cell_length_c   15.08421205
_cell_angle_alpha   88.95224322
_cell_angle_beta   88.95224322
_cell_angle_gamma   58.74314773
_symmetry_Int_Tables_number   1
_chemical_formula_structural   Na6Ti11O24
_chemical_formula_sum   'Na6 Ti11 O24'
_cell_volume   497.99402849
_cell_formula_units_Z   1
loop_
 _symmetry_equiv_pos_site_id
 _symmetry_equiv_pos_as_xyz
  1  'x, y, z'
loop_
 _atom_site_type_symbol
 _atom_site_label
 _atom_site_symmetry_multiplicity
 _atom_site_fract_x
 _atom_site_fract_y
 _atom_site_fract_z
 _atom_site_occupancy
  Na  Na0  1  0.66309800  0.66309800  0.91611600  1
  Na  Na1  1  0.66988900  0.66988900  0.66362900  1
  Na  Na2  1  0.83326400  0.83326400  0.45801400  1
  Na  Na3  1  0.33478900  0.33478900  0.58505500  1
  Na  Na4  1  0.33158700  0.33158700  0.33216800  1
  Na  Na5  1  0.99737000  0.99737000  0.25035700  1
  Ti  Ti6  1  0.16629400  0.66979200  0.79514900  1
  Ti  Ti7  1  0.33461300  0.33461300  0.96177400  1
  Ti  Ti8  1  0.66979200  0.16629400  0.79514900  1
  Ti  Ti9  1  0.33432000  0.83235800  0.45714300  1
  Ti  Ti10  1  0.16393600  0.16393600  0.79565000  1
  Ti  Ti11  1  0.00166700  0.00166700  0.61965700  1
  Ti  Ti12  1  0.83235800  0.33432000  0.45714300  1
  Ti  Ti13  1  0.66674700  0.66674700  0.29410000  1
  Ti  Ti14  1  0.00058100  0.49788400  0.12138400  1
  Ti  Ti15  1  0.50042300  0.50042300  0.12209000  1
  Ti  Ti16  1  0.49788400  0.00058100  0.12138400  1
  O  O17  1  0.86282500  0.86282500  0.71563100  1
  O  O18  1  0.28926900  0.86142500  0.72162100  1
  O  O19  1  0.47443000  0.47443000  0.86876500  1
  O  O20  1  0.05083500  0.47746700  0.86972600  1
  O  O21  1  0.47746700  0.05083500  0.86972600  1
  O  O22  1  0.33424500  0.33424500  0.72982700  1
  O  O23  1  0.16986400  0.72616800  0.54820800  1
  O  O24  1  0.49574700  0.94035700  0.36854300  1
  O  O25  1  0.86142500  0.28926900  0.72162100  1
  O  O26  1  0.64794200  0.64794200  0.52067300  1
  O  O27  1  0.99800200  0.99800200  0.85953200  1
  O  O28  1  0.94035700  0.49574700  0.36854300  1
  O  O29  1  0.51725200  0.51725200  0.38113100  1
  O  O30  1  0.38026400  0.80415200  0.19630300  1
  O  O31  1  0.72616800  0.16986400  0.54820800  1
  O  O32  1  0.80370400  0.80370400  0.20213100  1
  O  O33  1  0.14864500  0.14864500  0.53597600  1
  O  O34  1  0.80415200  0.38026400  0.19630300  1
  O  O35  1  0.66904200  0.66904200  0.05848100  1
  O  O36  1  0.01829400  0.01829400  0.39511900  1
  O  O37  1  0.18936300  0.61676600  0.04630100  1
  O  O38  1  0.33295900  0.33295900  0.18743900  1
  O  O39  1  0.61676600  0.18936300  0.04630100  1
  O  O40  1  0.19237100  0.19237100  0.04792600  1
