# generated using pymatgen
data_TiFe11O16
_symmetry_space_group_name_H-M   'P 1'
_cell_length_a   6.07363600
_cell_length_b   8.61537000
_cell_length_c   12.13420300
_cell_angle_alpha   90.00000000
_cell_angle_beta   90.00000000
_cell_angle_gamma   90.00000000
_symmetry_Int_Tables_number   1
_chemical_formula_structural   TiFe11O16
_chemical_formula_sum   'Ti2 Fe22 O32'
_cell_volume   634.94184619
_cell_formula_units_Z   2
loop_
 _symmetry_equiv_pos_site_id
 _symmetry_equiv_pos_as_xyz
  1  'x, y, z'
loop_
 _atom_site_type_symbol
 _atom_site_label
 _atom_site_symmetry_multiplicity
 _atom_site_fract_x
 _atom_site_fract_y
 _atom_site_fract_z
 _atom_site_occupancy
  Ti  Ti0  1  0.50000000  0.50000000  0.00000000  1
  Ti  Ti1  1  0.00000000  0.00000000  0.50000000  1
  Fe  Fe2  1  0.24931000  0.24954800  0.87474100  1
  Fe  Fe3  1  0.75069000  0.24954800  0.87474100  1
  Fe  Fe4  1  0.25069000  0.25045200  0.37474100  1
  Fe  Fe5  1  0.74931000  0.25045200  0.37474100  1
  Fe  Fe6  1  0.00000000  0.36990100  0.12525600  1
  Fe  Fe7  1  0.00000000  0.37196300  0.62502800  1
  Fe  Fe8  1  0.50000000  0.50302200  0.74386200  1
  Fe  Fe9  1  0.50000000  0.49697800  0.25613800  1
  Fe  Fe10  1  0.50000000  0.50000000  0.50000000  1
  Fe  Fe11  1  0.00000000  0.63009900  0.87474400  1
  Fe  Fe12  1  0.00000000  0.62803700  0.37497200  1
  Fe  Fe13  1  0.75069000  0.75045200  0.12525900  1
  Fe  Fe14  1  0.24931000  0.75045200  0.12525900  1
  Fe  Fe15  1  0.74931000  0.74954800  0.62525900  1
  Fe  Fe16  1  0.25069000  0.74954800  0.62525900  1
  Fe  Fe17  1  0.50000000  0.87196300  0.87497200  1
  Fe  Fe18  1  0.50000000  0.86990100  0.37474400  1
  Fe  Fe19  1  0.00000000  0.00000000  0.00000000  1
  Fe  Fe20  1  0.00000000  0.00302200  0.75613800  1
  Fe  Fe21  1  0.00000000  0.99697800  0.24386200  1
  Fe  Fe22  1  0.50000000  0.13009900  0.62525600  1
  Fe  Fe23  1  0.50000000  0.12803700  0.12502800  1
  O  O24  1  0.50000000  0.26178400  0.75392900  1
  O  O25  1  0.50000000  0.26971500  0.00038400  1
  O  O26  1  0.50000000  0.26159300  0.25125100  1
  O  O27  1  0.50000000  0.25299700  0.49523800  1
  O  O28  1  0.72944100  0.50284500  0.87914700  1
  O  O29  1  0.27055900  0.50284500  0.87914700  1
  O  O30  1  0.74152400  0.49968200  0.37028300  1
  O  O31  1  0.25847600  0.49968200  0.37028300  1
  O  O32  1  0.74152400  0.50031800  0.62971700  1
  O  O33  1  0.27055900  0.49715500  0.12085300  1
  O  O34  1  0.72944100  0.49715500  0.12085300  1
  O  O35  1  0.25847600  0.50031800  0.62971700  1
  O  O36  1  0.50000000  0.73028500  0.99961600  1
  O  O37  1  0.50000000  0.73840700  0.74874900  1
  O  O38  1  0.50000000  0.73821600  0.24607100  1
  O  O39  1  0.50000000  0.74700300  0.50476200  1
  O  O40  1  0.00000000  0.76178400  0.74607100  1
  O  O41  1  0.00000000  0.76159300  0.24874900  1
  O  O42  1  0.00000000  0.75299700  0.00476200  1
  O  O43  1  0.00000000  0.76971500  0.49961600  1
  O  O44  1  0.75847600  0.99968200  0.12971700  1
  O  O45  1  0.24152400  0.99968200  0.12971700  1
  O  O46  1  0.77055900  0.00284500  0.62085300  1
  O  O47  1  0.22944100  0.00284500  0.62085300  1
  O  O48  1  0.75847600  0.00031800  0.87028300  1
  O  O49  1  0.24152400  0.00031800  0.87028300  1
  O  O50  1  0.22944100  0.99715500  0.37914700  1
  O  O51  1  0.77055900  0.99715500  0.37914700  1
  O  O52  1  0.00000000  0.23028500  0.50038400  1
  O  O53  1  0.00000000  0.23840700  0.75125100  1
  O  O54  1  0.00000000  0.24700300  0.99523800  1
  O  O55  1  0.00000000  0.23821600  0.25392900  1
