# generated using pymatgen
data_Na2BiO3
_symmetry_space_group_name_H-M   'P 1'
_cell_length_a   5.87931728
_cell_length_b   5.87931728
_cell_length_c   5.88099153
_cell_angle_alpha   79.12836549
_cell_angle_beta   79.12836549
_cell_angle_gamma   117.92029098
_symmetry_Int_Tables_number   1
_chemical_formula_structural   Na2BiO3
_chemical_formula_sum   'Na4 Bi2 O6'
_cell_volume   167.17453080
_cell_formula_units_Z   2
loop_
 _symmetry_equiv_pos_site_id
 _symmetry_equiv_pos_as_xyz
  1  'x, y, z'
loop_
 _atom_site_type_symbol
 _atom_site_label
 _atom_site_symmetry_multiplicity
 _atom_site_fract_x
 _atom_site_fract_y
 _atom_site_fract_z
 _atom_site_occupancy
  Na  Na0  1  0.91786800  0.08213200  0.25000000  1
  Na  Na1  1  0.24452900  0.75547100  0.25000000  1
  Na  Na2  1  0.75547100  0.24452900  0.75000000  1
  Na  Na3  1  0.08213200  0.91786800  0.75000000  1
  Bi  Bi4  1  0.59093200  0.40906800  0.25000000  1
  Bi  Bi5  1  0.40906800  0.59093200  0.75000000  1
  O  O6  1  0.21883200  0.35522700  0.50153700  1
  O  O7  1  0.35522700  0.21883200  0.00153700  1
  O  O8  1  0.50000000  0.00000000  0.50000000  1
  O  O9  1  0.78116800  0.64477300  0.49846300  1
  O  O10  1  0.00000000  0.50000000  0.00000000  1
  O  O11  1  0.64477300  0.78116800  0.99846300  1
