# generated using pymatgen
data_Hf2N2O
_symmetry_space_group_name_H-M   'P 1'
_cell_length_a   7.01107057
_cell_length_b   7.01107057
_cell_length_c   8.19391503
_cell_angle_alpha   80.18130199
_cell_angle_beta   80.18130199
_cell_angle_gamma   26.98467196
_symmetry_Int_Tables_number   1
_chemical_formula_structural   Hf2N2O
_chemical_formula_sum   'Hf6 N6 O3'
_cell_volume   179.92668398
_cell_formula_units_Z   3
loop_
 _symmetry_equiv_pos_site_id
 _symmetry_equiv_pos_as_xyz
  1  'x, y, z'
loop_
 _atom_site_type_symbol
 _atom_site_label
 _atom_site_symmetry_multiplicity
 _atom_site_fract_x
 _atom_site_fract_y
 _atom_site_fract_z
 _atom_site_occupancy
  Hf  Hf0  1  0.03041100  0.03041100  0.19980100  1
  Hf  Hf1  1  0.63844700  0.63844700  0.52600800  1
  Hf  Hf2  1  0.69535700  0.69535700  0.86657600  1
  Hf  Hf3  1  0.30556200  0.30556200  0.13154100  1
  Hf  Hf4  1  0.36420600  0.36420600  0.47998000  1
  Hf  Hf5  1  0.96465600  0.96465600  0.81322000  1
  N  N6  1  0.53584500  0.53584500  0.35132700  1
  N  N7  1  0.16979800  0.16979800  0.03516200  1
  N  N8  1  0.12158300  0.12158300  0.70923500  1
  N  N9  1  0.79542000  0.79542000  0.62096700  1
  N  N10  1  0.87453400  0.87453400  0.27297800  1
  N  N11  1  0.82703100  0.82703100  0.96346000  1
  O  O12  1  0.21453700  0.21453700  0.38063100  1
  O  O13  1  0.46536000  0.46536000  0.66149200  1
  O  O14  1  0.49725200  0.49725200  0.98762400  1
