# generated using pymatgen
data_MnFeCo(PO4)3
_symmetry_space_group_name_H-M   'P 1'
_cell_length_a   5.98498000
_cell_length_b   9.83659600
_cell_length_c   14.59043713
_cell_angle_alpha   89.75249987
_cell_angle_beta   90.00000000
_cell_angle_gamma   90.00000000
_symmetry_Int_Tables_number   1
_chemical_formula_structural   MnFeCo(PO4)3
_chemical_formula_sum   'Mn4 Fe4 Co4 P12 O48'
_cell_volume   858.95772491
_cell_formula_units_Z   4
loop_
 _symmetry_equiv_pos_site_id
 _symmetry_equiv_pos_as_xyz
  1  'x, y, z'
loop_
 _atom_site_type_symbol
 _atom_site_label
 _atom_site_symmetry_multiplicity
 _atom_site_fract_x
 _atom_site_fract_y
 _atom_site_fract_z
 _atom_site_occupancy
  Mn  Mn0  1  0.00000000  0.21579500  0.48041900  1
  Mn  Mn1  1  0.00000000  0.21660800  0.81281100  1
  Mn  Mn2  1  0.50000000  0.28420800  0.64627700  1
  Mn  Mn3  1  0.50000000  0.28475700  0.97781100  1
  Fe  Fe4  1  0.00000000  0.22185300  0.15236700  1
  Fe  Fe5  1  0.50000000  0.27407600  0.31929400  1
  Fe  Fe6  1  0.00000000  0.72623500  0.01051500  1
  Fe  Fe7  1  0.00000000  0.72867100  0.34384900  1
  Co  Co8  1  0.00000000  0.72977800  0.67614900  1
  Co  Co9  1  0.50000000  0.77278200  0.84253900  1
  Co  Co10  1  0.50000000  0.77038600  0.51099800  1
  Co  Co11  1  0.50000000  0.77490000  0.17631600  1
  P  P12  1  0.50000000  0.09860500  0.80559000  1
  P  P13  1  0.50000000  0.09791600  0.13773800  1
  P  P14  1  0.50000000  0.09603800  0.47341400  1
  P  P15  1  0.00000000  0.39957800  0.30596900  1
  P  P16  1  0.00000000  0.40128900  0.97116700  1
  P  P17  1  0.00000000  0.40229400  0.63941700  1
  P  P18  1  0.50000000  0.60093300  0.36182700  1
  P  P19  1  0.50000000  0.59997000  0.02803900  1
  P  P20  1  0.50000000  0.60002100  0.69624500  1
  P  P21  1  0.00000000  0.90166500  0.52968600  1
  P  P22  1  0.00000000  0.90189200  0.19601700  1
  P  P23  1  0.00000000  0.90077300  0.86108000  1
  O  O24  1  0.00000000  0.05495700  0.55309900  1
  O  O25  1  0.00000000  0.05319500  0.21937000  1
  O  O26  1  0.00000000  0.05352900  0.88289700  1
  O  O27  1  0.50000000  0.11820700  0.24168900  1
  O  O28  1  0.50000000  0.11848300  0.57706700  1
  O  O29  1  0.50000000  0.11850200  0.90981400  1
  O  O30  1  0.29927900  0.16991200  0.75656100  1
  O  O31  1  0.70072100  0.16991200  0.75656100  1
  O  O32  1  0.29536900  0.16763500  0.09118900  1
  O  O33  1  0.70463100  0.16763500  0.09118900  1
  O  O34  1  0.30229600  0.17052600  0.42290200  1
  O  O35  1  0.69770400  0.17052600  0.42290200  1
  O  O36  1  0.79892300  0.32570100  0.25818100  1
  O  O37  1  0.20107700  0.32570100  0.25818100  1
  O  O38  1  0.79873700  0.32874800  0.92304400  1
  O  O39  1  0.20126300  0.32874800  0.92304400  1
  O  O40  1  0.79949300  0.33037700  0.59057200  1
  O  O41  1  0.20050700  0.33037700  0.59057200  1
  O  O42  1  0.00000000  0.37973000  0.07491700  1
  O  O43  1  0.00000000  0.37908300  0.41074000  1
  O  O44  1  0.00000000  0.38180000  0.74376400  1
  O  O45  1  0.50000000  0.44850000  0.38239000  1
  O  O46  1  0.50000000  0.44715400  0.05021600  1
  O  O47  1  0.50000000  0.44647500  0.71770600  1
  O  O48  1  0.00000000  0.55137000  0.28625600  1
  O  O49  1  0.00000000  0.55346800  0.94937400  1
  O  O50  1  0.00000000  0.55652500  0.62065600  1
  O  O51  1  0.50000000  0.62515600  0.25742900  1
  O  O52  1  0.50000000  0.62257000  0.59121900  1
  O  O53  1  0.50000000  0.62400600  0.92349200  1
  O  O54  1  0.29817200  0.67362900  0.41056800  1
  O  O55  1  0.70182800  0.67362900  0.41056800  1
  O  O56  1  0.29748400  0.67124000  0.07620200  1
  O  O57  1  0.70251600  0.67124000  0.07620200  1
  O  O58  1  0.29783100  0.67047100  0.74432200  1
  O  O59  1  0.70216900  0.67047100  0.74432200  1
  O  O60  1  0.79839100  0.83025600  0.57919400  1
  O  O61  1  0.20160900  0.83025600  0.57919400  1
  O  O62  1  0.79999400  0.82802400  0.24569300  1
  O  O63  1  0.20000600  0.82802400  0.24569300  1
  O  O64  1  0.79918700  0.83002400  0.91042200  1
  O  O65  1  0.20081300  0.83002400  0.91042200  1
  O  O66  1  0.00000000  0.87818300  0.75656100  1
  O  O67  1  0.00000000  0.88069200  0.09243400  1
  O  O68  1  0.00000000  0.88388500  0.42595900  1
  O  O69  1  0.50000000  0.94422100  0.78675200  1
  O  O70  1  0.50000000  0.94327800  0.45401700  1
  O  O71  1  0.50000000  0.94260300  0.11844400  1
