# generated using pymatgen
data_Ti19O30
_symmetry_space_group_name_H-M   'P 1'
_cell_length_a   5.10187000
_cell_length_b   5.52378193
_cell_length_c   21.14712698
_cell_angle_alpha   94.18454700
_cell_angle_beta   90.05918118
_cell_angle_gamma   117.47710998
_symmetry_Int_Tables_number   1
_chemical_formula_structural   Ti19O30
_chemical_formula_sum   'Ti19 O30'
_cell_volume   526.91792125
_cell_formula_units_Z   1
loop_
 _symmetry_equiv_pos_site_id
 _symmetry_equiv_pos_as_xyz
  1  'x, y, z'
loop_
 _atom_site_type_symbol
 _atom_site_label
 _atom_site_symmetry_multiplicity
 _atom_site_fract_x
 _atom_site_fract_y
 _atom_site_fract_z
 _atom_site_occupancy
  Ti  Ti0  1  0.51157700  0.04566000  0.93514100  1
  Ti  Ti1  1  0.81847000  0.62948900  0.83753400  1
  Ti  Ti2  1  0.41590600  0.83194200  0.63153900  1
  Ti  Ti3  1  0.28407400  0.56828600  0.46913400  1
  Ti  Ti4  1  0.31560400  0.63198400  0.33005900  1
  Ti  Ti5  1  0.38868700  0.77246400  0.77144800  1
  Ti  Ti6  1  0.11808400  0.23219600  0.73113200  1
  Ti  Ti7  1  0.08973200  0.17151800  0.86974200  1
  Ti  Ti8  1  0.98318800  0.96811400  0.56974200  1
  Ti  Ti9  1  0.91569100  0.82105900  0.12781800  1
  Ti  Ti10  1  0.01667400  0.03206800  0.43083100  1
  Ti  Ti11  1  0.88278200  0.77072500  0.26858700  1
  Ti  Ti12  1  0.61604000  0.23114900  0.23029800  1
  Ti  Ti13  1  0.71625600  0.43147900  0.53134600  1
  Ti  Ti14  1  0.68544100  0.37108200  0.67128200  1
  Ti  Ti15  1  0.58423800  0.16880100  0.36887300  1
  Ti  Ti16  1  0.18404400  0.37033300  0.16699100  1
  Ti  Ti17  1  0.48494000  0.97318700  0.06831000  1
  Ti  Ti18  1  0.21570500  0.43932600  0.02383500  1
  O  O19  1  0.16244300  0.70010900  0.55011400  1
  O  O20  1  0.51330700  0.35541000  0.88282000  1
  O  O21  1  0.10860600  0.84941500  0.90513500  1
  O  O22  1  0.67578800  0.03781800  0.71277900  1
  O  O23  1  0.73639600  0.16290000  0.58830100  1
  O  O24  1  0.64242600  0.90835900  0.85081600  1
  O  O25  1  0.43695400  0.50077400  0.24959500  1
  O  O26  1  0.96075900  0.27655500  0.94854600  1
  O  O27  1  0.76193500  0.90057300  0.35010900  1
  O  O28  1  0.66262400  0.63726400  0.61286400  1
  O  O29  1  0.06477200  0.43940000  0.81190200  1
  O  O30  1  0.86700000  0.04062400  0.21174400  1
  O  O31  1  0.12852800  0.56419500  0.68826400  1
  O  O32  1  0.72541900  0.76212300  0.48783500  1
  O  O33  1  0.43317300  0.21918100  0.01438700  1
  O  O34  1  0.27467100  0.23756000  0.51249800  1
  O  O35  1  0.87395100  0.43888800  0.31206800  1
  O  O36  1  0.50351300  0.77222500  0.98674500  1
  O  O37  1  0.12784100  0.95773800  0.78587500  1
  O  O38  1  0.33718200  0.36295800  0.38747600  1
  O  O39  1  0.94007700  0.56406900  0.18851400  1
  O  O40  1  0.23944300  0.10126900  0.64995700  1
  O  O41  1  0.05164200  0.68494800  0.05908400  1
  O  O42  1  0.56448600  0.50206900  0.75123200  1
  O  O43  1  0.36273600  0.10196300  0.15035500  1
  O  O44  1  0.26347800  0.83766200  0.41219100  1
  O  O45  1  0.92441400  0.15759300  0.08695600  1
  O  O46  1  0.32474400  0.96326100  0.28754500  1
  O  O47  1  0.48393800  0.63647600  0.11161000  1
  O  O48  1  0.83783100  0.30017000  0.45007500  1
