# generated using pymatgen
data_Mn12O7F17
_symmetry_space_group_name_H-M   'P 1'
_cell_length_a   5.34716600
_cell_length_b   5.39899328
_cell_length_c   15.22232268
_cell_angle_alpha   95.36893010
_cell_angle_beta   90.00024089
_cell_angle_gamma   92.82328407
_symmetry_Int_Tables_number   1
_chemical_formula_structural   Mn12O7F17
_chemical_formula_sum   'Mn12 O7 F17'
_cell_volume   436.99426003
_cell_formula_units_Z   1
loop_
 _symmetry_equiv_pos_site_id
 _symmetry_equiv_pos_as_xyz
  1  'x, y, z'
loop_
 _atom_site_type_symbol
 _atom_site_label
 _atom_site_symmetry_multiplicity
 _atom_site_fract_x
 _atom_site_fract_y
 _atom_site_fract_z
 _atom_site_occupancy
  Mn  Mn0  1  0.99821200  0.04297200  0.00998000  1
  Mn  Mn1  1  0.01784700  0.59757200  0.82183800  1
  Mn  Mn2  1  0.99120200  0.10547400  0.67014300  1
  Mn  Mn3  1  0.95477300  0.53804700  0.48927200  1
  Mn  Mn4  1  0.00086200  0.05879300  0.33224100  1
  Mn  Mn5  1  0.10823200  0.50161100  0.16536400  1
  Mn  Mn6  1  0.50455700  0.92420200  0.83610800  1
  Mn  Mn7  1  0.50481600  0.48152200  0.98745100  1
  Mn  Mn8  1  0.43268000  0.45764500  0.33470700  1
  Mn  Mn9  1  0.49412400  0.89501000  0.49815400  1
  Mn  Mn10  1  0.49440900  0.45993000  0.67623200  1
  Mn  Mn11  1  0.47165600  0.05517400  0.15941300  1
  O  O12  1  0.22258000  0.24266100  0.24398000  1
  O  O13  1  0.32693300  0.66505700  0.88998300  1
  O  O14  1  0.16851600  0.39101300  0.73110400  1
  O  O15  1  0.16870400  0.33035000  0.40595300  1
  O  O16  1  0.28978300  0.29543900  0.08043300  1
  O  O17  1  0.63491900  0.63706000  0.42551900  1
  O  O18  1  0.69948500  0.68089700  0.76553300  1
  F  F19  1  0.18860000  0.88673000  0.74269600  1
  F  F20  1  0.26076600  0.14855000  0.90337700  1
  F  F21  1  0.16116700  0.83559100  0.42214800  1
  F  F22  1  0.34032500  0.13998500  0.58504000  1
  F  F23  1  0.15193500  0.78317500  0.09090700  1
  F  F24  1  0.43061200  0.72107000  0.24215400  1
  F  F25  1  0.31830500  0.64160200  0.56968100  1
  F  F26  1  0.64116700  0.81885500  0.07219300  1
  F  F27  1  0.73563700  0.18949100  0.92577700  1
  F  F28  1  0.80909900  0.36546100  0.60081500  1
  F  F29  1  0.70008000  0.22669800  0.27030200  1
  F  F30  1  0.82519300  0.85183600  0.58101100  1
  F  F31  1  0.84895500  0.70209200  0.93079600  1
  F  F32  1  0.94105900  0.73331300  0.25326400  1
  F  F33  1  0.70438600  0.12831800  0.43520800  1
  F  F34  1  0.79682400  0.30551100  0.10159900  1
  F  F35  1  0.66160400  0.16129200  0.74962500  1
