# generated using pymatgen
data_MnFeCo(PO4)3
_symmetry_space_group_name_H-M   'P 1'
_cell_length_a   5.97461300
_cell_length_b   9.87103400
_cell_length_c   14.61498754
_cell_angle_alpha   89.95011754
_cell_angle_beta   90.00000000
_cell_angle_gamma   90.00000000
_symmetry_Int_Tables_number   1
_chemical_formula_structural   MnFeCo(PO4)3
_chemical_formula_sum   'Mn4 Fe4 Co4 P12 O48'
_cell_volume   861.92745023
_cell_formula_units_Z   4
loop_
 _symmetry_equiv_pos_site_id
 _symmetry_equiv_pos_as_xyz
  1  'x, y, z'
loop_
 _atom_site_type_symbol
 _atom_site_label
 _atom_site_symmetry_multiplicity
 _atom_site_fract_x
 _atom_site_fract_y
 _atom_site_fract_z
 _atom_site_occupancy
  Mn  Mn0  1  0.50000000  0.78329400  0.81279400  1
  Mn  Mn1  1  0.50000000  0.77926000  0.14805300  1
  Mn  Mn2  1  0.00000000  0.71728900  0.31393600  1
  Mn  Mn3  1  0.50000000  0.28257300  0.02005100  1
  Fe  Fe4  1  0.50000000  0.77683800  0.48781800  1
  Fe  Fe5  1  0.00000000  0.72550800  0.65495600  1
  Fe  Fe6  1  0.00000000  0.72288700  0.98717700  1
  Fe  Fe7  1  0.50000000  0.27446000  0.34483400  1
  Co  Co8  1  0.50000000  0.26719700  0.67438800  1
  Co  Co9  1  0.00000000  0.22723900  0.51086000  1
  Co  Co10  1  0.00000000  0.22473400  0.17865300  1
  Co  Co11  1  0.00000000  0.22252700  0.84730600  1
  P  P12  1  0.00000000  0.90222100  0.13955600  1
  P  P13  1  0.00000000  0.90562200  0.80528900  1
  P  P14  1  0.00000000  0.90325800  0.47236500  1
  P  P15  1  0.50000000  0.60002900  0.97348500  1
  P  P16  1  0.50000000  0.59684900  0.64053400  1
  P  P17  1  0.50000000  0.59834500  0.30564800  1
  P  P18  1  0.00000000  0.40209600  0.02802000  1
  P  P19  1  0.00000000  0.39765800  0.69686000  1
  P  P20  1  0.00000000  0.40255000  0.35980700  1
  P  P21  1  0.50000000  0.09801700  0.52891700  1
  P  P22  1  0.50000000  0.09752700  0.19271000  1
  P  P23  1  0.50000000  0.09966400  0.85897900  1
  O  O24  1  0.50000000  0.94556300  0.21512000  1
  O  O25  1  0.50000000  0.94720800  0.88279600  1
  O  O26  1  0.50000000  0.94736300  0.55323900  1
  O  O27  1  0.00000000  0.88267000  0.24334400  1
  O  O28  1  0.00000000  0.88170800  0.57614600  1
  O  O29  1  0.00000000  0.88274300  0.90833100  1
  O  O30  1  0.20447800  0.83222000  0.42577100  1
  O  O31  1  0.79552200  0.83222000  0.42577100  1
  O  O32  1  0.19841300  0.82826300  0.08950200  1
  O  O33  1  0.80158700  0.82826300  0.08950200  1
  O  O34  1  0.19813500  0.82756800  0.75602000  1
  O  O35  1  0.80186500  0.82756800  0.75602000  1
  O  O36  1  0.70054800  0.67096300  0.59205700  1
  O  O37  1  0.29945200  0.67096300  0.59205700  1
  O  O38  1  0.70427300  0.67111600  0.92701900  1
  O  O39  1  0.29572700  0.67111600  0.92701900  1
  O  O40  1  0.70121800  0.67196400  0.25742300  1
  O  O41  1  0.29878200  0.67196400  0.25742300  1
  O  O42  1  0.50000000  0.61897200  0.40934800  1
  O  O43  1  0.50000000  0.61650600  0.07867000  1
  O  O44  1  0.50000000  0.61828700  0.74492000  1
  O  O45  1  0.00000000  0.55218400  0.05350200  1
  O  O46  1  0.00000000  0.55045400  0.71515500  1
  O  O47  1  0.00000000  0.55415400  0.38510100  1
  O  O48  1  0.50000000  0.44706200  0.95224000  1
  O  O49  1  0.50000000  0.44383400  0.62123200  1
  O  O50  1  0.50000000  0.44697000  0.28226800  1
  O  O51  1  0.00000000  0.38295100  0.25514900  1
  O  O52  1  0.00000000  0.38312100  0.92450600  1
  O  O53  1  0.00000000  0.37478300  0.59148700  1
  O  O54  1  0.19905700  0.32657600  0.07815800  1
  O  O55  1  0.80094300  0.32657600  0.07815800  1
  O  O56  1  0.20275400  0.32933400  0.40764100  1
  O  O57  1  0.79724600  0.32933400  0.40764100  1
  O  O58  1  0.20127100  0.32659200  0.74550700  1
  O  O59  1  0.79872900  0.32659200  0.74550700  1
  O  O60  1  0.70096700  0.17014800  0.24183100  1
  O  O61  1  0.29903300  0.17014800  0.24183100  1
  O  O62  1  0.70086700  0.17278400  0.57753900  1
  O  O63  1  0.29913300  0.17278400  0.57753900  1
  O  O64  1  0.70574900  0.17052200  0.90541000  1
  O  O65  1  0.29425100  0.17052200  0.90541000  1
  O  O66  1  0.50000000  0.11828500  0.75425000  1
  O  O67  1  0.50000000  0.11855800  0.42522400  1
  O  O68  1  0.50000000  0.11583600  0.08788600  1
  O  O69  1  0.00000000  0.05797400  0.45188100  1
  O  O70  1  0.00000000  0.05500000  0.11842900  1
  O  O71  1  0.00000000  0.05461400  0.77792800  1
