# generated using pymatgen
data_Bi7(O2F3)3
_symmetry_space_group_name_H-M   'P 1'
_cell_length_a   21.02876218
_cell_length_b   21.02876218
_cell_length_c   5.83657000
_cell_angle_alpha   90.00000000
_cell_angle_beta   90.00000000
_cell_angle_gamma   164.00067708
_symmetry_Int_Tables_number   1
_chemical_formula_structural   Bi7(O2F3)3
_chemical_formula_sum   'Bi14 O12 F18'
_cell_volume   711.38596730
_cell_formula_units_Z   2
loop_
 _symmetry_equiv_pos_site_id
 _symmetry_equiv_pos_as_xyz
  1  'x, y, z'
loop_
 _atom_site_type_symbol
 _atom_site_label
 _atom_site_symmetry_multiplicity
 _atom_site_fract_x
 _atom_site_fract_y
 _atom_site_fract_z
 _atom_site_occupancy
  Bi  Bi0  1  0.95961100  0.61351200  0.70655400  1
  Bi  Bi1  1  0.11351200  0.45961100  0.70655400  1
  Bi  Bi2  1  0.22527100  0.28328200  0.74754100  1
  Bi  Bi3  1  0.78328200  0.72527100  0.74754100  1
  Bi  Bi4  1  0.44217100  0.94217100  0.74157400  1
  Bi  Bi5  1  0.61102000  0.81460200  0.69284700  1
  Bi  Bi6  1  0.31460200  0.11102000  0.69284700  1
  Bi  Bi7  1  0.81460200  0.61102000  0.30715300  1
  Bi  Bi8  1  0.11102000  0.31460200  0.30715300  1
  Bi  Bi9  1  0.94217100  0.44217100  0.25842600  1
  Bi  Bi10  1  0.72527100  0.78328200  0.25245900  1
  Bi  Bi11  1  0.28328200  0.22527100  0.25245900  1
  Bi  Bi12  1  0.61351200  0.95961100  0.29344600  1
  Bi  Bi13  1  0.45961100  0.11351200  0.29344600  1
  O  O14  1  0.98302500  0.98302500  0.00000000  1
  O  O15  1  0.48302500  0.48302500  0.00000000  1
  O  O16  1  0.86785500  0.16017000  0.52222900  1
  O  O17  1  0.66017000  0.36785500  0.52222900  1
  O  O18  1  0.89544800  0.04252300  0.50735500  1
  O  O19  1  0.54252300  0.39544800  0.50735500  1
  O  O20  1  0.50532500  0.50532500  0.50000000  1
  O  O21  1  0.00532500  0.00532500  0.50000000  1
  O  O22  1  0.04252300  0.89544800  0.49264500  1
  O  O23  1  0.39544800  0.54252300  0.49264500  1
  O  O24  1  0.36785500  0.66017000  0.47777100  1
  O  O25  1  0.16017000  0.86785500  0.47777100  1
  F  F26  1  0.53219100  0.66090700  0.95172300  1
  F  F27  1  0.16090700  0.03219100  0.95172300  1
  F  F28  1  0.22581600  0.48835200  0.91801500  1
  F  F29  1  0.98835200  0.72581600  0.91801500  1
  F  F30  1  0.08650800  0.58650800  0.89206200  1
  F  F31  1  0.34345600  0.95011400  0.87348400  1
  F  F32  1  0.45011400  0.84345600  0.87348400  1
  F  F33  1  0.76385700  0.19945400  0.53904500  1
  F  F34  1  0.69945400  0.26385700  0.53904500  1
  F  F35  1  0.26385700  0.69945400  0.46095500  1
  F  F36  1  0.19945400  0.76385700  0.46095500  1
  F  F37  1  0.95011400  0.34345600  0.12651600  1
  F  F38  1  0.84345600  0.45011400  0.12651600  1
  F  F39  1  0.58650800  0.08650800  0.10793800  1
  F  F40  1  0.72581600  0.98835200  0.08198500  1
  F  F41  1  0.48835200  0.22581600  0.08198500  1
  F  F42  1  0.03219100  0.16090700  0.04827700  1
  F  F43  1  0.66090700  0.53219100  0.04827700  1
