# generated using pymatgen
data_Sr15Pd5O24
_symmetry_space_group_name_H-M   'P 1'
_cell_length_a   6.91871363
_cell_length_b   6.91871363
_cell_length_c   13.82475956
_cell_angle_alpha   89.81625838
_cell_angle_beta   89.81625838
_cell_angle_gamma   90.15241342
_symmetry_Int_Tables_number   1
_chemical_formula_structural   Sr15Pd5O24
_chemical_formula_sum   'Sr15 Pd5 O24'
_cell_volume   661.76269702
_cell_formula_units_Z   1
loop_
 _symmetry_equiv_pos_site_id
 _symmetry_equiv_pos_as_xyz
  1  'x, y, z'
loop_
 _atom_site_type_symbol
 _atom_site_label
 _atom_site_symmetry_multiplicity
 _atom_site_fract_x
 _atom_site_fract_y
 _atom_site_fract_z
 _atom_site_occupancy
  Sr  Sr0  1  0.24939700  0.37973200  0.81628600  1
  Sr  Sr1  1  0.25044100  0.39227700  0.32008300  1
  Sr  Sr2  1  0.38026400  0.24929300  0.06685600  1
  Sr  Sr3  1  0.38064600  0.25068600  0.56368200  1
  Sr  Sr4  1  0.12188100  0.88226000  0.74458100  1
  Sr  Sr5  1  0.11774000  0.87811900  0.25541900  1
  Sr  Sr6  1  0.75079700  0.25053200  0.75024100  1
  Sr  Sr7  1  0.24934600  0.75065400  0.00000000  1
  Sr  Sr8  1  0.74946800  0.24920300  0.24975900  1
  Sr  Sr9  1  0.89086000  0.10914000  0.50000000  1
  Sr  Sr10  1  0.88168200  0.11831800  0.00000000  1
  Sr  Sr11  1  0.62026800  0.75060300  0.18371400  1
  Sr  Sr12  1  0.60772300  0.74955900  0.67991700  1
  Sr  Sr13  1  0.75070700  0.61973600  0.93314400  1
  Sr  Sr14  1  0.74931400  0.61935400  0.43631800  1
  Pd  Pd15  1  0.00068200  0.50109400  0.62404500  1
  Pd  Pd16  1  0.49890600  0.99931800  0.37595500  1
  Pd  Pd17  1  0.50018000  0.99987000  0.87451800  1
  Pd  Pd18  1  0.25116000  0.74884000  0.50000000  1
  Pd  Pd19  1  0.00013000  0.49982000  0.12548200  1
  O  O20  1  0.07405500  0.44188700  0.98180300  1
  O  O21  1  0.07775300  0.45175000  0.48271200  1
  O  O22  1  0.05869100  0.21620300  0.66107000  1
  O  O23  1  0.05816600  0.21360700  0.16193600  1
  O  O24  1  0.21359500  0.05860000  0.91091300  1
  O  O25  1  0.21583000  0.04813100  0.41513600  1
  O  O26  1  0.71421800  0.42770100  0.09560400  1
  O  O27  1  0.57229900  0.28578200  0.90439600  1
  O  O28  1  0.57376400  0.28430800  0.40390100  1
  O  O29  1  0.71569200  0.42623600  0.59609900  1
  O  O30  1  0.44267200  0.07545400  0.73197800  1
  O  O31  1  0.44079300  0.07079000  0.23274500  1
  O  O32  1  0.55811300  0.92594500  0.01819700  1
  O  O33  1  0.54825000  0.92224700  0.51728800  1
  O  O34  1  0.42059600  0.71656900  0.35376600  1
  O  O35  1  0.42609500  0.71282200  0.84384300  1
  O  O36  1  0.28717800  0.57390500  0.15615700  1
  O  O37  1  0.28343100  0.57940400  0.64623400  1
  O  O38  1  0.78639300  0.94183400  0.83806400  1
  O  O39  1  0.78379700  0.94130900  0.33893000  1
  O  O40  1  0.95186900  0.78417000  0.58486400  1
  O  O41  1  0.94140000  0.78640500  0.08908700  1
  O  O42  1  0.92454600  0.55732800  0.26802200  1
  O  O43  1  0.92921000  0.55920700  0.76725500  1
