# generated using pymatgen
data_MnCr3O8
_symmetry_space_group_name_H-M   'P 1'
_cell_length_a   5.83705464
_cell_length_b   5.88945556
_cell_length_c   8.88549502
_cell_angle_alpha   89.99795176
_cell_angle_beta   90.00107438
_cell_angle_gamma   120.29741493
_symmetry_Int_Tables_number   1
_chemical_formula_structural   MnCr3O8
_chemical_formula_sum   'Mn2 Cr6 O16'
_cell_volume   263.73744294
_cell_formula_units_Z   2
loop_
 _symmetry_equiv_pos_site_id
 _symmetry_equiv_pos_as_xyz
  1  'x, y, z'
loop_
 _atom_site_type_symbol
 _atom_site_label
 _atom_site_symmetry_multiplicity
 _atom_site_fract_x
 _atom_site_fract_y
 _atom_site_fract_z
 _atom_site_occupancy
  Mn  Mn0  1  0.32625500  0.66314900  0.48337700  1
  Mn  Mn1  1  0.67374500  0.33689400  0.98337700  1
  Cr  Cr2  1  0.16324700  0.83248500  0.20222800  1
  Cr  Cr3  1  0.16316800  0.33077900  0.20223100  1
  Cr  Cr4  1  0.65693000  0.82841600  0.21856000  1
  Cr  Cr5  1  0.34307200  0.17148600  0.71856000  1
  Cr  Cr6  1  0.83675300  0.66923700  0.70222900  1
  Cr  Cr7  1  0.83683400  0.16761300  0.70223100  1
  O  O8  1  0.16120700  0.82284200  0.60482300  1
  O  O9  1  0.04955500  0.52478000  0.33677500  1
  O  O10  1  0.34546200  0.67276100  0.09810000  1
  O  O11  1  0.98990200  0.99494800  0.31069100  1
  O  O12  1  0.01009800  0.00504600  0.81069100  1
  O  O13  1  0.16125100  0.33837600  0.60482300  1
  O  O14  1  0.47180900  0.95016000  0.34316500  1
  O  O15  1  0.47176300  0.52162800  0.34317300  1
  O  O16  1  0.34594300  0.17302100  0.10991600  1
  O  O17  1  0.65405700  0.82707900  0.60991600  1
  O  O18  1  0.52819000  0.47834900  0.84316400  1
  O  O19  1  0.52823600  0.04986500  0.84317300  1
  O  O20  1  0.65453800  0.32729900  0.59810000  1
  O  O21  1  0.83879200  0.66163500  0.10482300  1
  O  O22  1  0.95044500  0.47522500  0.83677500  1
  O  O23  1  0.83874900  0.17712500  0.10482300  1
