# generated using pymatgen
data_Li5V3P8O29
_symmetry_space_group_name_H-M   'P 1'
_cell_length_a   9.78232400
_cell_length_b   9.79095389
_cell_length_c   13.87226529
_cell_angle_alpha   89.75321777
_cell_angle_beta   89.84638794
_cell_angle_gamma   60.07344353
_symmetry_Int_Tables_number   1
_chemical_formula_structural   Li5V3P8O29
_chemical_formula_sum   'Li10 V6 P16 O58'
_cell_volume   1151.49454784
_cell_formula_units_Z   2
loop_
 _symmetry_equiv_pos_site_id
 _symmetry_equiv_pos_as_xyz
  1  'x, y, z'
loop_
 _atom_site_type_symbol
 _atom_site_label
 _atom_site_symmetry_multiplicity
 _atom_site_fract_x
 _atom_site_fract_y
 _atom_site_fract_z
 _atom_site_occupancy
  Li  Li0  1  0.91027500  0.31831000  0.56028400  1
  Li  Li1  1  0.32527300  0.77130800  0.56094700  1
  Li  Li2  1  0.66462800  0.66396700  0.88248000  1
  Li  Li3  1  0.31829200  0.90937800  0.05920900  1
  Li  Li4  1  0.91374800  0.77336700  0.06013900  1
  Li  Li5  1  0.76967600  0.90530800  0.56205700  1
  Li  Li6  1  0.09222000  0.22679000  0.93982800  1
  Li  Li7  1  0.67665700  0.09670800  0.93992800  1
  Li  Li8  1  0.67735900  0.22980500  0.43989600  1
  Li  Li9  1  0.09460100  0.67795500  0.44084900  1
  V  V10  1  0.42758600  0.00552500  0.25607100  1
  V  V11  1  0.56576600  0.00211300  0.74706900  1
  V  V12  1  0.99983800  0.43266000  0.74857800  1
  V  V13  1  0.00091200  0.56436900  0.24899500  1
  V  V14  1  0.56914800  0.43342200  0.24362600  1
  V  V15  1  0.42849800  0.56562900  0.75545800  1
  P  P16  1  0.77144000  0.31551300  0.84287700  1
  P  P17  1  0.91017300  0.31812100  0.34219400  1
  P  P18  1  0.32031400  0.76594600  0.34186000  1
  P  P19  1  0.66331800  0.67188500  0.12758800  1
  P  P20  1  0.66517500  0.66635500  0.62614700  1
  P  P21  1  0.31904000  0.91068500  0.84312000  1
  P  P22  1  0.22991000  0.08489900  0.65662700  1
  P  P23  1  0.90912300  0.77097300  0.84351300  1
  P  P24  1  0.08791400  0.22955900  0.15761000  1
  P  P25  1  0.76959100  0.91149400  0.34207500  1
  P  P26  1  0.67949600  0.08824200  0.15849200  1
  P  P27  1  0.33655500  0.33489800  0.37292600  1
  P  P28  1  0.33368900  0.33012700  0.87513600  1
  P  P29  1  0.68054400  0.23465400  0.65661900  1
  P  P30  1  0.08656300  0.68298900  0.65863300  1
  P  P31  1  0.23033300  0.68495100  0.15650900  1
  O  O32  1  0.75888600  0.24279800  0.56562500  1
  O  O33  1  0.74219700  0.33792100  0.33577000  1
  O  O34  1  0.00839200  0.23537600  0.06573900  1
  O  O35  1  0.92008900  0.33505200  0.84127800  1
  O  O36  1  0.62518300  0.48379200  0.82675400  1
  O  O37  1  0.66555100  0.52138400  0.17076200  1
  O  O38  1  0.47841600  0.61466100  0.32296100  1
  O  O39  1  0.24322300  0.76693300  0.07027600  1
  O  O40  1  0.33841400  0.74453100  0.83987900  1
  O  O41  1  0.81595200  0.51284900  0.66763000  1
  O  O42  1  0.90010900  0.47919300  0.32135500  1
  O  O43  1  0.51501800  0.66897400  0.66944400  1
  O  O44  1  0.66252200  0.66994700  0.01917300  1
  O  O45  1  0.66691900  0.66650900  0.51870500  1
  O  O46  1  0.51193300  0.81900900  0.16724800  1
  O  O47  1  0.88730500  0.62604000  0.82444400  1
  O  O48  1  0.81479100  0.67215900  0.16571600  1
  O  O49  1  0.34329400  0.91113000  0.33589500  1
  O  O50  1  0.20754200  0.00549600  0.75386300  1
  O  O51  1  0.24079400  0.99063900  0.57096500  1
  O  O52  1  0.24424300  0.00202800  0.93281300  1
  O  O53  1  0.48573300  0.89056800  0.82495900  1
  O  O54  1  0.67221600  0.81460000  0.66672900  1
  O  O55  1  0.25682800  0.08276500  0.16384300  1
  O  O56  1  0.61847700  0.90273300  0.32359200  1
  O  O57  1  0.91724500  0.74527700  0.34107700  1
  O  O58  1  0.00006400  0.20869600  0.25019500  1
  O  O59  1  0.98982800  0.24340600  0.43407100  1
  O  O60  1  0.99652400  0.75989200  0.56813600  1
  O  O61  1  0.08437700  0.25241800  0.65860100  1
  O  O62  1  0.38332300  0.09254300  0.67612700  1
  O  O63  1  0.74165200  0.92085900  0.83874400  1
  O  O64  1  0.33361800  0.18730200  0.32790900  1
  O  O65  1  0.52162600  0.09407100  0.17768000  1
  O  O66  1  0.75715300  0.00035700  0.06785900  1
  O  O67  1  0.75655700  0.00096600  0.43270800  1
  O  O68  1  0.79322800  0.99866000  0.24983600  1
  O  O69  1  0.66593800  0.08348400  0.65936000  1
  O  O70  1  0.18367500  0.33097400  0.83336700  1
  O  O71  1  0.09678700  0.38154400  0.17670400  1
  O  O72  1  0.48545400  0.18318000  0.83217000  1
  O  O73  1  0.33643200  0.32949800  0.98207100  1
  O  O74  1  0.34162200  0.32896100  0.48022600  1
  O  O75  1  0.48804100  0.32985600  0.32995600  1
  O  O76  1  0.09526700  0.52254500  0.67640300  1
  O  O77  1  0.18519700  0.48657800  0.33306200  1
  O  O78  1  0.65712500  0.25542500  0.16310300  1
  O  O79  1  0.79300300  0.21419400  0.74621300  1
  O  O80  1  0.76104300  0.23067700  0.92829300  1
  O  O81  1  0.52088900  0.38375400  0.67548300  1
  O  O82  1  0.33570200  0.47866500  0.82824300  1
  O  O83  1  0.38188500  0.52341900  0.17628700  1
  O  O84  1  0.08386100  0.66291700  0.15871400  1
  O  O85  1  0.99387100  0.76131800  0.93374600  1
  O  O86  1  0.99784400  0.79089100  0.75057200  1
  O  O87  1  0.25242900  0.66470700  0.65915800  1
  O  O88  1  0.24386200  0.75686800  0.43378200  1
  O  O89  1  0.20522500  0.78887700  0.25311800  1
