# generated using pymatgen
data_NaLi2NiPCO7
_symmetry_space_group_name_H-M   'P 1'
_cell_length_a   5.06800742
_cell_length_b   13.14252206
_cell_length_c   8.46254777
_cell_angle_alpha   90.01039722
_cell_angle_beta   84.89932110
_cell_angle_gamma   89.99937998
_symmetry_Int_Tables_number   1
_chemical_formula_structural   NaLi2NiPCO7
_chemical_formula_sum   'Na4 Li8 Ni4 P4 C4 O28'
_cell_volume   561.42774067
_cell_formula_units_Z   4
loop_
 _symmetry_equiv_pos_site_id
 _symmetry_equiv_pos_as_xyz
  1  'x, y, z'
loop_
 _atom_site_type_symbol
 _atom_site_label
 _atom_site_symmetry_multiplicity
 _atom_site_fract_x
 _atom_site_fract_y
 _atom_site_fract_z
 _atom_site_occupancy
  Na  Na0  1  0.27198000  0.01083500  0.26684000  1
  Na  Na1  1  0.27197800  0.51089200  0.26689900  1
  Na  Na2  1  0.72783400  0.26099400  0.73317900  1
  Na  Na3  1  0.72794300  0.76101000  0.73314300  1
  Li  Li4  1  0.78607400  0.13690000  0.10217200  1
  Li  Li5  1  0.78617000  0.63685600  0.10213800  1
  Li  Li6  1  0.21391600  0.38688300  0.89787600  1
  Li  Li7  1  0.21394200  0.88692200  0.89777600  1
  Li  Li8  1  0.26376900  0.24741800  0.27684600  1
  Li  Li9  1  0.26396500  0.74739000  0.27685500  1
  Li  Li10  1  0.73618000  0.99753100  0.72318100  1
  Li  Li11  1  0.73618100  0.49756000  0.72322100  1
  Ni  Ni12  1  0.79002500  0.87569200  0.33657400  1
  Ni  Ni13  1  0.21021900  0.62575700  0.66328900  1
  Ni  Ni14  1  0.78971900  0.37571000  0.33678300  1
  Ni  Ni15  1  0.21013200  0.12577800  0.66323100  1
  P  P16  1  0.73008300  0.12807200  0.41173000  1
  P  P17  1  0.73018000  0.62803500  0.41170400  1
  P  P18  1  0.26980100  0.37803700  0.58830600  1
  P  P19  1  0.26989700  0.87803500  0.58824500  1
  C  C20  1  0.68911700  0.38209900  0.04736200  1
  C  C21  1  0.68914000  0.88212000  0.04726600  1
  C  C22  1  0.31081600  0.13207100  0.95268400  1
  C  C23  1  0.31098900  0.63206500  0.95270700  1
  O  O24  1  0.38898100  0.14447300  0.09258600  1
  O  O25  1  0.38914300  0.64442800  0.09262300  1
  O  O26  1  0.61098800  0.39457500  0.90746800  1
  O  O27  1  0.61100700  0.89463300  0.90738400  1
  O  O28  1  0.93754900  0.38142600  0.07397100  1
  O  O29  1  0.93760500  0.88148000  0.07389100  1
  O  O30  1  0.06237400  0.13145300  0.92606400  1
  O  O31  1  0.06254900  0.63143900  0.92610200  1
  O  O32  1  0.51466400  0.36981600  0.16955900  1
  O  O33  1  0.51476700  0.86981400  0.16947600  1
  O  O34  1  0.48522900  0.11990100  0.83043200  1
  O  O35  1  0.48538100  0.61987000  0.83045000  1
  O  O36  1  0.79772000  0.03416600  0.30284500  1
  O  O37  1  0.79766700  0.53415600  0.30287600  1
  O  O38  1  0.20219600  0.28425100  0.69723600  1
  O  O39  1  0.20224900  0.78424200  0.69728100  1
  O  O40  1  0.84370400  0.21927200  0.30881800  1
  O  O41  1  0.84381400  0.71926300  0.30869500  1
  O  O42  1  0.15616200  0.46934800  0.69118400  1
  O  O43  1  0.15631300  0.96934000  0.69105900  1
  O  O44  1  0.14860000  0.37068200  0.42795400  1
  O  O45  1  0.14871100  0.87061600  0.42792700  1
  O  O46  1  0.85126500  0.12079200  0.57209500  1
  O  O47  1  0.85136900  0.62080700  0.57203100  1
  O  O48  1  0.42317600  0.13944800  0.44355300  1
  O  O49  1  0.42324000  0.63947700  0.44358800  1
  O  O50  1  0.57671000  0.38942800  0.55645100  1
  O  O51  1  0.57683700  0.88936700  0.55634900  1
