# generated using pymatgen
data_Na8(NiO2)9
_symmetry_space_group_name_H-M   'P 1'
_cell_length_a   7.59193092
_cell_length_b   7.08358554
_cell_length_c   8.06400494
_cell_angle_alpha   89.67194296
_cell_angle_beta   66.05005093
_cell_angle_gamma   66.06612595
_symmetry_Int_Tables_number   1
_chemical_formula_structural   Na8(NiO2)9
_chemical_formula_sum   'Na8 Ni9 O18'
_cell_volume   355.63033442
_cell_formula_units_Z   1
loop_
 _symmetry_equiv_pos_site_id
 _symmetry_equiv_pos_as_xyz
  1  'x, y, z'
loop_
 _atom_site_type_symbol
 _atom_site_label
 _atom_site_symmetry_multiplicity
 _atom_site_fract_x
 _atom_site_fract_y
 _atom_site_fract_z
 _atom_site_occupancy
  Na  Na0  1  0.88768800  0.78904600  0.78932800  1
  Na  Na1  1  0.42477900  0.89177300  0.89674100  1
  Na  Na2  1  0.77826000  0.55393600  0.55561300  1
  Na  Na3  1  0.32164800  0.68185500  0.67806300  1
  Na  Na4  1  0.67835200  0.31814500  0.32193700  1
  Na  Na5  1  0.22174000  0.44606400  0.44438800  1
  Na  Na6  1  0.57522100  0.10822700  0.10325900  1
  Na  Na7  1  0.11231200  0.21095400  0.21067200  1
  Ni  Ni8  1  0.94657400  0.88250300  0.38822600  1
  Ni  Ni9  1  0.71932800  0.44938700  0.94741400  1
  Ni  Ni10  1  0.83244500  0.66589500  0.16667300  1
  Ni  Ni11  1  0.61570700  0.22139300  0.71622600  1
  Ni  Ni12  1  0.38429300  0.77860700  0.28377400  1
  Ni  Ni13  1  0.16755500  0.33410500  0.83332700  1
  Ni  Ni14  1  0.50000000  0.00000000  0.50000000  1
  Ni  Ni15  1  0.28067200  0.55061300  0.05258600  1
  Ni  Ni16  1  0.05342600  0.11749700  0.61177400  1
  O  O17  1  0.96603000  0.43163700  0.73141900  1
  O  O18  1  0.69766900  0.90734600  0.60468300  1
  O  O19  1  0.80790600  0.14147400  0.82490000  1
  O  O20  1  0.75130200  0.95483400  0.27835300  1
  O  O21  1  0.52526800  0.53367700  0.83592300  1
  O  O22  1  0.86136100  0.19844800  0.49943800  1
  O  O23  1  0.56258400  0.71151400  0.40852100  1
  O  O24  1  0.10239000  0.61599100  0.92983800  1
  O  O25  1  0.37140600  0.23749900  0.93316500  1
  O  O26  1  0.89761000  0.38400900  0.07016200  1
  O  O27  1  0.62859400  0.76250100  0.06683500  1
  O  O28  1  0.43741600  0.28848600  0.59147900  1
  O  O29  1  0.13863900  0.80155200  0.50056200  1
  O  O30  1  0.19209400  0.85852600  0.17510000  1
  O  O31  1  0.47473200  0.46632300  0.16407700  1
  O  O32  1  0.24869800  0.04516600  0.72164700  1
  O  O33  1  0.30233100  0.09265400  0.39531700  1
  O  O34  1  0.03397000  0.56836300  0.26858100  1
