# generated using pymatgen
data_V2F7
_symmetry_space_group_name_H-M   'P 1'
_cell_length_a   4.75438200
_cell_length_b   8.29578500
_cell_length_c   12.79913663
_cell_angle_alpha   87.41496284
_cell_angle_beta   90.00000000
_cell_angle_gamma   90.00000000
_symmetry_Int_Tables_number   1
_chemical_formula_structural   V2F7
_chemical_formula_sum   'V8 F28'
_cell_volume   504.30127406
_cell_formula_units_Z   4
loop_
 _symmetry_equiv_pos_site_id
 _symmetry_equiv_pos_as_xyz
  1  'x, y, z'
loop_
 _atom_site_type_symbol
 _atom_site_label
 _atom_site_symmetry_multiplicity
 _atom_site_fract_x
 _atom_site_fract_y
 _atom_site_fract_z
 _atom_site_occupancy
  V  V0  1  0.77778900  0.82953200  0.97417000  1
  V  V1  1  0.24866300  0.83791500  0.54185500  1
  V  V2  1  0.26867800  0.66855700  0.17862200  1
  V  V3  1  0.77646300  0.55527800  0.39019700  1
  V  V4  1  0.27646300  0.44472200  0.60980300  1
  V  V5  1  0.76867800  0.33144300  0.82137800  1
  V  V6  1  0.74866300  0.16208500  0.45814500  1
  V  V7  1  0.27778900  0.17046800  0.02583000  1
  F  F8  1  0.47870000  0.98512800  0.44570200  1
  F  F9  1  0.97632200  0.85361000  0.85894600  1
  F  F10  1  0.03988600  0.98447000  0.04316100  1
  F  F11  1  0.48145900  0.87163100  0.64992900  1
  F  F12  1  0.08692700  0.83677500  0.22303800  1
  F  F13  1  0.52831500  0.70444200  0.91425000  1
  F  F14  1  0.01347800  0.73519100  0.42903600  1
  F  F15  1  0.55331100  0.80188400  0.10692700  1
  F  F16  1  0.50616100  0.67762300  0.30412900  1
  F  F17  1  0.07934000  0.64413100  0.63175100  1
  F  F18  1  0.50574300  0.60208800  0.51227100  1
  F  F19  1  0.94671400  0.50557500  0.86103100  1
  F  F20  1  0.02148600  0.67341200  0.05173400  1
  F  F21  1  0.51220500  0.47027100  0.73559000  1
  F  F22  1  0.01220500  0.52972900  0.26441000  1
  F  F23  1  0.52148600  0.32658800  0.94826600  1
  F  F24  1  0.44671400  0.49442500  0.13896900  1
  F  F25  1  0.00574300  0.39791200  0.48772900  1
  F  F26  1  0.57934000  0.35586900  0.36824900  1
  F  F27  1  0.00616100  0.32237700  0.69587100  1
  F  F28  1  0.05331100  0.19811600  0.89307300  1
  F  F29  1  0.51347800  0.26480900  0.57096400  1
  F  F30  1  0.02831500  0.29555800  0.08575000  1
  F  F31  1  0.58692700  0.16322500  0.77696200  1
  F  F32  1  0.98145900  0.12836900  0.35007100  1
  F  F33  1  0.53988600  0.01553000  0.95683900  1
  F  F34  1  0.47632200  0.14639000  0.14105400  1
  F  F35  1  0.97870000  0.01487200  0.55429800  1
