# generated using pymatgen
data_Na8Fe7(PO4)8
_symmetry_space_group_name_H-M   'P 1'
_cell_length_a   8.09152703
_cell_length_b   8.09152703
_cell_length_c   11.52262051
_cell_angle_alpha   74.44077360
_cell_angle_beta   74.44077360
_cell_angle_gamma   102.85885612
_symmetry_Int_Tables_number   1
_chemical_formula_structural   Na8Fe7(PO4)8
_chemical_formula_sum   'Na8 Fe7 P8 O32'
_cell_volume   663.95129199
_cell_formula_units_Z   1
loop_
 _symmetry_equiv_pos_site_id
 _symmetry_equiv_pos_as_xyz
  1  'x, y, z'
loop_
 _atom_site_type_symbol
 _atom_site_label
 _atom_site_symmetry_multiplicity
 _atom_site_fract_x
 _atom_site_fract_y
 _atom_site_fract_z
 _atom_site_occupancy
  Na  Na0  1  0.75740900  0.51129400  0.48444700  1
  Na  Na1  1  0.51129400  0.75740900  0.48444700  1
  Na  Na2  1  0.24856500  0.99673700  0.50267200  1
  Na  Na3  1  0.99673700  0.24856500  0.50267200  1
  Na  Na4  1  0.23777000  0.99541900  0.00256000  1
  Na  Na5  1  0.99541900  0.23777000  0.00256000  1
  Na  Na6  1  0.50957700  0.74887800  0.00561400  1
  Na  Na7  1  0.74887800  0.50957700  0.00561400  1
  Fe  Fe8  1  0.26445500  0.26445500  0.21690700  1
  Fe  Fe9  1  0.22681600  0.72668100  0.28639800  1
  Fe  Fe10  1  0.72668100  0.22681600  0.28639800  1
  Fe  Fe11  1  0.27553400  0.27553400  0.71312600  1
  Fe  Fe12  1  0.77594100  0.77594100  0.71253900  1
  Fe  Fe13  1  0.24379600  0.74398300  0.78370200  1
  Fe  Fe14  1  0.74398300  0.24379600  0.78370200  1
  P  P15  1  0.52625000  0.03899500  0.11201700  1
  P  P16  1  0.03899500  0.52625000  0.11201700  1
  P  P17  1  0.90762300  0.90762300  0.39136200  1
  P  P18  1  0.39383600  0.39383600  0.39977500  1
  P  P19  1  0.10454800  0.60169200  0.60554500  1
  P  P20  1  0.60169200  0.10454800  0.60554500  1
  P  P21  1  0.96294500  0.96294500  0.88653700  1
  P  P22  1  0.46145600  0.46145600  0.89133100  1
  O  O23  1  0.44268500  0.44268500  0.03293100  1
  O  O24  1  0.93987200  0.93987200  0.02534800  1
  O  O25  1  0.67812600  0.17722300  0.12813000  1
  O  O26  1  0.17722300  0.67812600  0.12813000  1
  O  O27  1  0.49294100  0.83571000  0.18926300  1
  O  O28  1  0.33305200  0.05147200  0.17277000  1
  O  O29  1  0.83571000  0.49294100  0.18926300  1
  O  O30  1  0.05147200  0.33305200  0.17277000  1
  O  O31  1  0.26793200  0.46789000  0.32605200  1
  O  O32  1  0.46789000  0.26793200  0.32605200  1
  O  O33  1  0.98834700  0.78197800  0.32646000  1
  O  O34  1  0.78197800  0.98834700  0.32646000  1
  O  O35  1  0.54036900  0.54036900  0.40269100  1
  O  O36  1  0.06108400  0.06108400  0.39021200  1
  O  O37  1  0.72028900  0.22508800  0.46053100  1
  O  O38  1  0.22508800  0.72028900  0.46053100  1
  O  O39  1  0.26282300  0.26282300  0.53613200  1
  O  O40  1  0.78280900  0.78280900  0.53165500  1
  O  O41  1  0.45134900  0.94815700  0.60830300  1
  O  O42  1  0.94815700  0.45134900  0.60830300  1
  O  O43  1  0.53565700  0.23402200  0.67217900  1
  O  O44  1  0.04292000  0.73266800  0.67217900  1
  O  O45  1  0.23402200  0.53565700  0.67217900  1
  O  O46  1  0.73266800  0.04292000  0.67217900  1
  O  O47  1  0.96378600  0.16024400  0.81428300  1
  O  O48  1  0.16024400  0.96378600  0.81428300  1
  O  O49  1  0.65809100  0.46119800  0.82341900  1
  O  O50  1  0.46119800  0.65809100  0.82341900  1
  O  O51  1  0.31244200  0.31244200  0.88464200  1
  O  O52  1  0.81442700  0.81442700  0.87555400  1
  O  O53  1  0.56231000  0.06282000  0.96925900  1
  O  O54  1  0.06282000  0.56231000  0.96925900  1
