# generated using pymatgen
data_LiMnVP2(HO5)2
_symmetry_space_group_name_H-M   'P 1'
_cell_length_a   5.33892587
_cell_length_b   10.45463694
_cell_length_c   7.41128847
_cell_angle_alpha   110.39989183
_cell_angle_beta   111.86957199
_cell_angle_gamma   84.95893669
_symmetry_Int_Tables_number   1
_chemical_formula_structural   LiMnVP2(HO5)2
_chemical_formula_sum   'Li2 Mn2 V2 P4 H4 O20'
_cell_volume   359.40570126
_cell_formula_units_Z   2
loop_
 _symmetry_equiv_pos_site_id
 _symmetry_equiv_pos_as_xyz
  1  'x, y, z'
loop_
 _atom_site_type_symbol
 _atom_site_label
 _atom_site_symmetry_multiplicity
 _atom_site_fract_x
 _atom_site_fract_y
 _atom_site_fract_z
 _atom_site_occupancy
  Li  Li0  1  0.58978900  0.03256300  0.18464000  1
  Li  Li1  1  0.41021100  0.46743700  0.31536000  1
  Mn  Mn2  1  0.99452600  0.99740000  0.99154500  1
  Mn  Mn3  1  0.00547400  0.50260000  0.50845500  1
  V  V4  1  0.00000000  0.75000000  0.25000000  1
  V  V5  1  0.00000000  0.25000000  0.75000000  1
  P  P6  1  0.64591100  0.27567400  0.05093900  1
  P  P7  1  0.64659800  0.77718500  0.54530300  1
  P  P8  1  0.35408900  0.22432600  0.44906100  1
  P  P9  1  0.35340200  0.72281500  0.95469700  1
  H  H10  1  0.93863300  0.49606800  0.15360800  1
  H  H11  1  0.96662000  0.99274100  0.65285500  1
  H  H12  1  0.06136700  0.00393200  0.34639200  1
  H  H13  1  0.03338000  0.50725900  0.84714500  1
  O  O14  1  0.95155900  0.93563800  0.21272200  1
  O  O15  1  0.65698200  0.68571800  0.04332900  1
  O  O16  1  0.81497800  0.83479800  0.45408900  1
  O  O17  1  0.97337200  0.42924600  0.71422100  1
  O  O18  1  0.74677100  0.35972000  0.28552200  1
  O  O19  1  0.75396100  0.84900600  0.78085100  1
  O  O20  1  0.65790900  0.62283300  0.48736000  1
  O  O21  1  0.34209100  0.87716700  0.01264000  1
  O  O22  1  0.65504400  0.18307100  0.52706500  1
  O  O23  1  0.81010100  0.32624500  0.95040900  1
  O  O24  1  0.18502200  0.66520200  0.04591100  1
  O  O25  1  0.34301800  0.81428200  0.45667100  1
  O  O26  1  0.66392500  0.12357400  0.01525100  1
  O  O27  1  0.33607500  0.37642600  0.48474900  1
  O  O28  1  0.25322900  0.14028000  0.21447800  1
  O  O29  1  0.24603900  0.65099400  0.71914900  1
  O  O30  1  0.04844100  0.56436200  0.28727800  1
  O  O31  1  0.18989900  0.17375500  0.54959100  1
  O  O32  1  0.34495600  0.31692900  0.97293500  1
  O  O33  1  0.02662800  0.07075400  0.78577900  1
