# generated using pymatgen
data_VF4
_symmetry_space_group_name_H-M   'P 1'
_cell_length_a   7.44152100
_cell_length_b   7.67582900
_cell_length_c   10.77958300
_cell_angle_alpha   90.00000000
_cell_angle_beta   90.00000000
_cell_angle_gamma   90.00000000
_symmetry_Int_Tables_number   1
_chemical_formula_structural   VF4
_chemical_formula_sum   'V8 F32'
_cell_volume   615.72808529
_cell_formula_units_Z   8
loop_
 _symmetry_equiv_pos_site_id
 _symmetry_equiv_pos_as_xyz
  1  'x, y, z'
loop_
 _atom_site_type_symbol
 _atom_site_label
 _atom_site_symmetry_multiplicity
 _atom_site_fract_x
 _atom_site_fract_y
 _atom_site_fract_z
 _atom_site_occupancy
  V  V0  1  0.99983600  0.60701800  0.24627200  1
  V  V1  1  0.50016400  0.60701800  0.24627200  1
  V  V2  1  0.00016400  0.10701800  0.25372800  1
  V  V3  1  0.49983600  0.10701800  0.25372800  1
  V  V4  1  0.99983600  0.89298200  0.74627200  1
  V  V5  1  0.50016400  0.89298200  0.74627200  1
  V  V6  1  0.49983600  0.39298200  0.75372800  1
  V  V7  1  0.00016400  0.39298200  0.75372800  1
  F  F8  1  0.06036400  0.62739600  0.08836500  1
  F  F9  1  0.43963600  0.62739600  0.08836500  1
  F  F10  1  0.06521900  0.09383400  0.09659100  1
  F  F11  1  0.43478100  0.09383400  0.09659100  1
  F  F12  1  0.75000000  0.56053600  0.19524400  1
  F  F13  1  0.75000000  0.15443900  0.20483800  1
  F  F14  1  0.44637400  0.35834300  0.24670000  1
  F  F15  1  0.05362600  0.35834300  0.24670000  1
  F  F16  1  0.94637400  0.85834300  0.25330000  1
  F  F17  1  0.55362600  0.85834300  0.25330000  1
  F  F18  1  0.25000000  0.65443900  0.29516200  1
  F  F19  1  0.25000000  0.06053600  0.30475600  1
  F  F20  1  0.93478100  0.59383400  0.40340900  1
  F  F21  1  0.56521900  0.59383400  0.40340900  1
  F  F22  1  0.93963600  0.12739600  0.41163500  1
  F  F23  1  0.56036400  0.12739600  0.41163500  1
  F  F24  1  0.06036400  0.87260400  0.58836500  1
  F  F25  1  0.43963600  0.87260400  0.58836500  1
  F  F26  1  0.06521900  0.40616600  0.59659100  1
  F  F27  1  0.43478100  0.40616600  0.59659100  1
  F  F28  1  0.75000000  0.93946400  0.69524400  1
  F  F29  1  0.75000000  0.34556100  0.70483800  1
  F  F30  1  0.05362600  0.14165700  0.74670000  1
  F  F31  1  0.44637400  0.14165700  0.74670000  1
  F  F32  1  0.55362600  0.64165700  0.75330000  1
  F  F33  1  0.94637400  0.64165700  0.75330000  1
  F  F34  1  0.25000000  0.84556100  0.79516200  1
  F  F35  1  0.25000000  0.43946400  0.80475600  1
  F  F36  1  0.56521900  0.90616600  0.90340900  1
  F  F37  1  0.93478100  0.90616600  0.90340900  1
  F  F38  1  0.56036400  0.37260400  0.91163500  1
  F  F39  1  0.93963600  0.37260400  0.91163500  1
