# generated using pymatgen
data_VF5
_symmetry_space_group_name_H-M   'P 1'
_cell_length_a   7.49960600
_cell_length_b   6.56777300
_cell_length_c   14.89730122
_cell_angle_alpha   84.09927071
_cell_angle_beta   90.00000000
_cell_angle_gamma   90.00000000
_symmetry_Int_Tables_number   1
_chemical_formula_structural   VF5
_chemical_formula_sum   'V8 F40'
_cell_volume   729.88923388
_cell_formula_units_Z   8
loop_
 _symmetry_equiv_pos_site_id
 _symmetry_equiv_pos_as_xyz
  1  'x, y, z'
loop_
 _atom_site_type_symbol
 _atom_site_label
 _atom_site_symmetry_multiplicity
 _atom_site_fract_x
 _atom_site_fract_y
 _atom_site_fract_z
 _atom_site_occupancy
  V  V0  1  0.68733200  0.82956500  0.62380500  1
  V  V1  1  0.81266800  0.82956500  0.12380500  1
  V  V2  1  0.62662200  0.50087900  0.84620700  1
  V  V3  1  0.12662200  0.49912100  0.65379300  1
  V  V4  1  0.87337800  0.50087900  0.34620700  1
  V  V5  1  0.37337800  0.49912100  0.15379300  1
  V  V6  1  0.18733200  0.17043500  0.87619500  1
  V  V7  1  0.31266800  0.17043500  0.37619500  1
  F  F8  1  0.01010800  0.99892300  0.89080800  1
  F  F9  1  0.80597500  0.95663500  0.70392100  1
  F  F10  1  0.48989200  0.99892300  0.39080800  1
  F  F11  1  0.81443100  0.93581700  0.53276400  1
  F  F12  1  0.69402500  0.95663500  0.20392100  1
  F  F13  1  0.68556900  0.93581700  0.03276400  1
  F  F14  1  0.52558500  0.70157500  0.89805000  1
  F  F15  1  0.16578200  0.67790500  0.73219200  1
  F  F16  1  0.56953300  0.68491000  0.72990200  1
  F  F17  1  0.97441500  0.70157500  0.39805000  1
  F  F18  1  0.83642600  0.61556800  0.83958800  1
  F  F19  1  0.18061200  0.66005800  0.55741100  1
  F  F20  1  0.58993300  0.64054500  0.56257900  1
  F  F21  1  0.33421800  0.67790500  0.23219200  1
  F  F22  1  0.93046700  0.68491000  0.22990200  1
  F  F23  1  0.88223200  0.61238400  0.64793800  1
  F  F24  1  0.66357400  0.61556800  0.33958800  1
  F  F25  1  0.31938800  0.66005800  0.05741100  1
  F  F26  1  0.91006700  0.64054500  0.06257900  1
  F  F27  1  0.61776800  0.61238400  0.14793800  1
  F  F28  1  0.38223200  0.38761600  0.85206200  1
  F  F29  1  0.08993300  0.35945500  0.93742100  1
  F  F30  1  0.68061200  0.33994200  0.94258900  1
  F  F31  1  0.33642600  0.38443200  0.66041200  1
  F  F32  1  0.11776800  0.38761600  0.35206200  1
  F  F33  1  0.06953300  0.31509000  0.77009800  1
  F  F34  1  0.66578200  0.32209500  0.76780800  1
  F  F35  1  0.41006700  0.35945500  0.43742100  1
  F  F36  1  0.81938800  0.33994200  0.44258900  1
  F  F37  1  0.16357400  0.38443200  0.16041200  1
  F  F38  1  0.02558500  0.29842500  0.60195000  1
  F  F39  1  0.43046700  0.31509000  0.27009800  1
  F  F40  1  0.83421800  0.32209500  0.26780800  1
  F  F41  1  0.47441500  0.29842500  0.10195000  1
  F  F42  1  0.31443100  0.06418300  0.96723600  1
  F  F43  1  0.30597500  0.04336500  0.79607900  1
  F  F44  1  0.18556900  0.06418300  0.46723600  1
  F  F45  1  0.51010800  0.00107700  0.60919200  1
  F  F46  1  0.19402500  0.04336500  0.29607900  1
  F  F47  1  0.98989200  0.00107700  0.10919200  1
