# generated using pymatgen
data_Na2CuP2O7
_symmetry_space_group_name_H-M   'P 1'
_cell_length_a   8.83294935
_cell_length_b   8.83294935
_cell_length_c   9.00653904
_cell_angle_alpha   66.22644423
_cell_angle_beta   66.22644423
_cell_angle_gamma   33.96792520
_symmetry_Int_Tables_number   1
_chemical_formula_structural   Na2CuP2O7
_chemical_formula_sum   'Na4 Cu2 P4 O14'
_cell_volume   356.03616566
_cell_formula_units_Z   2
loop_
 _symmetry_equiv_pos_site_id
 _symmetry_equiv_pos_as_xyz
  1  'x, y, z'
loop_
 _atom_site_type_symbol
 _atom_site_label
 _atom_site_symmetry_multiplicity
 _atom_site_fract_x
 _atom_site_fract_y
 _atom_site_fract_z
 _atom_site_occupancy
  Na  Na0  1  0.83093900  0.55489200  0.43238400  1
  Na  Na1  1  0.55489200  0.83093900  0.93238400  1
  Na  Na2  1  0.44510800  0.16906100  0.06761600  1
  Na  Na3  1  0.16906100  0.44510800  0.56761600  1
  Cu  Cu4  1  0.50000000  0.50000000  0.50000000  1
  Cu  Cu5  1  0.50000000  0.50000000  0.00000000  1
  P  P6  1  0.94655300  0.23736700  0.18790600  1
  P  P7  1  0.23736700  0.94655300  0.68790600  1
  P  P8  1  0.76263300  0.05344700  0.31209400  1
  P  P9  1  0.05344700  0.76263300  0.81209400  1
  O  O10  1  0.21394400  0.11850500  0.12228100  1
  O  O11  1  0.11850500  0.21394400  0.62228100  1
  O  O12  1  0.75447100  0.42786400  0.05719300  1
  O  O13  1  0.80359500  0.37941900  0.34023900  1
  O  O14  1  0.42786400  0.75447100  0.55719300  1
  O  O15  1  0.37941900  0.80359500  0.84023900  1
  O  O16  1  0.01521300  0.98478700  0.25000000  1
  O  O17  1  0.98478700  0.01521300  0.75000000  1
  O  O18  1  0.62058100  0.19640500  0.15976100  1
  O  O19  1  0.57213600  0.24552900  0.44280700  1
  O  O20  1  0.19640500  0.62058100  0.65976100  1
  O  O21  1  0.24552900  0.57213600  0.94280700  1
  O  O22  1  0.88149500  0.78605600  0.37771900  1
  O  O23  1  0.78605600  0.88149500  0.87771900  1
