# generated using pymatgen
data_Li2VO3F
_symmetry_space_group_name_H-M   'P 1'
_cell_length_a   7.22921076
_cell_length_b   7.14606255
_cell_length_c   7.14970392
_cell_angle_alpha   109.33441184
_cell_angle_beta   108.79008361
_cell_angle_gamma   110.49551489
_symmetry_Int_Tables_number   1
_chemical_formula_structural   Li2VO3F
_chemical_formula_sum   'Li8 V4 O12 F4'
_cell_volume   283.55513833
_cell_formula_units_Z   4
loop_
 _symmetry_equiv_pos_site_id
 _symmetry_equiv_pos_as_xyz
  1  'x, y, z'
loop_
 _atom_site_type_symbol
 _atom_site_label
 _atom_site_symmetry_multiplicity
 _atom_site_fract_x
 _atom_site_fract_y
 _atom_site_fract_z
 _atom_site_occupancy
  Li  Li0  1  0.25513700  0.74726600  0.75533100  1
  Li  Li1  1  0.48252700  0.48041400  0.75094200  1
  Li  Li2  1  0.47688400  0.76228100  0.47350200  1
  Li  Li3  1  0.73120700  0.73727600  0.24566200  1
  Li  Li4  1  0.71019000  0.23489800  0.70273200  1
  Li  Li5  1  0.51060100  0.24470900  0.00433800  1
  Li  Li6  1  0.00869600  0.54045100  0.27392800  1
  Li  Li7  1  0.99052400  0.25520900  0.50305000  1
  V  V8  1  0.01948400  0.02696000  0.74699900  1
  V  V9  1  0.27442700  0.27944100  0.26735700  1
  V  V10  1  0.75507100  0.02707100  0.01863700  1
  V  V11  1  0.97094300  0.70973100  0.96440800  1
  O  O12  1  0.99991400  0.52362300  0.77036200  1
  O  O13  1  0.23748500  0.23348600  0.76176100  1
  O  O14  1  0.24592600  0.47207200  0.46982800  1
  O  O15  1  0.54085200  0.98894100  0.77864300  1
  O  O16  1  0.21919700  0.00050700  0.99912700  1
  O  O17  1  0.47400700  0.46675900  0.24414000  1
  O  O18  1  0.78086100  0.76602500  0.77890200  1
  O  O19  1  0.78456700  0.99421000  0.53751300  1
  O  O20  1  0.00853600  0.22675200  0.00331000  1
  O  O21  1  0.76428100  0.51671600  0.99590900  1
  O  O22  1  0.77000500  0.24076100  0.22950600  1
  O  O23  1  0.98420600  0.99720600  0.21599900  1
  F  F24  1  0.01013900  0.76543500  0.52942600  1
  F  F25  1  0.21634800  0.75498000  0.23783400  1
  F  F26  1  0.46798800  0.24543300  0.49040400  1
  F  F27  1  0.52461900  0.75402400  0.99242000  1
