# generated using pymatgen
data_V3(O2F)2
_symmetry_space_group_name_H-M   'P 1'
_cell_length_a   4.65991700
_cell_length_b   5.54468073
_cell_length_c   7.73046239
_cell_angle_alpha   94.36229220
_cell_angle_beta   90.61804305
_cell_angle_gamma   90.16406469
_symmetry_Int_Tables_number   1
_chemical_formula_structural   V3(O2F)2
_chemical_formula_sum   'V6 O8 F4'
_cell_volume   199.14618920
_cell_formula_units_Z   2
loop_
 _symmetry_equiv_pos_site_id
 _symmetry_equiv_pos_as_xyz
  1  'x, y, z'
loop_
 _atom_site_type_symbol
 _atom_site_label
 _atom_site_symmetry_multiplicity
 _atom_site_fract_x
 _atom_site_fract_y
 _atom_site_fract_z
 _atom_site_occupancy
  V  V0  1  0.45995600  0.85066500  0.34766200  1
  V  V1  1  0.50000000  0.50000000  0.00000000  1
  V  V2  1  0.54004400  0.14933500  0.65233800  1
  V  V3  1  0.00048500  0.33160700  0.31653500  1
  V  V4  1  0.99951500  0.66839300  0.68346500  1
  V  V5  1  0.00000000  0.00000000  0.00000000  1
  O  O6  1  0.20753000  0.69746400  0.91333100  1
  O  O7  1  0.19958000  0.03660800  0.22570300  1
  O  O8  1  0.31188300  0.54035500  0.23448900  1
  O  O9  1  0.29388600  0.86670400  0.57386600  1
  O  O10  1  0.70611400  0.13329600  0.42613400  1
  O  O11  1  0.68811700  0.45964500  0.76551100  1
  O  O12  1  0.80042000  0.96339200  0.77429700  1
  O  O13  1  0.79247000  0.30253600  0.08666900  1
  F  F14  1  0.19877300  0.36134100  0.56232500  1
  F  F15  1  0.30243400  0.20391700  0.88982400  1
  F  F16  1  0.69756600  0.79608300  0.11017600  1
  F  F17  1  0.80122700  0.63865900  0.43767500  1
