# generated using pymatgen
data_V6F13
_symmetry_space_group_name_H-M   'P 1'
_cell_length_a   8.12772000
_cell_length_b   8.17500622
_cell_length_c   10.58373959
_cell_angle_alpha   72.19743382
_cell_angle_beta   75.68331330
_cell_angle_gamma   61.91100398
_symmetry_Int_Tables_number   1
_chemical_formula_structural   V6F13
_chemical_formula_sum   'V12 F26'
_cell_volume   586.20604568
_cell_formula_units_Z   2
loop_
 _symmetry_equiv_pos_site_id
 _symmetry_equiv_pos_as_xyz
  1  'x, y, z'
loop_
 _atom_site_type_symbol
 _atom_site_label
 _atom_site_symmetry_multiplicity
 _atom_site_fract_x
 _atom_site_fract_y
 _atom_site_fract_z
 _atom_site_occupancy
  V  V0  1  0.95512900  0.92625300  0.75428000  1
  V  V1  1  0.86565600  0.71999900  0.49816100  1
  V  V2  1  0.78123200  0.57508300  0.97785000  1
  V  V3  1  0.42011100  0.84453000  0.49803400  1
  V  V4  1  0.67806200  0.36758300  0.75143800  1
  V  V5  1  0.75858700  0.50269500  0.27223400  1
  V  V6  1  0.24141300  0.49730500  0.72776600  1
  V  V7  1  0.32193800  0.63241700  0.24856200  1
  V  V8  1  0.57988900  0.15547000  0.50196600  1
  V  V9  1  0.21876800  0.42491700  0.02215000  1
  V  V10  1  0.13434400  0.28000100  0.50183900  1
  V  V11  1  0.04487100  0.07374700  0.24572000  1
  F  F12  1  0.83745900  0.99503900  0.38607400  1
  F  F13  1  0.76499300  0.83069900  0.87001600  1
  F  F14  1  0.60337400  0.87663400  0.59829500  1
  F  F15  1  0.68558800  0.70502500  0.38719800  1
  F  F16  1  0.63246400  0.54384700  0.86444300  1
  F  F17  1  0.25933900  0.83841900  0.36211700  1
  F  F18  1  0.88454900  0.44513100  0.61380400  1
  F  F19  1  0.17040800  0.68670600  0.85571200  1
  F  F20  1  0.94763900  0.57824000  0.11523400  1
  F  F21  1  0.46608700  0.57154900  0.62419500  1
  F  F22  1  0.55369700  0.68223800  0.13883700  1
  F  F23  1  0.12070700  0.86063100  0.14986600  1
  F  F24  1  0.02196000  0.73126300  0.62875500  1
  F  F25  1  0.97804000  0.26873700  0.37124500  1
  F  F26  1  0.87929300  0.13936900  0.85013400  1
  F  F27  1  0.44630300  0.31776200  0.86116300  1
  F  F28  1  0.53391300  0.42845100  0.37580500  1
  F  F29  1  0.05236100  0.42176000  0.88476600  1
  F  F30  1  0.82959200  0.31329400  0.14428800  1
  F  F31  1  0.11545100  0.55486900  0.38619600  1
  F  F32  1  0.74066100  0.16158100  0.63788300  1
  F  F33  1  0.36753600  0.45615300  0.13555700  1
  F  F34  1  0.31441200  0.29497500  0.61280200  1
  F  F35  1  0.39662600  0.12336600  0.40170500  1
  F  F36  1  0.23500700  0.16930100  0.12998400  1
  F  F37  1  0.16254100  0.00496100  0.61392600  1
