# generated using pymatgen
data_NaLi2CoPCO7
_symmetry_space_group_name_H-M   'P 1'
_cell_length_a   8.33260373
_cell_length_b   8.52704782
_cell_length_c   8.33072373
_cell_angle_alpha   86.90672590
_cell_angle_beta   75.19653321
_cell_angle_gamma   93.05640785
_symmetry_Int_Tables_number   1
_chemical_formula_structural   NaLi2CoPCO7
_chemical_formula_sum   'Na4 Li8 Co4 P4 C4 O28'
_cell_volume   570.05580200
_cell_formula_units_Z   4
loop_
 _symmetry_equiv_pos_site_id
 _symmetry_equiv_pos_as_xyz
  1  'x, y, z'
loop_
 _atom_site_type_symbol
 _atom_site_label
 _atom_site_symmetry_multiplicity
 _atom_site_fract_x
 _atom_site_fract_y
 _atom_site_fract_z
 _atom_site_occupancy
  Na  Na0  1  0.10559300  0.26604800  0.37804200  1
  Na  Na1  1  0.60636600  0.26360300  0.87626000  1
  Na  Na2  1  0.12803500  0.73547400  0.85601300  1
  Na  Na3  1  0.62621400  0.73506700  0.35624700  1
  Li  Li4  1  0.72231500  0.10399100  0.50722200  1
  Li  Li5  1  0.22217100  0.10322000  0.00828800  1
  Li  Li6  1  0.25750900  0.89699100  0.47223000  1
  Li  Li7  1  0.75806600  0.89558100  0.97244400  1
  Li  Li8  1  0.36942300  0.27250400  0.63678000  1
  Li  Li9  1  0.87369000  0.27381900  0.13471800  1
  Li  Li10  1  0.88429600  0.72843400  0.62257400  1
  Li  Li11  1  0.38753600  0.72502700  0.12029900  1
  Co  Co12  1  0.48167600  0.33656900  0.26952300  1
  Co  Co13  1  0.52058500  0.65911800  0.72995300  1
  Co  Co14  1  0.97997500  0.34083100  0.77029300  1
  Co  Co15  1  0.01959500  0.66364500  0.23176600  1
  P  P16  1  0.75997700  0.41124000  0.48768500  1
  P  P17  1  0.25946100  0.41105500  0.98918600  1
  P  P18  1  0.23853300  0.58968500  0.50943100  1
  P  P19  1  0.73839000  0.58813300  0.00987300  1
  C  C20  1  0.02458100  0.04594300  0.71583500  1
  C  C21  1  0.52522700  0.04474100  0.21501600  1
  C  C22  1  0.96475300  0.95520200  0.27517400  1
  C  C23  1  0.46580300  0.95397000  0.77471700  1
  O  O24  1  0.91329100  0.09406300  0.30230100  1
  O  O25  1  0.41192000  0.09204300  0.80271100  1
  O  O26  1  0.05275600  0.90775300  0.66252700  1
  O  O27  1  0.55258100  0.90620600  0.16248500  1
  O  O28  1  0.90053700  0.06980300  0.84016000  1
  O  O29  1  0.40167800  0.07023800  0.33925400  1
  O  O30  1  0.08823700  0.92893300  0.15113100  1
  O  O31  1  0.59039300  0.93038400  0.65079000  1
  O  O32  1  0.12389000  0.16802100  0.64256300  1
  O  O33  1  0.62442300  0.16642200  0.14122200  1
  O  O34  1  0.89067400  0.83389000  0.37492000  1
  O  O35  1  0.39286100  0.83184700  0.87410200  1
  O  O36  1  0.61137600  0.30974500  0.45486000  1
  O  O37  1  0.11083400  0.31023000  0.95582500  1
  O  O38  1  0.20456000  0.69160800  0.36164500  1
  O  O39  1  0.70661200  0.68864900  0.86003300  1
  O  O40  1  0.81882600  0.30344000  0.61615700  1
  O  O41  1  0.31848700  0.30281000  0.11722500  1
  O  O42  1  0.36675100  0.69752800  0.56847300  1
  O  O43  1  0.86623000  0.69616000  0.06912700  1
  O  O44  1  0.30478500  0.42946600  0.45752400  1
  O  O45  1  0.80401300  0.42709800  0.95960100  1
  O  O46  1  0.70893300  0.57200200  0.55367600  1
  O  O47  1  0.20817700  0.57154200  0.05497600  1
  O  O48  1  0.90147100  0.44031000  0.32327800  1
  O  O49  1  0.40195800  0.43926600  0.82506000  1
  O  O50  1  0.07478400  0.56065800  0.65214200  1
  O  O51  1  0.57344100  0.55999100  0.15089500  1
