# generated using pymatgen
data_Na2FeO3
_symmetry_space_group_name_H-M   'P 1'
_cell_length_a   5.37308121
_cell_length_b   5.37292369
_cell_length_c   5.77601303
_cell_angle_alpha   80.82551692
_cell_angle_beta   99.17166870
_cell_angle_gamma   59.90208281
_symmetry_Int_Tables_number   1
_chemical_formula_structural   Na2FeO3
_chemical_formula_sum   'Na4 Fe2 O6'
_cell_volume   136.71370327
_cell_formula_units_Z   2
loop_
 _symmetry_equiv_pos_site_id
 _symmetry_equiv_pos_as_xyz
  1  'x, y, z'
loop_
 _atom_site_type_symbol
 _atom_site_label
 _atom_site_symmetry_multiplicity
 _atom_site_fract_x
 _atom_site_fract_y
 _atom_site_fract_z
 _atom_site_occupancy
  Na  Na0  1  0.15860600  0.15858800  0.50000500  1
  Na  Na1  1  0.84139400  0.84138800  0.49999600  1
  Na  Na2  1  0.50000300  0.49999500  0.50000100  1
  Na  Na3  1  0.00000300  0.99999800  0.99999900  1
  Fe  Fe4  1  0.66659000  0.66662900  0.99999000  1
  Fe  Fe5  1  0.33339200  0.33341900  0.00001200  1
  O  O6  1  0.30798100  0.69201200  0.79498800  1
  O  O7  1  0.07203800  0.54939100  0.20241000  1
  O  O8  1  0.45061100  0.92796600  0.20240300  1
  O  O9  1  0.92796200  0.45060200  0.79760300  1
  O  O10  1  0.54939800  0.07203400  0.79758600  1
  O  O11  1  0.69202200  0.30797800  0.20500800  1
