# generated using pymatgen
data_TiGa2O5
_symmetry_space_group_name_H-M   'P 1'
_cell_length_a   5.29399399
_cell_length_b   5.29399399
_cell_length_c   10.08881200
_cell_angle_alpha   90.00000000
_cell_angle_beta   90.00000000
_cell_angle_gamma   139.54227861
_symmetry_Int_Tables_number   1
_chemical_formula_structural   TiGa2O5
_chemical_formula_sum   'Ti2 Ga4 O10'
_cell_volume   183.47455159
_cell_formula_units_Z   2
loop_
 _symmetry_equiv_pos_site_id
 _symmetry_equiv_pos_as_xyz
  1  'x, y, z'
loop_
 _atom_site_type_symbol
 _atom_site_label
 _atom_site_symmetry_multiplicity
 _atom_site_fract_x
 _atom_site_fract_y
 _atom_site_fract_z
 _atom_site_occupancy
  Ti  Ti0  1  0.82078100  0.17921900  0.75000000  1
  Ti  Ti1  1  0.17921900  0.82078100  0.25000000  1
  Ga  Ga2  1  0.86323100  0.13676900  0.44091900  1
  Ga  Ga3  1  0.86323100  0.13676900  0.05908100  1
  Ga  Ga4  1  0.13676900  0.86323100  0.94091900  1
  Ga  Ga5  1  0.13676900  0.86323100  0.55908100  1
  O  O6  1  0.95296900  0.04703100  0.88074200  1
  O  O7  1  0.95296900  0.04703100  0.61925800  1
  O  O8  1  0.30759400  0.69240600  0.07542700  1
  O  O9  1  0.30759400  0.69240600  0.42457300  1
  O  O10  1  0.75130100  0.24869900  0.25000000  1
  O  O11  1  0.24869900  0.75130100  0.75000000  1
  O  O12  1  0.69240600  0.30759400  0.92457300  1
  O  O13  1  0.69240600  0.30759400  0.57542700  1
  O  O14  1  0.04703100  0.95296900  0.38074200  1
  O  O15  1  0.04703100  0.95296900  0.11925800  1
