# generated using pymatgen
data_Na3VO3
_symmetry_space_group_name_H-M   'P 1'
_cell_length_a   5.92982090
_cell_length_b   5.92324257
_cell_length_c   12.78258100
_cell_angle_alpha   90.00030382
_cell_angle_beta   90.00019378
_cell_angle_gamma   115.40650816
_symmetry_Int_Tables_number   1
_chemical_formula_structural   Na3VO3
_chemical_formula_sum   'Na12 V4 O12'
_cell_volume   405.55074081
_cell_formula_units_Z   4
loop_
 _symmetry_equiv_pos_site_id
 _symmetry_equiv_pos_as_xyz
  1  'x, y, z'
loop_
 _atom_site_type_symbol
 _atom_site_label
 _atom_site_symmetry_multiplicity
 _atom_site_fract_x
 _atom_site_fract_y
 _atom_site_fract_z
 _atom_site_occupancy
  Na  Na0  1  0.69940800  0.14317800  0.22183900  1
  Na  Na1  1  0.80062900  0.35700100  0.72179900  1
  Na  Na2  1  0.19940800  0.64318400  0.27816200  1
  Na  Na3  1  0.30062900  0.85699900  0.77820200  1
  Na  Na4  1  0.78075800  0.24812700  0.48391400  1
  Na  Na5  1  0.71935600  0.25199600  0.98398600  1
  Na  Na6  1  0.28075900  0.74812800  0.01608600  1
  Na  Na7  1  0.21935600  0.75199800  0.51601400  1
  Na  Na8  1  0.35842900  0.28371800  0.59334000  1
  Na  Na9  1  0.14137200  0.21619000  0.09355300  1
  Na  Na10  1  0.85842400  0.78372100  0.90666000  1
  Na  Na11  1  0.64138400  0.71618800  0.40644600  1
  V  V12  1  0.24755000  0.32816000  0.83533700  1
  V  V13  1  0.74754300  0.82816200  0.66466800  1
  V  V14  1  0.25250200  0.17183100  0.33513400  1
  V  V15  1  0.75250300  0.67181200  0.16486300  1
  O  O16  1  0.45300800  0.00490100  0.37267900  1
  O  O17  1  0.95301100  0.50489500  0.12732000  1
  O  O18  1  0.04678100  0.49534600  0.87244400  1
  O  O19  1  0.54678500  0.99535500  0.62755500  1
  O  O20  1  0.30078800  0.11960300  0.93750200  1
  O  O21  1  0.80079100  0.61961000  0.56250100  1
  O  O22  1  0.19922400  0.37983900  0.43731100  1
  O  O23  1  0.69922200  0.87983200  0.06268900  1
  O  O24  1  0.05379200  0.08087600  0.72603000  1
  O  O25  1  0.44640400  0.41923500  0.22635200  1
  O  O26  1  0.55378400  0.58088100  0.77397000  1
  O  O27  1  0.94640000  0.91923300  0.27364600  1
