# generated using pymatgen
data_NaNb2O4
_symmetry_space_group_name_H-M   'P 1'
_cell_length_a   5.15758400
_cell_length_b   5.96354700
_cell_length_c   12.15542800
_cell_angle_alpha   90.00000000
_cell_angle_beta   90.00000000
_cell_angle_gamma   90.00000000
_symmetry_Int_Tables_number   1
_chemical_formula_structural   NaNb2O4
_chemical_formula_sum   'Na4 Nb8 O16'
_cell_volume   373.87051095
_cell_formula_units_Z   4
loop_
 _symmetry_equiv_pos_site_id
 _symmetry_equiv_pos_as_xyz
  1  'x, y, z'
loop_
 _atom_site_type_symbol
 _atom_site_label
 _atom_site_symmetry_multiplicity
 _atom_site_fract_x
 _atom_site_fract_y
 _atom_site_fract_z
 _atom_site_occupancy
  Na  Na0  1  0.80968700  0.25000000  0.00357700  1
  Na  Na1  1  0.80968700  0.75000000  0.49642300  1
  Na  Na2  1  0.19031300  0.25000000  0.50357700  1
  Na  Na3  1  0.19031300  0.75000000  0.99642300  1
  Nb  Nb4  1  0.65567700  0.00000000  0.25000000  1
  Nb  Nb5  1  0.65567700  0.50000000  0.25000000  1
  Nb  Nb6  1  0.84126200  0.25000000  0.74695200  1
  Nb  Nb7  1  0.84126200  0.75000000  0.75304800  1
  Nb  Nb8  1  0.15873800  0.25000000  0.24695200  1
  Nb  Nb9  1  0.15873800  0.75000000  0.25304800  1
  Nb  Nb10  1  0.34432300  0.00000000  0.75000000  1
  Nb  Nb11  1  0.34432300  0.50000000  0.75000000  1
  O  O12  1  0.50392900  0.25000000  0.64675800  1
  O  O13  1  0.50392900  0.75000000  0.85324200  1
  O  O14  1  0.51300200  0.25000000  0.85070300  1
  O  O15  1  0.51300200  0.75000000  0.64929700  1
  O  O16  1  0.99128200  0.50272200  0.14647000  1
  O  O17  1  0.99128200  0.99727800  0.14647000  1
  O  O18  1  0.99128200  0.00272200  0.35353000  1
  O  O19  1  0.99128200  0.49727800  0.35353000  1
  O  O20  1  0.00871800  0.50272200  0.64647000  1
  O  O21  1  0.00871800  0.00272200  0.85353000  1
  O  O22  1  0.00871800  0.49727800  0.85353000  1
  O  O23  1  0.00871800  0.99727800  0.64647000  1
  O  O24  1  0.48699800  0.75000000  0.14929700  1
  O  O25  1  0.48699800  0.25000000  0.35070300  1
  O  O26  1  0.49607100  0.25000000  0.14675800  1
  O  O27  1  0.49607100  0.75000000  0.35324200  1
