# generated using pymatgen
data_V6O5F19
_symmetry_space_group_name_H-M   'P 1'
_cell_length_a   5.38316000
_cell_length_b   5.58729705
_cell_length_c   14.94140505
_cell_angle_alpha   100.53832635
_cell_angle_beta   89.59683184
_cell_angle_gamma   93.59669883
_symmetry_Int_Tables_number   1
_chemical_formula_structural   V6O5F19
_chemical_formula_sum   'V6 O5 F19'
_cell_volume   440.94251448
_cell_formula_units_Z   1
loop_
 _symmetry_equiv_pos_site_id
 _symmetry_equiv_pos_as_xyz
  1  'x, y, z'
loop_
 _atom_site_type_symbol
 _atom_site_label
 _atom_site_symmetry_multiplicity
 _atom_site_fract_x
 _atom_site_fract_y
 _atom_site_fract_z
 _atom_site_occupancy
  V  V0  1  0.03575100  0.95581500  0.99602300  1
  V  V1  1  0.54204900  0.79792500  0.67002900  1
  V  V2  1  0.96302700  0.72314100  0.33899300  1
  V  V3  1  0.54148000  0.46501400  0.00314500  1
  V  V4  1  0.03622300  0.28977500  0.66403100  1
  V  V5  1  0.48019800  0.18309400  0.33094300  1
  O  O6  1  0.80985900  0.96821100  0.36475700  1
  O  O7  1  0.75887700  0.62283900  0.68393800  1
  O  O8  1  0.75918800  0.29210200  0.01830500  1
  O  O9  1  0.21551500  0.73292000  0.98128600  1
  O  O10  1  0.21808500  0.06830300  0.65020600  1
  F  F11  1  0.73221500  0.78004200  0.02696700  1
  F  F12  1  0.28628100  0.86334400  0.31098100  1
  F  F13  1  0.90733900  0.94823600  0.88616100  1
  F  F14  1  0.56284400  0.81689500  0.55289600  1
  F  F15  1  0.92148500  0.62441100  0.22057500  1
  F  F16  1  0.41066700  0.87796600  0.77986300  1
  F  F17  1  0.09487700  0.67384300  0.44188500  1
  F  F18  1  0.41019500  0.54534800  0.11307100  1
  F  F19  1  0.69078900  0.49074000  0.35558400  1
  F  F20  1  0.27046600  0.55035600  0.63813600  1
  F  F21  1  0.20932700  0.33200100  0.30124400  1
  F  F22  1  0.56119500  0.47762300  0.88542600  1
  F  F23  1  0.90785200  0.27593100  0.55396800  1
  F  F24  1  0.60841000  0.10718400  0.22121300  1
  F  F25  1  0.06516000  0.42022300  0.78116500  1
  F  F26  1  0.42417500  0.20840400  0.44874100  1
  F  F27  1  0.06913500  0.08146300  0.11339500  1
  F  F28  1  0.73392800  0.11292000  0.69558100  1
  F  F29  1  0.27340700  0.21393500  0.97149400  1
