# generated using pymatgen
data_ThU8O18
_symmetry_space_group_name_H-M   'P 1'
_cell_length_a   6.66861800
_cell_length_b   6.66846586
_cell_length_c   8.60832250
_cell_angle_alpha   82.58139913
_cell_angle_beta   75.04103548
_cell_angle_gamma   80.39758352
_symmetry_Int_Tables_number   1
_chemical_formula_structural   ThU8O18
_chemical_formula_sum   'Th1 U8 O18'
_cell_volume   363.16145281
_cell_formula_units_Z   1
loop_
 _symmetry_equiv_pos_site_id
 _symmetry_equiv_pos_as_xyz
  1  'x, y, z'
loop_
 _atom_site_type_symbol
 _atom_site_label
 _atom_site_symmetry_multiplicity
 _atom_site_fract_x
 _atom_site_fract_y
 _atom_site_fract_z
 _atom_site_occupancy
  Th  Th0  1  0.00000000  0.00000000  0.50000000  1
  U  U1  1  0.33437200  0.66528200  0.16560600  1
  U  U2  1  0.77551600  0.55627200  0.38817000  1
  U  U3  1  0.11139200  0.22357900  0.05280700  1
  U  U4  1  0.66562800  0.33471800  0.83439400  1
  U  U5  1  0.22448400  0.44372800  0.61183000  1
  U  U6  1  0.55594500  0.11257300  0.27540600  1
  U  U7  1  0.88860800  0.77642100  0.94719300  1
  U  U8  1  0.44405500  0.88742700  0.72459400  1
  O  O9  1  0.58271400  0.66587900  0.91697500  1
  O  O10  1  0.02842000  0.55594600  0.13763400  1
  O  O11  1  0.41728600  0.33412100  0.08302500  1
  O  O12  1  0.08534000  0.66154300  0.41449600  1
  O  O13  1  0.80529400  0.11073300  0.02789300  1
  O  O14  1  0.47261500  0.44562100  0.36059500  1
  O  O15  1  0.85877100  0.22621800  0.30207100  1
  O  O16  1  0.52738500  0.55437900  0.63940500  1
  O  O17  1  0.25484700  0.00025700  0.24537200  1
  O  O18  1  0.91466000  0.33845700  0.58550400  1
  O  O19  1  0.19470600  0.88926700  0.97210700  1
  O  O20  1  0.74515300  0.99974300  0.75462800  1
  O  O21  1  0.68962800  0.88611600  0.47154800  1
  O  O22  1  0.36017300  0.22321200  0.80670700  1
  O  O23  1  0.63982700  0.77678800  0.19329300  1
  O  O24  1  0.31037200  0.11388400  0.52845200  1
  O  O25  1  0.97158000  0.44405400  0.86236600  1
  O  O26  1  0.14122900  0.77378200  0.69792900  1
