# generated using pymatgen
data_Cr4OF11
_symmetry_space_group_name_H-M   'P 1'
_cell_length_a   5.07584889
_cell_length_b   5.34354222
_cell_length_c   16.90306105
_cell_angle_alpha   92.11045655
_cell_angle_beta   98.95202857
_cell_angle_gamma   61.40328859
_symmetry_Int_Tables_number   1
_chemical_formula_structural   Cr4OF11
_chemical_formula_sum   'Cr8 O2 F22'
_cell_volume   397.25618422
_cell_formula_units_Z   2
loop_
 _symmetry_equiv_pos_site_id
 _symmetry_equiv_pos_as_xyz
  1  'x, y, z'
loop_
 _atom_site_type_symbol
 _atom_site_label
 _atom_site_symmetry_multiplicity
 _atom_site_fract_x
 _atom_site_fract_y
 _atom_site_fract_z
 _atom_site_occupancy
  Cr  Cr0  1  0.74495200  0.64338000  0.12883100  1
  Cr  Cr1  1  0.77324800  0.11305800  0.62794900  1
  Cr  Cr2  1  0.47865300  0.76055500  0.74575300  1
  Cr  Cr3  1  0.50978900  0.23146600  0.24637100  1
  Cr  Cr4  1  0.25231900  0.86885300  0.37441000  1
  Cr  Cr5  1  0.24241400  0.38053700  0.87475900  1
  Cr  Cr6  1  0.00582800  0.49541300  0.50091400  1
  Cr  Cr7  1  0.99464800  0.00644900  0.00066200  1
  O  O8  1  0.74904600  0.93689800  0.18775100  1
  O  O9  1  0.18688200  0.90602100  0.65650000  1
  F  F10  1  0.81170900  0.78509400  0.03326000  1
  F  F11  1  0.75571700  0.81231000  0.56320900  1
  F  F12  1  0.75555400  0.32065800  0.06419500  1
  F  F13  1  0.68360500  0.96816600  0.71851200  1
  F  F14  1  0.68941100  0.65449300  0.40736600  1
  F  F15  1  0.68399600  0.46694300  0.21759100  1
  F  F16  1  0.80700200  0.59737900  0.83977400  1
  F  F17  1  0.81292700  0.09104700  0.34245700  1
  F  F18  1  0.81633600  0.28201000  0.53368900  1
  F  F19  1  0.31052500  0.84410400  0.09416800  1
  F  F20  1  0.74660300  0.43783600  0.68807300  1
  F  F21  1  0.26126200  0.55613300  0.31034300  1
  F  F22  1  0.68158300  0.15969800  0.90686200  1
  F  F23  1  0.18445900  0.40680300  0.15672300  1
  F  F24  1  0.18644600  0.71648900  0.46782800  1
  F  F25  1  0.31311900  0.53230200  0.78155100  1
  F  F26  1  0.32608600  0.33696200  0.59332600  1
  F  F27  1  0.31196000  0.03166200  0.28137700  1
  F  F28  1  0.24401400  0.69046600  0.93810500  1
  F  F29  1  0.24869200  0.18359900  0.43725900  1
  F  F30  1  0.24657200  0.06377000  0.81251700  1
  F  F31  1  0.18464000  0.21944800  0.96791500  1
