# generated using pymatgen
data_NaVPO5
_symmetry_space_group_name_H-M   'P 1'
_cell_length_a   6.48782800
_cell_length_b   7.83541200
_cell_length_c   7.44918100
_cell_angle_alpha   90.00052552
_cell_angle_beta   90.00000000
_cell_angle_gamma   90.00007189
_symmetry_Int_Tables_number   1
_chemical_formula_structural   NaVPO5
_chemical_formula_sum   'Na4 V4 P4 O20'
_cell_volume   378.67766626
_cell_formula_units_Z   4
loop_
 _symmetry_equiv_pos_site_id
 _symmetry_equiv_pos_as_xyz
  1  'x, y, z'
loop_
 _atom_site_type_symbol
 _atom_site_label
 _atom_site_symmetry_multiplicity
 _atom_site_fract_x
 _atom_site_fract_y
 _atom_site_fract_z
 _atom_site_occupancy
  Na  Na0  1  0.99998300  0.49999800  0.00001500  1
  Na  Na1  1  0.50001900  0.49999900  0.00001500  1
  Na  Na2  1  0.99996700  0.00000900  0.49998700  1
  Na  Na3  1  0.50003000  0.00001100  0.49998600  1
  V  V4  1  0.24999900  0.71296000  0.33122200  1
  V  V5  1  0.25000100  0.78706500  0.83123700  1
  V  V6  1  0.75000000  0.21304300  0.16851500  1
  V  V7  1  0.75000100  0.28695600  0.66854800  1
  P  P8  1  0.25000000  0.10568400  0.12422700  1
  P  P9  1  0.75000000  0.60570100  0.37581800  1
  P  P10  1  0.25000000  0.39431500  0.62426000  1
  P  P11  1  0.75000100  0.89427800  0.87578100  1
  O  O12  1  0.75000000  0.99158100  0.05643200  1
  O  O13  1  0.24999900  0.49163400  0.44361800  1
  O  O14  1  0.75000000  0.50839100  0.55644700  1
  O  O15  1  0.25000100  0.00835100  0.94363900  1
  O  O16  1  0.25000000  0.67941400  0.10379400  1
  O  O17  1  0.75000000  0.17956200  0.39594400  1
  O  O18  1  0.25000000  0.82057900  0.60391400  1
  O  O19  1  0.75000000  0.32044500  0.89595300  1
  O  O20  1  0.75000000  0.47740700  0.21577900  1
  O  O21  1  0.24999900  0.97734600  0.28423400  1
  O  O22  1  0.74999900  0.02262100  0.71576100  1
  O  O23  1  0.25000000  0.52266400  0.78423000  1
  O  O24  1  0.05900700  0.22501600  0.13585300  1
  O  O25  1  0.44099400  0.22501500  0.13585400  1
  O  O26  1  0.55893600  0.72497900  0.36432300  1
  O  O27  1  0.94106300  0.72497900  0.36432400  1
  O  O28  1  0.05900000  0.27499200  0.63589100  1
  O  O29  1  0.44100000  0.27499200  0.63589000  1
  O  O30  1  0.55896000  0.77500600  0.86425600  1
  O  O31  1  0.94104200  0.77500600  0.86425500  1
