# generated using pymatgen
data_Na4PtO4
_symmetry_space_group_name_H-M   'P 1'
_cell_length_a   5.73047739
_cell_length_b   5.73047739
_cell_length_c   7.97716948
_cell_angle_alpha   60.37385163
_cell_angle_beta   60.37385163
_cell_angle_gamma   33.48598367
_symmetry_Int_Tables_number   1
_chemical_formula_structural   Na4PtO4
_chemical_formula_sum   'Na4 Pt1 O4'
_cell_volume   123.78370877
_cell_formula_units_Z   1
loop_
 _symmetry_equiv_pos_site_id
 _symmetry_equiv_pos_as_xyz
  1  'x, y, z'
loop_
 _atom_site_type_symbol
 _atom_site_label
 _atom_site_symmetry_multiplicity
 _atom_site_fract_x
 _atom_site_fract_y
 _atom_site_fract_z
 _atom_site_occupancy
  Na  Na0  1  0.20689900  0.20689900  0.67427600  1
  Na  Na1  1  0.36887500  0.36887500  0.89383600  1
  Na  Na2  1  0.79310100  0.79310100  0.32572400  1
  Na  Na3  1  0.63112500  0.63112500  0.10616400  1
  Pt  Pt4  1  0.00000000  0.00000000  0.50000000  1
  O  O5  1  0.80308300  0.80308300  0.76860200  1
  O  O6  1  0.19691700  0.19691700  0.23139800  1
  O  O7  1  0.43176300  0.43176300  0.40427100  1
  O  O8  1  0.56823700  0.56823700  0.59572900  1
