# generated using pymatgen
data_ErBO3
_symmetry_space_group_name_H-M   'P 1'
_cell_length_a   3.91566690
_cell_length_b   3.91566690
_cell_length_c   8.60604500
_cell_angle_alpha   90.00000000
_cell_angle_beta   90.00000000
_cell_angle_gamma   117.34165673
_symmetry_Int_Tables_number   1
_chemical_formula_structural   ErBO3
_chemical_formula_sum   'Er2 B2 O6'
_cell_volume   117.21055078
_cell_formula_units_Z   2
loop_
 _symmetry_equiv_pos_site_id
 _symmetry_equiv_pos_as_xyz
  1  'x, y, z'
loop_
 _atom_site_type_symbol
 _atom_site_label
 _atom_site_symmetry_multiplicity
 _atom_site_fract_x
 _atom_site_fract_y
 _atom_site_fract_z
 _atom_site_occupancy
  Er  Er0  1  0.05137900  0.05137900  0.00000000  1
  Er  Er1  1  0.05137900  0.05137900  0.50000000  1
  B  B2  1  0.75981800  0.50246100  0.75000000  1
  B  B3  1  0.50246100  0.75981800  0.25000000  1
  O  O4  1  0.67525200  0.33382900  0.89738300  1
  O  O5  1  0.67525200  0.33382900  0.60261700  1
  O  O6  1  0.96211800  0.89590100  0.75000000  1
  O  O7  1  0.33382900  0.67525200  0.39738300  1
  O  O8  1  0.33382900  0.67525200  0.10261700  1
  O  O9  1  0.89590100  0.96211800  0.25000000  1
