# generated using pymatgen
data_NaV2O5
_symmetry_space_group_name_H-M   'P 1'
_cell_length_a   3.67515800
_cell_length_b   9.94142400
_cell_length_c   12.22197700
_cell_angle_alpha   90.00000000
_cell_angle_beta   90.00000000
_cell_angle_gamma   90.00000000
_symmetry_Int_Tables_number   1
_chemical_formula_structural   NaV2O5
_chemical_formula_sum   'Na4 V8 O20'
_cell_volume   446.54586648
_cell_formula_units_Z   4
loop_
 _symmetry_equiv_pos_site_id
 _symmetry_equiv_pos_as_xyz
  1  'x, y, z'
loop_
 _atom_site_type_symbol
 _atom_site_label
 _atom_site_symmetry_multiplicity
 _atom_site_fract_x
 _atom_site_fract_y
 _atom_site_fract_z
 _atom_site_occupancy
  Na  Na0  1  0.25000000  0.15807700  0.73032100  1
  Na  Na1  1  0.75000000  0.34192300  0.23032100  1
  Na  Na2  1  0.25000000  0.65807700  0.76967900  1
  Na  Na3  1  0.75000000  0.84192300  0.26967900  1
  V  V4  1  0.25000000  0.06742000  0.08784400  1
  V  V5  1  0.75000000  0.12237900  0.49643400  1
  V  V6  1  0.25000000  0.37762100  0.99643400  1
  V  V7  1  0.75000000  0.43258000  0.58784400  1
  V  V8  1  0.25000000  0.56742000  0.41215600  1
  V  V9  1  0.75000000  0.62237900  0.00356600  1
  V  V10  1  0.25000000  0.87762100  0.50356600  1
  V  V11  1  0.75000000  0.93258000  0.91215600  1
  O  O12  1  0.75000000  0.01428200  0.79468400  1
  O  O13  1  0.75000000  0.05635000  0.04146600  1
  O  O14  1  0.25000000  0.07178200  0.54072800  1
  O  O15  1  0.75000000  0.21283800  0.38322100  1
  O  O16  1  0.25000000  0.23939400  0.11778100  1
  O  O17  1  0.75000000  0.26060600  0.61778100  1
  O  O18  1  0.25000000  0.28716200  0.88322100  1
  O  O19  1  0.75000000  0.42821800  0.04072800  1
  O  O20  1  0.25000000  0.44365000  0.54146600  1
  O  O21  1  0.25000000  0.48571800  0.29468400  1
  O  O22  1  0.75000000  0.51428200  0.70531600  1
  O  O23  1  0.75000000  0.55635000  0.45853400  1
  O  O24  1  0.25000000  0.57178200  0.95927200  1
  O  O25  1  0.75000000  0.71283800  0.11677900  1
  O  O26  1  0.25000000  0.73939400  0.38221900  1
  O  O27  1  0.75000000  0.76060600  0.88221900  1
  O  O28  1  0.25000000  0.78716200  0.61677900  1
  O  O29  1  0.75000000  0.92821800  0.45927200  1
  O  O30  1  0.25000000  0.94365000  0.95853400  1
  O  O31  1  0.25000000  0.98571800  0.20531600  1
