# generated using pymatgen
data_Na7Mn10O24
_symmetry_space_group_name_H-M   'P 1'
_cell_length_a   6.11208200
_cell_length_b   6.11208200
_cell_length_c   15.35986539
_cell_angle_alpha   87.88175554
_cell_angle_beta   87.88175554
_cell_angle_gamma   58.50990421
_symmetry_Int_Tables_number   1
_chemical_formula_structural   Na7Mn10O24
_chemical_formula_sum   'Na7 Mn10 O24'
_cell_volume   488.86330951
_cell_formula_units_Z   1
loop_
 _symmetry_equiv_pos_site_id
 _symmetry_equiv_pos_as_xyz
  1  'x, y, z'
loop_
 _atom_site_type_symbol
 _atom_site_label
 _atom_site_symmetry_multiplicity
 _atom_site_fract_x
 _atom_site_fract_y
 _atom_site_fract_z
 _atom_site_occupancy
  Na  Na0  1  0.16036500  0.16036500  0.28760800  1
  Na  Na1  1  0.83322300  0.83322300  0.33231800  1
  Na  Na2  1  0.49083400  0.49083400  0.63119400  1
  Na  Na3  1  0.50678800  0.50678800  0.37214000  1
  Na  Na4  1  0.33087500  0.33087500  0.83898700  1
  Na  Na5  1  0.83521600  0.83521600  0.95613500  1
  Na  Na6  1  0.82892900  0.82892900  0.71449000  1
  Mn  Mn7  1  0.51319600  0.51319600  0.99948700  1
  Mn  Mn8  1  0.67145900  0.16511900  0.15658300  1
  Mn  Mn9  1  0.99709900  0.99709900  0.50821300  1
  Mn  Mn10  1  0.67119900  0.67119900  0.15700400  1
  Mn  Mn11  1  0.99698900  0.50227700  0.50892800  1
  Mn  Mn12  1  0.50227700  0.99698900  0.50892800  1
  Mn  Mn13  1  0.16511900  0.67145900  0.15658300  1
  Mn  Mn14  1  0.15609800  0.15609800  0.67171600  1
  Mn  Mn15  1  0.33480400  0.82830500  0.83315200  1
  Mn  Mn16  1  0.82830500  0.33480400  0.83315200  1
  O  O17  1  0.78978600  0.36593200  0.08353800  1
  O  O18  1  0.36940000  0.36940000  0.08051800  1
  O  O19  1  0.98144300  0.98144300  0.21991500  1
  O  O20  1  0.83849900  0.83849900  0.09462100  1
  O  O21  1  0.30109900  0.88183700  0.58126200  1
  O  O22  1  0.53291200  0.98573100  0.21955500  1
  O  O23  1  0.98573100  0.53291200  0.21955500  1
  O  O24  1  0.13779700  0.68079500  0.44764300  1
  O  O25  1  0.36593200  0.78978600  0.08353800  1
  O  O26  1  0.68497600  0.68497600  0.44729800  1
  O  O27  1  0.82976200  0.82976200  0.57251800  1
  O  O28  1  0.49869000  0.49869000  0.22189000  1
  O  O29  1  0.29865300  0.29865300  0.58483100  1
  O  O30  1  0.16968800  0.16968800  0.44322700  1
  O  O31  1  0.51762500  0.51762500  0.77161200  1
  O  O32  1  0.88183700  0.30109900  0.58126200  1
  O  O33  1  0.67547300  0.23204900  0.92157800  1
  O  O34  1  0.43348800  0.99536800  0.74531500  1
  O  O35  1  0.99536800  0.43348800  0.74531500  1
  O  O36  1  0.68079500  0.13779700  0.44764300  1
  O  O37  1  0.01583900  0.01583900  0.76079400  1
  O  O38  1  0.14031900  0.14031900  0.89608800  1
  O  O39  1  0.65254500  0.65254500  0.90048400  1
  O  O40  1  0.23204900  0.67547300  0.92157800  1
