# generated using pymatgen
data_Li7Mn(OF)3
_symmetry_space_group_name_H-M   'P 1'
_cell_length_a   5.47735655
_cell_length_b   6.52415542
_cell_length_c   10.28970623
_cell_angle_alpha   84.38419808
_cell_angle_beta   76.22640083
_cell_angle_gamma   119.97239883
_symmetry_Int_Tables_number   1
_chemical_formula_structural   Li7Mn(OF)3
_chemical_formula_sum   'Li14 Mn2 O6 F6'
_cell_volume   298.92251414
_cell_formula_units_Z   2
loop_
 _symmetry_equiv_pos_site_id
 _symmetry_equiv_pos_as_xyz
  1  'x, y, z'
loop_
 _atom_site_type_symbol
 _atom_site_label
 _atom_site_symmetry_multiplicity
 _atom_site_fract_x
 _atom_site_fract_y
 _atom_site_fract_z
 _atom_site_occupancy
  Li  Li0  1  0.10251800  0.10045100  0.22487700  1
  Li  Li1  1  0.10716400  0.61913900  0.74636100  1
  Li  Li2  1  0.46101000  0.95166700  0.39656500  1
  Li  Li3  1  0.53248600  0.53290100  0.11999400  1
  Li  Li4  1  0.27026000  0.22614900  0.44531800  1
  Li  Li5  1  0.20201400  0.68162800  0.95145100  1
  Li  Li6  1  0.30271300  0.37424800  0.66642400  1
  Li  Li7  1  0.73200400  0.25704900  0.05576300  1
  Li  Li8  1  0.76347600  0.80996700  0.53874000  1
  Li  Li9  1  0.47318100  0.49140000  0.89000100  1
  Li  Li10  1  0.51374700  0.01187400  0.61753500  1
  Li  Li11  1  0.87895400  0.39436200  0.27700900  1
  Li  Li12  1  0.94002500  0.89722600  0.74064700  1
  Li  Li13  1  0.69146300  0.12829500  0.81527000  1
  Mn  Mn14  1  0.08624000  0.05818200  0.95541900  1
  Mn  Mn15  1  0.98865600  0.45192800  0.51720300  1
  O  O16  1  0.25145700  0.92659600  0.80845800  1
  O  O17  1  0.39163800  0.24894700  0.04251800  1
  O  O18  1  0.35709700  0.69492800  0.55869000  1
  O  O19  1  0.06192600  0.35735200  0.87533900  1
  O  O20  1  0.62136300  0.27608500  0.46544000  1
  O  O21  1  0.92995200  0.12664600  0.62523000  1
  F  F22  1  0.10034700  0.92624900  0.38289500  1
  F  F23  1  0.24034000  0.41948600  0.29585300  1
  F  F24  1  0.90604400  0.58656400  0.11760200  1
  F  F25  1  0.61113300  0.78813500  0.94905900  1
  F  F26  1  0.73370700  0.57909400  0.70706700  1
  F  F27  1  0.74908800  0.08345200  0.21327000  1
