# generated using pymatgen
data_Na3Fe5O8
_symmetry_space_group_name_H-M   'P 1'
_cell_length_a   8.72514133
_cell_length_b   8.85311466
_cell_length_c   8.88614074
_cell_angle_alpha   90.52423442
_cell_angle_beta   90.43213008
_cell_angle_gamma   89.54316700
_symmetry_Int_Tables_number   1
_chemical_formula_structural   Na3Fe5O8
_chemical_formula_sum   'Na12 Fe20 O32'
_cell_volume   686.33737156
_cell_formula_units_Z   4
loop_
 _symmetry_equiv_pos_site_id
 _symmetry_equiv_pos_as_xyz
  1  'x, y, z'
loop_
 _atom_site_type_symbol
 _atom_site_label
 _atom_site_symmetry_multiplicity
 _atom_site_fract_x
 _atom_site_fract_y
 _atom_site_fract_z
 _atom_site_occupancy
  Na  Na0  1  0.12599500  0.12250800  0.13035300  1
  Na  Na1  1  0.12589600  0.62631800  0.62562600  1
  Na  Na2  1  0.12391500  0.37192200  0.37275800  1
  Na  Na3  1  0.12535300  0.87901800  0.37335300  1
  Na  Na4  1  0.13061200  0.87693700  0.87592900  1
  Na  Na5  1  0.37012800  0.12711500  0.37456400  1
  Na  Na6  1  0.37413500  0.12203500  0.87452500  1
  Na  Na7  1  0.37559100  0.62766900  0.87188900  1
  Na  Na8  1  0.61604300  0.12518600  0.62487400  1
  Na  Na9  1  0.62637900  0.62401300  0.12292600  1
  Na  Na10  1  0.62119700  0.62522700  0.62641900  1
  Na  Na11  1  0.87651300  0.37088000  0.12699700  1
  Fe  Fe12  1  0.12265700  0.12354800  0.62023800  1
  Fe  Fe13  1  0.12803800  0.62778800  0.12662100  1
  Fe  Fe14  1  0.13258100  0.37272100  0.87538100  1
  Fe  Fe15  1  0.38063400  0.36771100  0.12368300  1
  Fe  Fe16  1  0.37448800  0.37494800  0.62145200  1
  Fe  Fe17  1  0.36444600  0.62426200  0.37758500  1
  Fe  Fe18  1  0.37532700  0.87843500  0.12597800  1
  Fe  Fe19  1  0.36936400  0.87835500  0.62603300  1
  Fe  Fe20  1  0.62482700  0.12644100  0.12738100  1
  Fe  Fe21  1  0.62416900  0.38068600  0.37702100  1
  Fe  Fe22  1  0.62137000  0.37522000  0.87164800  1
  Fe  Fe23  1  0.62498400  0.86930000  0.37852100  1
  Fe  Fe24  1  0.62427900  0.87313900  0.87432600  1
  Fe  Fe25  1  0.87217900  0.12621100  0.37564600  1
  Fe  Fe26  1  0.87163700  0.36881200  0.62216700  1
  Fe  Fe27  1  0.87526300  0.62372700  0.37669700  1
  Fe  Fe28  1  0.87518400  0.12498200  0.87903300  1
  Fe  Fe29  1  0.87366300  0.62190100  0.86070700  1
  Fe  Fe30  1  0.87876000  0.87773700  0.12673600  1
  Fe  Fe31  1  0.87567300  0.87797600  0.62434700  1
  O  O32  1  0.14992300  0.38607700  0.10337700  1
  O  O33  1  0.14313600  0.85527000  0.12128400  1
  O  O34  1  0.13521000  0.36242400  0.64599000  1
  O  O35  1  0.12233000  0.89253800  0.62758600  1
  O  O36  1  0.09805000  0.12918900  0.39791100  1
  O  O37  1  0.10506000  0.14980800  0.86405000  1
  O  O38  1  0.11980300  0.62208300  0.35646300  1
  O  O39  1  0.09988000  0.60258500  0.89218300  1
  O  O40  1  0.35113100  0.10697000  0.62226300  1
  O  O41  1  0.39961900  0.13898100  0.12605300  1
  O  O42  1  0.39174500  0.39546000  0.36678600  1
  O  O43  1  0.38152700  0.37790300  0.88396000  1
  O  O44  1  0.36237000  0.61646500  0.14530200  1
  O  O45  1  0.37001200  0.64022800  0.59710500  1
  O  O46  1  0.39683200  0.85593100  0.38411000  1
  O  O47  1  0.39985800  0.87213000  0.85014200  1
  O  O48  1  0.63811400  0.12185700  0.35159500  1
  O  O49  1  0.61161500  0.35726300  0.11686100  1
  O  O50  1  0.61095300  0.37157400  0.64215800  1
  O  O51  1  0.63944200  0.63084200  0.37064700  1
  O  O52  1  0.64181000  0.14137500  0.90075600  1
  O  O53  1  0.65152500  0.60526900  0.87893400  1
  O  O54  1  0.61530100  0.89509800  0.13490800  1
  O  O55  1  0.62977700  0.87943400  0.60775700  1
  O  O56  1  0.88242500  0.10935200  0.63043100  1
  O  O57  1  0.85400500  0.10522100  0.12584100  1
  O  O58  1  0.85707200  0.39604900  0.39433100  1
  O  O59  1  0.89354900  0.64260300  0.13843400  1
  O  O60  1  0.87813700  0.64382300  0.62346600  1
  O  O61  1  0.87057100  0.38713100  0.85734000  1
  O  O62  1  0.85785400  0.85860300  0.38994600  1
  O  O63  1  0.86008800  0.85773600  0.86061100  1
