# generated using pymatgen
data_Rb3InO3
_symmetry_space_group_name_H-M   'P 1'
_cell_length_a   7.10680400
_cell_length_b   7.16082700
_cell_length_c   14.84019092
_cell_angle_alpha   61.70065131
_cell_angle_beta   90.00000000
_cell_angle_gamma   90.00000000
_symmetry_Int_Tables_number   1
_chemical_formula_structural   Rb3InO3
_chemical_formula_sum   'Rb12 In4 O12'
_cell_volume   664.96357457
_cell_formula_units_Z   4
loop_
 _symmetry_equiv_pos_site_id
 _symmetry_equiv_pos_as_xyz
  1  'x, y, z'
loop_
 _atom_site_type_symbol
 _atom_site_label
 _atom_site_symmetry_multiplicity
 _atom_site_fract_x
 _atom_site_fract_y
 _atom_site_fract_z
 _atom_site_occupancy
  Rb  Rb0  1  0.55635600  0.78514000  0.89345700  1
  Rb  Rb1  1  0.95187300  0.26828100  0.11569700  1
  Rb  Rb2  1  0.58224600  0.61841400  0.18258800  1
  Rb  Rb3  1  0.08224600  0.38158600  0.31741200  1
  Rb  Rb4  1  0.45187300  0.73171900  0.38430300  1
  Rb  Rb5  1  0.05635600  0.21486000  0.60654300  1
  Rb  Rb6  1  0.94364400  0.78514000  0.39345700  1
  Rb  Rb7  1  0.54812700  0.26828100  0.61569700  1
  Rb  Rb8  1  0.91775400  0.61841400  0.68258800  1
  Rb  Rb9  1  0.41775400  0.38158600  0.81741200  1
  Rb  Rb10  1  0.04812700  0.73171900  0.88430300  1
  Rb  Rb11  1  0.44364400  0.21486000  0.10654300  1
  In  In12  1  0.12883500  0.83492900  0.08591700  1
  In  In13  1  0.62883500  0.16507100  0.41408300  1
  In  In14  1  0.37116500  0.83492900  0.58591700  1
  In  In15  1  0.87116500  0.16507100  0.91408300  1
  O  O16  1  0.25794000  0.58778200  0.07325900  1
  O  O17  1  0.83978500  0.84853100  0.03787900  1
  O  O18  1  0.69529500  0.16373000  0.27783500  1
  O  O19  1  0.19529500  0.83627000  0.22216500  1
  O  O20  1  0.33978500  0.15146900  0.46212100  1
  O  O21  1  0.75794000  0.41221800  0.42674100  1
  O  O22  1  0.24206000  0.58778200  0.57325900  1
  O  O23  1  0.66021500  0.84853100  0.53787900  1
  O  O24  1  0.80470500  0.16373000  0.77783500  1
  O  O25  1  0.30470500  0.83627000  0.72216500  1
  O  O26  1  0.16021500  0.15146900  0.96212100  1
  O  O27  1  0.74206000  0.41221800  0.92674100  1
