# generated using pymatgen
data_V3OF7
_symmetry_space_group_name_H-M   'P 1'
_cell_length_a   4.02491100
_cell_length_b   7.98467407
_cell_length_c   9.97328511
_cell_angle_alpha   90.01669622
_cell_angle_beta   89.99507851
_cell_angle_gamma   104.59770118
_symmetry_Int_Tables_number   1
_chemical_formula_structural   V3OF7
_chemical_formula_sum   'V6 O2 F14'
_cell_volume   310.17092596
_cell_formula_units_Z   2
loop_
 _symmetry_equiv_pos_site_id
 _symmetry_equiv_pos_as_xyz
  1  'x, y, z'
loop_
 _atom_site_type_symbol
 _atom_site_label
 _atom_site_symmetry_multiplicity
 _atom_site_fract_x
 _atom_site_fract_y
 _atom_site_fract_z
 _atom_site_occupancy
  V  V0  1  0.53984800  0.07982000  0.25001300  1
  V  V1  1  0.67895100  0.35785000  0.57322100  1
  V  V2  1  0.67896800  0.35804400  0.92695400  1
  V  V3  1  0.32110900  0.64217200  0.07298100  1
  V  V4  1  0.32082800  0.64186000  0.42680400  1
  V  V5  1  0.46017000  0.92021100  0.74996500  1
  O  O6  1  0.70670000  0.41334400  0.75017200  1
  O  O7  1  0.29333400  0.58669900  0.24981500  1
  F  F8  1  0.03763600  0.07539200  0.24997700  1
  F  F9  1  0.55278000  0.10536500  0.61429400  1
  F  F10  1  0.55275600  0.10539700  0.88570100  1
  F  F11  1  0.63409600  0.26817300  0.11635300  1
  F  F12  1  0.63414100  0.26821300  0.38351900  1
  F  F13  1  0.19879800  0.39753400  0.96580300  1
  F  F14  1  0.19876600  0.39754700  0.53412100  1
  F  F15  1  0.80128500  0.60252200  0.03420800  1
  F  F16  1  0.80118300  0.60239500  0.46592600  1
  F  F17  1  0.36585600  0.73176600  0.61650900  1
  F  F18  1  0.36593800  0.73185700  0.88364400  1
  F  F19  1  0.44729800  0.89468400  0.11430100  1
  F  F20  1  0.44719000  0.89455500  0.38571700  1
  F  F21  1  0.96237200  0.92460000  0.75000400  1
