# generated using pymatgen
data_NaNi2P3O10
_symmetry_space_group_name_H-M   'P 1'
_cell_length_a   8.52737300
_cell_length_b   4.70003400
_cell_length_c   9.03820111
_cell_angle_alpha   81.97807700
_cell_angle_beta   90.00000000
_cell_angle_gamma   90.00000000
_symmetry_Int_Tables_number   1
_chemical_formula_structural   NaNi2P3O10
_chemical_formula_sum   'Na2 Ni4 P6 O20'
_cell_volume   358.69692118
_cell_formula_units_Z   2
loop_
 _symmetry_equiv_pos_site_id
 _symmetry_equiv_pos_as_xyz
  1  'x, y, z'
loop_
 _atom_site_type_symbol
 _atom_site_label
 _atom_site_symmetry_multiplicity
 _atom_site_fract_x
 _atom_site_fract_y
 _atom_site_fract_z
 _atom_site_occupancy
  Na  Na0  1  0.00000000  0.00000000  0.00000000  1
  Na  Na1  1  0.50000000  0.00000000  0.00000000  1
  Ni  Ni2  1  0.92898800  0.95697700  0.34195300  1
  Ni  Ni3  1  0.57101200  0.95697700  0.34195300  1
  Ni  Ni4  1  0.42898800  0.04302300  0.65804700  1
  Ni  Ni5  1  0.07101200  0.04302300  0.65804700  1
  P  P6  1  0.75000000  0.66621400  0.81508700  1
  P  P7  1  0.25000000  0.60784000  0.46319400  1
  P  P8  1  0.25000000  0.47672900  0.84647200  1
  P  P9  1  0.75000000  0.52327100  0.15352800  1
  P  P10  1  0.75000000  0.39216000  0.53680600  1
  P  P11  1  0.25000000  0.33378600  0.18491300  1
  O  O12  1  0.90056800  0.83540700  0.79758800  1
  O  O13  1  0.59943200  0.83540700  0.79758800  1
  O  O14  1  0.25000000  0.78976700  0.76653600  1
  O  O15  1  0.40128200  0.77359800  0.48808900  1
  O  O16  1  0.09871800  0.77359800  0.48808900  1
  O  O17  1  0.75000000  0.69865700  0.45125500  1
  O  O18  1  0.90059200  0.68482600  0.17722000  1
  O  O19  1  0.59940800  0.68482600  0.17722000  1
  O  O20  1  0.75000000  0.46489900  0.97592100  1
  O  O21  1  0.25000000  0.58294200  0.28694300  1
  O  O22  1  0.75000000  0.41705800  0.71305600  1
  O  O23  1  0.25000000  0.53510100  0.02407900  1
  O  O24  1  0.09940800  0.31517400  0.82278000  1
  O  O25  1  0.40059200  0.31517400  0.82278000  1
  O  O26  1  0.25000000  0.30134300  0.54874500  1
  O  O27  1  0.90128200  0.22640200  0.51191100  1
  O  O28  1  0.59871800  0.22640200  0.51191100  1
  O  O29  1  0.75000000  0.21023300  0.23346400  1
  O  O30  1  0.40056800  0.16459300  0.20241200  1
  O  O31  1  0.09943200  0.16459300  0.20241200  1
