# generated using pymatgen
data_Na2(NiO2)7
_symmetry_space_group_name_H-M   'P 1'
_cell_length_a   4.84406100
_cell_length_b   6.50572648
_cell_length_c   9.01526939
_cell_angle_alpha   99.80471673
_cell_angle_beta   94.73478836
_cell_angle_gamma   103.70902700
_symmetry_Int_Tables_number   1
_chemical_formula_structural   Na2(NiO2)7
_chemical_formula_sum   'Na2 Ni7 O14'
_cell_volume   269.73253425
_cell_formula_units_Z   1
loop_
 _symmetry_equiv_pos_site_id
 _symmetry_equiv_pos_as_xyz
  1  'x, y, z'
loop_
 _atom_site_type_symbol
 _atom_site_label
 _atom_site_symmetry_multiplicity
 _atom_site_fract_x
 _atom_site_fract_y
 _atom_site_fract_z
 _atom_site_occupancy
  Na  Na0  1  0.13623000  0.77980400  0.78651100  1
  Na  Na1  1  0.86377000  0.22019600  0.21348900  1
  Ni  Ni2  1  0.56741900  0.14347600  0.64140400  1
  Ni  Ni3  1  0.43258100  0.85652400  0.35859600  1
  Ni  Ni4  1  0.13635000  0.28166700  0.78474500  1
  Ni  Ni5  1  0.28968100  0.57393400  0.07288600  1
  Ni  Ni6  1  0.00000000  0.00000000  0.50000000  1
  Ni  Ni7  1  0.86365000  0.71833300  0.21525500  1
  Ni  Ni8  1  0.71031900  0.42606600  0.92711400  1
  O  O9  1  0.69989700  0.12005200  0.44791200  1
  O  O10  1  0.42059900  0.14347800  0.82442200  1
  O  O11  1  0.40112500  0.54354900  0.87153700  1
  O  O12  1  0.59887500  0.45645100  0.12846300  1
  O  O13  1  0.57940100  0.85652200  0.17557800  1
  O  O14  1  0.26686100  0.26351500  0.59167900  1
  O  O15  1  0.30010300  0.87994800  0.55208800  1
  O  O16  1  0.86864900  0.01918800  0.69128400  1
  O  O17  1  0.83741400  0.40432400  0.73068400  1
  O  O18  1  0.16258600  0.59567600  0.26931600  1
  O  O19  1  0.13135100  0.98081200  0.30871600  1
  O  O20  1  0.73313900  0.73648500  0.40832100  1
  O  O21  1  0.99904300  0.29160800  0.97186200  1
  O  O22  1  0.00095700  0.70839200  0.02813800  1
