# generated using pymatgen
data_Li2Cu3(CO3)3
_symmetry_space_group_name_H-M   'P 1'
_cell_length_a   14.24198052
_cell_length_b   14.25777036
_cell_length_c   6.27768173
_cell_angle_alpha   89.44510932
_cell_angle_beta   90.52416925
_cell_angle_gamma   120.26531968
_symmetry_Int_Tables_number   1
_chemical_formula_structural   Li2Cu3(CO3)3
_chemical_formula_sum   'Li12 Cu18 C18 O54'
_cell_volume   1100.92805239
_cell_formula_units_Z   6
loop_
 _symmetry_equiv_pos_site_id
 _symmetry_equiv_pos_as_xyz
  1  'x, y, z'
loop_
 _atom_site_type_symbol
 _atom_site_label
 _atom_site_symmetry_multiplicity
 _atom_site_fract_x
 _atom_site_fract_y
 _atom_site_fract_z
 _atom_site_occupancy
  Li  Li0  1  0.09632400  0.88057100  0.25591400  1
  Li  Li1  1  0.11710800  0.56341600  0.74354200  1
  Li  Li2  1  0.11840600  0.21477900  0.75552700  1
  Li  Li3  1  0.43495500  0.55403600  0.72779400  1
  Li  Li4  1  0.43475900  0.55360400  0.22758300  1
  Li  Li5  1  0.45353000  0.25031700  0.75132100  1
  Li  Li6  1  0.78733600  0.90657800  0.74594600  1
  Li  Li7  1  0.78757900  0.90611300  0.24615500  1
  Li  Li8  1  0.80005800  0.54604400  0.74377500  1
  Li  Li9  1  0.79967100  0.54635700  0.24360800  1
  Li  Li10  1  0.74623500  0.20113100  0.75217400  1
  Li  Li11  1  0.74727400  0.20251200  0.25180000  1
  Cu  Cu12  1  0.23955800  0.79358900  0.53502900  1
  Cu  Cu13  1  0.23855400  0.79064000  0.03089500  1
  Cu  Cu14  1  0.20653900  0.44382900  0.48994100  1
  Cu  Cu15  1  0.20682700  0.44464100  0.02011600  1
  Cu  Cu16  1  0.22534300  0.10793000  0.50516500  1
  Cu  Cu17  1  0.22677600  0.10923600  0.00936300  1
  Cu  Cu18  1  0.54767100  0.77352500  0.97162700  1
  Cu  Cu19  1  0.54713400  0.77335000  0.46805000  1
  Cu  Cu20  1  0.56649900  0.46152300  0.98954700  1
  Cu  Cu21  1  0.56508500  0.46008800  0.47786700  1
  Cu  Cu22  1  0.52641000  0.09529300  0.51072900  1
  Cu  Cu23  1  0.52663500  0.09591700  0.02241400  1
  Cu  Cu24  1  0.88685700  0.77499400  0.98740800  1
  Cu  Cu25  1  0.88673400  0.77426900  0.49643200  1
  Cu  Cu26  1  0.90149000  0.43304400  0.00181200  1
  Cu  Cu27  1  0.90036300  0.43226700  0.47830900  1
  Cu  Cu28  1  0.89534400  0.11922900  0.49594500  1
  Cu  Cu29  1  0.89607500  0.11928800  0.01392300  1
  C  C30  1  0.00928900  0.66455000  0.50249100  1
  C  C31  1  0.00938300  0.66515400  0.00051800  1
  C  C32  1  0.33161200  0.66597300  0.99485800  1
  C  C33  1  0.33144800  0.66603700  0.50361500  1
  C  C34  1  0.65946800  0.99552700  0.50333400  1
  C  C35  1  0.33174600  0.34316000  0.98677800  1
  C  C36  1  0.65940300  0.99575300  0.00325200  1
  C  C37  1  0.33099000  0.34218900  0.50430200  1
  C  C38  1  0.33102800  0.01125200  0.76407900  1
  C  C39  1  0.32843200  0.00616000  0.26325200  1
  C  C40  1  0.67797200  0.66773800  0.73500500  1
  C  C41  1  0.67765300  0.66808300  0.23537600  1
  C  C42  1  0.66639800  0.33195700  0.99385000  1
  C  C43  1  0.66621800  0.33194600  0.50389400  1
  C  C44  1  0.00027500  0.00005000  0.50273200  1
  C  C45  1  0.00035300  0.99992100  0.00182600  1
  C  C46  1  0.98763000  0.32036800  0.75193800  1
  C  C47  1  0.98719800  0.31979800  0.25175000  1
  O  O48  1  0.01773100  0.92063100  0.47908200  1
  O  O49  1  0.01734700  0.91979400  0.02118700  1
  O  O50  1  0.09033900  0.76255100  0.51157900  1
  O  O51  1  0.08940300  0.76058000  0.04553500  1
  O  O52  1  0.02391300  0.58421400  0.96655300  1
  O  O53  1  0.02235000  0.58135500  0.51491700  1
  O  O54  1  0.32129100  0.91754600  0.77744700  1
  O  O55  1  0.07921600  0.40933900  0.75105300  1
  O  O56  1  0.31692000  0.91142800  0.27618400  1
  O  O57  1  0.07979800  0.40629500  0.25258800  1
  O  O58  1  0.23154500  0.58866700  0.51642100  1
  O  O59  1  0.23110400  0.58959200  0.98746600  1
  O  O60  1  0.35911300  0.76530100  0.52551700  1
  O  O61  1  0.35920500  0.76494500  0.02219600  1
  O  O62  1  0.07962200  0.09819800  0.52505500  1
  O  O63  1  0.07988100  0.09851900  0.99148700  1
  O  O64  1  0.56413300  0.97993300  0.51710900  1
  O  O65  1  0.56398000  0.98020000  0.01806000  1
  O  O66  1  0.23463900  0.32785100  0.53423500  1
  O  O67  1  0.23453700  0.32760100  0.00646500  1
  O  O68  1  0.40869500  0.64081900  0.97414600  1
  O  O69  1  0.40783200  0.64104200  0.46950700  1
  O  O70  1  0.41649400  0.44244600  0.98696700  1
  O  O71  1  0.41467100  0.44137500  0.48157700  1
  O  O72  1  0.67634000  0.91355200  0.97373100  1
  O  O73  1  0.67644900  0.91328200  0.47415400  1
  O  O74  1  0.34563000  0.26123800  0.96303800  1
  O  O75  1  0.34589400  0.26020800  0.50188600  1
  O  O76  1  0.24702000  0.02535600  0.75614100  1
  O  O77  1  0.24121400  0.01725900  0.25533300  1
  O  O78  1  0.58905400  0.66971500  0.72808200  1
  O  O79  1  0.58828200  0.66918900  0.22898200  1
  O  O80  1  0.42962500  0.09952600  0.75915500  1
  O  O81  1  0.42446500  0.09323800  0.25891600  1
  O  O82  1  0.67728000  0.57551500  0.73727100  1
  O  O83  1  0.77180200  0.75952100  0.73985600  1
  O  O84  1  0.67658600  0.57503900  0.23744800  1
  O  O85  1  0.77087200  0.75906600  0.23969500  1
  O  O86  1  0.89948300  0.98075500  0.99318600  1
  O  O87  1  0.57351100  0.32538500  0.51968600  1
  O  O88  1  0.89943700  0.98068900  0.50323500  1
  O  O89  1  0.57336300  0.32520600  0.98315400  1
  O  O90  1  0.75538700  0.42730300  0.99761800  1
  O  O91  1  0.75505600  0.42724300  0.49246500  1
  O  O92  1  0.67357400  0.24421900  0.50038700  1
  O  O93  1  0.67369400  0.24413400  0.00011200  1
  O  O94  1  0.90985300  0.64899300  0.98974800  1
  O  O95  1  0.90996400  0.64827900  0.48119400  1
  O  O96  1  0.74467800  0.09332000  0.51835200  1
  O  O97  1  0.74475600  0.09362300  0.01761800  1
  O  O98  1  0.89650800  0.32199000  0.74985100  1
  O  O99  1  0.89699300  0.32618100  0.24791400  1
  O  O100  1  0.98496200  0.22710000  0.75485200  1
  O  O101  1  0.97674600  0.22383200  0.25414100  1
