# generated using pymatgen
data_Rb2CoO3
_symmetry_space_group_name_H-M   'P 1'
_cell_length_a   6.37572880
_cell_length_b   6.37572880
_cell_length_c   5.40236800
_cell_angle_alpha   90.00000000
_cell_angle_beta   90.00000000
_cell_angle_gamma   109.23870655
_symmetry_Int_Tables_number   1
_chemical_formula_structural   Rb2CoO3
_chemical_formula_sum   'Rb4 Co2 O6'
_cell_volume   207.34170577
_cell_formula_units_Z   2
loop_
 _symmetry_equiv_pos_site_id
 _symmetry_equiv_pos_as_xyz
  1  'x, y, z'
loop_
 _atom_site_type_symbol
 _atom_site_label
 _atom_site_symmetry_multiplicity
 _atom_site_fract_x
 _atom_site_fract_y
 _atom_site_fract_z
 _atom_site_occupancy
  Rb  Rb0  1  0.81603600  0.49452000  0.24979900  1
  Rb  Rb1  1  0.50548000  0.18396400  0.74979900  1
  Rb  Rb2  1  0.49452000  0.81603600  0.24979900  1
  Rb  Rb3  1  0.18396400  0.50548000  0.74979900  1
  Co  Co4  1  0.92670700  0.92670700  0.76309200  1
  Co  Co5  1  0.07329300  0.07329300  0.26309200  1
  O  O6  1  0.88983300  0.12421800  0.00926100  1
  O  O7  1  0.87578200  0.11016700  0.50926100  1
  O  O8  1  0.68280800  0.68280800  0.77878800  1
  O  O9  1  0.31719200  0.31719200  0.27878800  1
  O  O10  1  0.12421800  0.88983300  0.00926100  1
  O  O11  1  0.11016700  0.87578200  0.50926100  1
