# generated using pymatgen
data_KMnP3HO10
_symmetry_space_group_name_H-M   'P 1'
_cell_length_a   8.49980728
_cell_length_b   9.85347167
_cell_length_c   12.02826970
_cell_angle_alpha   105.53534742
_cell_angle_beta   88.94288255
_cell_angle_gamma   113.99001637
_symmetry_Int_Tables_number   1
_chemical_formula_structural   KMnP3HO10
_chemical_formula_sum   'K4 Mn4 P12 H4 O40'
_cell_volume   882.05706707
_cell_formula_units_Z   4
loop_
 _symmetry_equiv_pos_site_id
 _symmetry_equiv_pos_as_xyz
  1  'x, y, z'
loop_
 _atom_site_type_symbol
 _atom_site_label
 _atom_site_symmetry_multiplicity
 _atom_site_fract_x
 _atom_site_fract_y
 _atom_site_fract_z
 _atom_site_occupancy
  K  K0  1  0.19146300  0.25796100  0.61288500  1
  K  K1  1  0.69033900  0.25638600  0.11346400  1
  K  K2  1  0.30838400  0.74229200  0.88703500  1
  K  K3  1  0.80981400  0.74355600  0.38676000  1
  Mn  Mn4  1  0.74987800  0.99975000  0.75005900  1
  Mn  Mn5  1  0.24970100  0.00021000  0.25015200  1
  Mn  Mn6  1  0.99984800  0.49993300  0.49995700  1
  Mn  Mn7  1  0.50101700  0.50038600  0.00030400  1
  P  P8  1  0.03743900  0.21389300  0.29256900  1
  P  P9  1  0.53821400  0.21376500  0.79252300  1
  P  P10  1  0.46185800  0.78628200  0.20739400  1
  P  P11  1  0.96212900  0.78622900  0.70746100  1
  P  P12  1  0.42283700  0.70353000  0.58812300  1
  P  P13  1  0.92327000  0.70365400  0.08787200  1
  P  P14  1  0.07729700  0.29627600  0.91167000  1
  P  P15  1  0.57697700  0.29651200  0.41208800  1
  P  P16  1  0.76647600  0.78478200  0.91418800  1
  P  P17  1  0.26623100  0.78449600  0.41408900  1
  P  P18  1  0.73358800  0.21505400  0.58567900  1
  P  P19  1  0.23379500  0.21570500  0.08608200  1
  H  H20  1  0.50071800  0.50192100  0.50008300  1
  H  H21  1  0.99934800  0.49710900  0.99974800  1
  H  H22  1  0.74816200  0.99832100  0.24996500  1
  H  H23  1  0.25090400  0.00074400  0.75000900  1
  O  O24  1  0.14478700  0.28301200  0.19211300  1
  O  O25  1  0.64442200  0.28239500  0.69183500  1
  O  O26  1  0.35577900  0.71743000  0.30807000  1
  O  O27  1  0.85540000  0.71736200  0.80804000  1
  O  O28  1  0.02453300  0.63091100  0.00401800  1
  O  O29  1  0.52490600  0.63119600  0.50392600  1
  O  O30  1  0.47589700  0.36945500  0.49618100  1
  O  O31  1  0.97506200  0.36880800  0.99578900  1
  O  O32  1  0.11436900  0.11348800  0.32817500  1
  O  O33  1  0.61485500  0.11291400  0.82771600  1
  O  O34  1  0.38526700  0.88692500  0.17219000  1
  O  O35  1  0.88501100  0.88681600  0.67223300  1
  O  O36  1  0.38836300  0.81982800  0.52616900  1
  O  O37  1  0.88856400  0.82050900  0.02626800  1
  O  O38  1  0.11152900  0.18016500  0.97390000  1
  O  O39  1  0.61141100  0.17955500  0.47366600  1
  O  O40  1  0.07594700  0.35927000  0.39241800  1
  O  O41  1  0.57616400  0.35876900  0.89233800  1
  O  O42  1  0.42443200  0.64129300  0.10765100  1
  O  O43  1  0.92396300  0.64112500  0.60756200  1
  O  O44  1  0.53038000  0.81349900  0.70304700  1
  O  O45  1  0.03024200  0.81361800  0.20316900  1
  O  O46  1  0.96944500  0.18617300  0.79688800  1
  O  O47  1  0.46933500  0.18661700  0.29701800  1
  O  O48  1  0.25041200  0.58796100  0.60950200  1
  O  O49  1  0.75009100  0.58897500  0.10964800  1
  O  O50  1  0.24969600  0.41186500  0.89037900  1
  O  O51  1  0.75003100  0.41109000  0.39023000  1
  O  O52  1  0.75820500  0.93166500  0.90834700  1
  O  O53  1  0.25815300  0.93148100  0.40847500  1
  O  O54  1  0.74158300  0.06803600  0.59145100  1
  O  O55  1  0.24192600  0.06870300  0.09168700  1
  O  O56  1  0.34838500  0.12518000  0.74076400  1
  O  O57  1  0.84813400  0.12552100  0.24054500  1
  O  O58  1  0.15172600  0.87471100  0.75918100  1
  O  O59  1  0.65175800  0.87502300  0.25937900  1
  O  O60  1  0.90921800  0.34660800  0.58644800  1
  O  O61  1  0.40950800  0.34697700  0.08645800  1
  O  O62  1  0.59080900  0.65324500  0.91359000  1
  O  O63  1  0.09061500  0.65308000  0.41337300  1
