# generated using pymatgen
data_Sc2V2O7
_symmetry_space_group_name_H-M   'P 1'
_cell_length_a   5.52456762
_cell_length_b   5.52456762
_cell_length_c   5.19295838
_cell_angle_alpha   84.28516513
_cell_angle_beta   84.28516513
_cell_angle_gamma   110.26780452
_symmetry_Int_Tables_number   1
_chemical_formula_structural   Sc2V2O7
_chemical_formula_sum   'Sc2 V2 O7'
_cell_volume   146.40715906
_cell_formula_units_Z   1
loop_
 _symmetry_equiv_pos_site_id
 _symmetry_equiv_pos_as_xyz
  1  'x, y, z'
loop_
 _atom_site_type_symbol
 _atom_site_label
 _atom_site_symmetry_multiplicity
 _atom_site_fract_x
 _atom_site_fract_y
 _atom_site_fract_z
 _atom_site_occupancy
  Sc  Sc0  1  0.68602600  0.31397400  0.50000000  1
  Sc  Sc1  1  0.31397400  0.68602600  0.50000000  1
  V  V2  1  0.74638800  0.74638800  0.89247100  1
  V  V3  1  0.25361200  0.25361200  0.10752900  1
  O  O4  1  0.94538800  0.60461400  0.69757000  1
  O  O5  1  0.60461400  0.94538800  0.69757000  1
  O  O6  1  0.56927600  0.56927600  0.22984700  1
  O  O7  1  0.43072400  0.43072400  0.77015300  1
  O  O8  1  0.00000000  0.00000000  0.00000000  1
  O  O9  1  0.39538600  0.05461200  0.30243000  1
  O  O10  1  0.05461200  0.39538600  0.30243000  1
