# generated using pymatgen
data_Na2In2P4H6O17
_symmetry_space_group_name_H-M   'P 1'
_cell_length_a   9.41861517
_cell_length_b   9.60377417
_cell_length_c   9.36900755
_cell_angle_alpha   90.00588537
_cell_angle_beta   99.19941908
_cell_angle_gamma   60.90855768
_symmetry_Int_Tables_number   1
_chemical_formula_structural   Na2In2P4H6O17
_chemical_formula_sum   'Na4 In4 P8 H12 O34'
_cell_volume   728.06306663
_cell_formula_units_Z   2
loop_
 _symmetry_equiv_pos_site_id
 _symmetry_equiv_pos_as_xyz
  1  'x, y, z'
loop_
 _atom_site_type_symbol
 _atom_site_label
 _atom_site_symmetry_multiplicity
 _atom_site_fract_x
 _atom_site_fract_y
 _atom_site_fract_z
 _atom_site_occupancy
  Na  Na0  1  0.88969100  0.19897600  0.25098000  1
  Na  Na1  1  0.52024800  0.70205100  0.69375000  1
  Na  Na2  1  0.47975200  0.29794900  0.30625000  1
  Na  Na3  1  0.11030900  0.80102400  0.74902000  1
  In  In4  1  0.75241700  0.70991200  0.13293600  1
  In  In5  1  0.73938700  0.21855300  0.63161000  1
  In  In6  1  0.26061300  0.78144700  0.36839000  1
  In  In7  1  0.24758300  0.29008800  0.86706400  1
  P  P8  1  0.84820200  0.91557500  0.40482300  1
  P  P9  1  0.83735500  0.41816200  0.88914500  1
  P  P10  1  0.69363000  0.54802400  0.42076600  1
  P  P11  1  0.33891700  0.99439300  0.13858500  1
  P  P12  1  0.66108300  0.00560700  0.86141500  1
  P  P13  1  0.30637000  0.45197600  0.57923400  1
  P  P14  1  0.16264500  0.58183800  0.11085500  1
  P  P15  1  0.15179800  0.08442500  0.59517700  1
  H  H16  1  0.95990800  0.79925000  0.99002400  1
  H  H17  1  0.87635400  0.73007700  0.55843400  1
  H  H18  1  0.87905300  0.49513800  0.63134300  1
  H  H19  1  0.45895300  0.01058300  0.70762300  1
  H  H20  1  0.60047900  0.39690700  0.09041300  1
  H  H21  1  0.59107600  0.24390200  0.04249800  1
  H  H22  1  0.40892400  0.75609800  0.95750200  1
  H  H23  1  0.39952100  0.60309300  0.90958700  1
  H  H24  1  0.54104700  0.98941700  0.29237700  1
  H  H25  1  0.12094700  0.50486200  0.36865700  1
  H  H26  1  0.12364600  0.26992300  0.44156600  1
  H  H27  1  0.04009200  0.20075000  0.00997600  1
  O  O28  1  0.98704400  0.91271700  0.33656700  1
  O  O29  1  0.93235000  0.79380000  0.54944400  1
  O  O30  1  0.73866300  0.86024000  0.30982600  1
  O  O31  1  0.97656600  0.41120500  0.81579300  1
  O  O32  1  0.91839300  0.27527400  0.01447000  1
  O  O33  1  0.77032100  0.87784700  0.99032600  1
  O  O34  1  0.81175500  0.57899400  0.54876500  1
  O  O35  1  0.76039500  0.53408200  0.27905900  1
  O  O36  1  0.57749500  0.92854200  0.74959800  1
  O  O37  1  0.47819900  0.84318400  0.08948500  1
  O  O38  1  0.73896000  0.57683800  0.95298200  1
  O  O39  1  0.70064100  0.38914500  0.45744200  1
  O  O40  1  0.52477700  0.69658600  0.41935300  1
  O  O41  1  0.70945000  0.40148600  0.77512900  1
  O  O42  1  0.62650200  0.29127500  0.12680200  1
  O  O43  1  0.73360400  0.08467700  0.44395600  1
  O  O44  1  0.78038200  0.03763500  0.79140300  1
  O  O45  1  0.21961800  0.96236500  0.20859700  1
  O  O46  1  0.26639600  0.91532300  0.55604400  1
  O  O47  1  0.37349800  0.70872500  0.87319800  1
  O  O48  1  0.29055000  0.59851400  0.22487100  1
  O  O49  1  0.47522300  0.30341400  0.58064700  1
  O  O50  1  0.29935900  0.61085500  0.54255900  1
  O  O51  1  0.26104000  0.42316200  0.04701800  1
  O  O52  1  0.52180100  0.15681600  0.91051500  1
  O  O53  1  0.42250500  0.07145800  0.25040200  1
  O  O54  1  0.23960500  0.46591800  0.72094100  1
  O  O55  1  0.18824500  0.42100600  0.45123500  1
  O  O56  1  0.22967900  0.12215300  0.00967400  1
  O  O57  1  0.08160700  0.72472600  0.98553000  1
  O  O58  1  0.02343400  0.58879500  0.18420700  1
  O  O59  1  0.26133700  0.13976000  0.69017400  1
  O  O60  1  0.06765000  0.20620000  0.45055600  1
  O  O61  1  0.01295600  0.08728300  0.66343300  1
