# generated using pymatgen
data_Fe4OF7
_symmetry_space_group_name_H-M   'P 1'
_cell_length_a   5.80228276
_cell_length_b   5.80228276
_cell_length_c   4.79182071
_cell_angle_alpha   88.76884891
_cell_angle_beta   88.76884891
_cell_angle_gamma   68.94433736
_symmetry_Int_Tables_number   1
_chemical_formula_structural   Fe4OF7
_chemical_formula_sum   'Fe4 O1 F7'
_cell_volume   150.50132895
_cell_formula_units_Z   1
loop_
 _symmetry_equiv_pos_site_id
 _symmetry_equiv_pos_as_xyz
  1  'x, y, z'
loop_
 _atom_site_type_symbol
 _atom_site_label
 _atom_site_symmetry_multiplicity
 _atom_site_fract_x
 _atom_site_fract_y
 _atom_site_fract_z
 _atom_site_occupancy
  Fe  Fe0  1  0.51259100  0.51259100  0.47890700  1
  Fe  Fe1  1  0.99821100  0.99821100  0.49824700  1
  Fe  Fe2  1  0.50145100  0.98973100  0.00907600  1
  Fe  Fe3  1  0.98973100  0.50145100  0.00907600  1
  O  O4  1  0.65020500  0.65020500  0.20779000  1
  F  F5  1  0.14756600  0.14756600  0.19784000  1
  F  F6  1  0.16580900  0.63794400  0.30859100  1
  F  F7  1  0.63794400  0.16580900  0.30859100  1
  F  F8  1  0.83700600  0.35405000  0.69557300  1
  F  F9  1  0.35405000  0.83700600  0.69557300  1
  F  F10  1  0.85279500  0.85279500  0.80131000  1
  F  F11  1  0.35264400  0.35264400  0.78942500  1
