# generated using pymatgen
data_Li2V(PO4)2
_symmetry_space_group_name_H-M   'P 1'
_cell_length_a   7.81406800
_cell_length_b   9.35050220
_cell_length_c   9.27819719
_cell_angle_alpha   112.36900444
_cell_angle_beta   90.00230714
_cell_angle_gamma   89.99691048
_symmetry_Int_Tables_number   1
_chemical_formula_structural   Li2V(PO4)2
_chemical_formula_sum   'Li8 V4 P8 O32'
_cell_volume   626.90397380
_cell_formula_units_Z   4
loop_
 _symmetry_equiv_pos_site_id
 _symmetry_equiv_pos_as_xyz
  1  'x, y, z'
loop_
 _atom_site_type_symbol
 _atom_site_label
 _atom_site_symmetry_multiplicity
 _atom_site_fract_x
 _atom_site_fract_y
 _atom_site_fract_z
 _atom_site_occupancy
  Li  Li0  1  0.35336400  0.97073800  0.04555100  1
  Li  Li1  1  0.35336400  0.47075400  0.54555600  1
  Li  Li2  1  0.85323500  0.02930700  0.45454500  1
  Li  Li3  1  0.85332300  0.52927000  0.95440400  1
  Li  Li4  1  0.14661800  0.97073800  0.54558000  1
  Li  Li5  1  0.14666900  0.47080800  0.04558500  1
  Li  Li6  1  0.64673200  0.02922100  0.95438200  1
  Li  Li7  1  0.64676100  0.52932400  0.45451200  1
  V  V8  1  0.00000600  0.50006500  0.50014700  1
  V  V9  1  0.49981500  0.99999200  0.49995300  1
  V  V10  1  0.99990800  0.99996600  0.00006600  1
  V  V11  1  0.50001900  0.49989300  0.99994200  1
  P  P12  1  0.19376000  0.15336100  0.35345300  1
  P  P13  1  0.19390400  0.65341600  0.85352200  1
  P  P14  1  0.69384900  0.84659000  0.14651800  1
  P  P15  1  0.69380600  0.34658700  0.64650200  1
  P  P16  1  0.30610600  0.15336400  0.85349700  1
  P  P17  1  0.30619300  0.65332100  0.35346500  1
  P  P18  1  0.80613800  0.84664200  0.64650600  1
  P  P19  1  0.80618600  0.34663600  0.14653000  1
  O  O20  1  0.83179000  0.90748500  0.82710200  1
  O  O21  1  0.83181000  0.40750100  0.32716000  1
  O  O22  1  0.33170500  0.09250400  0.67282900  1
  O  O23  1  0.33178300  0.59247600  0.17284100  1
  O  O24  1  0.66819100  0.90753300  0.32712900  1
  O  O25  1  0.66824300  0.40749000  0.82713100  1
  O  O26  1  0.16822600  0.09248000  0.17279800  1
  O  O27  1  0.16826800  0.59248800  0.67285800  1
  O  O28  1  0.17619800  0.33351000  0.41927000  1
  O  O29  1  0.17624000  0.83352400  0.91925900  1
  O  O30  1  0.67601500  0.16646200  0.58073700  1
  O  O31  1  0.67623200  0.66649600  0.08071200  1
  O  O32  1  0.32373400  0.83349800  0.41926500  1
  O  O33  1  0.32382500  0.33351200  0.91928100  1
  O  O34  1  0.82393300  0.66647500  0.58075500  1
  O  O35  1  0.82385900  0.16649600  0.08069900  1
  O  O36  1  0.56680000  0.91662500  0.07213100  1
  O  O37  1  0.56676400  0.41662300  0.57219100  1
  O  O38  1  0.06667200  0.08344700  0.42784000  1
  O  O39  1  0.06672100  0.58342800  0.92779500  1
  O  O40  1  0.93325100  0.91660200  0.57218500  1
  O  O41  1  0.93328700  0.41660900  0.07215200  1
  O  O42  1  0.43332500  0.08339800  0.92777900  1
  O  O43  1  0.43330500  0.58346500  0.42788700  1
  O  O44  1  0.38191900  0.11078400  0.38572900  1
  O  O45  1  0.38198100  0.61073500  0.88577800  1
  O  O46  1  0.88200500  0.88927000  0.11425200  1
  O  O47  1  0.88197800  0.38914900  0.61422800  1
  O  O48  1  0.11804900  0.11077400  0.88579900  1
  O  O49  1  0.11807000  0.61075300  0.38578200  1
  O  O50  1  0.61801100  0.88919300  0.61419300  1
  O  O51  1  0.61805700  0.38922000  0.11423800  1
