# generated using pymatgen
data_V(CO3)2
_symmetry_space_group_name_H-M   'P 1'
_cell_length_a   6.14020080
_cell_length_b   12.28108232
_cell_length_c   6.84299231
_cell_angle_alpha   76.28116459
_cell_angle_beta   103.61402933
_cell_angle_gamma   86.95748195
_symmetry_Int_Tables_number   1
_chemical_formula_structural   V(CO3)2
_chemical_formula_sum   'V4 C8 O24'
_cell_volume   483.96087100
_cell_formula_units_Z   4
loop_
 _symmetry_equiv_pos_site_id
 _symmetry_equiv_pos_as_xyz
  1  'x, y, z'
loop_
 _atom_site_type_symbol
 _atom_site_label
 _atom_site_symmetry_multiplicity
 _atom_site_fract_x
 _atom_site_fract_y
 _atom_site_fract_z
 _atom_site_occupancy
  V  V0  1  0.17417800  0.58699800  0.25045600  1
  V  V1  1  0.82596200  0.91299400  0.74947600  1
  V  V2  1  0.17411800  0.08722100  0.24969700  1
  V  V3  1  0.82584400  0.41278100  0.75032000  1
  C  C4  1  0.10871500  0.34466500  0.19477300  1
  C  C5  1  0.10819900  0.84467500  0.19453400  1
  C  C6  1  0.31076000  0.44546100  0.69503000  1
  C  C7  1  0.31092200  0.94577900  0.69441100  1
  C  C8  1  0.68918800  0.05455100  0.30501000  1
  C  C9  1  0.68919100  0.55417800  0.30562600  1
  C  C10  1  0.89124500  0.15534600  0.80522500  1
  C  C11  1  0.89179000  0.65531700  0.80543800  1
  O  O12  1  0.07677500  0.13313900  0.95892500  1
  O  O13  1  0.07701000  0.63306800  0.95945900  1
  O  O14  1  0.26673300  0.03867800  0.54058600  1
  O  O15  1  0.26648200  0.53833800  0.54121700  1
  O  O16  1  0.73330600  0.46132700  0.45948000  1
  O  O17  1  0.73349600  0.96164900  0.45876800  1
  O  O18  1  0.92307500  0.36688100  0.04114300  1
  O  O19  1  0.92304000  0.86694700  0.04050000  1
  O  O20  1  0.15041800  0.39779900  0.75644000  1
  O  O21  1  0.15050600  0.89834200  0.75602200  1
  O  O22  1  0.20308400  0.42471700  0.25700500  1
  O  O23  1  0.20246100  0.92476000  0.25695800  1
  O  O24  1  0.79697700  0.07530600  0.74284800  1
  O  O25  1  0.79747400  0.57525000  0.74311300  1
  O  O26  1  0.84955100  0.10223400  0.24365900  1
  O  O27  1  0.84955400  0.60159600  0.24390300  1
  O  O28  1  0.19276100  0.24324500  0.28397700  1
  O  O29  1  0.19197400  0.74326500  0.28409300  1
  O  O30  1  0.51345400  0.40382400  0.78515500  1
  O  O31  1  0.51350800  0.90393000  0.78425700  1
  O  O32  1  0.48648600  0.09617600  0.21488900  1
  O  O33  1  0.48655800  0.59604700  0.21574900  1
  O  O34  1  0.80712100  0.25675900  0.71603100  1
  O  O35  1  0.80808500  0.75675600  0.71582900  1
