# generated using pymatgen
data_FeOF
_symmetry_space_group_name_H-M   'P 1'
_cell_length_a   4.77181926
_cell_length_b   4.77181926
_cell_length_c   12.22597100
_cell_angle_alpha   90.00000000
_cell_angle_beta   90.00000000
_cell_angle_gamma   90.04477791
_symmetry_Int_Tables_number   1
_chemical_formula_structural   FeOF
_chemical_formula_sum   'Fe8 O8 F8'
_cell_volume   278.38844184
_cell_formula_units_Z   8
loop_
 _symmetry_equiv_pos_site_id
 _symmetry_equiv_pos_as_xyz
  1  'x, y, z'
loop_
 _atom_site_type_symbol
 _atom_site_label
 _atom_site_symmetry_multiplicity
 _atom_site_fract_x
 _atom_site_fract_y
 _atom_site_fract_z
 _atom_site_occupancy
  Fe  Fe0  1  0.03642000  0.96358000  0.00000000  1
  Fe  Fe1  1  0.94526200  0.01755000  0.25000000  1
  Fe  Fe2  1  0.03642000  0.96358000  0.50000000  1
  Fe  Fe3  1  0.98245000  0.05473800  0.75000000  1
  Fe  Fe4  1  0.52907300  0.52876900  0.12464300  1
  Fe  Fe5  1  0.47123100  0.47092700  0.62464300  1
  Fe  Fe6  1  0.47123100  0.47092700  0.87535700  1
  Fe  Fe7  1  0.52907300  0.52876900  0.37535700  1
  O  O8  1  0.18285600  0.18501700  0.62206500  1
  O  O9  1  0.18285600  0.18501700  0.87793500  1
  O  O10  1  0.68640300  0.32699800  0.25000000  1
  O  O11  1  0.67300200  0.31359700  0.75000000  1
  O  O12  1  0.32087200  0.67912800  0.00000000  1
  O  O13  1  0.32087200  0.67912800  0.50000000  1
  O  O14  1  0.81498300  0.81714400  0.12206500  1
  O  O15  1  0.81498300  0.81714400  0.37793500  1
  F  F16  1  0.20235300  0.19987700  0.12709600  1
  F  F17  1  0.20235300  0.19987700  0.37290400  1
  F  F18  1  0.70425800  0.29574200  0.00000000  1
  F  F19  1  0.70425800  0.29574200  0.50000000  1
  F  F20  1  0.30489900  0.71635400  0.25000000  1
  F  F21  1  0.28364600  0.69510100  0.75000000  1
  F  F22  1  0.80012300  0.79764700  0.62709600  1
  F  F23  1  0.80012300  0.79764700  0.87290400  1
