# generated using pymatgen
data_Ni3OF5
_symmetry_space_group_name_H-M   'P 1'
_cell_length_a   4.70218905
_cell_length_b   9.29649100
_cell_length_c   4.71147405
_cell_angle_alpha   90.00244856
_cell_angle_beta   90.01599520
_cell_angle_gamma   90.00000599
_symmetry_Int_Tables_number   1
_chemical_formula_structural   Ni3OF5
_chemical_formula_sum   'Ni6 O2 F10'
_cell_volume   205.95669997
_cell_formula_units_Z   2
loop_
 _symmetry_equiv_pos_site_id
 _symmetry_equiv_pos_as_xyz
  1  'x, y, z'
loop_
 _atom_site_type_symbol
 _atom_site_label
 _atom_site_symmetry_multiplicity
 _atom_site_fract_x
 _atom_site_fract_y
 _atom_site_fract_z
 _atom_site_occupancy
  Ni  Ni0  1  0.01058100  0.00001200  0.01249900  1
  Ni  Ni1  1  0.49419200  0.16308600  0.49805800  1
  Ni  Ni2  1  0.49418500  0.83688100  0.49812600  1
  Ni  Ni3  1  0.51072300  0.49998500  0.48745300  1
  Ni  Ni4  1  0.99418400  0.66325900  0.00192400  1
  Ni  Ni5  1  0.99422100  0.33675500  0.00189600  1
  O  O6  1  0.80399100  0.49999900  0.18995600  1
  O  O7  1  0.30401600  0.00003000  0.31000100  1
  F  F8  1  0.70278400  0.00000300  0.70571300  1
  F  F9  1  0.20313500  0.50000100  0.79429700  1
  F  F10  1  0.80251100  0.16665500  0.19780500  1
  F  F11  1  0.80244800  0.83331800  0.19769100  1
  F  F12  1  0.30242500  0.33351800  0.30223900  1
  F  F13  1  0.30242100  0.66647700  0.30224500  1
  F  F14  1  0.69455700  0.33135600  0.69306300  1
  F  F15  1  0.69456300  0.66864700  0.69306600  1
  F  F16  1  0.19452300  0.83117100  0.80704400  1
  F  F17  1  0.19454400  0.16884600  0.80692400  1
