# generated using pymatgen
data_V2O3F
_symmetry_space_group_name_H-M   'P 1'
_cell_length_a   5.59270342
_cell_length_b   9.83988850
_cell_length_c   5.57097010
_cell_angle_alpha   78.16779692
_cell_angle_beta   65.54843327
_cell_angle_gamma   97.73760411
_symmetry_Int_Tables_number   1
_chemical_formula_structural   V2O3F
_chemical_formula_sum   'V8 O12 F4'
_cell_volume   264.73292103
_cell_formula_units_Z   4
loop_
 _symmetry_equiv_pos_site_id
 _symmetry_equiv_pos_as_xyz
  1  'x, y, z'
loop_
 _atom_site_type_symbol
 _atom_site_label
 _atom_site_symmetry_multiplicity
 _atom_site_fract_x
 _atom_site_fract_y
 _atom_site_fract_z
 _atom_site_occupancy
  V  V0  1  0.91267000  0.77372300  0.63669300  1
  V  V1  1  0.62597800  0.25028000  0.87565400  1
  V  V2  1  0.51902000  0.00002400  0.49808200  1
  V  V3  1  0.73272800  0.50031700  0.25325300  1
  V  V4  1  0.25048400  0.49794800  0.74110700  1
  V  V5  1  0.33916100  0.72671400  0.11469000  1
  V  V6  1  0.12576800  0.25027600  0.37583000  1
  V  V7  1  0.00156100  0.00260600  0.01031400  1
  O  O8  1  0.92706700  0.15330400  0.77302500  1
  O  O9  1  0.58197700  0.84667600  0.73271400  1
  O  O10  1  0.32501400  0.34725200  0.97850700  1
  O  O11  1  0.81259800  0.34598600  0.49619800  1
  O  O12  1  0.90680400  0.10303900  0.30159900  1
  O  O13  1  0.34488800  0.39748900  0.44986900  1
  O  O14  1  0.11413400  0.90559700  0.70301900  1
  O  O15  1  0.17134200  0.65401000  0.51918400  1
  O  O16  1  0.66971900  0.65367200  0.01826300  1
  O  O17  1  0.43890500  0.15428600  0.25553300  1
  O  O18  1  0.08074700  0.84667100  0.23220500  1
  O  O19  1  0.13752300  0.59496400  0.04856100  1
  F  F20  1  0.84390800  0.39771900  0.95035800  1
  F  F21  1  0.65091400  0.60332300  0.54982300  1
  F  F22  1  0.40817800  0.10251800  0.80115300  1
  F  F23  1  0.60114900  0.89736600  0.20090600  1
