# generated using pymatgen
data_Na5CrO4
_symmetry_space_group_name_H-M   'P 1'
_cell_length_a   6.02218700
_cell_length_b   10.77020700
_cell_length_c   17.96886500
_cell_angle_alpha   90.00000000
_cell_angle_beta   90.00000000
_cell_angle_gamma   90.00000000
_symmetry_Int_Tables_number   1
_chemical_formula_structural   Na5CrO4
_chemical_formula_sum   'Na40 Cr8 O32'
_cell_volume   1165.46418814
_cell_formula_units_Z   8
loop_
 _symmetry_equiv_pos_site_id
 _symmetry_equiv_pos_as_xyz
  1  'x, y, z'
loop_
 _atom_site_type_symbol
 _atom_site_label
 _atom_site_symmetry_multiplicity
 _atom_site_fract_x
 _atom_site_fract_y
 _atom_site_fract_z
 _atom_site_occupancy
  Na  Na0  1  0.91712200  0.92796200  0.43640000  1
  Na  Na1  1  0.58287800  0.92796200  0.93640000  1
  Na  Na2  1  0.40310300  0.92591400  0.75248200  1
  Na  Na3  1  0.09689700  0.92591400  0.25248200  1
  Na  Na4  1  0.08150900  0.83818900  0.00157500  1
  Na  Na5  1  0.41849100  0.83818900  0.50157500  1
  Na  Na6  1  0.89320400  0.82308700  0.82692700  1
  Na  Na7  1  0.60679600  0.82308700  0.32692700  1
  Na  Na8  1  0.40573600  0.80480900  0.13889000  1
  Na  Na9  1  0.09426400  0.80480900  0.63889000  1
  Na  Na10  1  0.90573600  0.69519100  0.13889000  1
  Na  Na11  1  0.59426400  0.69519100  0.63889000  1
  Na  Na12  1  0.39320400  0.67691300  0.82692700  1
  Na  Na13  1  0.10679600  0.67691300  0.32692700  1
  Na  Na14  1  0.58150900  0.66181100  0.00157500  1
  Na  Na15  1  0.91849100  0.66181100  0.50157500  1
  Na  Na16  1  0.59689700  0.57408600  0.25248200  1
  Na  Na17  1  0.90310300  0.57408600  0.75248200  1
  Na  Na18  1  0.08287800  0.57203800  0.93640000  1
  Na  Na19  1  0.41712200  0.57203800  0.43640000  1
  Na  Na20  1  0.91712200  0.42796200  0.06360000  1
  Na  Na21  1  0.58287800  0.42796200  0.56360000  1
  Na  Na22  1  0.09689700  0.42591400  0.24751800  1
  Na  Na23  1  0.40310300  0.42591400  0.74751800  1
  Na  Na24  1  0.41849100  0.33818900  0.99842500  1
  Na  Na25  1  0.08150900  0.33818900  0.49842500  1
  Na  Na26  1  0.60679600  0.32308700  0.17307300  1
  Na  Na27  1  0.89320400  0.32308700  0.67307300  1
  Na  Na28  1  0.40573600  0.30480900  0.36111000  1
  Na  Na29  1  0.09426400  0.30480900  0.86111000  1
  Na  Na30  1  0.90573600  0.19519100  0.36111000  1
  Na  Na31  1  0.59426400  0.19519100  0.86111000  1
  Na  Na32  1  0.39320400  0.17691300  0.67307300  1
  Na  Na33  1  0.10679600  0.17691300  0.17307300  1
  Na  Na34  1  0.58150900  0.16181100  0.49842500  1
  Na  Na35  1  0.91849100  0.16181100  0.99842500  1
  Na  Na36  1  0.90310300  0.07408600  0.74751800  1
  Na  Na37  1  0.59689700  0.07408600  0.24751800  1
  Na  Na38  1  0.08287800  0.07203800  0.56360000  1
  Na  Na39  1  0.41712200  0.07203800  0.06360000  1
  Cr  Cr40  1  0.82412100  0.95979000  0.12201800  1
  Cr  Cr41  1  0.67587900  0.95979000  0.62201800  1
  Cr  Cr42  1  0.32412100  0.54021000  0.12201800  1
  Cr  Cr43  1  0.17587900  0.54021000  0.62201800  1
  Cr  Cr44  1  0.82412100  0.45979000  0.37798200  1
  Cr  Cr45  1  0.67587900  0.45979000  0.87798200  1
  Cr  Cr46  1  0.32412100  0.04021000  0.37798200  1
  Cr  Cr47  1  0.17587900  0.04021000  0.87798200  1
  O  O48  1  0.14020900  0.96959500  0.12015200  1
  O  O49  1  0.35979100  0.96959500  0.62015200  1
  O  O50  1  0.72950400  0.86943800  0.20886200  1
  O  O51  1  0.77049600  0.86943800  0.70886200  1
  O  O52  1  0.69014300  0.85503300  0.04876500  1
  O  O53  1  0.80985700  0.85503300  0.54876500  1
  O  O54  1  0.24948300  0.86374900  0.37538000  1
  O  O55  1  0.25051700  0.86374900  0.87538000  1
  O  O56  1  0.74948300  0.63625100  0.37538000  1
  O  O57  1  0.75051700  0.63625100  0.87538000  1
  O  O58  1  0.19014300  0.64496700  0.04876500  1
  O  O59  1  0.30985700  0.64496700  0.54876500  1
  O  O60  1  0.27049600  0.63056200  0.70886200  1
  O  O61  1  0.22950400  0.63056200  0.20886200  1
  O  O62  1  0.64020900  0.53040500  0.12015200  1
  O  O63  1  0.85979100  0.53040500  0.62015200  1
  O  O64  1  0.14020900  0.46959500  0.37984800  1
  O  O65  1  0.35979100  0.46959500  0.87984800  1
  O  O66  1  0.77049600  0.36943800  0.79113800  1
  O  O67  1  0.72950400  0.36943800  0.29113800  1
  O  O68  1  0.80985700  0.35503300  0.95123500  1
  O  O69  1  0.69014300  0.35503300  0.45123500  1
  O  O70  1  0.24948300  0.36374900  0.12462000  1
  O  O71  1  0.25051700  0.36374900  0.62462000  1
  O  O72  1  0.75051700  0.13625100  0.62462000  1
  O  O73  1  0.74948300  0.13625100  0.12462000  1
  O  O74  1  0.19014300  0.14496700  0.45123500  1
  O  O75  1  0.30985700  0.14496700  0.95123500  1
  O  O76  1  0.27049600  0.13056200  0.79113800  1
  O  O77  1  0.22950400  0.13056200  0.29113800  1
  O  O78  1  0.64020900  0.03040500  0.37984800  1
  O  O79  1  0.85979100  0.03040500  0.87984800  1
