# generated using pymatgen
data_Li6MnV3(PO4)6
_symmetry_space_group_name_H-M   'P 1'
_cell_length_a   9.86197505
_cell_length_b   9.86197505
_cell_length_c   9.89201011
_cell_angle_alpha   86.96288146
_cell_angle_beta   86.96288146
_cell_angle_gamma   87.57421703
_symmetry_Int_Tables_number   1
_chemical_formula_structural   Li6MnV3(PO4)6
_chemical_formula_sum   'Li12 Mn2 V6 P12 O48'
_cell_volume   958.62818957
_cell_formula_units_Z   2
loop_
 _symmetry_equiv_pos_site_id
 _symmetry_equiv_pos_as_xyz
  1  'x, y, z'
loop_
 _atom_site_type_symbol
 _atom_site_label
 _atom_site_symmetry_multiplicity
 _atom_site_fract_x
 _atom_site_fract_y
 _atom_site_fract_z
 _atom_site_occupancy
  Li  Li0  1  0.97904800  0.54915700  0.75518400  1
  Li  Li1  1  0.14404600  0.23594700  0.81139600  1
  Li  Li2  1  0.72856100  0.57172800  0.88729300  1
  Li  Li3  1  0.64542800  0.05968000  0.98143600  1
  Li  Li4  1  0.94032000  0.35457200  0.01856400  1
  Li  Li5  1  0.42827200  0.27143900  0.11270700  1
  Li  Li6  1  0.76405300  0.85595400  0.18860400  1
  Li  Li7  1  0.45084300  0.02095200  0.24481600  1
  Li  Li8  1  0.55847900  0.73277900  0.39148400  1
  Li  Li9  1  0.35783400  0.96242400  0.51782300  1
  Li  Li10  1  0.03757600  0.64216600  0.48217700  1
  Li  Li11  1  0.26722100  0.44152100  0.60851600  1
  Mn  Mn12  1  0.74356900  0.46838200  0.27750000  1
  Mn  Mn13  1  0.53161800  0.25643100  0.72250000  1
  V  V14  1  0.47108600  0.75407800  0.78322900  1
  V  V15  1  0.25008100  0.74991900  0.00000000  1
  V  V16  1  0.03612600  0.96387400  0.00000000  1
  V  V17  1  0.24592200  0.52891400  0.21677100  1
  V  V18  1  0.96799700  0.03200300  0.50000000  1
  V  V19  1  0.74855100  0.25144900  0.50000000  1
  P  P20  1  0.85939900  0.16866300  0.80092800  1
  P  P21  1  0.33206600  0.45393300  0.89871900  1
  P  P22  1  0.35310500  0.05020500  0.92249800  1
  P  P23  1  0.94979500  0.64689500  0.07750200  1
  P  P24  1  0.54606700  0.66793400  0.10128100  1
  P  P25  1  0.83133700  0.14060100  0.19907200  1
  P  P26  1  0.17657200  0.84694800  0.30018500  1
  P  P27  1  0.44948300  0.32194400  0.39287000  1
  P  P28  1  0.04674800  0.34784000  0.42217600  1
  P  P29  1  0.65216000  0.95325200  0.57782400  1
  P  P30  1  0.67805600  0.55051700  0.60713000  1
  P  P31  1  0.15305200  0.82342800  0.69981500  1
  O  O32  1  0.39756000  0.11484000  0.78286700  1
  O  O33  1  0.22610900  0.40631100  0.80615500  1
  O  O34  1  0.12336100  0.82936200  0.85943400  1
  O  O35  1  0.33170100  0.61455700  0.87246600  1
  O  O36  1  0.70694300  0.19035200  0.84073100  1
  O  O37  1  0.47535500  0.39133600  0.86738200  1
  O  O38  1  0.94950900  0.28138400  0.84206800  1
  O  O39  1  0.90678300  0.02988500  0.86525200  1
  O  O40  1  0.37862300  0.88959100  0.92026200  1
  O  O41  1  0.19820600  0.08554600  0.94309800  1
  O  O42  1  0.58294600  0.70301900  0.94766800  1
  O  O43  1  0.90643400  0.56024900  0.96345400  1
  O  O44  1  0.11040900  0.62137700  0.07973800  1
  O  O45  1  0.43975100  0.09356600  0.03654600  1
  O  O46  1  0.29698100  0.41705400  0.05233200  1
  O  O47  1  0.91445400  0.80179400  0.05690200  1
  O  O48  1  0.38544300  0.66829900  0.12753400  1
  O  O49  1  0.17063800  0.87663900  0.14056600  1
  O  O50  1  0.60866400  0.52464500  0.13261800  1
  O  O51  1  0.97011500  0.09321700  0.13474800  1
  O  O52  1  0.71861600  0.05049100  0.15793200  1
  O  O53  1  0.59368900  0.77389100  0.19384500  1
  O  O54  1  0.80964800  0.29305700  0.15926900  1
  O  O55  1  0.88516000  0.60244000  0.21713300  1
  O  O56  1  0.11082900  0.38736300  0.28219300  1
  O  O57  1  0.17422500  0.68918500  0.33187000  1
  O  O58  1  0.30310200  0.91037000  0.34512800  1
  O  O59  1  0.41403300  0.20579500  0.30760800  1
  O  O60  1  0.04247100  0.90578500  0.36760900  1
  O  O61  1  0.38630200  0.46007200  0.33561100  1
  O  O62  1  0.83667500  0.12168300  0.36053200  1
  O  O63  1  0.61040800  0.33255100  0.37308700  1
  O  O64  1  0.69100600  0.59248900  0.45460600  1
  O  O65  1  0.07223200  0.18846400  0.45268200  1
  O  O66  1  0.56608000  0.90336600  0.46728200  1
  O  O67  1  0.88823700  0.37677800  0.42160900  1
  O  O68  1  0.09663400  0.43392000  0.53271800  1
  O  O69  1  0.81153600  0.92776800  0.54731800  1
  O  O70  1  0.40751100  0.30899400  0.54539400  1
  O  O71  1  0.62322200  0.11176300  0.57839100  1
  O  O72  1  0.09421500  0.95752900  0.63239100  1
  O  O73  1  0.08963000  0.69689800  0.65487200  1
  O  O74  1  0.53992800  0.61369800  0.66438900  1
  O  O75  1  0.31081500  0.82577500  0.66813000  1
  O  O76  1  0.66744900  0.38959200  0.62691300  1
  O  O77  1  0.79420500  0.58596700  0.69239200  1
  O  O78  1  0.87831700  0.16332500  0.63946800  1
  O  O79  1  0.61263700  0.88917100  0.71780700  1
