# generated using pymatgen
data_Mn6O7F5
_symmetry_space_group_name_H-M   'P 1'
_cell_length_a   4.60104063
_cell_length_b   5.64094231
_cell_length_c   15.32511056
_cell_angle_alpha   89.87130938
_cell_angle_beta   89.68165270
_cell_angle_gamma   89.28746059
_symmetry_Int_Tables_number   1
_chemical_formula_structural   Mn6O7F5
_chemical_formula_sum   'Mn12 O14 F10'
_cell_volume   397.71321825
_cell_formula_units_Z   2
loop_
 _symmetry_equiv_pos_site_id
 _symmetry_equiv_pos_as_xyz
  1  'x, y, z'
loop_
 _atom_site_type_symbol
 _atom_site_label
 _atom_site_symmetry_multiplicity
 _atom_site_fract_x
 _atom_site_fract_y
 _atom_site_fract_z
 _atom_site_occupancy
  Mn  Mn0  1  0.00576900  0.14947900  0.40718100  1
  Mn  Mn1  1  0.02351300  0.83511500  0.24245000  1
  Mn  Mn2  1  0.99732900  0.15753000  0.07918600  1
  Mn  Mn3  1  0.05122100  0.15387700  0.74897300  1
  Mn  Mn4  1  0.01294500  0.83501300  0.57786300  1
  Mn  Mn5  1  0.04213700  0.84757800  0.91718900  1
  Mn  Mn6  1  0.48920300  0.35590900  0.58593100  1
  Mn  Mn7  1  0.48778700  0.35299700  0.92494500  1
  Mn  Mn8  1  0.50103800  0.36570300  0.25988500  1
  Mn  Mn9  1  0.50046900  0.64824800  0.08692200  1
  Mn  Mn10  1  0.49802900  0.65465600  0.41976300  1
  Mn  Mn11  1  0.47839100  0.64622400  0.75212800  1
  O  O12  1  0.23433100  0.11265400  0.30077500  1
  O  O13  1  0.22928500  0.10842800  0.63572400  1
  O  O14  1  0.22727900  0.11600700  0.97163400  1
  O  O15  1  0.21442000  0.88320500  0.13314600  1
  O  O16  1  0.21723200  0.89090600  0.46806400  1
  O  O17  1  0.23648200  0.88594700  0.80500600  1
  O  O18  1  0.27981100  0.60963600  0.31192000  1
  O  O19  1  0.27413600  0.60322000  0.64693900  1
  O  O20  1  0.29082600  0.39249200  0.81231700  1
  O  O21  1  0.27595200  0.60908900  0.97845900  1
  O  O22  1  0.72028600  0.38250300  0.02886400  1
  O  O23  1  0.72525000  0.61197600  0.19487500  1
  O  O24  1  0.72257300  0.38032400  0.36262100  1
  O  O25  1  0.71692900  0.61621500  0.52818800  1
  F  F26  1  0.25539800  0.38126800  0.15365200  1
  F  F27  1  0.23445500  0.39013100  0.47557100  1
  F  F28  1  0.74172600  0.62887600  0.85922900  1
  F  F29  1  0.75908200  0.38510500  0.70102600  1
  F  F30  1  0.74668400  0.12663600  0.19069000  1
  F  F31  1  0.74706600  0.12334000  0.52189000  1
  F  F32  1  0.77181100  0.87673900  0.34901000  1
  F  F33  1  0.75957300  0.88140700  0.01683100  1
  F  F34  1  0.77135700  0.12608200  0.85872000  1
  F  F35  1  0.76022600  0.87548300  0.69243600  1
