# generated using pymatgen
data_MnFeCo(PO4)3
_symmetry_space_group_name_H-M   'P 1'
_cell_length_a   5.96539000
_cell_length_b   9.88691800
_cell_length_c   14.60070600
_cell_angle_alpha   90.00000000
_cell_angle_beta   90.00000000
_cell_angle_gamma   90.00000000
_symmetry_Int_Tables_number   1
_chemical_formula_structural   MnFeCo(PO4)3
_chemical_formula_sum   'Mn4 Fe4 Co4 P12 O48'
_cell_volume   861.13973721
_cell_formula_units_Z   4
loop_
 _symmetry_equiv_pos_site_id
 _symmetry_equiv_pos_as_xyz
  1  'x, y, z'
loop_
 _atom_site_type_symbol
 _atom_site_label
 _atom_site_symmetry_multiplicity
 _atom_site_fract_x
 _atom_site_fract_y
 _atom_site_fract_z
 _atom_site_occupancy
  Mn  Mn0  1  0.00000000  0.53262900  0.51966300  1
  Mn  Mn1  1  0.50000000  0.46737100  0.01966300  1
  Mn  Mn2  1  0.00000000  0.03230200  0.64761300  1
  Mn  Mn3  1  0.50000000  0.96769800  0.14761300  1
  Fe  Fe4  1  0.00000000  0.52340100  0.17823100  1
  Fe  Fe5  1  0.50000000  0.47659900  0.67823100  1
  Fe  Fe6  1  0.00000000  0.02470500  0.32318100  1
  Fe  Fe7  1  0.50000000  0.97529500  0.82318100  1
  Co  Co8  1  0.00000000  0.53068200  0.84867000  1
  Co  Co9  1  0.50000000  0.46931800  0.34867000  1
  Co  Co10  1  0.00000000  0.02006300  0.98961500  1
  Co  Co11  1  0.50000000  0.97993700  0.48961500  1
  P  P12  1  0.50000000  0.65145900  0.86160100  1
  P  P13  1  0.50000000  0.65516000  0.52446400  1
  P  P14  1  0.50000000  0.65021400  0.19466200  1
  P  P15  1  0.00000000  0.34978600  0.69466200  1
  P  P16  1  0.00000000  0.34854100  0.36160100  1
  P  P17  1  0.00000000  0.34484000  0.02446400  1
  P  P18  1  0.50000000  0.15030000  0.97308700  1
  P  P19  1  0.50000000  0.15318400  0.63857800  1
  P  P20  1  0.50000000  0.15079100  0.30478800  1
  P  P21  1  0.00000000  0.84920900  0.80478800  1
  P  P22  1  0.00000000  0.84970000  0.47308700  1
  P  P23  1  0.00000000  0.84681600  0.13857800  1
  O  O24  1  0.00000000  0.69820600  0.78211400  1
  O  O25  1  0.00000000  0.69666900  0.45218200  1
  O  O26  1  0.00000000  0.69646900  0.11498700  1
  O  O27  1  0.50000000  0.63139900  0.75773500  1
  O  O28  1  0.50000000  0.63535200  0.42159100  1
  O  O29  1  0.50000000  0.63099700  0.08941100  1
  O  O30  1  0.70606100  0.57738100  0.90786600  1
  O  O31  1  0.69773600  0.57986200  0.57598300  1
  O  O32  1  0.70248800  0.57839700  0.24232000  1
  O  O33  1  0.29393900  0.57738100  0.90786600  1
  O  O34  1  0.30226400  0.57986200  0.57598300  1
  O  O35  1  0.29751200  0.57839700  0.24232000  1
  O  O36  1  0.20248800  0.42160300  0.74232000  1
  O  O37  1  0.20606100  0.42261900  0.40786600  1
  O  O38  1  0.19773600  0.42013800  0.07598300  1
  O  O39  1  0.79751200  0.42160300  0.74232000  1
  O  O40  1  0.79393900  0.42261900  0.40786600  1
  O  O41  1  0.80226400  0.42013800  0.07598300  1
  O  O42  1  0.00000000  0.36464800  0.92159100  1
  O  O43  1  0.00000000  0.36900300  0.58941100  1
  O  O44  1  0.00000000  0.36860100  0.25773500  1
  O  O45  1  0.50000000  0.30333100  0.95218200  1
  O  O46  1  0.50000000  0.30353100  0.61498700  1
  O  O47  1  0.50000000  0.30179400  0.28211400  1
  O  O48  1  0.00000000  0.19725000  0.71550900  1
  O  O49  1  0.00000000  0.19875600  0.38615900  1
  O  O50  1  0.00000000  0.19282500  0.04851800  1
  O  O51  1  0.50000000  0.13124300  0.74163000  1
  O  O52  1  0.50000000  0.12854000  0.41053600  1
  O  O53  1  0.50000000  0.13184700  0.07825100  1
  O  O54  1  0.70041800  0.07945900  0.92368500  1
  O  O55  1  0.69988200  0.07800400  0.58891600  1
  O  O56  1  0.70473600  0.07804100  0.25984400  1
  O  O57  1  0.29958200  0.07945900  0.92368500  1
  O  O58  1  0.30011800  0.07800400  0.58891600  1
  O  O59  1  0.29526400  0.07804100  0.25984400  1
  O  O60  1  0.20473600  0.92195900  0.75984400  1
  O  O61  1  0.20041800  0.92054100  0.42368500  1
  O  O62  1  0.19988200  0.92199600  0.08891600  1
  O  O63  1  0.79526400  0.92195900  0.75984400  1
  O  O64  1  0.79958200  0.92054100  0.42368500  1
  O  O65  1  0.80011800  0.92199600  0.08891600  1
  O  O66  1  0.00000000  0.87146000  0.91053600  1
  O  O67  1  0.00000000  0.86815300  0.57825100  1
  O  O68  1  0.00000000  0.86875700  0.24163000  1
  O  O69  1  0.50000000  0.80124400  0.88615900  1
  O  O70  1  0.50000000  0.80717500  0.54851800  1
  O  O71  1  0.50000000  0.80275000  0.21550900  1
