# generated using pymatgen
data_V2OF5
_symmetry_space_group_name_H-M   'P 1'
_cell_length_a   4.89132772
_cell_length_b   4.89132772
_cell_length_c   17.62887323
_cell_angle_alpha   89.90924411
_cell_angle_beta   89.90924411
_cell_angle_gamma   90.00463841
_symmetry_Int_Tables_number   1
_chemical_formula_structural   V2OF5
_chemical_formula_sum   'V8 O4 F20'
_cell_volume   421.77126450
_cell_formula_units_Z   4
loop_
 _symmetry_equiv_pos_site_id
 _symmetry_equiv_pos_as_xyz
  1  'x, y, z'
loop_
 _atom_site_type_symbol
 _atom_site_label
 _atom_site_symmetry_multiplicity
 _atom_site_fract_x
 _atom_site_fract_y
 _atom_site_fract_z
 _atom_site_occupancy
  V  V0  1  0.00913100  0.00900100  0.15531200  1
  V  V1  1  0.98672600  0.01455500  0.33607100  1
  V  V2  1  0.00900100  0.00913100  0.65531200  1
  V  V3  1  0.48688700  0.48585000  0.08606300  1
  V  V4  1  0.50984700  0.49176600  0.40537500  1
  V  V5  1  0.48585000  0.48688700  0.58606300  1
  V  V6  1  0.49176600  0.50984700  0.90537500  1
  V  V7  1  0.01455500  0.98672600  0.83607100  1
  O  O8  1  0.20337000  0.20345400  0.09668100  1
  O  O9  1  0.20345400  0.20337000  0.59668100  1
  O  O10  1  0.70496800  0.29816900  0.34668600  1
  O  O11  1  0.29816900  0.70496700  0.84668600  1
  F  F12  1  0.17718400  0.17843200  0.24837000  1
  F  F13  1  0.21373000  0.21762200  0.41010000  1
  F  F14  1  0.17843200  0.17718400  0.74837000  1
  F  F15  1  0.21762200  0.21373000  0.91010000  1
  F  F16  1  0.71209100  0.28340700  0.16013300  1
  F  F17  1  0.67814300  0.32311900  0.49836800  1
  F  F18  1  0.72062900  0.28235200  0.84270500  1
  F  F19  1  0.71247700  0.28399100  0.66016300  1
  F  F20  1  0.67118600  0.32700600  0.99664000  1
  F  F21  1  0.32311900  0.67814300  0.99836800  1
  F  F22  1  0.32700600  0.67118600  0.49664000  1
  F  F23  1  0.28399100  0.71247700  0.16016300  1
  F  F24  1  0.28235200  0.72062900  0.34270500  1
  F  F25  1  0.28340700  0.71209100  0.66013300  1
  F  F26  1  0.78148300  0.78108500  0.09273300  1
  F  F27  1  0.78483000  0.78895900  0.41027100  1
  F  F28  1  0.78108500  0.78148300  0.59273300  1
  F  F29  1  0.82767900  0.82919300  0.24665900  1
  F  F30  1  0.82919300  0.82767900  0.74665900  1
  F  F31  1  0.78895900  0.78483000  0.91027100  1
