# generated using pymatgen
data_Na2FeO3
_symmetry_space_group_name_H-M   'P 1'
_cell_length_a   5.82979657
_cell_length_b   5.82979657
_cell_length_c   5.29248100
_cell_angle_alpha   82.25628193
_cell_angle_beta   82.25628193
_cell_angle_gamma   122.11634790
_symmetry_Int_Tables_number   1
_chemical_formula_structural   Na2FeO3
_chemical_formula_sum   'Na4 Fe2 O6'
_cell_volume   146.32242179
_cell_formula_units_Z   2
loop_
 _symmetry_equiv_pos_site_id
 _symmetry_equiv_pos_as_xyz
  1  'x, y, z'
loop_
 _atom_site_type_symbol
 _atom_site_label
 _atom_site_symmetry_multiplicity
 _atom_site_fract_x
 _atom_site_fract_y
 _atom_site_fract_z
 _atom_site_occupancy
  Na  Na0  1  0.40464800  0.58990000  0.50837400  1
  Na  Na1  1  0.74112500  0.24681600  0.49823400  1
  Na  Na2  1  0.24681600  0.74112500  0.99823400  1
  Na  Na3  1  0.58990000  0.40464800  0.00837400  1
  Fe  Fe4  1  0.08550800  0.96048300  0.48309100  1
  Fe  Fe5  1  0.96048300  0.08550800  0.98309100  1
  O  O6  1  0.13866400  0.28486500  0.23062600  1
  O  O7  1  0.28486500  0.13866400  0.73062600  1
  O  O8  1  0.37662600  0.95709600  0.32752600  1
  O  O9  1  0.85430600  0.75756000  0.25434900  1
  O  O10  1  0.95709600  0.37662600  0.82752600  1
  O  O11  1  0.75756000  0.85430600  0.75434900  1
