# generated using pymatgen
data_NaVPO5
_symmetry_space_group_name_H-M   'P 1'
_cell_length_a   6.35528100
_cell_length_b   6.35533400
_cell_length_c   10.53669200
_cell_angle_alpha   90.00000000
_cell_angle_beta   90.00000000
_cell_angle_gamma   90.00000000
_symmetry_Int_Tables_number   1
_chemical_formula_structural   NaVPO5
_chemical_formula_sum   'Na4 V4 P4 O20'
_cell_volume   425.57628833
_cell_formula_units_Z   4
loop_
 _symmetry_equiv_pos_site_id
 _symmetry_equiv_pos_as_xyz
  1  'x, y, z'
loop_
 _atom_site_type_symbol
 _atom_site_label
 _atom_site_symmetry_multiplicity
 _atom_site_fract_x
 _atom_site_fract_y
 _atom_site_fract_z
 _atom_site_occupancy
  Na  Na0  1  0.50831500  0.50801800  0.75366000  1
  Na  Na1  1  0.99168500  0.50801800  0.25366000  1
  Na  Na2  1  0.00831500  0.00801800  0.74634000  1
  Na  Na3  1  0.49168500  0.00801800  0.24634000  1
  V  V4  1  0.74895600  0.75259200  0.52833600  1
  V  V5  1  0.75104400  0.75259200  0.02833600  1
  V  V6  1  0.24895600  0.25259200  0.97166400  1
  V  V7  1  0.25104400  0.25259200  0.47166400  1
  P  P8  1  0.24979700  0.75180800  0.99997700  1
  P  P9  1  0.25020300  0.75180800  0.49997700  1
  P  P10  1  0.75020300  0.25180800  0.00002300  1
  P  P11  1  0.74979700  0.25180800  0.50002300  1
  O  O12  1  0.24466300  0.94957500  0.91342100  1
  O  O13  1  0.25533700  0.94957500  0.41342100  1
  O  O14  1  0.75295600  0.75376100  0.87215800  1
  O  O15  1  0.74704400  0.75376100  0.37215800  1
  O  O16  1  0.44663000  0.74713100  0.58764700  1
  O  O17  1  0.44807500  0.75626800  0.08613200  1
  O  O18  1  0.05192500  0.75626800  0.58613200  1
  O  O19  1  0.05337000  0.74713100  0.08764700  1
  O  O20  1  0.24615900  0.55484800  0.41272200  1
  O  O21  1  0.25384100  0.55484800  0.91272200  1
  O  O22  1  0.74466300  0.44957500  0.58657900  1
  O  O23  1  0.75533700  0.44957500  0.08657900  1
  O  O24  1  0.94807500  0.25626800  0.41386800  1
  O  O25  1  0.55337000  0.24713100  0.41235300  1
  O  O26  1  0.25295600  0.25376100  0.62784200  1
  O  O27  1  0.24704400  0.25376100  0.12784200  1
  O  O28  1  0.94663000  0.24713100  0.91235300  1
  O  O29  1  0.55192500  0.25626800  0.91386800  1
  O  O30  1  0.74615900  0.05484800  0.08727800  1
  O  O31  1  0.75384100  0.05484800  0.58727800  1
