# generated using pymatgen
data_Na14Ni2O9
_symmetry_space_group_name_H-M   'P 1'
_cell_length_a   6.63414174
_cell_length_b   6.65436703
_cell_length_c   18.75516475
_cell_angle_alpha   90.05437776
_cell_angle_beta   89.97004903
_cell_angle_gamma   119.85294906
_symmetry_Int_Tables_number   1
_chemical_formula_structural   Na14Ni2O9
_chemical_formula_sum   'Na28 Ni4 O18'
_cell_volume   718.09919670
_cell_formula_units_Z   2
loop_
 _symmetry_equiv_pos_site_id
 _symmetry_equiv_pos_as_xyz
  1  'x, y, z'
loop_
 _atom_site_type_symbol
 _atom_site_label
 _atom_site_symmetry_multiplicity
 _atom_site_fract_x
 _atom_site_fract_y
 _atom_site_fract_z
 _atom_site_occupancy
  Na  Na0  1  0.00003000  0.99944400  0.12562800  1
  Na  Na1  1  0.99988000  0.99927800  0.62509400  1
  Na  Na2  1  0.00015400  0.00075100  0.37490800  1
  Na  Na3  1  0.99999700  0.00057600  0.87436100  1
  Na  Na4  1  0.03562300  0.67596500  0.45417600  1
  Na  Na5  1  0.03570000  0.67580900  0.95381900  1
  Na  Na6  1  0.32647700  0.36067600  0.45379800  1
  Na  Na7  1  0.32448100  0.36059600  0.95375200  1
  Na  Na8  1  0.63824900  0.96388300  0.45428000  1
  Na  Na9  1  0.63915800  0.96357400  0.95403300  1
  Na  Na10  1  0.36081400  0.03652000  0.04593300  1
  Na  Na11  1  0.36166600  0.03605900  0.54570800  1
  Na  Na12  1  0.67558800  0.63940100  0.04622900  1
  Na  Na13  1  0.67354800  0.63936000  0.54616800  1
  Na  Na14  1  0.96415700  0.32412000  0.04614900  1
  Na  Na15  1  0.96432000  0.32400700  0.54579100  1
  Na  Na16  1  0.31121300  0.93573000  0.29645500  1
  Na  Na17  1  0.31165300  0.93590900  0.79596900  1
  Na  Na18  1  0.06742100  0.37773000  0.29639700  1
  Na  Na19  1  0.06491800  0.37615600  0.79614200  1
  Na  Na20  1  0.37814300  0.31198300  0.20340400  1
  Na  Na21  1  0.37879300  0.31243700  0.70292900  1
  Na  Na22  1  0.62126600  0.68756100  0.29710800  1
  Na  Na23  1  0.62190500  0.68805100  0.79663800  1
  Na  Na24  1  0.93510200  0.62382400  0.20389500  1
  Na  Na25  1  0.93257700  0.62228800  0.70363600  1
  Na  Na26  1  0.68833000  0.06409100  0.20405500  1
  Na  Na27  1  0.68876400  0.06430100  0.70355400  1
  Ni  Ni28  1  0.33195100  0.66721800  0.63178300  1
  Ni  Ni29  1  0.66797100  0.33267900  0.36825200  1
  Ni  Ni30  1  0.33376400  0.66717700  0.13035200  1
  Ni  Ni31  1  0.66638000  0.33287200  0.86961300  1
  O  O32  1  0.99997100  0.00000000  0.49999100  1
  O  O33  1  0.99996300  0.99999700  0.99996400  1
  O  O34  1  0.33246700  0.66637700  0.02016400  1
  O  O35  1  0.33305500  0.66693600  0.52270700  1
  O  O36  1  0.66675100  0.33292500  0.47729500  1
  O  O37  1  0.66737100  0.33360600  0.97981400  1
  O  O38  1  0.30452700  0.94035500  0.16826400  1
  O  O39  1  0.30900100  0.94575000  0.66749100  1
  O  O40  1  0.06051600  0.36498500  0.16877200  1
  O  O41  1  0.05643400  0.35873100  0.66828600  1
  O  O42  1  0.36317700  0.30334400  0.33176900  1
  O  O43  1  0.36418600  0.30399900  0.83105600  1
  O  O44  1  0.63583100  0.69596900  0.16898800  1
  O  O45  1  0.63689500  0.69676400  0.66823100  1
  O  O46  1  0.94346800  0.64130000  0.33173800  1
  O  O47  1  0.93944100  0.63504100  0.83120300  1
  O  O48  1  0.69098300  0.05419100  0.33254800  1
  O  O49  1  0.69556400  0.05970900  0.83171400  1
