# generated using pymatgen
data_Fe14O15
_symmetry_space_group_name_H-M   'P 1'
_cell_length_a   8.10614207
_cell_length_b   8.10614207
_cell_length_c   8.10614207
_cell_angle_alpha   129.82779739
_cell_angle_beta   129.82779739
_cell_angle_gamma   73.68220919
_symmetry_Int_Tables_number   1
_chemical_formula_structural   Fe14O15
_chemical_formula_sum   'Fe14 O15'
_cell_volume   306.51124898
_cell_formula_units_Z   1
loop_
 _symmetry_equiv_pos_site_id
 _symmetry_equiv_pos_as_xyz
  1  'x, y, z'
loop_
 _atom_site_type_symbol
 _atom_site_label
 _atom_site_symmetry_multiplicity
 _atom_site_fract_x
 _atom_site_fract_y
 _atom_site_fract_z
 _atom_site_occupancy
  Fe  Fe0  1  0.80121400  0.38525200  0.18646600  1
  Fe  Fe1  1  0.61474800  0.80121400  0.41596200  1
  Fe  Fe2  1  0.19878600  0.61474800  0.81353400  1
  Fe  Fe3  1  0.38525200  0.19878600  0.58403800  1
  Fe  Fe4  1  0.54137600  0.92964600  0.80250000  1
  Fe  Fe5  1  0.33753800  0.33753800  0.00000000  1
  Fe  Fe6  1  0.92964600  0.12714600  0.38826900  1
  Fe  Fe7  1  0.73887600  0.54137600  0.61173100  1
  Fe  Fe8  1  0.12714600  0.73887600  0.19750000  1
  Fe  Fe9  1  0.07035400  0.87285400  0.61173100  1
  Fe  Fe10  1  0.66246200  0.66246200  0.00000000  1
  Fe  Fe11  1  0.26112400  0.45862400  0.38826900  1
  Fe  Fe12  1  0.87285400  0.26112400  0.80250000  1
  Fe  Fe13  1  0.45862400  0.07035400  0.19750000  1
  O  O14  1  0.50000000  0.50000000  0.00000000  1
  O  O15  1  0.67638700  0.11170100  0.78808800  1
  O  O16  1  0.88829900  0.67638700  0.56468700  1
  O  O17  1  0.11170100  0.32361300  0.43531300  1
  O  O18  1  0.32361300  0.88829900  0.21191200  1
  O  O19  1  0.81831200  0.81831200  0.00000000  1
  O  O20  1  0.63219200  0.24087000  0.20202700  1
  O  O21  1  0.24087000  0.03884300  0.60867800  1
  O  O22  1  0.43016500  0.63219200  0.39132200  1
  O  O23  1  0.03884300  0.43016500  0.79797300  1
  O  O24  1  0.56983500  0.36780800  0.60867800  1
  O  O25  1  0.75913000  0.96115700  0.39132200  1
  O  O26  1  0.36780800  0.75913000  0.79797300  1
  O  O27  1  0.18168800  0.18168800  0.00000000  1
  O  O28  1  0.96115700  0.56983500  0.20202700  1
