# generated using pymatgen
data_Mn2AsHO5
_symmetry_space_group_name_H-M   'P 1'
_cell_length_a   13.83099000
_cell_length_b   10.38718500
_cell_length_c   12.98167283
_cell_angle_alpha   71.08431493
_cell_angle_beta   90.00000000
_cell_angle_gamma   90.00000000
_symmetry_Int_Tables_number   1
_chemical_formula_structural   Mn2AsHO5
_chemical_formula_sum   'Mn32 As16 H16 O80'
_cell_volume   1764.29576555
_cell_formula_units_Z   16
loop_
 _symmetry_equiv_pos_site_id
 _symmetry_equiv_pos_as_xyz
  1  'x, y, z'
loop_
 _atom_site_type_symbol
 _atom_site_label
 _atom_site_symmetry_multiplicity
 _atom_site_fract_x
 _atom_site_fract_y
 _atom_site_fract_z
 _atom_site_occupancy
  Mn  Mn0  1  0.67542000  0.02781600  0.11004400  1
  Mn  Mn1  1  0.17975900  0.04174800  0.07849500  1
  Mn  Mn2  1  0.82458000  0.02781600  0.61004400  1
  Mn  Mn3  1  0.32024100  0.04174800  0.57849500  1
  Mn  Mn4  1  0.47948400  0.19343700  0.31160500  1
  Mn  Mn5  1  0.99361800  0.21678900  0.30095600  1
  Mn  Mn6  1  0.75052600  0.28731800  0.19747100  1
  Mn  Mn7  1  0.26653000  0.29996900  0.18655500  1
  Mn  Mn8  1  0.02051600  0.19343700  0.81160500  1
  Mn  Mn9  1  0.50638200  0.21678900  0.80095600  1
  Mn  Mn10  1  0.56963100  0.52669700  0.10064000  1
  Mn  Mn11  1  0.74947400  0.28731800  0.69747100  1
  Mn  Mn12  1  0.23347000  0.29996900  0.68655500  1
  Mn  Mn13  1  0.07349800  0.54809300  0.08653700  1
  Mn  Mn14  1  0.57349800  0.45190700  0.41346300  1
  Mn  Mn15  1  0.06963100  0.47330300  0.39936000  1
  Mn  Mn16  1  0.93036900  0.52669700  0.60064000  1
  Mn  Mn17  1  0.42650200  0.54809300  0.58653700  1
  Mn  Mn18  1  0.92650200  0.45190700  0.91346300  1
  Mn  Mn19  1  0.76653000  0.70003100  0.31344500  1
  Mn  Mn20  1  0.25052600  0.71268200  0.30252900  1
  Mn  Mn21  1  0.43036900  0.47330300  0.89936000  1
  Mn  Mn22  1  0.49361800  0.78321100  0.19904400  1
  Mn  Mn23  1  0.97948400  0.80656300  0.18839500  1
  Mn  Mn24  1  0.73347000  0.70003100  0.81344500  1
  Mn  Mn25  1  0.24947400  0.71268200  0.80252900  1
  Mn  Mn26  1  0.00638200  0.78321100  0.69904400  1
  Mn  Mn27  1  0.52051600  0.80656300  0.68839500  1
  Mn  Mn28  1  0.67975900  0.95825200  0.42150500  1
  Mn  Mn29  1  0.17542000  0.97218400  0.38995600  1
  Mn  Mn30  1  0.82024100  0.95825200  0.92150500  1
  Mn  Mn31  1  0.32458000  0.97218400  0.88995600  1
  As  As32  1  0.42242500  0.11385800  0.07397900  1
  As  As33  1  0.92829100  0.12051900  0.07480200  1
  As  As34  1  0.07757500  0.11385800  0.57397900  1
  As  As35  1  0.57170900  0.12051900  0.57480200  1
  As  As36  1  0.82215500  0.37996300  0.42360600  1
  As  As37  1  0.32429700  0.38345600  0.42493800  1
  As  As38  1  0.82429700  0.61654400  0.07506200  1
  As  As39  1  0.32215500  0.62003700  0.07639400  1
  As  As40  1  0.67784500  0.37996300  0.92360600  1
  As  As41  1  0.17570300  0.38345600  0.92493800  1
  As  As42  1  0.67570300  0.61654400  0.57506200  1
  As  As43  1  0.17784500  0.62003700  0.57639400  1
  As  As44  1  0.42829100  0.87948100  0.42519800  1
  As  As45  1  0.92242500  0.88614200  0.42602100  1
  As  As46  1  0.07170900  0.87948100  0.92519800  1
  As  As47  1  0.57757500  0.88614200  0.92602100  1
  H  H48  1  0.78758500  0.03404500  0.26111100  1
  H  H49  1  0.58123200  0.26826200  0.14075000  1
  H  H50  1  0.71241500  0.03404500  0.76111100  1
  H  H51  1  0.15857000  0.22786700  0.35412300  1
  H  H52  1  0.91876800  0.26826200  0.64075000  1
  H  H53  1  0.34143000  0.22786700  0.85412300  1
  H  H54  1  0.96209900  0.46666300  0.24236800  1
  H  H55  1  0.46209900  0.53333700  0.25763200  1
  H  H56  1  0.53790100  0.46666300  0.74236800  1
  H  H57  1  0.03790100  0.53333700  0.75763200  1
  H  H58  1  0.65857000  0.77213300  0.14587700  1
  H  H59  1  0.08123200  0.73173800  0.35925000  1
  H  H60  1  0.84143000  0.77213300  0.64587700  1
  H  H61  1  0.28758500  0.96595500  0.23888900  1
  H  H62  1  0.41876800  0.73173800  0.85925000  1
  H  H63  1  0.21241500  0.96595500  0.73888900  1
  O  O64  1  0.83678300  0.00974100  0.06889000  1
  O  O65  1  0.33102700  0.02219400  0.04037200  1
  O  O66  1  0.51783500  0.00508500  0.12298000  1
  O  O67  1  0.02839100  0.01635500  0.11668200  1
  O  O68  1  0.72105500  0.06693800  0.25828800  1
  O  O69  1  0.38471600  0.16730200  0.18126700  1
  O  O70  1  0.66321700  0.00974100  0.56889000  1
  O  O71  1  0.16897300  0.02219400  0.54037200  1
  O  O72  1  0.98216500  0.00508500  0.62298000  1
  O  O73  1  0.47160900  0.01635500  0.61668200  1
  O  O74  1  0.70427400  0.25188700  0.04280400  1
  O  O75  1  0.90340000  0.20374500  0.16632500  1
  O  O76  1  0.20647400  0.25455400  0.04287400  1
  O  O77  1  0.15690800  0.19225800  0.29304100  1
  O  O78  1  0.77894500  0.06693800  0.75828800  1
  O  O79  1  0.58448000  0.30687700  0.20000500  1
  O  O80  1  0.55239900  0.23822000  0.44726400  1
  O  O81  1  0.04538300  0.24845900  0.46141800  1
  O  O82  1  0.84796700  0.30956300  0.32331800  1
  O  O83  1  0.11528400  0.16730200  0.68126700  1
  O  O84  1  0.35857200  0.32092400  0.32200800  1
  O  O85  1  0.79572600  0.25188700  0.54280400  1
  O  O86  1  0.59660000  0.20374500  0.66632500  1
  O  O87  1  0.29352600  0.25455400  0.54287400  1
  O  O88  1  0.34309200  0.19225800  0.79304100  1
  O  O89  1  0.02953800  0.43722000  0.24709400  1
  O  O90  1  0.41397100  0.51645200  0.05793500  1
  O  O91  1  0.91993100  0.52852400  0.04655100  1
  O  O92  1  0.72809200  0.50848600  0.12013300  1
  O  O93  1  0.22430600  0.51108900  0.11990900  1
  O  O94  1  0.91552000  0.30687700  0.70000500  1
  O  O95  1  0.94760100  0.23822000  0.94726400  1
  O  O96  1  0.45461700  0.24845900  0.96141800  1
  O  O97  1  0.72430600  0.48891100  0.38009100  1
  O  O98  1  0.65203300  0.30956300  0.82331800  1
  O  O99  1  0.22809200  0.49151400  0.37986700  1
  O  O100  1  0.14142800  0.32092400  0.82200800  1
  O  O101  1  0.41993100  0.47147600  0.45344900  1
  O  O102  1  0.91397100  0.48354800  0.44206500  1
  O  O103  1  0.52953800  0.56278000  0.25290600  1
  O  O104  1  0.47046200  0.43722000  0.74709400  1
  O  O105  1  0.08602900  0.51645200  0.55793500  1
  O  O106  1  0.58006900  0.52852400  0.54655100  1
  O  O107  1  0.85857200  0.67907600  0.17799200  1
  O  O108  1  0.77190800  0.50848600  0.62013300  1
  O  O109  1  0.34796700  0.69043700  0.17668200  1
  O  O110  1  0.27569400  0.51108900  0.61990900  1
  O  O111  1  0.54538300  0.75154100  0.03858200  1
  O  O112  1  0.05239900  0.76178000  0.05273600  1
  O  O113  1  0.08448000  0.69312300  0.29999500  1
  O  O114  1  0.77569400  0.48891100  0.88009100  1
  O  O115  1  0.27190800  0.49151400  0.87986700  1
  O  O116  1  0.08006900  0.47147600  0.95344900  1
  O  O117  1  0.58602900  0.48354800  0.94206500  1
  O  O118  1  0.97046200  0.56278000  0.75290600  1
  O  O119  1  0.65690800  0.80774200  0.20695900  1
  O  O120  1  0.70647400  0.74544600  0.45712600  1
  O  O121  1  0.40340000  0.79625500  0.33367500  1
  O  O122  1  0.20427400  0.74811300  0.45719600  1
  O  O123  1  0.64142800  0.67907600  0.67799200  1
  O  O124  1  0.88471600  0.83269800  0.31873300  1
  O  O125  1  0.15203300  0.69043700  0.67668200  1
  O  O126  1  0.95461700  0.75154100  0.53858200  1
  O  O127  1  0.44760100  0.76178000  0.55273600  1
  O  O128  1  0.41552000  0.69312300  0.79999500  1
  O  O129  1  0.22105500  0.93306200  0.24171200  1
  O  O130  1  0.84309200  0.80774200  0.70695900  1
  O  O131  1  0.79352600  0.74544600  0.95712600  1
  O  O132  1  0.09660000  0.79625500  0.83367500  1
  O  O133  1  0.29572600  0.74811300  0.95719600  1
  O  O134  1  0.52839100  0.98364500  0.38331800  1
  O  O135  1  0.01783500  0.99491500  0.37702000  1
  O  O136  1  0.83102700  0.97780600  0.45962800  1
  O  O137  1  0.33678300  0.99025900  0.43111000  1
  O  O138  1  0.61528400  0.83269800  0.81873300  1
  O  O139  1  0.27894500  0.93306200  0.74171200  1
  O  O140  1  0.97160900  0.98364500  0.88331800  1
  O  O141  1  0.48216500  0.99491500  0.87702000  1
  O  O142  1  0.66897300  0.97780600  0.95962800  1
  O  O143  1  0.16321700  0.99025900  0.93111000  1
