# generated using pymatgen
data_Fe3(PO4)2
_symmetry_space_group_name_H-M   'P 1'
_cell_length_a   10.08227000
_cell_length_b   8.91578000
_cell_length_c   21.05642342
_cell_angle_alpha   80.95817793
_cell_angle_beta   90.00000000
_cell_angle_gamma   90.00000000
_symmetry_Int_Tables_number   1
_chemical_formula_structural   Fe3(PO4)2
_chemical_formula_sum   'Fe36 P24 O96'
_cell_volume   1869.26929345
_cell_formula_units_Z   12
loop_
 _symmetry_equiv_pos_site_id
 _symmetry_equiv_pos_as_xyz
  1  'x, y, z'
loop_
 _atom_site_type_symbol
 _atom_site_label
 _atom_site_symmetry_multiplicity
 _atom_site_fract_x
 _atom_site_fract_y
 _atom_site_fract_z
 _atom_site_occupancy
  Fe  Fe0  1  0.90681700  0.93511000  0.94027600  1
  Fe  Fe1  1  0.39557900  0.90300600  0.89219800  1
  Fe  Fe2  1  0.21454900  0.96011000  0.54236700  1
  Fe  Fe3  1  0.61476600  0.89108100  0.58334700  1
  Fe  Fe4  1  0.58221300  0.79384300  0.78268800  1
  Fe  Fe5  1  0.11356100  0.95766300  0.24393200  1
  Fe  Fe6  1  0.70400700  0.89688300  0.29612100  1
  Fe  Fe7  1  0.08221300  0.70615700  0.71731200  1
  Fe  Fe8  1  0.11476600  0.60891900  0.91665300  1
  Fe  Fe9  1  0.71454900  0.53989000  0.95763300  1
  Fe  Fe10  1  0.27949700  0.76416800  0.35938600  1
  Fe  Fe11  1  0.87809300  0.72340500  0.42510600  1
  Fe  Fe12  1  0.89557900  0.59699400  0.60780200  1
  Fe  Fe13  1  0.37809300  0.77659500  0.07489400  1
  Fe  Fe14  1  0.77949700  0.73583200  0.14061400  1
  Fe  Fe15  1  0.40681700  0.56489000  0.55972400  1
  Fe  Fe16  1  0.38643900  0.45766300  0.74393200  1
  Fe  Fe17  1  0.79599300  0.39688300  0.79612100  1
  Fe  Fe18  1  0.20400700  0.60311700  0.20387900  1
  Fe  Fe19  1  0.61356100  0.54233700  0.25606800  1
  Fe  Fe20  1  0.59318300  0.43511000  0.44027600  1
  Fe  Fe21  1  0.22050300  0.26416800  0.85938600  1
  Fe  Fe22  1  0.62190700  0.22340500  0.92510600  1
  Fe  Fe23  1  0.10442100  0.40300600  0.39219800  1
  Fe  Fe24  1  0.12190700  0.27659500  0.57489400  1
  Fe  Fe25  1  0.72050300  0.23583200  0.64061400  1
  Fe  Fe26  1  0.28545100  0.46011000  0.04236700  1
  Fe  Fe27  1  0.88523400  0.39108100  0.08334700  1
  Fe  Fe28  1  0.91778700  0.29384300  0.28268800  1
  Fe  Fe29  1  0.29599300  0.10311700  0.70387900  1
  Fe  Fe30  1  0.88643900  0.04233700  0.75606800  1
  Fe  Fe31  1  0.41778700  0.20615700  0.21731200  1
  Fe  Fe32  1  0.38523400  0.10891900  0.41665300  1
  Fe  Fe33  1  0.78545100  0.03989000  0.45763300  1
  Fe  Fe34  1  0.60442100  0.09699400  0.10780200  1
  Fe  Fe35  1  0.09318300  0.06489000  0.05972400  1
  P  P36  1  0.13007300  0.94998200  0.82818900  1
  P  P37  1  0.64498700  0.87056700  0.99903300  1
  P  P38  1  0.92449800  0.96689600  0.60592100  1
  P  P39  1  0.35721000  0.80778300  0.66947400  1
  P  P40  1  0.85721000  0.69221700  0.83052600  1
  P  P41  1  0.55534100  0.80123600  0.43927400  1
  P  P42  1  0.43151900  0.84899300  0.21780800  1
  P  P43  1  0.42449800  0.53310400  0.89407900  1
  P  P44  1  0.14498700  0.62943300  0.50096700  1
  P  P45  1  0.63007300  0.55001800  0.67181100  1
  P  P46  1  0.93151900  0.65100700  0.28219200  1
  P  P47  1  0.05534100  0.69876400  0.06072600  1
  P  P48  1  0.94465900  0.30123600  0.93927400  1
  P  P49  1  0.06848100  0.34899300  0.71780800  1
  P  P50  1  0.36992700  0.44998200  0.32818900  1
  P  P51  1  0.85501300  0.37056700  0.49903300  1
  P  P52  1  0.57550200  0.46689600  0.10592100  1
  P  P53  1  0.56848100  0.15100700  0.78219200  1
  P  P54  1  0.44465900  0.19876400  0.56072600  1
  P  P55  1  0.14279000  0.30778300  0.16947400  1
  P  P56  1  0.64279000  0.19221700  0.33052600  1
  P  P57  1  0.07550200  0.03310400  0.39407900  1
  P  P58  1  0.35501300  0.12943300  0.00096700  1
  P  P59  1  0.86992700  0.05001800  0.17181100  1
  O  O60  1  0.53352500  0.99804100  0.82510100  1
  O  O61  1  0.49752900  0.84372200  0.98298300  1
  O  O62  1  0.07418000  0.90033900  0.76599900  1
  O  O63  1  0.24338600  0.92068100  0.64673200  1
  O  O64  1  0.44310100  0.88783100  0.71526200  1
  O  O65  1  0.20007100  0.81959700  0.87477900  1
  O  O66  1  0.81524800  0.94564000  0.55650100  1
  O  O67  1  0.78870200  0.84005900  0.79461300  1
  O  O68  1  0.73942300  0.74522700  0.98389100  1
  O  O69  1  0.95738100  0.94112900  0.42941100  1
  O  O70  1  0.60896600  0.91212200  0.48344300  1
  O  O71  1  0.13509600  0.94104200  0.34403700  1
  O  O72  1  0.93704700  0.72727700  0.88914900  1
  O  O73  1  0.96914800  0.80660700  0.63815600  1
  O  O74  1  0.42973500  0.87798700  0.40309300  1
  O  O75  1  0.98505400  0.97449800  0.13978100  1
  O  O76  1  0.46914800  0.69339300  0.86184400  1
  O  O77  1  0.43704700  0.77272300  0.61085100  1
  O  O78  1  0.29417800  0.98422400  0.04280300  1
  O  O79  1  0.75944400  0.92883100  0.19174500  1
  O  O80  1  0.31979200  0.88000300  0.26442100  1
  O  O81  1  0.23942300  0.75477300  0.51610900  1
  O  O82  1  0.66843300  0.77955600  0.39173100  1
  O  O83  1  0.28870200  0.65994100  0.70538700  1
  O  O84  1  0.31524800  0.55436000  0.94349900  1
  O  O85  1  0.70007100  0.68040300  0.62522100  1
  O  O86  1  0.94310100  0.61216900  0.78473800  1
  O  O87  1  0.65310600  0.88340200  0.07250200  1
  O  O88  1  0.74338600  0.57931900  0.85326800  1
  O  O89  1  0.88231000  0.76617800  0.32513800  1
  O  O90  1  0.57418000  0.59966100  0.73400100  1
  O  O91  1  0.55379300  0.77428800  0.25627900  1
  O  O92  1  0.02068000  0.85455300  0.02128700  1
  O  O93  1  0.99752900  0.65627800  0.51701700  1
  O  O94  1  0.52068000  0.64544700  0.47871300  1
  O  O95  1  0.05379300  0.72571200  0.24372100  1
  O  O96  1  0.38231000  0.73382200  0.17486200  1
  O  O97  1  0.54261900  0.44112900  0.92941100  1
  O  O98  1  0.89103400  0.41212200  0.98344300  1
  O  O99  1  0.15310600  0.61659800  0.42749800  1
  O  O100  1  0.36490400  0.44104200  0.84403700  1
  O  O101  1  0.16843300  0.72044400  0.10826900  1
  O  O102  1  0.03352500  0.50195900  0.67489900  1
  O  O103  1  0.07026500  0.37798700  0.90309300  1
  O  O104  1  0.51494600  0.47449800  0.63978100  1
  O  O105  1  0.81979200  0.61999700  0.23557900  1
  O  O106  1  0.20582200  0.48422400  0.54280300  1
  O  O107  1  0.74055600  0.42883100  0.69174500  1
  O  O108  1  0.25944400  0.57116900  0.30825500  1
  O  O109  1  0.79417800  0.51577600  0.45719700  1
  O  O110  1  0.18020800  0.38000300  0.76442100  1
  O  O111  1  0.48505400  0.52550200  0.36021900  1
  O  O112  1  0.92973500  0.62201300  0.09690700  1
  O  O113  1  0.96647500  0.49804100  0.32510100  1
  O  O114  1  0.83156700  0.27955600  0.89173100  1
  O  O115  1  0.63509600  0.55895800  0.15596300  1
  O  O116  1  0.84689400  0.38340200  0.57250200  1
  O  O117  1  0.10896600  0.58787800  0.01655700  1
  O  O118  1  0.45738100  0.55887100  0.07058900  1
  O  O119  1  0.61769000  0.26617800  0.82513800  1
  O  O120  1  0.94620700  0.27428800  0.75627900  1
  O  O121  1  0.47932000  0.35455300  0.52128700  1
  O  O122  1  0.00247100  0.34372200  0.48298300  1
  O  O123  1  0.97932000  0.14544700  0.97871300  1
  O  O124  1  0.44620700  0.22571200  0.74372100  1
  O  O125  1  0.42582000  0.40033900  0.26599900  1
  O  O126  1  0.11769000  0.23382200  0.67486200  1
  O  O127  1  0.25661400  0.42068100  0.14673200  1
  O  O128  1  0.34689400  0.11659800  0.92749800  1
  O  O129  1  0.05689900  0.38783100  0.21526200  1
  O  O130  1  0.29992900  0.31959700  0.37477900  1
  O  O131  1  0.68475200  0.44564000  0.05650100  1
  O  O132  1  0.71129800  0.34005900  0.29461300  1
  O  O133  1  0.33156700  0.22044400  0.60826900  1
  O  O134  1  0.76057700  0.24522700  0.48389100  1
  O  O135  1  0.68020800  0.11999700  0.73557900  1
  O  O136  1  0.24055600  0.07116900  0.80825500  1
  O  O137  1  0.70582200  0.01577600  0.95719700  1
  O  O138  1  0.56295300  0.22727700  0.38914900  1
  O  O139  1  0.53085200  0.30660700  0.13815600  1
  O  O140  1  0.01494600  0.02550200  0.86021900  1
  O  O141  1  0.57026500  0.12201300  0.59690700  1
  O  O142  1  0.03085200  0.19339300  0.36184400  1
  O  O143  1  0.06295300  0.27272300  0.11085100  1
  O  O144  1  0.86490400  0.05895800  0.65596300  1
  O  O145  1  0.39103400  0.08787800  0.51655700  1
  O  O146  1  0.04261900  0.05887100  0.57058900  1
  O  O147  1  0.26057700  0.25477300  0.01610900  1
  O  O148  1  0.21129800  0.15994100  0.20538700  1
  O  O149  1  0.18475200  0.05436000  0.44349900  1
  O  O150  1  0.79992900  0.18040300  0.12522100  1
  O  O151  1  0.55689900  0.11216900  0.28473800  1
  O  O152  1  0.75661400  0.07931900  0.35326800  1
  O  O153  1  0.92582000  0.09966100  0.23400100  1
  O  O154  1  0.50247100  0.15627800  0.01701700  1
  O  O155  1  0.46647500  0.00195900  0.17489900  1
