# generated using pymatgen
data_Fe25Si11O48
_symmetry_space_group_name_H-M   'P 1'
_cell_length_a   10.24135298
_cell_length_b   10.24135298
_cell_length_c   10.23562843
_cell_angle_alpha   80.40827886
_cell_angle_beta   80.40827886
_cell_angle_gamma   119.99848173
_symmetry_Int_Tables_number   1
_chemical_formula_structural   Fe25Si11O48
_chemical_formula_sum   'Fe25 Si11 O48'
_cell_volume   876.60631587
_cell_formula_units_Z   1
loop_
 _symmetry_equiv_pos_site_id
 _symmetry_equiv_pos_as_xyz
  1  'x, y, z'
loop_
 _atom_site_type_symbol
 _atom_site_label
 _atom_site_symmetry_multiplicity
 _atom_site_fract_x
 _atom_site_fract_y
 _atom_site_fract_z
 _atom_site_occupancy
  Fe  Fe0  1  0.10307200  0.93494400  0.18561400  1
  Fe  Fe1  1  0.10365700  0.43995900  0.18599900  1
  Fe  Fe2  1  0.20802600  0.20802600  0.37529500  1
  Fe  Fe3  1  0.26998700  0.77261900  0.18970800  1
  Fe  Fe4  1  0.43860700  0.60798100  0.18595400  1
  Fe  Fe5  1  0.60798100  0.43860700  0.18595400  1
  Fe  Fe6  1  0.10357500  0.93468900  0.68991700  1
  Fe  Fe7  1  0.27203100  0.27203100  0.69015900  1
  Fe  Fe8  1  0.18700200  0.85099800  0.43852100  1
  Fe  Fe9  1  0.43995900  0.10365700  0.18599900  1
  Fe  Fe10  1  0.52342500  0.52342500  0.43934600  1
  Fe  Fe11  1  0.02292900  0.02292900  0.93389900  1
  Fe  Fe12  1  0.76695600  0.76695600  0.18978500  1
  Fe  Fe13  1  0.77261900  0.26998700  0.18970800  1
  Fe  Fe14  1  0.27222400  0.77194500  0.68713800  1
  Fe  Fe15  1  0.60415700  0.43645100  0.68705700  1
  Fe  Fe16  1  0.93494400  0.10307200  0.18561400  1
  Fe  Fe17  1  0.43645100  0.60415700  0.68705700  1
  Fe  Fe18  1  0.35423100  0.68714800  0.93649200  1
  Fe  Fe19  1  0.60410400  0.93653100  0.68707600  1
  Fe  Fe20  1  0.85099800  0.18700200  0.43852100  1
  Fe  Fe21  1  0.93468900  0.10357500  0.68991700  1
  Fe  Fe22  1  0.77194500  0.27222400  0.68713800  1
  Fe  Fe23  1  0.93653100  0.60410400  0.68707600  1
  Fe  Fe24  1  0.68714800  0.35423100  0.93649200  1
  Si  Si25  1  0.16668200  0.50048500  0.50014700  1
  Si  Si26  1  0.04106400  0.37547000  0.87513800  1
  Si  Si27  1  0.54163500  0.87516200  0.37508000  1
  Si  Si28  1  0.00001700  0.66686800  0.00015700  1
  Si  Si29  1  0.50048500  0.16668200  0.50014700  1
  Si  Si30  1  0.83294900  0.83294900  0.49994600  1
  Si  Si31  1  0.33325400  0.33325400  0.99956700  1
  Si  Si32  1  0.37547000  0.04106400  0.87513800  1
  Si  Si33  1  0.87516200  0.54163500  0.37508000  1
  Si  Si34  1  0.70845700  0.70845700  0.87471600  1
  Si  Si35  1  0.66686800  0.00001700  0.00015700  1
  O  O36  1  0.16015800  0.16015800  0.05607600  1
  O  O37  1  0.13455900  0.64694400  0.05784000  1
  O  O38  1  0.31457100  0.46862200  0.05678200  1
  O  O39  1  0.46862200  0.31457100  0.05678200  1
  O  O40  1  0.05463100  0.23116700  0.30856200  1
  O  O41  1  0.23116700  0.05463100  0.30856200  1
  O  O42  1  0.04865000  0.71263200  0.31667400  1
  O  O43  1  0.31901900  0.98219400  0.04723900  1
  O  O44  1  0.40873900  0.40873900  0.30732400  1
  O  O45  1  0.14170500  0.14170500  0.57389000  1
  O  O46  1  0.65230300  0.65230300  0.04800800  1
  O  O47  1  0.49332100  0.82564600  0.05809500  1
  O  O48  1  0.22456100  0.55837200  0.32685900  1
  O  O49  1  0.64694400  0.13455900  0.05784000  1
  O  O50  1  0.14709500  0.63587200  0.55846100  1
  O  O51  1  0.97981200  0.80151500  0.05799400  1
  O  O52  1  0.80151500  0.97981200  0.05799400  1
  O  O53  1  0.48188800  0.30102400  0.55800800  1
  O  O54  1  0.30102400  0.48188800  0.55800800  1
  O  O55  1  0.05923700  0.23960800  0.82015600  1
  O  O56  1  0.56411600  0.74309900  0.31574400  1
  O  O57  1  0.74309900  0.56411600  0.31574400  1
  O  O58  1  0.23960800  0.05923700  0.82015600  1
  O  O59  1  0.40724500  0.89213600  0.31651300  1
  O  O60  1  0.21523500  0.54896800  0.81716400  1
  O  O61  1  0.48374700  0.81670400  0.54860300  1
  O  O62  1  0.98219400  0.31901900  0.04723900  1
  O  O63  1  0.71263200  0.04865000  0.31667400  1
  O  O64  1  0.88923000  0.88923000  0.32679200  1
  O  O65  1  0.05763700  0.72468400  0.82696600  1
  O  O66  1  0.32773700  0.99329600  0.55822100  1
  O  O67  1  0.39174600  0.39174600  0.82553100  1
  O  O68  1  0.65852500  0.65852500  0.55832800  1
  O  O69  1  0.82564600  0.49332100  0.05809500  1
  O  O70  1  0.55837200  0.22456100  0.32685900  1
  O  O71  1  0.96666600  0.81287300  0.55826200  1
  O  O72  1  0.63587200  0.14709500  0.55846100  1
  O  O73  1  0.81287300  0.96666600  0.55826200  1
  O  O74  1  0.72795000  0.57348700  0.81735100  1
  O  O75  1  0.89213600  0.40724500  0.31651300  1
  O  O76  1  0.57348700  0.72795000  0.81735100  1
  O  O77  1  0.39456100  0.90629900  0.81644700  1
  O  O78  1  0.81670400  0.48374700  0.54860300  1
  O  O79  1  0.54896800  0.21523500  0.81716400  1
  O  O80  1  0.88089400  0.88089400  0.81946100  1
  O  O81  1  0.72468400  0.05763700  0.82696600  1
  O  O82  1  0.99329600  0.32773700  0.55822100  1
  O  O83  1  0.90629900  0.39456100  0.81644700  1
