# generated using pymatgen
data_Ni3(PO4)2
_symmetry_space_group_name_H-M   'P 1'
_cell_length_a   9.94195600
_cell_length_b   8.67904600
_cell_length_c   20.30115803
_cell_angle_alpha   81.48690505
_cell_angle_beta   90.00000000
_cell_angle_gamma   90.00000000
_symmetry_Int_Tables_number   1
_chemical_formula_structural   Ni3(PO4)2
_chemical_formula_sum   'Ni36 P24 O96'
_cell_volume   1732.41944838
_cell_formula_units_Z   12
loop_
 _symmetry_equiv_pos_site_id
 _symmetry_equiv_pos_as_xyz
  1  'x, y, z'
loop_
 _atom_site_type_symbol
 _atom_site_label
 _atom_site_symmetry_multiplicity
 _atom_site_fract_x
 _atom_site_fract_y
 _atom_site_fract_z
 _atom_site_occupancy
  Ni  Ni0  1  0.91509300  0.93219400  0.93973700  1
  Ni  Ni1  1  0.39732800  0.90609400  0.89320100  1
  Ni  Ni2  1  0.21630600  0.96885800  0.54121900  1
  Ni  Ni3  1  0.62093900  0.88880100  0.58532100  1
  Ni  Ni4  1  0.57296100  0.80299500  0.78184500  1
  Ni  Ni5  1  0.11721900  0.96230800  0.24217900  1
  Ni  Ni6  1  0.69809100  0.89615400  0.29800900  1
  Ni  Ni7  1  0.07296100  0.69700500  0.71815500  1
  Ni  Ni8  1  0.12093900  0.61119900  0.91467900  1
  Ni  Ni9  1  0.71630600  0.53114200  0.95878100  1
  Ni  Ni10  1  0.27495800  0.76270600  0.35701600  1
  Ni  Ni11  1  0.87044000  0.72672900  0.42653400  1
  Ni  Ni12  1  0.89732800  0.59390600  0.60679900  1
  Ni  Ni13  1  0.37044000  0.77327100  0.07346600  1
  Ni  Ni14  1  0.77495800  0.73729400  0.14298400  1
  Ni  Ni15  1  0.41509300  0.56780600  0.56026300  1
  Ni  Ni16  1  0.38278100  0.46230800  0.74217900  1
  Ni  Ni17  1  0.80190900  0.39615400  0.79800900  1
  Ni  Ni18  1  0.19809100  0.60384600  0.20199100  1
  Ni  Ni19  1  0.61721900  0.53769200  0.25782100  1
  Ni  Ni20  1  0.58490700  0.43219400  0.43973700  1
  Ni  Ni21  1  0.22504200  0.26270600  0.85701600  1
  Ni  Ni22  1  0.62956000  0.22672900  0.92653400  1
  Ni  Ni23  1  0.10267200  0.40609400  0.39320100  1
  Ni  Ni24  1  0.12956000  0.27327100  0.57346600  1
  Ni  Ni25  1  0.72504200  0.23729400  0.64298400  1
  Ni  Ni26  1  0.28369400  0.46885800  0.04121900  1
  Ni  Ni27  1  0.87906100  0.38880100  0.08532100  1
  Ni  Ni28  1  0.92703900  0.30299500  0.28184500  1
  Ni  Ni29  1  0.30190900  0.10384600  0.70199100  1
  Ni  Ni30  1  0.88278100  0.03769200  0.75782100  1
  Ni  Ni31  1  0.42703900  0.19700500  0.21815500  1
  Ni  Ni32  1  0.37906100  0.11119900  0.41467900  1
  Ni  Ni33  1  0.78369400  0.03114200  0.45878100  1
  Ni  Ni34  1  0.60267200  0.09390600  0.10679900  1
  Ni  Ni35  1  0.08490700  0.06780600  0.06026300  1
  P  P36  1  0.12913300  0.94797100  0.82701700  1
  P  P37  1  0.64571000  0.87040900  0.99671500  1
  P  P38  1  0.92499900  0.96561900  0.60666800  1
  P  P39  1  0.35419100  0.80969500  0.66790500  1
  P  P40  1  0.85419100  0.69030500  0.83209500  1
  P  P41  1  0.55102200  0.80431000  0.44071600  1
  P  P42  1  0.43141700  0.84506000  0.21704300  1
  P  P43  1  0.42499900  0.53438100  0.89333200  1
  P  P44  1  0.14571000  0.62959100  0.50328500  1
  P  P45  1  0.62913300  0.55202900  0.67298300  1
  P  P46  1  0.93141700  0.65494000  0.28295700  1
  P  P47  1  0.05102200  0.69569000  0.05928400  1
  P  P48  1  0.94897800  0.30431000  0.94071600  1
  P  P49  1  0.06858300  0.34506000  0.71704300  1
  P  P50  1  0.37086700  0.44797100  0.32701700  1
  P  P51  1  0.85429000  0.37040900  0.49671500  1
  P  P52  1  0.57500100  0.46561900  0.10666800  1
  P  P53  1  0.56858300  0.15494000  0.78295700  1
  P  P54  1  0.44897800  0.19569000  0.55928400  1
  P  P55  1  0.14580900  0.30969500  0.16790500  1
  P  P56  1  0.64580900  0.19030500  0.33209500  1
  P  P57  1  0.07500100  0.03438100  0.39333200  1
  P  P58  1  0.35429000  0.12959100  0.00328500  1
  P  P59  1  0.87086700  0.05202900  0.17298300  1
  O  O60  1  0.53700000  0.99745400  0.82686400  1
  O  O61  1  0.49433000  0.84321000  0.98292300  1
  O  O62  1  0.06619400  0.89055700  0.76534900  1
  O  O63  1  0.24051600  0.92335400  0.64207200  1
  O  O64  1  0.43631300  0.90048300  0.71464500  1
  O  O65  1  0.20084900  0.82145500  0.87699200  1
  O  O66  1  0.81263600  0.94615300  0.55628900  1
  O  O67  1  0.78597500  0.83835600  0.79427200  1
  O  O68  1  0.73797700  0.73974600  0.98161300  1
  O  O69  1  0.95800500  0.94230500  0.43078800  1
  O  O70  1  0.60603000  0.91704500  0.48653900  1
  O  O71  1  0.13371500  0.93879900  0.34165500  1
  O  O72  1  0.94241300  0.72832100  0.89035700  1
  O  O73  1  0.96530300  0.79993400  0.63970000  1
  O  O74  1  0.42284200  0.87784700  0.40480500  1
  O  O75  1  0.98426300  0.96722100  0.14028000  1
  O  O76  1  0.46530300  0.70006600  0.86030000  1
  O  O77  1  0.44241300  0.77167900  0.60964300  1
  O  O78  1  0.29563000  0.98406700  0.04831100  1
  O  O79  1  0.75874500  0.93257300  0.19706700  1
  O  O80  1  0.32101100  0.88118600  0.26606600  1
  O  O81  1  0.23797700  0.76025400  0.51838700  1
  O  O82  1  0.66579900  0.78389500  0.39164500  1
  O  O83  1  0.28597500  0.66164400  0.70572800  1
  O  O84  1  0.31263600  0.55384700  0.94371100  1
  O  O85  1  0.70084900  0.67854500  0.62300800  1
  O  O86  1  0.93631300  0.59951700  0.78535500  1
  O  O87  1  0.65996500  0.88612600  0.07269600  1
  O  O88  1  0.74051600  0.57664600  0.85792800  1
  O  O89  1  0.87591400  0.77022700  0.32710400  1
  O  O90  1  0.56619400  0.60944300  0.73465100  1
  O  O91  1  0.55560000  0.76767000  0.25449800  1
  O  O92  1  0.02548500  0.85742200  0.01888300  1
  O  O93  1  0.99433000  0.65679000  0.51707700  1
  O  O94  1  0.52548500  0.64257800  0.48111700  1
  O  O95  1  0.05560000  0.73233000  0.24550200  1
  O  O96  1  0.37591400  0.72977300  0.17289600  1
  O  O97  1  0.54199500  0.44230500  0.93078800  1
  O  O98  1  0.89397000  0.41704500  0.98653900  1
  O  O99  1  0.15996500  0.61387400  0.42730400  1
  O  O100  1  0.36628500  0.43879900  0.84165500  1
  O  O101  1  0.16579900  0.71610500  0.10835500  1
  O  O102  1  0.03700000  0.50254600  0.67313600  1
  O  O103  1  0.07715800  0.37784700  0.90480500  1
  O  O104  1  0.51573700  0.46722100  0.64028000  1
  O  O105  1  0.82101100  0.61881400  0.23393400  1
  O  O106  1  0.20437000  0.48406700  0.54831100  1
  O  O107  1  0.74125500  0.43257300  0.69706700  1
  O  O108  1  0.25874500  0.56742700  0.30293300  1
  O  O109  1  0.79563000  0.51593300  0.45168900  1
  O  O110  1  0.17898900  0.38118600  0.76606600  1
  O  O111  1  0.48426300  0.53277900  0.35972000  1
  O  O112  1  0.92284200  0.62215300  0.09519500  1
  O  O113  1  0.96300000  0.49745400  0.32686400  1
  O  O114  1  0.83420100  0.28389500  0.89164500  1
  O  O115  1  0.63371500  0.56120100  0.15834500  1
  O  O116  1  0.84003500  0.38612600  0.57269600  1
  O  O117  1  0.10603000  0.58295500  0.01346100  1
  O  O118  1  0.45800500  0.55769500  0.06921200  1
  O  O119  1  0.62408600  0.27022700  0.82710400  1
  O  O120  1  0.94440000  0.26767000  0.75449800  1
  O  O121  1  0.47451500  0.35742200  0.51888300  1
  O  O122  1  0.00567000  0.34321000  0.48292300  1
  O  O123  1  0.97451500  0.14257800  0.98111700  1
  O  O124  1  0.44440000  0.23233000  0.74550200  1
  O  O125  1  0.43380600  0.39055700  0.26534900  1
  O  O126  1  0.12408600  0.22977300  0.67289600  1
  O  O127  1  0.25948400  0.42335400  0.14207200  1
  O  O128  1  0.34003500  0.11387400  0.92730400  1
  O  O129  1  0.06368700  0.40048300  0.21464500  1
  O  O130  1  0.29915100  0.32145500  0.37699200  1
  O  O131  1  0.68736400  0.44615300  0.05628900  1
  O  O132  1  0.71402500  0.33835600  0.29427200  1
  O  O133  1  0.33420100  0.21610500  0.60835500  1
  O  O134  1  0.76202300  0.23974600  0.48161300  1
  O  O135  1  0.67898900  0.11881400  0.73393400  1
  O  O136  1  0.24125500  0.06742700  0.80293300  1
  O  O137  1  0.70437000  0.01593300  0.95168900  1
  O  O138  1  0.55758700  0.22832100  0.39035700  1
  O  O139  1  0.53469700  0.29993400  0.13970000  1
  O  O140  1  0.01573700  0.03277900  0.85972000  1
  O  O141  1  0.57715800  0.12215300  0.59519500  1
  O  O142  1  0.03469700  0.20006600  0.36030000  1
  O  O143  1  0.05758700  0.27167900  0.10964300  1
  O  O144  1  0.86628500  0.06120100  0.65834500  1
  O  O145  1  0.39397000  0.08295500  0.51346100  1
  O  O146  1  0.04199500  0.05769500  0.56921200  1
  O  O147  1  0.26202300  0.26025400  0.01838700  1
  O  O148  1  0.21402500  0.16164400  0.20572800  1
  O  O149  1  0.18736400  0.05384700  0.44371100  1
  O  O150  1  0.79915100  0.17854500  0.12300800  1
  O  O151  1  0.56368700  0.09951700  0.28535500  1
  O  O152  1  0.75948400  0.07664600  0.35792800  1
  O  O153  1  0.93380600  0.10944300  0.23465100  1
  O  O154  1  0.50567000  0.15679000  0.01707700  1
  O  O155  1  0.46300000  0.00254600  0.17313600  1
