# generated using pymatgen
data_Mn6OF11
_symmetry_space_group_name_H-M   'P 1'
_cell_length_a   5.88019900
_cell_length_b   4.94266900
_cell_length_c   16.26292229
_cell_angle_alpha   89.70931896
_cell_angle_beta   90.00000000
_cell_angle_gamma   90.00000000
_symmetry_Int_Tables_number   1
_chemical_formula_structural   Mn6OF11
_chemical_formula_sum   'Mn12 O2 F22'
_cell_volume   472.65749538
_cell_formula_units_Z   2
loop_
 _symmetry_equiv_pos_site_id
 _symmetry_equiv_pos_as_xyz
  1  'x, y, z'
loop_
 _atom_site_type_symbol
 _atom_site_label
 _atom_site_symmetry_multiplicity
 _atom_site_fract_x
 _atom_site_fract_y
 _atom_site_fract_z
 _atom_site_occupancy
  Mn  Mn0  1  0.17034000  0.99688800  0.33049200  1
  Mn  Mn1  1  0.83526400  0.01192200  0.16126200  1
  Mn  Mn2  1  0.20806000  0.00000000  0.00000000  1
  Mn  Mn3  1  0.17034000  0.00311200  0.66950800  1
  Mn  Mn4  1  0.83066300  0.00000000  0.50000000  1
  Mn  Mn5  1  0.83526400  0.98807800  0.83873800  1
  Mn  Mn6  1  0.33000700  0.50000000  0.50000000  1
  Mn  Mn7  1  0.33900400  0.51414400  0.84116500  1
  Mn  Mn8  1  0.33900400  0.48585600  0.15883500  1
  Mn  Mn9  1  0.63333900  0.50000000  0.00000000  1
  Mn  Mn10  1  0.66752500  0.50228100  0.33126200  1
  Mn  Mn11  1  0.66752500  0.49771900  0.66873800  1
  O  O12  1  0.39999200  0.28137700  0.05369300  1
  O  O13  1  0.39999200  0.71862300  0.94630700  1
  F  F14  1  0.10697900  0.23607400  0.22044300  1
  F  F15  1  0.10469900  0.22950600  0.55852100  1
  F  F16  1  0.11416400  0.21759800  0.89072600  1
  F  F17  1  0.87886800  0.24823400  0.04865400  1
  F  F18  1  0.89587300  0.23166600  0.38961500  1
  F  F19  1  0.88984500  0.22088400  0.72596100  1
  F  F20  1  0.60528000  0.26558200  0.22324600  1
  F  F21  1  0.39456000  0.26713000  0.39002800  1
  F  F22  1  0.60361900  0.26925000  0.55879000  1
  F  F23  1  0.38315800  0.28566500  0.73010100  1
  F  F24  1  0.60979200  0.27018600  0.88675000  1
  F  F25  1  0.60979200  0.72981400  0.11325000  1
  F  F26  1  0.38315800  0.71433500  0.26989900  1
  F  F27  1  0.60361900  0.73075000  0.44121000  1
  F  F28  1  0.60528000  0.73441800  0.77675400  1
  F  F29  1  0.39456000  0.73287000  0.60997200  1
  F  F30  1  0.11416400  0.78240200  0.10927400  1
  F  F31  1  0.10469900  0.77049400  0.44147900  1
  F  F32  1  0.88984500  0.77911600  0.27403900  1
  F  F33  1  0.87886800  0.75176600  0.95134600  1
  F  F34  1  0.10697900  0.76392600  0.77955700  1
  F  F35  1  0.89587300  0.76833400  0.61038500  1
