# generated using pymatgen
data_VF5
_symmetry_space_group_name_H-M   'P 1'
_cell_length_a   5.06644500
_cell_length_b   5.76765900
_cell_length_c   12.94423700
_cell_angle_alpha   90.00000000
_cell_angle_beta   90.00000000
_cell_angle_gamma   90.00000000
_symmetry_Int_Tables_number   1
_chemical_formula_structural   VF5
_chemical_formula_sum   'V4 F20'
_cell_volume   378.25037231
_cell_formula_units_Z   4
loop_
 _symmetry_equiv_pos_site_id
 _symmetry_equiv_pos_as_xyz
  1  'x, y, z'
loop_
 _atom_site_type_symbol
 _atom_site_label
 _atom_site_symmetry_multiplicity
 _atom_site_fract_x
 _atom_site_fract_y
 _atom_site_fract_z
 _atom_site_occupancy
  V  V0  1  0.32028300  0.11012000  0.59406500  1
  V  V1  1  0.82028300  0.38988000  0.40593500  1
  V  V2  1  0.17971700  0.88988000  0.09406500  1
  V  V3  1  0.67971700  0.61012000  0.90593500  1
  F  F4  1  0.59400200  0.09141700  0.67546100  1
  F  F5  1  0.12765200  0.91522700  0.66349200  1
  F  F6  1  0.18610100  0.36084900  0.65174500  1
  F  F7  1  0.53183700  0.33657900  0.50967100  1
  F  F8  1  0.42554900  0.90234400  0.50264700  1
  F  F9  1  0.92554900  0.59765600  0.49735300  1
  F  F10  1  0.03183700  0.16342100  0.49032900  1
  F  F11  1  0.68610100  0.13915100  0.34825500  1
  F  F12  1  0.62765200  0.58477300  0.33650800  1
  F  F13  1  0.09400200  0.40858300  0.32453900  1
  F  F14  1  0.90599800  0.90858300  0.17546100  1
  F  F15  1  0.37234800  0.08477300  0.16349200  1
  F  F16  1  0.31389900  0.63915100  0.15174500  1
  F  F17  1  0.96816300  0.66342100  0.00967100  1
  F  F18  1  0.07445100  0.09765600  0.00264700  1
  F  F19  1  0.57445100  0.40234400  0.99735300  1
  F  F20  1  0.46816300  0.83657900  0.99032900  1
  F  F21  1  0.81389900  0.86084900  0.84825500  1
  F  F22  1  0.87234800  0.41522700  0.83650800  1
  F  F23  1  0.40599800  0.59141700  0.82453900  1
