# generated using pymatgen
data_Ti2Fe4O9
_symmetry_space_group_name_H-M   'P 1'
_cell_length_a   5.51852094
_cell_length_b   5.51852094
_cell_length_c   12.90578530
_cell_angle_alpha   86.88207094
_cell_angle_beta   86.88207094
_cell_angle_gamma   55.77346343
_symmetry_Int_Tables_number   1
_chemical_formula_structural   Ti2Fe4O9
_chemical_formula_sum   'Ti4 Fe8 O18'
_cell_volume   324.35232625
_cell_formula_units_Z   2
loop_
 _symmetry_equiv_pos_site_id
 _symmetry_equiv_pos_as_xyz
  1  'x, y, z'
loop_
 _atom_site_type_symbol
 _atom_site_label
 _atom_site_symmetry_multiplicity
 _atom_site_fract_x
 _atom_site_fract_y
 _atom_site_fract_z
 _atom_site_occupancy
  Ti  Ti0  1  0.19727100  0.18785400  0.54485700  1
  Ti  Ti1  1  0.18785400  0.19727100  0.04485700  1
  Ti  Ti2  1  0.85565700  0.86553100  0.72164700  1
  Ti  Ti3  1  0.86553100  0.85565700  0.22164700  1
  Fe  Fe4  1  0.13623500  0.14627500  0.78286200  1
  Fe  Fe5  1  0.47209800  0.47208500  0.61781400  1
  Fe  Fe6  1  0.14627500  0.13623500  0.28286200  1
  Fe  Fe7  1  0.47208500  0.47209800  0.11781400  1
  Fe  Fe8  1  0.52789300  0.53151900  0.88113700  1
  Fe  Fe9  1  0.81168100  0.81111500  0.95347800  1
  Fe  Fe10  1  0.53151900  0.52789300  0.38113700  1
  Fe  Fe11  1  0.81111500  0.81168100  0.45347800  1
  O  O12  1  0.78740100  0.11251100  0.34317300  1
  O  O13  1  0.63050800  0.03125600  0.59663900  1
  O  O14  1  0.68471400  0.30304400  0.75137100  1
  O  O15  1  0.50741100  0.25713100  0.98283400  1
  O  O16  1  0.46603900  0.11088400  0.17975200  1
  O  O17  1  0.11088400  0.46603900  0.67975200  1
  O  O18  1  0.25713100  0.50741100  0.48283400  1
  O  O19  1  0.90700900  0.20347900  0.13870500  1
  O  O20  1  0.96841700  0.35110000  0.92815600  1
  O  O21  1  0.30304400  0.68471400  0.25137100  1
  O  O22  1  0.03125600  0.63050800  0.09663900  1
  O  O23  1  0.11251100  0.78740100  0.84317300  1
  O  O24  1  0.79088600  0.43536800  0.51962400  1
  O  O25  1  0.84823000  0.58939700  0.30795200  1
  O  O26  1  0.58939700  0.84823000  0.80795200  1
  O  O27  1  0.43536800  0.79088600  0.01962400  1
  O  O28  1  0.35110000  0.96841700  0.42815600  1
  O  O29  1  0.20347900  0.90700900  0.63870500  1
