# generated using pymatgen
data_Fe2H11(SeO5)3
_symmetry_space_group_name_H-M   'P 1'
_cell_length_a   7.85309100
_cell_length_b   10.06378000
_cell_length_c   17.02187660
_cell_angle_alpha   82.53007485
_cell_angle_beta   90.00000000
_cell_angle_gamma   90.00000000
_symmetry_Int_Tables_number   1
_chemical_formula_structural   Fe2H11(SeO5)3
_chemical_formula_sum   'Fe8 H44 Se12 O60'
_cell_volume   1333.85223071
_cell_formula_units_Z   4
loop_
 _symmetry_equiv_pos_site_id
 _symmetry_equiv_pos_as_xyz
  1  'x, y, z'
loop_
 _atom_site_type_symbol
 _atom_site_label
 _atom_site_symmetry_multiplicity
 _atom_site_fract_x
 _atom_site_fract_y
 _atom_site_fract_z
 _atom_site_occupancy
  Fe  Fe0  1  0.23756500  0.04658300  0.09678500  1
  Fe  Fe1  1  0.26243500  0.54658300  0.09678500  1
  Fe  Fe2  1  0.25663700  0.09301600  0.39245200  1
  Fe  Fe3  1  0.24336300  0.59301600  0.39245200  1
  Fe  Fe4  1  0.75663700  0.40698400  0.60754800  1
  Fe  Fe5  1  0.74336300  0.90698400  0.60754800  1
  Fe  Fe6  1  0.73756500  0.45341700  0.90321500  1
  Fe  Fe7  1  0.76243500  0.95341700  0.90321500  1
  H  H8  1  0.54451100  0.40868900  0.07124200  1
  H  H9  1  0.95548900  0.90868900  0.07124200  1
  H  H10  1  0.59322200  0.50527300  0.13786700  1
  H  H11  1  0.65249900  0.09403000  0.14018400  1
  H  H12  1  0.90677800  0.00527300  0.13786700  1
  H  H13  1  0.77260300  0.15720100  0.20057500  1
  H  H14  1  0.84750100  0.59403000  0.14018400  1
  H  H15  1  0.72739700  0.65720100  0.20057500  1
  H  H16  1  0.79057100  0.39378900  0.22404500  1
  H  H17  1  0.37319100  0.99863000  0.27824100  1
  H  H18  1  0.89678100  0.28483200  0.27749600  1
  H  H19  1  0.70942900  0.89378900  0.22404500  1
  H  H20  1  0.12680900  0.49863000  0.27824100  1
  H  H21  1  0.60321900  0.78483200  0.27749600  1
  H  H22  1  0.65988900  0.06279800  0.33909700  1
  H  H23  1  0.95080600  0.00416300  0.35392500  1
  H  H24  1  0.84011100  0.56279800  0.33909700  1
  H  H25  1  0.54919400  0.50416300  0.35392500  1
  H  H26  1  0.73859100  0.06920300  0.42349300  1
  H  H27  1  0.43510300  0.38018400  0.39028700  1
  H  H28  1  0.76140900  0.56920300  0.42349300  1
  H  H29  1  0.06489700  0.88018400  0.39028700  1
  H  H30  1  0.93510300  0.11981600  0.60971300  1
  H  H31  1  0.23859100  0.43079700  0.57650700  1
  H  H32  1  0.56489700  0.61981600  0.60971300  1
  H  H33  1  0.26140900  0.93079700  0.57650700  1
  H  H34  1  0.45080600  0.49583700  0.64607500  1
  H  H35  1  0.15988900  0.43720200  0.66090300  1
  H  H36  1  0.04919400  0.99583700  0.64607500  1
  H  H37  1  0.34011100  0.93720200  0.66090300  1
  H  H38  1  0.39678100  0.21516800  0.72250400  1
  H  H39  1  0.87319100  0.50137000  0.72175900  1
  H  H40  1  0.29057100  0.10621100  0.77595500  1
  H  H41  1  0.10321900  0.71516800  0.72250400  1
  H  H42  1  0.62680900  0.00137000  0.72175900  1
  H  H43  1  0.20942900  0.60621100  0.77595500  1
  H  H44  1  0.27260300  0.34279900  0.79942500  1
  H  H45  1  0.15249900  0.40597000  0.85981600  1
  H  H46  1  0.22739700  0.84279900  0.79942500  1
  H  H47  1  0.09322200  0.99472700  0.86213300  1
  H  H48  1  0.34750100  0.90597000  0.85981600  1
  H  H49  1  0.40677800  0.49472700  0.86213300  1
  H  H50  1  0.04451100  0.09131100  0.92875800  1
  H  H51  1  0.45548900  0.59131100  0.92875800  1
  Se  Se52  1  0.03461700  0.31494700  0.01839900  1
  Se  Se53  1  0.46538300  0.81494700  0.01839900  1
  Se  Se54  1  0.27556800  0.27584900  0.22521500  1
  Se  Se55  1  0.22443200  0.77584900  0.22521500  1
  Se  Se56  1  0.01494500  0.31546000  0.46507700  1
  Se  Se57  1  0.48505500  0.81546000  0.46507700  1
  Se  Se58  1  0.51494500  0.18454000  0.53492300  1
  Se  Se59  1  0.98505500  0.68454000  0.53492300  1
  Se  Se60  1  0.77556800  0.22415100  0.77478500  1
  Se  Se61  1  0.72443200  0.72415100  0.77478500  1
  Se  Se62  1  0.53461700  0.18505300  0.98160100  1
  Se  Se63  1  0.96538300  0.68505300  0.98160100  1
  O  O64  1  0.13463500  0.16665600  0.00231000  1
  O  O65  1  0.21169400  0.41551400  0.02227100  1
  O  O66  1  0.36536500  0.66665600  0.00231000  1
  O  O67  1  0.47113700  0.13291800  0.07888300  1
  O  O68  1  0.28830600  0.91551400  0.02227100  1
  O  O69  1  0.02886300  0.63291800  0.07888300  1
  O  O70  1  0.49697900  0.45235400  0.11614400  1
  O  O71  1  0.16324700  0.17813300  0.16801400  1
  O  O72  1  0.74929100  0.07246800  0.17708900  1
  O  O73  1  0.00302100  0.95235400  0.11614400  1
  O  O74  1  0.33675300  0.67813300  0.16801400  1
  O  O75  1  0.75070900  0.57246800  0.17708900  1
  O  O76  1  0.17208600  0.42676200  0.19750300  1
  O  O77  1  0.32791400  0.92676200  0.19750300  1
  O  O78  1  0.79256100  0.29837800  0.24594300  1
  O  O79  1  0.41773000  0.05281500  0.31963800  1
  O  O80  1  0.70743900  0.79837800  0.24594300  1
  O  O81  1  0.16340600  0.23875300  0.31693800  1
  O  O82  1  0.08227000  0.55281500  0.31963800  1
  O  O83  1  0.76840300  0.05961800  0.36845300  1
  O  O84  1  0.33659400  0.73875300  0.31693800  1
  O  O85  1  0.42838800  0.46657900  0.35475100  1
  O  O86  1  0.73159700  0.55961800  0.36845300  1
  O  O87  1  0.07161200  0.96657900  0.35475100  1
  O  O88  1  0.45235800  0.20962500  0.43710800  1
  O  O89  1  0.04764200  0.70962500  0.43710800  1
  O  O90  1  0.11414500  0.15748100  0.47174300  1
  O  O91  1  0.18093100  0.43018500  0.47298200  1
  O  O92  1  0.68093100  0.06981500  0.52701800  1
  O  O93  1  0.38585500  0.65748100  0.47174300  1
  O  O94  1  0.61414500  0.34251900  0.52825700  1
  O  O95  1  0.31906900  0.93018500  0.47298200  1
  O  O96  1  0.81906900  0.56981500  0.52701800  1
  O  O97  1  0.88585500  0.84251900  0.52825700  1
  O  O98  1  0.95235800  0.29037500  0.56289200  1
  O  O99  1  0.54764200  0.79037500  0.56289200  1
  O  O100  1  0.92838800  0.03342100  0.64524900  1
  O  O101  1  0.26840300  0.44038200  0.63154700  1
  O  O102  1  0.57161200  0.53342100  0.64524900  1
  O  O103  1  0.66340600  0.26124700  0.68306200  1
  O  O104  1  0.23159700  0.94038200  0.63154700  1
  O  O105  1  0.91773000  0.44718500  0.68036200  1
  O  O106  1  0.83659400  0.76124700  0.68306200  1
  O  O107  1  0.29256100  0.20162200  0.75405700  1
  O  O108  1  0.58227000  0.94718500  0.68036200  1
  O  O109  1  0.20743900  0.70162200  0.75405700  1
  O  O110  1  0.67208600  0.07323800  0.80249700  1
  O  O111  1  0.82791400  0.57323800  0.80249700  1
  O  O112  1  0.24929100  0.42753200  0.82291100  1
  O  O113  1  0.66324700  0.32186700  0.83198600  1
  O  O114  1  0.99697900  0.04764600  0.88385600  1
  O  O115  1  0.25070900  0.92753200  0.82291100  1
  O  O116  1  0.83675300  0.82186700  0.83198600  1
  O  O117  1  0.50302100  0.54764600  0.88385600  1
  O  O118  1  0.97113700  0.36708200  0.92111700  1
  O  O119  1  0.71169400  0.08448600  0.97772900  1
  O  O120  1  0.52886300  0.86708200  0.92111700  1
  O  O121  1  0.63463500  0.33334400  0.99769000  1
  O  O122  1  0.78830600  0.58448600  0.97772900  1
  O  O123  1  0.86536500  0.83334400  0.99769000  1
