# generated using pymatgen
data_MnH6SO6
_symmetry_space_group_name_H-M   'P 1'
_cell_length_a   8.99280200
_cell_length_b   6.72676600
_cell_length_c   10.52106576
_cell_angle_alpha   56.43270371
_cell_angle_beta   90.00000000
_cell_angle_gamma   90.00000000
_symmetry_Int_Tables_number   1
_chemical_formula_structural   MnH6SO6
_chemical_formula_sum   'Mn4 H24 S4 O24'
_cell_volume   530.30975999
_cell_formula_units_Z   4
loop_
 _symmetry_equiv_pos_site_id
 _symmetry_equiv_pos_as_xyz
  1  'x, y, z'
loop_
 _atom_site_type_symbol
 _atom_site_label
 _atom_site_symmetry_multiplicity
 _atom_site_fract_x
 _atom_site_fract_y
 _atom_site_fract_z
 _atom_site_occupancy
  Mn  Mn0  1  0.25620000  0.70962900  0.35958700  1
  Mn  Mn1  1  0.75620000  0.29037100  0.14041300  1
  Mn  Mn2  1  0.24380000  0.70962900  0.85958700  1
  Mn  Mn3  1  0.74380000  0.29037100  0.64041300  1
  H  H4  1  0.69543700  0.81402700  0.22536800  1
  H  H5  1  0.32193000  0.01213800  0.02950000  1
  H  H6  1  0.54598400  0.96292000  0.15129600  1
  H  H7  1  0.98575100  0.01583200  0.13074800  1
  H  H8  1  0.01334500  0.27668000  0.97851300  1
  H  H9  1  0.51334500  0.72332000  0.52148700  1
  H  H10  1  0.82407500  0.83117400  0.39798700  1
  H  H11  1  0.32407500  0.16882600  0.10201300  1
  H  H12  1  0.48575100  0.98416800  0.36925200  1
  H  H13  1  0.04598400  0.03708000  0.34870400  1
  H  H14  1  0.82193000  0.98786200  0.47050000  1
  H  H15  1  0.19543700  0.18597300  0.27463200  1
  H  H16  1  0.80456300  0.81402700  0.72536800  1
  H  H17  1  0.17807000  0.01213800  0.52950000  1
  H  H18  1  0.95401600  0.96292000  0.65129600  1
  H  H19  1  0.51424900  0.01583200  0.63074800  1
  H  H20  1  0.67592500  0.83117400  0.89798700  1
  H  H21  1  0.17592500  0.16882600  0.60201300  1
  H  H22  1  0.48665500  0.27668000  0.47851300  1
  H  H23  1  0.98665500  0.72332000  0.02148700  1
  H  H24  1  0.01424900  0.98416800  0.86925200  1
  H  H25  1  0.45401600  0.03708000  0.84870400  1
  H  H26  1  0.67807000  0.98786200  0.97050000  1
  H  H27  1  0.30456300  0.18597300  0.77463200  1
  S  S28  1  0.06984100  0.49349600  0.67609200  1
  S  S29  1  0.56984100  0.50650400  0.82390800  1
  S  S30  1  0.43015900  0.49349600  0.17609200  1
  S  S31  1  0.93015900  0.50650400  0.32390800  1
  O  O32  1  0.96023900  0.28342000  0.73509400  1
  O  O33  1  0.19990600  0.43287100  0.60266100  1
  O  O34  1  0.65590100  0.96937600  0.13966400  1
  O  O35  1  0.33861200  0.00449500  0.12595800  1
  O  O36  1  0.63853500  0.54907900  0.67576400  1
  O  O37  1  0.13853500  0.45092100  0.82423600  1
  O  O38  1  0.45428200  0.81427400  0.42633100  1
  O  O39  1  0.95428200  0.18572600  0.07366900  1
  O  O40  1  0.83861200  0.99550500  0.37404200  1
  O  O41  1  0.69990600  0.56712900  0.89733900  1
  O  O42  1  0.15590100  0.03062400  0.36033600  1
  O  O43  1  0.46023900  0.71658000  0.76490600  1
  O  O44  1  0.53976100  0.28342000  0.23509400  1
  O  O45  1  0.84409900  0.96937600  0.63966400  1
  O  O46  1  0.30009400  0.43287100  0.10266100  1
  O  O47  1  0.16138800  0.00449500  0.62595800  1
  O  O48  1  0.04571800  0.81427400  0.92633100  1
  O  O49  1  0.54571800  0.18572600  0.57366900  1
  O  O50  1  0.86146500  0.54907900  0.17576400  1
  O  O51  1  0.36146500  0.45092100  0.32423600  1
  O  O52  1  0.66138800  0.99550500  0.87404200  1
  O  O53  1  0.34409900  0.03062400  0.86033600  1
  O  O54  1  0.80009400  0.56712900  0.39733900  1
  O  O55  1  0.03976100  0.71658000  0.26490600  1
