# generated using pymatgen
data_LaAl12O19
_symmetry_space_group_name_H-M   'P 1'
_cell_length_a   5.64411085
_cell_length_b   5.64411085
_cell_length_c   22.29927304
_cell_angle_alpha   89.99827399
_cell_angle_beta   89.99827399
_cell_angle_gamma   119.92551525
_symmetry_Int_Tables_number   1
_chemical_formula_structural   LaAl12O19
_chemical_formula_sum   'La2 Al24 O38'
_cell_volume   615.65566342
_cell_formula_units_Z   2
loop_
 _symmetry_equiv_pos_site_id
 _symmetry_equiv_pos_as_xyz
  1  'x, y, z'
loop_
 _atom_site_type_symbol
 _atom_site_label
 _atom_site_symmetry_multiplicity
 _atom_site_fract_x
 _atom_site_fract_y
 _atom_site_fract_z
 _atom_site_occupancy
  La  La0  1  0.32847600  0.65688700  0.25133600  1
  La  La1  1  0.65688700  0.32847600  0.75133600  1
  Al  Al2  1  0.66568800  0.83306100  0.39107500  1
  Al  Al3  1  0.66243000  0.83144900  0.10800000  1
  Al  Al4  1  0.33170400  0.66619800  0.80994000  1
  Al  Al5  1  0.33351000  0.66697900  0.97340300  1
  Al  Al6  1  0.33166400  0.66618800  0.68973600  1
  Al  Al7  1  0.33354400  0.66702000  0.52609000  1
  Al  Al8  1  0.99889700  0.99772600  0.23979900  1
  Al  Al9  1  0.99977300  0.00013500  0.99981700  1
  Al  Al10  1  0.99772600  0.99889700  0.73979900  1
  Al  Al11  1  0.00013500  0.99977300  0.49981700  1
  Al  Al12  1  0.16716900  0.83306300  0.39106900  1
  Al  Al13  1  0.16882000  0.83147900  0.10802400  1
  Al  Al14  1  0.16871800  0.33762800  0.10779300  1
  Al  Al15  1  0.16713400  0.33446900  0.39137200  1
  Al  Al16  1  0.83306100  0.66568800  0.89107500  1
  Al  Al17  1  0.83144900  0.66243000  0.60800000  1
  Al  Al18  1  0.83147900  0.16882000  0.60802400  1
  Al  Al19  1  0.66619800  0.33170400  0.30994000  1
  Al  Al20  1  0.66618800  0.33166400  0.18973600  1
  Al  Al21  1  0.66697900  0.33351000  0.47340300  1
  Al  Al22  1  0.66702000  0.33354400  0.02609000  1
  Al  Al23  1  0.83306300  0.16716900  0.89106900  1
  Al  Al24  1  0.33446900  0.16713400  0.89137200  1
  Al  Al25  1  0.33762800  0.16871800  0.60779300  1
  O  O26  1  0.68951300  0.84504900  0.94751100  1
  O  O27  1  0.69151000  0.84603500  0.55335300  1
  O  O28  1  0.49552200  0.99142800  0.34937300  1
  O  O29  1  0.49520800  0.99078800  0.15015900  1
  O  O30  1  0.63481300  0.81764500  0.74910400  1
  O  O31  1  0.15435300  0.84610400  0.55330700  1
  O  O32  1  0.99986700  0.00010600  0.15126200  1
  O  O33  1  0.33325500  0.66690800  0.44300000  1
  O  O34  1  0.99997300  0.00028900  0.85155700  1
  O  O35  1  0.00010600  0.99986700  0.65126200  1
  O  O36  1  0.00028900  0.99997300  0.35155700  1
  O  O37  1  0.33329900  0.66692400  0.05655300  1
  O  O38  1  0.49559900  0.50398100  0.34944400  1
  O  O39  1  0.49515200  0.50443200  0.15013600  1
  O  O40  1  0.18233000  0.82068900  0.74908700  1
  O  O41  1  0.15523600  0.84501300  0.94756200  1
  O  O42  1  0.18238400  0.36229700  0.74908600  1
  O  O43  1  0.84504900  0.68951300  0.44751100  1
  O  O44  1  0.84603500  0.69151000  0.05335300  1
  O  O45  1  0.00807700  0.50399100  0.34941800  1
  O  O46  1  0.00895200  0.50443100  0.15014700  1
  O  O47  1  0.99078800  0.49520800  0.65015900  1
  O  O48  1  0.99142800  0.49552200  0.84937300  1
  O  O49  1  0.15513700  0.31079600  0.94755700  1
  O  O50  1  0.15417600  0.30884400  0.55331400  1
  O  O51  1  0.81764500  0.63481300  0.24910400  1
  O  O52  1  0.50443200  0.49515200  0.65013600  1
  O  O53  1  0.66692400  0.33329900  0.55655300  1
  O  O54  1  0.50398100  0.49559900  0.84944400  1
  O  O55  1  0.82068900  0.18233000  0.24908700  1
  O  O56  1  0.66690800  0.33325500  0.94300000  1
  O  O57  1  0.84501300  0.15523600  0.44756200  1
  O  O58  1  0.84610400  0.15435300  0.05330700  1
  O  O59  1  0.36229700  0.18238400  0.24908600  1
  O  O60  1  0.50399100  0.00807700  0.84941800  1
  O  O61  1  0.50443100  0.00895200  0.65014700  1
  O  O62  1  0.31079600  0.15513700  0.44755700  1
  O  O63  1  0.30884400  0.15417600  0.05331400  1
