# generated using pymatgen
data_Ba8Bi4O17
_symmetry_space_group_name_H-M   'P 1'
_cell_length_a   11.06123529
_cell_length_b   11.06123529
_cell_length_c   6.39804776
_cell_angle_alpha   73.81317689
_cell_angle_beta   73.81317689
_cell_angle_gamma   47.79744574
_symmetry_Int_Tables_number   1
_chemical_formula_structural   Ba8Bi4O17
_chemical_formula_sum   'Ba8 Bi4 O17'
_cell_volume   552.26977993
_cell_formula_units_Z   1
loop_
 _symmetry_equiv_pos_site_id
 _symmetry_equiv_pos_as_xyz
  1  'x, y, z'
loop_
 _atom_site_type_symbol
 _atom_site_label
 _atom_site_symmetry_multiplicity
 _atom_site_fract_x
 _atom_site_fract_y
 _atom_site_fract_z
 _atom_site_occupancy
  Ba  Ba0  1  0.96104700  0.41655800  0.82872700  1
  Ba  Ba1  1  0.75896300  0.23680600  0.54149300  1
  Ba  Ba2  1  0.41655800  0.96104700  0.82872700  1
  Ba  Ba3  1  0.58741000  0.11867600  0.16875600  1
  Ba  Ba4  1  0.52453600  0.52453600  0.01312000  1
  Ba  Ba5  1  0.16623800  0.16623800  0.34253600  1
  Ba  Ba6  1  0.23680600  0.75896300  0.54149300  1
  Ba  Ba7  1  0.11867600  0.58741000  0.16875600  1
  Bi  Bi8  1  0.83498700  0.83498700  0.67319100  1
  Bi  Bi9  1  0.66676500  0.66676500  0.31740100  1
  Bi  Bi10  1  0.34320800  0.34320800  0.67731100  1
  Bi  Bi11  1  0.99693500  0.99693500  0.01475200  1
  O  O12  1  0.85416500  0.41958800  0.26039900  1
  O  O13  1  0.72126500  0.72126500  0.96611000  1
  O  O14  1  0.57796000  0.57796000  0.59724600  1
  O  O15  1  0.74834100  0.74834100  0.45144700  1
  O  O16  1  0.91760300  0.91760300  0.34534500  1
  O  O17  1  0.90676800  0.90676800  0.86981400  1
  O  O18  1  0.75339600  0.22094600  0.00172200  1
  O  O19  1  0.41958800  0.85416500  0.26039900  1
  O  O20  1  0.57973900  0.09237100  0.68123200  1
  O  O21  1  0.06708000  0.06708000  0.69251800  1
  O  O22  1  0.42455300  0.42455300  0.37527800  1
  O  O23  1  0.25665400  0.25665400  0.97088700  1
  O  O24  1  0.26612100  0.26612100  0.50785500  1
  O  O25  1  0.07467200  0.07467200  0.15961200  1
  O  O26  1  0.41168200  0.41168200  0.87098700  1
  O  O27  1  0.09237100  0.57973900  0.68123200  1
  O  O28  1  0.22094600  0.75339600  0.00172200  1
