# generated using pymatgen
data_CoTe2O5
_symmetry_space_group_name_H-M   'P 1'
_cell_length_a   6.04212700
_cell_length_b   7.41364900
_cell_length_c   10.76657900
_cell_angle_alpha   90.00000000
_cell_angle_beta   90.00000000
_cell_angle_gamma   90.00000000
_symmetry_Int_Tables_number   1
_chemical_formula_structural   CoTe2O5
_chemical_formula_sum   'Co4 Te8 O20'
_cell_volume   482.28038770
_cell_formula_units_Z   4
loop_
 _symmetry_equiv_pos_site_id
 _symmetry_equiv_pos_as_xyz
  1  'x, y, z'
loop_
 _atom_site_type_symbol
 _atom_site_label
 _atom_site_symmetry_multiplicity
 _atom_site_fract_x
 _atom_site_fract_y
 _atom_site_fract_z
 _atom_site_occupancy
  Co  Co0  1  0.75000000  0.50000000  0.56075400  1
  Co  Co1  1  0.25000000  0.50000000  0.43924600  1
  Co  Co2  1  0.75000000  0.00000000  0.06075400  1
  Co  Co3  1  0.25000000  0.00000000  0.93924600  1
  Te  Te4  1  0.99007300  0.63606000  0.84693600  1
  Te  Te5  1  0.49007300  0.63606000  0.15306400  1
  Te  Te6  1  0.49007300  0.86394000  0.65306400  1
  Te  Te7  1  0.99007300  0.86394000  0.34693600  1
  Te  Te8  1  0.00992700  0.13606000  0.65306400  1
  Te  Te9  1  0.50992700  0.13606000  0.34693600  1
  Te  Te10  1  0.00992700  0.36394000  0.15306400  1
  Te  Te11  1  0.50992700  0.36394000  0.84693600  1
  O  O12  1  0.75000000  0.50000000  0.94147900  1
  O  O13  1  0.25000000  0.50000000  0.05852100  1
  O  O14  1  0.44872400  0.64806700  0.56364100  1
  O  O15  1  0.94872400  0.64806700  0.43635900  1
  O  O16  1  0.81071000  0.69196000  0.70651000  1
  O  O17  1  0.31071000  0.69196000  0.29349000  1
  O  O18  1  0.31071000  0.80804000  0.79349000  1
  O  O19  1  0.81071000  0.80804000  0.20651000  1
  O  O20  1  0.94872400  0.85193300  0.93635900  1
  O  O21  1  0.44872400  0.85193300  0.06364100  1
  O  O22  1  0.75000000  0.00000000  0.44147900  1
  O  O23  1  0.25000000  0.00000000  0.55852100  1
  O  O24  1  0.55127600  0.14806700  0.93635900  1
  O  O25  1  0.05127600  0.14806700  0.06364100  1
  O  O26  1  0.18929000  0.19196000  0.79349000  1
  O  O27  1  0.68929000  0.19196000  0.20651000  1
  O  O28  1  0.68929000  0.30804000  0.70651000  1
  O  O29  1  0.18929000  0.30804000  0.29349000  1
  O  O30  1  0.05127600  0.35193300  0.56364100  1
  O  O31  1  0.55127600  0.35193300  0.43635900  1
