# generated using pymatgen
data_AgRh
_symmetry_space_group_name_H-M   'P 1'
_cell_length_a   2.77758820
_cell_length_b   2.77758820
_cell_length_c   4.80860200
_cell_angle_alpha   90.00000000
_cell_angle_beta   90.00000000
_cell_angle_gamma   120.00000476
_symmetry_Int_Tables_number   1
_chemical_formula_structural   AgRh
_chemical_formula_sum   'Ag1 Rh1'
_cell_volume   32.12810870
_cell_formula_units_Z   1
loop_
 _symmetry_equiv_pos_site_id
 _symmetry_equiv_pos_as_xyz
  1  'x, y, z'
loop_
 _atom_site_type_symbol
 _atom_site_label
 _atom_site_symmetry_multiplicity
 _atom_site_fract_x
 _atom_site_fract_y
 _atom_site_fract_z
 _atom_site_occupancy
  Ag  Ag0  1  0.33333300  0.66666700  0.50000000  1
  Rh  Rh1  1  0.00000000  0.00000000  0.00000000  1
