# generated using pymatgen
data_YTmO3
_symmetry_space_group_name_H-M   'P 1'
_cell_length_a   9.16618061
_cell_length_b   9.16618061
_cell_length_c   10.58277717
_cell_angle_alpha   54.73586807
_cell_angle_beta   54.73586807
_cell_angle_gamma   70.53181347
_symmetry_Int_Tables_number   1
_chemical_formula_structural   YTmO3
_chemical_formula_sum   'Y8 Tm8 O24'
_cell_volume   592.77240068
_cell_formula_units_Z   8
loop_
 _symmetry_equiv_pos_site_id
 _symmetry_equiv_pos_as_xyz
  1  'x, y, z'
loop_
 _atom_site_type_symbol
 _atom_site_label
 _atom_site_symmetry_multiplicity
 _atom_site_fract_x
 _atom_site_fract_y
 _atom_site_fract_z
 _atom_site_occupancy
  Y  Y0  1  0.00096500  0.50071900  0.74996500  1
  Y  Y1  1  0.25004800  0.24949300  0.46804200  1
  Y  Y2  1  0.75050700  0.74995200  0.53195800  1
  Y  Y3  1  0.46719000  0.53281000  0.00000000  1
  Y  Y4  1  0.96770800  0.03229200  0.00000000  1
  Y  Y5  1  0.99875800  0.49819200  0.24999700  1
  Y  Y6  1  0.49928100  0.99903500  0.25003500  1
  Y  Y7  1  0.50180800  0.00124200  0.75000300  1
  Tm  Tm8  1  0.78212000  0.28180900  0.71704500  1
  Tm  Tm9  1  0.28429100  0.78398700  0.21685200  1
  Tm  Tm10  1  0.71819100  0.21788000  0.28295500  1
  Tm  Tm11  1  0.53287600  0.46712400  0.50000000  1
  Tm  Tm12  1  0.03340300  0.96659700  0.50000000  1
  Tm  Tm13  1  0.75003100  0.74955900  0.03291700  1
  Tm  Tm14  1  0.25044100  0.24996900  0.96708300  1
  Tm  Tm15  1  0.21601300  0.71570900  0.78314800  1
  O  O16  1  0.51407100  0.27057200  0.20797000  1
  O  O17  1  0.72942800  0.48592900  0.79203000  1
  O  O18  1  0.95646400  0.74199200  0.78153400  1
  O  O19  1  0.75818000  0.53984700  0.47988000  1
  O  O20  1  0.73865600  0.95963000  0.28145400  1
  O  O21  1  0.54399600  0.76115600  0.97986500  1
  O  O22  1  0.98624000  0.22562600  0.49264300  1
  O  O23  1  0.77437400  0.01376000  0.50735700  1
  O  O24  1  0.72817500  0.03052700  0.97601500  1
  O  O25  1  0.46489700  0.77285700  0.73892200  1
  O  O26  1  0.96947300  0.27182500  0.02398500  1
  O  O27  1  0.22714300  0.53510300  0.26107800  1
  O  O28  1  0.76829200  0.46905400  0.23845400  1
  O  O29  1  0.53094600  0.23170800  0.76154600  1
  O  O30  1  0.26917200  0.96458000  0.52348800  1
  O  O31  1  0.03542000  0.73082800  0.47651200  1
  O  O32  1  0.23007500  0.98879900  0.99172100  1
  O  O33  1  0.01120100  0.76992500  0.00827900  1
  O  O34  1  0.25800800  0.04353600  0.21846600  1
  O  O35  1  0.46015300  0.24182000  0.52012000  1
  O  O36  1  0.04037000  0.26134400  0.71854600  1
  O  O37  1  0.23884400  0.45600400  0.02013500  1
  O  O38  1  0.48902000  0.72622700  0.29299900  1
  O  O39  1  0.27377300  0.51098000  0.70700100  1
