# generated using pymatgen
data_BaCaI4
_symmetry_space_group_name_H-M   'P 1'
_cell_length_a   10.71549763
_cell_length_b   10.71549763
_cell_length_c   13.31726435
_cell_angle_alpha   71.22122122
_cell_angle_beta   71.22122122
_cell_angle_gamma   83.79458117
_symmetry_Int_Tables_number   1
_chemical_formula_structural   BaCaI4
_chemical_formula_sum   'Ba4 Ca4 I16'
_cell_volume   1370.63549758
_cell_formula_units_Z   4
loop_
 _symmetry_equiv_pos_site_id
 _symmetry_equiv_pos_as_xyz
  1  'x, y, z'
loop_
 _atom_site_type_symbol
 _atom_site_label
 _atom_site_symmetry_multiplicity
 _atom_site_fract_x
 _atom_site_fract_y
 _atom_site_fract_z
 _atom_site_occupancy
  Ba  Ba0  1  0.70011900  0.70011900  0.14543700  1
  Ba  Ba1  1  0.70073100  0.29926900  0.50000000  1
  Ba  Ba2  1  0.29926900  0.70073100  0.50000000  1
  Ba  Ba3  1  0.29988100  0.29988100  0.85456300  1
  Ca  Ca4  1  0.68250100  0.68250100  0.65886300  1
  Ca  Ca5  1  0.68158900  0.31841100  0.00000000  1
  Ca  Ca6  1  0.31841100  0.68158900  0.00000000  1
  Ca  Ca7  1  0.31749900  0.31749900  0.34113700  1
  I  I8  1  0.66351200  0.97646700  0.58832200  1
  I  I9  1  0.97646700  0.66351200  0.58832200  1
  I  I10  1  0.33811500  0.97577700  0.92354900  1
  I  I11  1  0.97577700  0.33811500  0.92354900  1
  I  I12  1  0.64304500  0.64304500  0.91892200  1
  I  I13  1  0.65272400  0.65272400  0.43129100  1
  I  I14  1  0.35877100  0.65392600  0.75598000  1
  I  I15  1  0.65392600  0.35877100  0.75598000  1
  I  I16  1  0.64122900  0.34607400  0.24402000  1
  I  I17  1  0.34607400  0.64122900  0.24402000  1
  I  I18  1  0.34727600  0.34727600  0.56870900  1
  I  I19  1  0.35695500  0.35695500  0.08107800  1
  I  I20  1  0.66188500  0.02422300  0.07645100  1
  I  I21  1  0.02422300  0.66188500  0.07645100  1
  I  I22  1  0.33648800  0.02353300  0.41167800  1
  I  I23  1  0.02353300  0.33648800  0.41167800  1
