# generated using pymatgen
data_P4WO12
_symmetry_space_group_name_H-M   'P 1'
_cell_length_a   7.64432695
_cell_length_b   7.64432695
_cell_length_c   10.14881891
_cell_angle_alpha   67.33620332
_cell_angle_beta   67.33620332
_cell_angle_gamma   66.53320539
_symmetry_Int_Tables_number   1
_chemical_formula_structural   P4WO12
_chemical_formula_sum   'P8 W2 O24'
_cell_volume   482.79264929
_cell_formula_units_Z   2
loop_
 _symmetry_equiv_pos_site_id
 _symmetry_equiv_pos_as_xyz
  1  'x, y, z'
loop_
 _atom_site_type_symbol
 _atom_site_label
 _atom_site_symmetry_multiplicity
 _atom_site_fract_x
 _atom_site_fract_y
 _atom_site_fract_z
 _atom_site_occupancy
  P  P0  1  0.74804400  0.26198300  0.46850300  1
  P  P1  1  0.73801700  0.25195600  0.03149700  1
  P  P2  1  0.69009500  0.65656000  0.81478800  1
  P  P3  1  0.26198300  0.74804400  0.96850300  1
  P  P4  1  0.25195600  0.73801700  0.53149700  1
  P  P5  1  0.34344000  0.30990500  0.68521200  1
  P  P6  1  0.65656000  0.69009500  0.31478800  1
  P  P7  1  0.30990500  0.34344000  0.18521200  1
  W  W8  1  0.50000000  0.00000000  0.00000000  1
  W  W9  1  0.00000000  0.50000000  0.50000000  1
  O  O10  1  0.65857800  0.46861900  0.34809900  1
  O  O11  1  0.20407900  0.35032100  0.34403900  1
  O  O12  1  0.79592100  0.64967900  0.65596100  1
  O  O13  1  0.81786700  0.33052300  0.56024600  1
  O  O14  1  0.33052300  0.81786700  0.06024600  1
  O  O15  1  0.46861900  0.65857800  0.84809900  1
  O  O16  1  0.30672400  0.17032400  0.14969000  1
  O  O17  1  0.21083700  0.54360300  0.07782000  1
  O  O18  1  0.54360300  0.21083700  0.57782000  1
  O  O19  1  0.10565200  0.87617100  0.89693300  1
  O  O20  1  0.34142200  0.53138100  0.65190100  1
  O  O21  1  0.35032100  0.20407900  0.84403900  1
  O  O22  1  0.82967600  0.69327600  0.35031000  1
  O  O23  1  0.12382900  0.89434800  0.60306700  1
  O  O24  1  0.87617100  0.10565200  0.39693300  1
  O  O25  1  0.66947700  0.18213300  0.93975400  1
  O  O26  1  0.64967900  0.79592100  0.15596100  1
  O  O27  1  0.18213300  0.66947700  0.43975400  1
  O  O28  1  0.89434800  0.12382900  0.10306700  1
  O  O29  1  0.45639700  0.78916300  0.42218000  1
  O  O30  1  0.78916300  0.45639700  0.92218000  1
  O  O31  1  0.69327600  0.82967600  0.85031000  1
  O  O32  1  0.53138100  0.34142200  0.15190100  1
  O  O33  1  0.17032400  0.30672400  0.64969000  1
