# generated using pymatgen
data_BiP2O7
_symmetry_space_group_name_H-M   'P 1'
_cell_length_a   8.86145700
_cell_length_b   7.17858500
_cell_length_c   9.84219691
_cell_angle_alpha   74.21508097
_cell_angle_beta   90.00000000
_cell_angle_gamma   90.00000000
_symmetry_Int_Tables_number   1
_chemical_formula_structural   BiP2O7
_chemical_formula_sum   'Bi4 P8 O28'
_cell_volume   602.47889185
_cell_formula_units_Z   4
loop_
 _symmetry_equiv_pos_site_id
 _symmetry_equiv_pos_as_xyz
  1  'x, y, z'
loop_
 _atom_site_type_symbol
 _atom_site_label
 _atom_site_symmetry_multiplicity
 _atom_site_fract_x
 _atom_site_fract_y
 _atom_site_fract_z
 _atom_site_occupancy
  Bi  Bi0  1  0.76891200  0.71806200  0.99370700  1
  Bi  Bi1  1  0.73108800  0.71806200  0.49370700  1
  Bi  Bi2  1  0.26891200  0.28193800  0.50629300  1
  Bi  Bi3  1  0.23108800  0.28193800  0.00629300  1
  P  P4  1  0.53398000  0.93970300  0.71920200  1
  P  P5  1  0.96602000  0.93970300  0.21920200  1
  P  P6  1  0.41583800  0.55598000  0.70744500  1
  P  P7  1  0.91583800  0.44402000  0.79255500  1
  P  P8  1  0.08416200  0.55598000  0.20744500  1
  P  P9  1  0.58416200  0.44402000  0.29255500  1
  P  P10  1  0.03398000  0.06029700  0.78079800  1
  P  P11  1  0.46602000  0.06029700  0.28079800  1
  O  O12  1  0.57666100  0.91377500  0.87517700  1
  O  O13  1  0.95541600  0.86559400  0.83750600  1
  O  O14  1  0.67393600  0.91369500  0.63342700  1
  O  O15  1  0.92333900  0.91377500  0.37517700  1
  O  O16  1  0.40643700  0.78115300  0.70831300  1
  O  O17  1  0.54458400  0.86559400  0.33750600  1
  O  O18  1  0.82606400  0.91369500  0.13342700  1
  O  O19  1  0.09356300  0.78115300  0.20831300  1
  O  O20  1  0.91579900  0.56583000  0.63773600  1
  O  O21  1  0.06736700  0.47521700  0.85886300  1
  O  O22  1  0.77872100  0.47776500  0.87843200  1
  O  O23  1  0.27872100  0.52223500  0.62156800  1
  O  O24  1  0.56736700  0.52478300  0.64113700  1
  O  O25  1  0.41579900  0.43417000  0.86226400  1
  O  O26  1  0.58420100  0.56583000  0.13773600  1
  O  O27  1  0.43263300  0.47521700  0.35886300  1
  O  O28  1  0.72127900  0.47776500  0.37843200  1
  O  O29  1  0.22127900  0.52223500  0.12156800  1
  O  O30  1  0.93263300  0.52478300  0.14113700  1
  O  O31  1  0.08420100  0.43417000  0.36226400  1
  O  O32  1  0.90643700  0.21884700  0.79168700  1
  O  O33  1  0.17393600  0.08630500  0.86657300  1
  O  O34  1  0.45541600  0.13440600  0.66249400  1
  O  O35  1  0.59356300  0.21884700  0.29168700  1
  O  O36  1  0.07666100  0.08622500  0.62482300  1
  O  O37  1  0.32606400  0.08630500  0.36657300  1
  O  O38  1  0.04458400  0.13440600  0.16249400  1
  O  O39  1  0.42333900  0.08622500  0.12482300  1
