# generated using pymatgen
data_V3H8(NO4)2
_symmetry_space_group_name_H-M   'P 1'
_cell_length_a   9.02863100
_cell_length_b   9.02863100
_cell_length_c   5.69214700
_cell_angle_alpha   90.00000000
_cell_angle_beta   90.00000000
_cell_angle_gamma   90.00000000
_symmetry_Int_Tables_number   1
_chemical_formula_structural   V3H8(NO4)2
_chemical_formula_sum   'V6 H16 N4 O16'
_cell_volume   464.00206654
_cell_formula_units_Z   2
loop_
 _symmetry_equiv_pos_site_id
 _symmetry_equiv_pos_as_xyz
  1  'x, y, z'
loop_
 _atom_site_type_symbol
 _atom_site_label
 _atom_site_symmetry_multiplicity
 _atom_site_fract_x
 _atom_site_fract_y
 _atom_site_fract_z
 _atom_site_occupancy
  V  V0  1  0.50000000  0.50000000  0.00322300  1
  V  V1  1  0.00000000  0.00000000  0.00322300  1
  V  V2  1  0.13369000  0.63369000  0.00418700  1
  V  V3  1  0.63369000  0.86631000  0.00418700  1
  V  V4  1  0.36631000  0.13369000  0.00418700  1
  V  V5  1  0.86631000  0.36631000  0.00418700  1
  H  H6  1  0.90072900  0.59927100  0.45193300  1
  H  H7  1  0.75751000  0.61145600  0.64200100  1
  H  H8  1  0.76665400  0.73334600  0.41919500  1
  H  H9  1  0.88854400  0.74249000  0.64200100  1
  H  H10  1  0.38854400  0.75751000  0.64200100  1
  H  H11  1  0.26665400  0.76665400  0.41919500  1
  H  H12  1  0.25751000  0.88854400  0.64200100  1
  H  H13  1  0.40072900  0.90072900  0.45193300  1
  H  H14  1  0.59927100  0.09927100  0.45193300  1
  H  H15  1  0.74249000  0.11145600  0.64200100  1
  H  H16  1  0.73334600  0.23334600  0.41919500  1
  H  H17  1  0.61145600  0.24249000  0.64200100  1
  H  H18  1  0.11145600  0.25751000  0.64200100  1
  H  H19  1  0.23334600  0.26665400  0.41919500  1
  H  H20  1  0.24249000  0.38854400  0.64200100  1
  H  H21  1  0.09927100  0.40072900  0.45193300  1
  N  N22  1  0.82940000  0.67060000  0.53690300  1
  N  N23  1  0.32940000  0.82940000  0.53690300  1
  N  N24  1  0.67060000  0.17060000  0.53690300  1
  N  N25  1  0.17060000  0.32940000  0.53690300  1
  O  O26  1  0.50000000  0.50000000  0.29123000  1
  O  O27  1  0.00000000  0.50000000  0.89352600  1
  O  O28  1  0.30756100  0.58427500  0.89576000  1
  O  O29  1  0.13180700  0.63180700  0.29896300  1
  O  O30  1  0.58427500  0.69243900  0.89576000  1
  O  O31  1  0.08427500  0.80756100  0.89576000  1
  O  O32  1  0.63180700  0.86819300  0.29896300  1
  O  O33  1  0.80756100  0.91572500  0.89576000  1
  O  O34  1  0.50000000  0.00000000  0.89352600  1
  O  O35  1  0.00000000  0.00000000  0.29123000  1
  O  O36  1  0.19243900  0.08427500  0.89576000  1
  O  O37  1  0.36819300  0.13180700  0.29896300  1
  O  O38  1  0.91572500  0.19243900  0.89576000  1
  O  O39  1  0.41572500  0.30756100  0.89576000  1
  O  O40  1  0.86819300  0.36819300  0.29896300  1
  O  O41  1  0.69243900  0.41572500  0.89576000  1
