# generated using pymatgen
data_V(PO3)4
_symmetry_space_group_name_H-M   'P 1'
_cell_length_a   7.17704505
_cell_length_b   7.17704505
_cell_length_c   10.18872170
_cell_angle_alpha   66.62400728
_cell_angle_beta   66.62400728
_cell_angle_gamma   70.86408246
_symmetry_Int_Tables_number   1
_chemical_formula_structural   V(PO3)4
_chemical_formula_sum   'V2 P8 O24'
_cell_volume   433.06676383
_cell_formula_units_Z   2
loop_
 _symmetry_equiv_pos_site_id
 _symmetry_equiv_pos_as_xyz
  1  'x, y, z'
loop_
 _atom_site_type_symbol
 _atom_site_label
 _atom_site_symmetry_multiplicity
 _atom_site_fract_x
 _atom_site_fract_y
 _atom_site_fract_z
 _atom_site_occupancy
  V  V0  1  0.05281500  0.94718500  0.25000000  1
  V  V1  1  0.94718500  0.05281500  0.75000000  1
  P  P2  1  0.26438000  0.75383200  0.51848100  1
  P  P3  1  0.24616800  0.73562000  0.98151900  1
  P  P4  1  0.28154900  0.31502500  0.19559900  1
  P  P5  1  0.31502500  0.28154900  0.69559900  1
  P  P6  1  0.68497500  0.71845100  0.30440100  1
  P  P7  1  0.71845100  0.68497500  0.80440100  1
  P  P8  1  0.75383200  0.26438000  0.01848100  1
  P  P9  1  0.73562000  0.24616800  0.48151900  1
  O  O10  1  0.14726900  0.91064400  0.59990800  1
  O  O11  1  0.28186600  0.53161100  0.63980100  1
  O  O12  1  0.08935600  0.85273100  0.90009200  1
  O  O13  1  0.19561300  0.75020000  0.39807300  1
  O  O14  1  0.35588600  0.19287500  0.83906300  1
  O  O15  1  0.12714400  0.23401300  0.68524900  1
  O  O16  1  0.23401300  0.12714400  0.18524900  1
  O  O17  1  0.21787100  0.50033600  0.05524200  1
  O  O18  1  0.19287500  0.35588600  0.33906300  1
  O  O19  1  0.24980000  0.80438700  0.10192700  1
  O  O20  1  0.46838900  0.71813400  0.86019900  1
  O  O21  1  0.49966400  0.78212900  0.44475800  1
  O  O22  1  0.50033600  0.21787100  0.55524200  1
  O  O23  1  0.53161100  0.28186600  0.13980100  1
  O  O24  1  0.75020000  0.19561300  0.89807300  1
  O  O25  1  0.80712500  0.64411400  0.66093700  1
  O  O26  1  0.78212900  0.49966400  0.94475800  1
  O  O27  1  0.76598700  0.87285600  0.81475100  1
  O  O28  1  0.87285600  0.76598700  0.31475100  1
  O  O29  1  0.64411400  0.80712500  0.16093700  1
  O  O30  1  0.80438700  0.24980000  0.60192700  1
  O  O31  1  0.91064400  0.14726900  0.09990800  1
  O  O32  1  0.71813400  0.46838900  0.36019900  1
  O  O33  1  0.85273100  0.08935600  0.40009200  1
