# generated using pymatgen
data_Er2H16S3O20
_symmetry_space_group_name_H-M   'P 1'
_cell_length_a   7.51997832
_cell_length_b   7.51997832
_cell_length_c   18.26440836
_cell_angle_alpha   79.56204164
_cell_angle_beta   79.56204164
_cell_angle_gamma   52.86586633
_symmetry_Int_Tables_number   1
_chemical_formula_structural   Er2H16S3O20
_chemical_formula_sum   'Er4 H32 S6 O40'
_cell_volume   806.38707984
_cell_formula_units_Z   2
loop_
 _symmetry_equiv_pos_site_id
 _symmetry_equiv_pos_as_xyz
  1  'x, y, z'
loop_
 _atom_site_type_symbol
 _atom_site_label
 _atom_site_symmetry_multiplicity
 _atom_site_fract_x
 _atom_site_fract_y
 _atom_site_fract_z
 _atom_site_occupancy
  Er  Er0  1  0.35224000  0.31608700  0.39084600  1
  Er  Er1  1  0.31608700  0.35224000  0.89084600  1
  Er  Er2  1  0.68391300  0.64776000  0.10915400  1
  Er  Er3  1  0.64776000  0.68391300  0.60915400  1
  H  H4  1  0.18917700  0.79428200  0.34391400  1
  H  H5  1  0.81930300  0.18658100  0.10592200  1
  H  H6  1  0.34587800  0.55085000  0.14362200  1
  H  H7  1  0.64393200  0.32387300  0.04559300  1
  H  H8  1  0.79428200  0.18917700  0.84391400  1
  H  H9  1  0.18658100  0.81930300  0.60592200  1
  H  H10  1  0.77963800  0.87802000  0.19691600  1
  H  H11  1  0.97085800  0.76485000  0.01422800  1
  H  H12  1  0.72505000  0.98721200  0.01399000  1
  H  H13  1  0.55085000  0.34587800  0.64362200  1
  H  H14  1  0.32387300  0.64393200  0.54559300  1
  H  H15  1  0.28799900  0.25782200  0.24558900  1
  H  H16  1  0.74217800  0.71200100  0.25441100  1
  H  H17  1  0.01278800  0.27495000  0.48601000  1
  H  H18  1  0.23515000  0.02914200  0.48577200  1
  H  H19  1  0.12198000  0.22036200  0.30308400  1
  H  H20  1  0.87802000  0.77963800  0.69691600  1
  H  H21  1  0.76485000  0.97085800  0.51422800  1
  H  H22  1  0.98721200  0.72505000  0.51399000  1
  H  H23  1  0.25782200  0.28799900  0.74558900  1
  H  H24  1  0.71200100  0.74217800  0.75441100  1
  H  H25  1  0.67612700  0.35606800  0.45440700  1
  H  H26  1  0.44915000  0.65412200  0.35637800  1
  H  H27  1  0.27495000  0.01278800  0.98601000  1
  H  H28  1  0.02914200  0.23515000  0.98577200  1
  H  H29  1  0.22036200  0.12198000  0.80308400  1
  H  H30  1  0.81341900  0.18069700  0.39407800  1
  H  H31  1  0.20571800  0.81082300  0.15608600  1
  H  H32  1  0.35606800  0.67612700  0.95440700  1
  H  H33  1  0.65412200  0.44915000  0.85637800  1
  H  H34  1  0.18069700  0.81341900  0.89407800  1
  H  H35  1  0.81082300  0.20571800  0.65608600  1
  S  S36  1  0.74477300  0.69524300  0.41118100  1
  S  S37  1  0.30475700  0.25522700  0.08881900  1
  S  S38  1  0.69524300  0.74477300  0.91118100  1
  S  S39  1  0.25522700  0.30475700  0.58881900  1
  S  S40  1  0.81914600  0.18085400  0.25000000  1
  S  S41  1  0.18085400  0.81914600  0.75000000  1
  O  O42  1  0.31876900  0.64787400  0.36302700  1
  O  O43  1  0.68975400  0.23412400  0.43503500  1
  O  O44  1  0.91100800  0.01700400  0.19305900  1
  O  O45  1  0.60803500  0.22217100  0.28831800  1
  O  O46  1  0.64787400  0.31876900  0.86302700  1
  O  O47  1  0.23412400  0.68975400  0.93503500  1
  O  O48  1  0.97802800  0.62654500  0.39797700  1
  O  O49  1  0.01700400  0.91100800  0.69305900  1
  O  O50  1  0.59000600  0.93888400  0.41788600  1
  O  O51  1  0.36759300  0.30793200  0.14949100  1
  O  O52  1  0.22217100  0.60803500  0.78831800  1
  O  O53  1  0.42270600  0.28065500  0.01560100  1
  O  O54  1  0.82820800  0.85124500  0.04535100  1
  O  O55  1  0.22791600  0.25923000  0.29858300  1
  O  O56  1  0.74077000  0.77208400  0.20141700  1
  O  O57  1  0.14875500  0.17179200  0.45464900  1
  O  O58  1  0.71934500  0.57729400  0.48439900  1
  O  O59  1  0.62654500  0.97802800  0.89797700  1
  O  O60  1  0.69206800  0.63240700  0.35050900  1
  O  O61  1  0.06111600  0.40999400  0.08211400  1
  O  O62  1  0.93888400  0.59000600  0.91788600  1
  O  O63  1  0.30793200  0.36759300  0.64949100  1
  O  O64  1  0.37345500  0.02197200  0.10202300  1
  O  O65  1  0.28065500  0.42270600  0.51560100  1
  O  O66  1  0.85124500  0.82820800  0.54535100  1
  O  O67  1  0.25923000  0.22791600  0.79858300  1
  O  O68  1  0.77208400  0.74077000  0.70141700  1
  O  O69  1  0.17179200  0.14875500  0.95464900  1
  O  O70  1  0.57729400  0.71934500  0.98439900  1
  O  O71  1  0.77782900  0.39196500  0.21168200  1
  O  O72  1  0.63240700  0.69206800  0.85050900  1
  O  O73  1  0.40999400  0.06111600  0.58211400  1
  O  O74  1  0.98299600  0.08899200  0.30694100  1
  O  O75  1  0.02197200  0.37345500  0.60202300  1
  O  O76  1  0.76587600  0.31024600  0.06496500  1
  O  O77  1  0.35212600  0.68123100  0.13697300  1
  O  O78  1  0.39196500  0.77782900  0.71168200  1
  O  O79  1  0.08899200  0.98299600  0.80694100  1
  O  O80  1  0.31024600  0.76587600  0.56496500  1
  O  O81  1  0.68123100  0.35212600  0.63697300  1
