# generated using pymatgen
data_AcPm3
_symmetry_space_group_name_H-M   'P 1'
_cell_length_a   7.50497834
_cell_length_b   7.50497834
_cell_length_c   6.12313600
_cell_angle_alpha   90.00000000
_cell_angle_beta   90.00000000
_cell_angle_gamma   120.00000303
_symmetry_Int_Tables_number   1
_chemical_formula_structural   AcPm3
_chemical_formula_sum   'Ac2 Pm6'
_cell_volume   298.67812122
_cell_formula_units_Z   2
loop_
 _symmetry_equiv_pos_site_id
 _symmetry_equiv_pos_as_xyz
  1  'x, y, z'
loop_
 _atom_site_type_symbol
 _atom_site_label
 _atom_site_symmetry_multiplicity
 _atom_site_fract_x
 _atom_site_fract_y
 _atom_site_fract_z
 _atom_site_occupancy
  Ac  Ac0  1  0.33333300  0.66666700  0.75000000  1
  Ac  Ac1  1  0.66666700  0.33333300  0.25000000  1
  Pm  Pm2  1  0.16279800  0.32559600  0.25000000  1
  Pm  Pm3  1  0.67440400  0.83720200  0.25000000  1
  Pm  Pm4  1  0.16279800  0.83720200  0.25000000  1
  Pm  Pm5  1  0.83720200  0.67440400  0.75000000  1
  Pm  Pm6  1  0.32559600  0.16279800  0.75000000  1
  Pm  Pm7  1  0.83720200  0.16279800  0.75000000  1
