# generated using pymatgen
data_VPO5
_symmetry_space_group_name_H-M   'P 1'
_cell_length_a   9.01118100
_cell_length_b   5.10599500
_cell_length_c   17.79990378
_cell_angle_alpha   89.61647063
_cell_angle_beta   90.00000000
_cell_angle_gamma   90.00000000
_symmetry_Int_Tables_number   1
_chemical_formula_structural   VPO5
_chemical_formula_sum   'V8 P8 O40'
_cell_volume   818.97382785
_cell_formula_units_Z   8
loop_
 _symmetry_equiv_pos_site_id
 _symmetry_equiv_pos_as_xyz
  1  'x, y, z'
loop_
 _atom_site_type_symbol
 _atom_site_label
 _atom_site_symmetry_multiplicity
 _atom_site_fract_x
 _atom_site_fract_y
 _atom_site_fract_z
 _atom_site_occupancy
  V  V0  1  0.61391800  0.49970100  0.87628400  1
  V  V1  1  0.08090800  0.91561400  0.86514100  1
  V  V2  1  0.58090800  0.08438600  0.63485900  1
  V  V3  1  0.11391800  0.50029900  0.62371600  1
  V  V4  1  0.88608200  0.49970100  0.37628400  1
  V  V5  1  0.41909200  0.91561400  0.36514100  1
  V  V6  1  0.91909200  0.08438600  0.13485900  1
  V  V7  1  0.38608200  0.50029900  0.12371600  1
  P  P8  1  0.76765700  0.99913600  0.96745900  1
  P  P9  1  0.41814100  0.00045100  0.80263500  1
  P  P10  1  0.91814100  0.99954900  0.69736500  1
  P  P11  1  0.26765700  0.00086400  0.53254100  1
  P  P12  1  0.73234300  0.99913600  0.46745900  1
  P  P13  1  0.08185900  0.00045100  0.30263500  1
  P  P14  1  0.58185900  0.99954900  0.19736500  1
  P  P15  1  0.23234300  0.00086400  0.03254100  1
  O  O16  1  0.20498100  0.01091600  0.94724100  1
  O  O17  1  0.67795500  0.75229200  0.94780300  1
  O  O18  1  0.67684500  0.24724300  0.94898700  1
  O  O19  1  0.91652100  0.00985100  0.92513900  1
  O  O20  1  0.08191000  0.60259600  0.86810500  1
  O  O21  1  0.47473500  0.75295800  0.84318400  1
  O  O22  1  0.47618300  0.24643700  0.84240400  1
  O  O23  1  0.74117000  0.50034000  0.81397800  1
  O  O24  1  0.24715600  0.00413400  0.80345900  1
  O  O25  1  0.96534500  0.00424700  0.78042500  1
  O  O26  1  0.46534500  0.99575300  0.71957500  1
  O  O27  1  0.74715600  0.99586600  0.69654100  1
  O  O28  1  0.24117000  0.49966000  0.68602200  1
  O  O29  1  0.97473500  0.24704200  0.65681600  1
  O  O30  1  0.97618300  0.75356300  0.65759600  1
  O  O31  1  0.58191000  0.39740400  0.63189500  1
  O  O32  1  0.41652100  0.99014900  0.57486100  1
  O  O33  1  0.17684500  0.75275700  0.55101300  1
  O  O34  1  0.17795500  0.24770800  0.55219700  1
  O  O35  1  0.70498100  0.98908400  0.55275900  1
  O  O36  1  0.29501900  0.01091600  0.44724100  1
  O  O37  1  0.82204500  0.75229200  0.44780300  1
  O  O38  1  0.82315500  0.24724300  0.44898700  1
  O  O39  1  0.58347900  0.00985100  0.42513900  1
  O  O40  1  0.41809000  0.60259600  0.36810500  1
  O  O41  1  0.02526500  0.75295800  0.34318400  1
  O  O42  1  0.02381700  0.24643700  0.34240400  1
  O  O43  1  0.75883000  0.50034000  0.31397800  1
  O  O44  1  0.25284400  0.00413400  0.30345900  1
  O  O45  1  0.53465500  0.00424700  0.28042500  1
  O  O46  1  0.03465500  0.99575300  0.21957500  1
  O  O47  1  0.75284400  0.99586600  0.19654100  1
  O  O48  1  0.25883000  0.49966000  0.18602200  1
  O  O49  1  0.52381700  0.75356300  0.15759600  1
  O  O50  1  0.52526500  0.24704200  0.15681600  1
  O  O51  1  0.91809000  0.39740400  0.13189500  1
  O  O52  1  0.08347900  0.99014900  0.07486100  1
  O  O53  1  0.32315500  0.75275700  0.05101300  1
  O  O54  1  0.32204500  0.24770800  0.05219700  1
  O  O55  1  0.79501900  0.98908400  0.05275900  1
