# generated using pymatgen
data_Mg4Mn9O13
_symmetry_space_group_name_H-M   'P 1'
_cell_length_a   3.13847082
_cell_length_b   3.13847082
_cell_length_c   33.47735787
_cell_angle_alpha   92.68669601
_cell_angle_beta   90.00000000
_cell_angle_gamma   120.00000000
_symmetry_Int_Tables_number   1
_chemical_formula_structural   Mg4Mn9O13
_chemical_formula_sum   'Mg4 Mn9 O13'
_cell_volume   285.15494231
_cell_formula_units_Z   1
loop_
 _symmetry_equiv_pos_site_id
 _symmetry_equiv_pos_as_xyz
  1  'x, y, z'
loop_
 _atom_site_type_symbol
 _atom_site_label
 _atom_site_symmetry_multiplicity
 _atom_site_fract_x
 _atom_site_fract_y
 _atom_site_fract_z
 _atom_site_occupancy
  Mg  Mg0  1  0.15406700  0.30813200  0.46219900  1
  Mg  Mg1  1  0.23123000  0.46245900  0.69368900  1
  Mg  Mg2  1  0.61561900  0.23124000  0.84685900  1
  Mg  Mg3  1  0.30675500  0.61351000  0.92026400  1
  Mn  Mn4  1  0.99869700  0.99739500  0.99609200  1
  Mn  Mn5  1  0.38441800  0.76883500  0.15325400  1
  Mn  Mn6  1  0.69165600  0.38331300  0.07496900  1
  Mn  Mn7  1  0.07705400  0.15410900  0.23116300  1
  Mn  Mn8  1  0.46240400  0.92480800  0.38721200  1
  Mn  Mn9  1  0.76969100  0.53938200  0.30907300  1
  Mn  Mn10  1  0.84588000  0.69175900  0.53763900  1
  Mn  Mn11  1  0.53906200  0.07812300  0.61718500  1
  Mn  Mn12  1  0.92345300  0.84690600  0.77035900  1
  O  O13  1  0.34521500  0.69042900  0.03564400  1
  O  O14  1  0.03808400  0.07616700  0.11425000  1
  O  O15  1  0.73075100  0.46150100  0.19225100  1
  O  O16  1  0.42336200  0.84672400  0.27008600  1
  O  O17  1  0.11602800  0.23205600  0.34808500  1
  O  O18  1  0.80893600  0.61787300  0.42680900  1
  O  O19  1  0.19243200  0.38486400  0.57729600  1
  O  O20  1  0.49921200  0.99842400  0.49763600  1
  O  O21  1  0.88585800  0.77171500  0.65757400  1
  O  O22  1  0.57661300  0.15322600  0.72984000  1
  O  O23  1  0.27029300  0.54058600  0.81087900  1
  O  O24  1  0.96121400  0.92242800  0.88364200  1
  O  O25  1  0.65201800  0.30403500  0.95605300  1
