# generated using pymatgen
data_BaCa2I6
_symmetry_space_group_name_H-M   'P 1'
_cell_length_a   14.06496389
_cell_length_b   14.06496389
_cell_length_c   7.27258300
_cell_angle_alpha   90.00000000
_cell_angle_beta   90.00000000
_cell_angle_gamma   119.99999948
_symmetry_Int_Tables_number   1
_chemical_formula_structural   BaCa2I6
_chemical_formula_sum   'Ba3 Ca6 I18'
_cell_volume   1245.93837803
_cell_formula_units_Z   3
loop_
 _symmetry_equiv_pos_site_id
 _symmetry_equiv_pos_as_xyz
  1  'x, y, z'
loop_
 _atom_site_type_symbol
 _atom_site_label
 _atom_site_symmetry_multiplicity
 _atom_site_fract_x
 _atom_site_fract_y
 _atom_site_fract_z
 _atom_site_occupancy
  Ba  Ba0  1  0.33333300  0.66666700  0.49596000  1
  Ba  Ba1  1  0.00000000  0.00000000  0.00000000  1
  Ba  Ba2  1  0.66666700  0.33333300  0.50404000  1
  Ca  Ca3  1  0.00000000  0.64965300  0.00000000  1
  Ca  Ca4  1  0.00000000  0.31563100  0.50000000  1
  Ca  Ca5  1  0.35034700  0.35034700  0.00000000  1
  Ca  Ca6  1  0.31563100  0.00000000  0.50000000  1
  Ca  Ca7  1  0.68436900  0.68436900  0.50000000  1
  Ca  Ca8  1  0.64965300  0.00000000  0.00000000  1
  I  I9  1  0.10146900  0.86319100  0.74290300  1
  I  I10  1  0.21749600  0.78920900  0.23912700  1
  I  I11  1  0.09645300  0.52948700  0.75483800  1
  I  I12  1  0.43303400  0.90354700  0.75483800  1
  I  I13  1  0.21079100  0.42828700  0.23912700  1
  I  I14  1  0.13680900  0.23827800  0.74290300  1
  I  I15  1  0.57171300  0.78250400  0.23912700  1
  I  I16  1  0.23827800  0.13680900  0.25709700  1
  I  I17  1  0.47051300  0.56696600  0.75483800  1
  I  I18  1  0.76172200  0.89853100  0.74290300  1
  I  I19  1  0.42828700  0.21079100  0.76087300  1
  I  I20  1  0.56696600  0.47051300  0.24516200  1
  I  I21  1  0.52948700  0.09645300  0.24516200  1
  I  I22  1  0.78250400  0.57171300  0.76087300  1
  I  I23  1  0.89853100  0.76172200  0.25709700  1
  I  I24  1  0.78920900  0.21749600  0.76087300  1
  I  I25  1  0.90354700  0.43303400  0.24516200  1
  I  I26  1  0.86319100  0.10146900  0.25709700  1
