# generated using pymatgen
data_Ba2Fe2O5
_symmetry_space_group_name_H-M   'P 1'
_cell_length_a   5.69915904
_cell_length_b   5.69915762
_cell_length_c   9.19098283
_cell_angle_alpha   71.94208261
_cell_angle_beta   71.94200750
_cell_angle_gamma   90.00417995
_symmetry_Int_Tables_number   1
_chemical_formula_structural   Ba2Fe2O5
_chemical_formula_sum   'Ba4 Fe4 O10'
_cell_volume   268.31108110
_cell_formula_units_Z   2
loop_
 _symmetry_equiv_pos_site_id
 _symmetry_equiv_pos_as_xyz
  1  'x, y, z'
loop_
 _atom_site_type_symbol
 _atom_site_label
 _atom_site_symmetry_multiplicity
 _atom_site_fract_x
 _atom_site_fract_y
 _atom_site_fract_z
 _atom_site_occupancy
  Ba  Ba0  1  0.00000200  0.00000200  0.00000000  1
  Ba  Ba1  1  0.49999900  0.49999900  0.99999900  1
  Ba  Ba2  1  0.75000400  0.75000000  0.50000100  1
  Ba  Ba3  1  0.24999500  0.24999900  0.50000100  1
  Fe  Fe4  1  0.86602800  0.36600700  0.26797900  1
  Fe  Fe5  1  0.13399500  0.63400000  0.73199500  1
  Fe  Fe6  1  0.36597500  0.86599500  0.26801800  1
  Fe  Fe7  1  0.63399600  0.13399500  0.73201000  1
  O  O8  1  0.25000000  0.74999900  0.50000100  1
  O  O9  1  0.75000100  0.25000200  0.49999500  1
  O  O10  1  0.13576800  0.63576800  0.22833900  1
  O  O11  1  0.63576800  0.13576800  0.22833900  1
  O  O12  1  0.86423000  0.36423100  0.77166200  1
  O  O13  1  0.36423100  0.86423100  0.77166200  1
  O  O14  1  0.13577400  0.13577300  0.22834200  1
  O  O15  1  0.63577400  0.63577400  0.22834200  1
  O  O16  1  0.86422400  0.86422600  0.77166000  1
  O  O17  1  0.36422500  0.36422500  0.77166000  1
