# generated using pymatgen
data_PWO5
_symmetry_space_group_name_H-M   'P 1'
_cell_length_a   5.38643400
_cell_length_b   5.40826379
_cell_length_c   7.41760926
_cell_angle_alpha   107.10097578
_cell_angle_beta   107.56797166
_cell_angle_gamma   97.95235454
_symmetry_Int_Tables_number   1
_chemical_formula_structural   PWO5
_chemical_formula_sum   'P2 W2 O10'
_cell_volume   190.68448516
_cell_formula_units_Z   2
loop_
 _symmetry_equiv_pos_site_id
 _symmetry_equiv_pos_as_xyz
  1  'x, y, z'
loop_
 _atom_site_type_symbol
 _atom_site_label
 _atom_site_symmetry_multiplicity
 _atom_site_fract_x
 _atom_site_fract_y
 _atom_site_fract_z
 _atom_site_occupancy
  P  P0  1  0.33113800  0.14962800  0.75237100  1
  P  P1  1  0.66886200  0.85037200  0.24762900  1
  W  W2  1  0.00000000  0.50000000  0.00000000  1
  W  W3  1  0.00000000  0.50000000  0.50000000  1
  O  O4  1  0.14670700  0.18750300  0.87884500  1
  O  O5  1  0.28653600  0.84976200  0.63646600  1
  O  O6  1  0.92607200  0.55158700  0.74154300  1
  O  O7  1  0.26992000  0.29761700  0.59970300  1
  O  O8  1  0.73008000  0.70238300  0.40029700  1
  O  O9  1  0.62648100  0.25621600  0.89399800  1
  O  O10  1  0.37351900  0.74378400  0.10600200  1
  O  O11  1  0.07392800  0.44841300  0.25845700  1
  O  O12  1  0.71346400  0.15023800  0.36353400  1
  O  O13  1  0.85329300  0.81249700  0.12115500  1
