# generated using pymatgen
data_AlTl2F5
_symmetry_space_group_name_H-M   'P 1'
_cell_length_a   6.38752020
_cell_length_b   6.38752020
_cell_length_c   7.56941800
_cell_angle_alpha   90.00000000
_cell_angle_beta   90.00000000
_cell_angle_gamma   91.69885755
_symmetry_Int_Tables_number   1
_chemical_formula_structural   AlTl2F5
_chemical_formula_sum   'Al2 Tl4 F10'
_cell_volume   308.69964252
_cell_formula_units_Z   2
loop_
 _symmetry_equiv_pos_site_id
 _symmetry_equiv_pos_as_xyz
  1  'x, y, z'
loop_
 _atom_site_type_symbol
 _atom_site_label
 _atom_site_symmetry_multiplicity
 _atom_site_fract_x
 _atom_site_fract_y
 _atom_site_fract_z
 _atom_site_occupancy
  Al  Al0  1  0.00000000  0.00000000  0.50000000  1
  Al  Al1  1  0.00000000  0.00000000  0.00000000  1
  Tl  Tl2  1  0.49833700  0.99088500  0.25000000  1
  Tl  Tl3  1  0.99088500  0.49833700  0.25000000  1
  Tl  Tl4  1  0.00911500  0.50166300  0.75000000  1
  Tl  Tl5  1  0.50166300  0.00911500  0.75000000  1
  F  F6  1  0.19816400  0.80183600  0.50000000  1
  F  F7  1  0.80183600  0.19816400  0.50000000  1
  F  F8  1  0.20363200  0.20363200  0.49655800  1
  F  F9  1  0.99684100  0.99684100  0.25000000  1
  F  F10  1  0.20363200  0.20363200  0.00344200  1
  F  F11  1  0.19816400  0.80183600  0.00000000  1
  F  F12  1  0.80183600  0.19816400  0.00000000  1
  F  F13  1  0.79636800  0.79636800  0.99655800  1
  F  F14  1  0.00315900  0.00315900  0.75000000  1
  F  F15  1  0.79636800  0.79636800  0.50344200  1
