# generated using pymatgen
data_Ce3Th4O14
_symmetry_space_group_name_H-M   'P 1'
_cell_length_a   6.80592364
_cell_length_b   6.80592364
_cell_length_c   8.78923602
_cell_angle_alpha   82.59189448
_cell_angle_beta   82.59189448
_cell_angle_gamma   48.20642008
_symmetry_Int_Tables_number   1
_chemical_formula_structural   Ce3Th4O14
_chemical_formula_sum   'Ce3 Th4 O14'
_cell_volume   300.48730228
_cell_formula_units_Z   1
loop_
 _symmetry_equiv_pos_site_id
 _symmetry_equiv_pos_as_xyz
  1  'x, y, z'
loop_
 _atom_site_type_symbol
 _atom_site_label
 _atom_site_symmetry_multiplicity
 _atom_site_fract_x
 _atom_site_fract_y
 _atom_site_fract_z
 _atom_site_occupancy
  Ce  Ce0  1  0.42910700  0.42910700  0.71476500  1
  Ce  Ce1  1  0.00000000  0.00000000  0.00000000  1
  Ce  Ce2  1  0.57089300  0.57089300  0.28523500  1
  Th  Th3  1  0.14191100  0.14191100  0.57191100  1
  Th  Th4  1  0.71395100  0.71395100  0.85818500  1
  Th  Th5  1  0.28604900  0.28604900  0.14181500  1
  Th  Th6  1  0.85808900  0.85808900  0.42808900  1
  O  O7  1  0.03943100  0.53458200  0.64388400  1
  O  O8  1  0.53458200  0.03943100  0.64388400  1
  O  O9  1  0.10869300  0.60933500  0.92765600  1
  O  O10  1  0.60933500  0.10869300  0.92765600  1
  O  O11  1  0.81953900  0.31922700  0.78709900  1
  O  O12  1  0.31922700  0.81953900  0.78709900  1
  O  O13  1  0.39066500  0.89130700  0.07234400  1
  O  O14  1  0.68077300  0.18046100  0.21290100  1
  O  O15  1  0.46541800  0.96056900  0.35611600  1
  O  O16  1  0.96056900  0.46541800  0.35611600  1
  O  O17  1  0.18046100  0.68077300  0.21290100  1
  O  O18  1  0.89130700  0.39066500  0.07234400  1
  O  O19  1  0.74490000  0.25510000  0.50000000  1
  O  O20  1  0.25510000  0.74490000  0.50000000  1
