# generated using pymatgen
data_Ti4Ni(PO5)4
_symmetry_space_group_name_H-M   'P 1'
_cell_length_a   7.28858700
_cell_length_b   7.44316700
_cell_length_c   14.89797867
_cell_angle_alpha   60.44126980
_cell_angle_beta   90.00000000
_cell_angle_gamma   90.00000000
_symmetry_Int_Tables_number   1
_chemical_formula_structural   Ti4Ni(PO5)4
_chemical_formula_sum   'Ti8 Ni2 P8 O40'
_cell_volume   703.02871558
_cell_formula_units_Z   2
loop_
 _symmetry_equiv_pos_site_id
 _symmetry_equiv_pos_as_xyz
  1  'x, y, z'
loop_
 _atom_site_type_symbol
 _atom_site_label
 _atom_site_symmetry_multiplicity
 _atom_site_fract_x
 _atom_site_fract_y
 _atom_site_fract_z
 _atom_site_occupancy
  Ti  Ti0  1  0.22275500  0.72048600  0.63345700  1
  Ti  Ti1  1  0.24565400  0.26227600  0.62017400  1
  Ti  Ti2  1  0.75434600  0.73772400  0.37982600  1
  Ti  Ti3  1  0.77724500  0.27951400  0.36654300  1
  Ti  Ti4  1  0.25434600  0.26227600  0.12017400  1
  Ti  Ti5  1  0.27724500  0.72048600  0.13345700  1
  Ti  Ti6  1  0.72275500  0.27951400  0.86654300  1
  Ti  Ti7  1  0.74565400  0.73772400  0.87982600  1
  Ni  Ni8  1  0.50000000  0.00000000  0.50000000  1
  Ni  Ni9  1  0.00000000  0.00000000  0.00000000  1
  P  P10  1  0.62313300  0.50598600  0.62013200  1
  P  P11  1  0.86832200  0.99695300  0.62927300  1
  P  P12  1  0.13167800  0.00304700  0.37072700  1
  P  P13  1  0.37686700  0.49401400  0.37986800  1
  P  P14  1  0.63167800  0.99695300  0.12927300  1
  P  P15  1  0.87686700  0.50598600  0.12013200  1
  P  P16  1  0.12313300  0.49401400  0.87986800  1
  P  P17  1  0.36832200  0.00304700  0.87072700  1
  O  O18  1  0.73532600  0.41237900  0.72166300  1
  O  O19  1  0.75677600  0.91475400  0.72862100  1
  O  O20  1  0.17538100  0.49538500  0.62285300  1
  O  O21  1  0.98046200  0.82241800  0.62576700  1
  O  O22  1  0.35044000  0.00527000  0.59734800  1
  O  O23  1  0.50282000  0.33565000  0.62179400  1
  O  O24  1  0.50107900  0.68685000  0.61267500  1
  O  O25  1  0.00290700  0.16422000  0.61873000  1
  O  O26  1  0.75698400  0.59423200  0.52997000  1
  O  O27  1  0.73627900  0.09630600  0.53452700  1
  O  O28  1  0.26372100  0.90369400  0.46547300  1
  O  O29  1  0.24301600  0.40576800  0.47003000  1
  O  O30  1  0.99709300  0.83578000  0.38127000  1
  O  O31  1  0.49892100  0.31315000  0.38732500  1
  O  O32  1  0.49718000  0.66435000  0.37820600  1
  O  O33  1  0.64956000  0.99473000  0.40265200  1
  O  O34  1  0.01953800  0.17758200  0.37423300  1
  O  O35  1  0.82461900  0.50461500  0.37714700  1
  O  O36  1  0.24322400  0.08524600  0.27137900  1
  O  O37  1  0.26467400  0.58762100  0.27833700  1
  O  O38  1  0.74322400  0.91475400  0.22862100  1
  O  O39  1  0.76467400  0.41237900  0.22166300  1
  O  O40  1  0.14956000  0.00527000  0.09734800  1
  O  O41  1  0.99718000  0.33565000  0.12179400  1
  O  O42  1  0.32461900  0.49538500  0.12285300  1
  O  O43  1  0.51953800  0.82241800  0.12576700  1
  O  O44  1  0.49709300  0.16422000  0.11873000  1
  O  O45  1  0.99892100  0.68685000  0.11267500  1
  O  O46  1  0.76372100  0.09630600  0.03452700  1
  O  O47  1  0.74301600  0.59423200  0.02997000  1
  O  O48  1  0.25698400  0.40576800  0.97003000  1
  O  O49  1  0.23627900  0.90369400  0.96547300  1
  O  O50  1  0.00107900  0.31315000  0.88732500  1
  O  O51  1  0.50290700  0.83578000  0.88127000  1
  O  O52  1  0.48046200  0.17758200  0.87423300  1
  O  O53  1  0.67538100  0.50461500  0.87714700  1
  O  O54  1  0.00282000  0.66435000  0.87820600  1
  O  O55  1  0.85044000  0.99473000  0.90265200  1
  O  O56  1  0.23532600  0.58762100  0.77833700  1
  O  O57  1  0.25677600  0.08524600  0.77137900  1
