# generated using pymatgen
data_Ba10Cu5O17
_symmetry_space_group_name_H-M   'P 1'
_cell_length_a   5.78843900
_cell_length_b   9.08359026
_cell_length_c   10.82128321
_cell_angle_alpha   93.78127569
_cell_angle_beta   92.08014241
_cell_angle_gamma   106.91096588
_symmetry_Int_Tables_number   1
_chemical_formula_structural   Ba10Cu5O17
_chemical_formula_sum   'Ba10 Cu5 O17'
_cell_volume   542.27396851
_cell_formula_units_Z   1
loop_
 _symmetry_equiv_pos_site_id
 _symmetry_equiv_pos_as_xyz
  1  'x, y, z'
loop_
 _atom_site_type_symbol
 _atom_site_label
 _atom_site_symmetry_multiplicity
 _atom_site_fract_x
 _atom_site_fract_y
 _atom_site_fract_z
 _atom_site_occupancy
  Ba  Ba0  1  0.40940700  0.32481700  0.88147700  1
  Ba  Ba1  1  0.03075600  0.52963500  0.68458700  1
  Ba  Ba2  1  0.77865000  0.07056200  0.71700900  1
  Ba  Ba3  1  0.39692800  0.27282300  0.51195500  1
  Ba  Ba4  1  0.96924400  0.47036500  0.31541300  1
  Ba  Ba5  1  0.22135000  0.92943800  0.28299100  1
  Ba  Ba6  1  0.60307200  0.72717700  0.48804500  1
  Ba  Ba7  1  0.80426900  0.12790300  0.08873600  1
  Ba  Ba8  1  0.59059300  0.67518300  0.11852300  1
  Ba  Ba9  1  0.19573100  0.87209700  0.91126400  1
  Cu  Cu10  1  0.61207200  0.70557000  0.79562200  1
  Cu  Cu11  1  0.79571400  0.10154900  0.39910400  1
  Cu  Cu12  1  0.20428600  0.89845100  0.60089600  1
  Cu  Cu13  1  0.38792800  0.29443000  0.20437800  1
  Cu  Cu14  1  0.00000000  0.50000000  0.00000000  1
  O  O15  1  0.90950900  0.32227500  0.88234700  1
  O  O16  1  0.54109000  0.51814100  0.69082100  1
  O  O17  1  0.27607800  0.08535600  0.71113600  1
  O  O18  1  0.90520200  0.27238800  0.52664100  1
  O  O19  1  0.45891000  0.48185900  0.30917900  1
  O  O20  1  0.40397600  0.79614700  0.70434300  1
  O  O21  1  0.91829700  0.80730100  0.69310900  1
  O  O22  1  0.50000000  0.00000000  0.50000000  1
  O  O23  1  0.59602400  0.20385300  0.29565700  1
  O  O24  1  0.08170300  0.19269900  0.30689100  1
  O  O25  1  0.72210200  0.41493500  0.08540900  1
  O  O26  1  0.09479800  0.72761200  0.47335900  1
  O  O27  1  0.28972300  0.13211200  0.07393500  1
  O  O28  1  0.72392200  0.91464400  0.28886400  1
  O  O29  1  0.09049100  0.67772500  0.11765300  1
  O  O30  1  0.71027700  0.86788800  0.92606500  1
  O  O31  1  0.27789800  0.58506500  0.91459100  1
