# generated using pymatgen
data_NiH36C12S6(I2O3)2
_symmetry_space_group_name_H-M   'P 1'
_cell_length_a   9.71778458
_cell_length_b   9.71778458
_cell_length_c   9.71778503
_cell_angle_alpha   76.77568380
_cell_angle_beta   76.77568380
_cell_angle_gamma   76.77568184
_symmetry_Int_Tables_number   1
_chemical_formula_structural   NiH36C12S6(I2O3)2
_chemical_formula_sum   'Ni1 H36 C12 S6 I4 O6'
_cell_volume   854.47145267
_cell_formula_units_Z   1
loop_
 _symmetry_equiv_pos_site_id
 _symmetry_equiv_pos_as_xyz
  1  'x, y, z'
loop_
 _atom_site_type_symbol
 _atom_site_label
 _atom_site_symmetry_multiplicity
 _atom_site_fract_x
 _atom_site_fract_y
 _atom_site_fract_z
 _atom_site_occupancy
  Ni  Ni0  1  0.00000000  0.00000000  0.00000000  1
  H  H1  1  0.95572300  0.19721700  0.40607800  1
  H  H2  1  0.82875600  0.10926400  0.54336400  1
  H  H3  1  0.93783100  0.29950300  0.67240700  1
  H  H4  1  0.61571600  0.11765100  0.33975200  1
  H  H5  1  0.59392200  0.04427700  0.80278300  1
  H  H6  1  0.76418000  0.25320100  0.40658000  1
  H  H7  1  0.96413600  0.47938700  0.66040000  1
  H  H8  1  0.89073600  0.45663600  0.17124400  1
  H  H9  1  0.70049700  0.32759300  0.06216900  1
  H  H10  1  0.59342000  0.23582000  0.74679900  1
  H  H11  1  0.33960000  0.03586400  0.52061300  1
  H  H12  1  0.45663600  0.17124400  0.89073600  1
  H  H13  1  0.66024800  0.38428400  0.88234900  1
  H  H14  1  0.32759300  0.06216900  0.70049700  1
  H  H15  1  0.88234900  0.66024800  0.38428400  1
  H  H16  1  0.80278300  0.59392200  0.04427700  1
  H  H17  1  0.52061300  0.33960000  0.03586400  1
  H  H18  1  0.74679900  0.59342000  0.23582000  1
  H  H19  1  0.25320100  0.40658000  0.76418000  1
  H  H20  1  0.47938700  0.66040000  0.96413600  1
  H  H21  1  0.19721700  0.40607800  0.95572300  1
  H  H22  1  0.11765100  0.33975200  0.61571600  1
  H  H23  1  0.67240700  0.93783100  0.29950300  1
  H  H24  1  0.33975200  0.61571600  0.11765100  1
  H  H25  1  0.54336400  0.82875600  0.10926400  1
  H  H26  1  0.66040000  0.96413600  0.47938700  1
  H  H27  1  0.40658000  0.76418000  0.25320100  1
  H  H28  1  0.29950300  0.67240700  0.93783100  1
  H  H29  1  0.10926400  0.54336400  0.82875600  1
  H  H30  1  0.03586400  0.52061300  0.33960000  1
  H  H31  1  0.23582000  0.74679900  0.59342000  1
  H  H32  1  0.40607800  0.95572300  0.19721700  1
  H  H33  1  0.38428400  0.88234900  0.66024800  1
  H  H34  1  0.06216900  0.70049700  0.32759300  1
  H  H35  1  0.17124400  0.89073600  0.45663600  1
  H  H36  1  0.04427700  0.80278300  0.59392200  1
  C  C37  1  0.85149800  0.16261200  0.43040900  1
  C  C38  1  0.68336900  0.01156700  0.36470400  1
  C  C39  1  0.56959100  0.14850200  0.83738800  1
  C  C40  1  0.98843300  0.63529600  0.31663100  1
  C  C41  1  0.63529600  0.31663100  0.98843300  1
  C  C42  1  0.83738800  0.56959100  0.14850200  1
  C  C43  1  0.16261200  0.43040900  0.85149800  1
  C  C44  1  0.36470400  0.68336900  0.01156700  1
  C  C45  1  0.01156700  0.36470400  0.68336900  1
  C  C46  1  0.43040900  0.85149800  0.16261200  1
  C  C47  1  0.31663100  0.98843300  0.63529600  1
  C  C48  1  0.14850200  0.83738800  0.56959100  1
  S  S49  1  0.86819500  0.03121700  0.32133500  1
  S  S50  1  0.67866500  0.13180500  0.96878300  1
  S  S51  1  0.96878300  0.67866500  0.13180500  1
  S  S52  1  0.03121700  0.32133500  0.86819500  1
  S  S53  1  0.32133500  0.86819500  0.03121700  1
  S  S54  1  0.13180500  0.96878300  0.67866500  1
  I  I55  1  0.57241200  0.57241200  0.57241200  1
  I  I56  1  0.42758800  0.42758800  0.42758800  1
  I  I57  1  0.26254000  0.26254000  0.26254000  1
  I  I58  1  0.73746000  0.73746000  0.73746000  1
  O  O59  1  0.89234500  0.11356900  0.16598200  1
  O  O60  1  0.83401800  0.10765500  0.88643100  1
  O  O61  1  0.88643100  0.83401800  0.10765500  1
  O  O62  1  0.11356900  0.16598200  0.89234500  1
  O  O63  1  0.16598200  0.89234500  0.11356900  1
  O  O64  1  0.10765500  0.88643100  0.83401800  1
