# generated using pymatgen
data_Ba8Cu8O19
_symmetry_space_group_name_H-M   'P 1'
_cell_length_a   5.75493000
_cell_length_b   9.40486782
_cell_length_c   9.91055499
_cell_angle_alpha   91.26330119
_cell_angle_beta   90.54894176
_cell_angle_gamma   90.05798501
_symmetry_Int_Tables_number   1
_chemical_formula_structural   Ba8Cu8O19
_chemical_formula_sum   'Ba8 Cu8 O19'
_cell_volume   536.24701138
_cell_formula_units_Z   1
loop_
 _symmetry_equiv_pos_site_id
 _symmetry_equiv_pos_as_xyz
  1  'x, y, z'
loop_
 _atom_site_type_symbol
 _atom_site_label
 _atom_site_symmetry_multiplicity
 _atom_site_fract_x
 _atom_site_fract_y
 _atom_site_fract_z
 _atom_site_occupancy
  Ba  Ba0  1  0.98413000  0.74971500  0.00889700  1
  Ba  Ba1  1  0.99264700  0.25480800  0.00324200  1
  Ba  Ba2  1  0.50245200  0.50131100  0.83522500  1
  Ba  Ba3  1  0.99049000  0.98747400  0.67288000  1
  Ba  Ba4  1  0.47891900  0.75608800  0.50658100  1
  Ba  Ba5  1  0.49417100  0.25096600  0.51207300  1
  Ba  Ba6  1  0.00031800  0.51686100  0.32996600  1
  Ba  Ba7  1  0.49546200  0.99915700  0.16251600  1
  Cu  Cu8  1  0.49656200  0.13504200  0.82436000  1
  Cu  Cu9  1  0.49090800  0.86040300  0.82429000  1
  Cu  Cu10  1  0.00268900  0.63324300  0.65872700  1
  Cu  Cu11  1  0.01780500  0.36377200  0.66662900  1
  Cu  Cu12  1  0.98949000  0.87224000  0.32539100  1
  Cu  Cu13  1  0.01411800  0.14664400  0.30354900  1
  Cu  Cu14  1  0.51616600  0.36501500  0.17113400  1
  Cu  Cu15  1  0.50371100  0.63740200  0.16300900  1
  O  O16  1  0.48127100  0.76631600  0.98489800  1
  O  O17  1  0.48959800  0.23444600  0.98563800  1
  O  O18  1  0.69225300  0.99984600  0.90380700  1
  O  O19  1  0.22520300  0.75080900  0.75973600  1
  O  O20  1  0.79122400  0.25584400  0.74130400  1
  O  O21  1  0.25173900  0.25262000  0.74750400  1
  O  O22  1  0.76439500  0.72689500  0.74523700  1
  O  O23  1  0.48298800  0.99676200  0.67477300  1
  O  O24  1  0.23475700  0.49609300  0.59004200  1
  O  O25  1  0.79323400  0.48528000  0.59595600  1
  O  O26  1  0.97123800  0.77570400  0.48598700  1
  O  O27  1  0.18227100  0.01874700  0.41075800  1
  O  O28  1  0.72516600  0.75786000  0.26045100  1
  O  O29  1  0.28188200  0.26988500  0.26416900  1
  O  O30  1  0.26667100  0.73516400  0.24835300  1
  O  O31  1  0.75170100  0.26255800  0.27277700  1
  O  O32  1  0.98915000  0.99139000  0.16304900  1
  O  O33  1  0.29150600  0.49445600  0.10247800  1
  O  O34  1  0.73821200  0.50201400  0.09534600  1
