# generated using pymatgen
data_ZnH6(SeO4)2
_symmetry_space_group_name_H-M   'P 1'
_cell_length_a   6.99396800
_cell_length_b   7.23639200
_cell_length_c   8.54551550
_cell_angle_alpha   61.14274954
_cell_angle_beta   90.00000000
_cell_angle_gamma   90.00000000
_symmetry_Int_Tables_number   1
_chemical_formula_structural   ZnH6(SeO4)2
_chemical_formula_sum   'Zn2 H12 Se4 O16'
_cell_volume   378.79240728
_cell_formula_units_Z   2
loop_
 _symmetry_equiv_pos_site_id
 _symmetry_equiv_pos_as_xyz
  1  'x, y, z'
loop_
 _atom_site_type_symbol
 _atom_site_label
 _atom_site_symmetry_multiplicity
 _atom_site_fract_x
 _atom_site_fract_y
 _atom_site_fract_z
 _atom_site_occupancy
  Zn  Zn0  1  0.50000000  0.00000000  0.50000000  1
  Zn  Zn1  1  0.00000000  0.00000000  0.00000000  1
  H  H2  1  0.33823700  0.20527000  0.91671300  1
  H  H3  1  0.52239400  0.50050600  0.73728900  1
  H  H4  1  0.02239400  0.49949400  0.76271100  1
  H  H5  1  0.78777700  0.88851300  0.37620800  1
  H  H6  1  0.83823700  0.79473000  0.58328700  1
  H  H7  1  0.28777700  0.11148700  0.12379200  1
  H  H8  1  0.71222300  0.88851300  0.87620800  1
  H  H9  1  0.16176300  0.20527000  0.41671300  1
  H  H10  1  0.21222300  0.11148700  0.62379200  1
  H  H11  1  0.97760600  0.50050600  0.23728900  1
  H  H12  1  0.47760600  0.49949400  0.26271100  1
  H  H13  1  0.66176300  0.79473000  0.08328700  1
  Se  Se14  1  0.27096600  0.67538500  0.37534500  1
  Se  Se15  1  0.22903400  0.67538500  0.87534500  1
  Se  Se16  1  0.77096600  0.32461500  0.12465500  1
  Se  Se17  1  0.72903400  0.32461500  0.62465500  1
  O  O18  1  0.92313800  0.28077100  0.75958500  1
  O  O19  1  0.23383100  0.19174900  0.99986300  1
  O  O20  1  0.53927700  0.35114200  0.76108500  1
  O  O21  1  0.03927700  0.64885800  0.73891500  1
  O  O22  1  0.73383100  0.80825100  0.50013700  1
  O  O23  1  0.33347600  0.92200100  0.33391500  1
  O  O24  1  0.42313800  0.71922900  0.74041500  1
  O  O25  1  0.83347600  0.07799900  0.16608500  1
  O  O26  1  0.16652400  0.92200100  0.83391500  1
  O  O27  1  0.57686200  0.28077100  0.25958500  1
  O  O28  1  0.66652400  0.07799900  0.66608500  1
  O  O29  1  0.26616900  0.19174900  0.49986300  1
  O  O30  1  0.96072300  0.35114200  0.26108500  1
  O  O31  1  0.46072300  0.64885800  0.23891500  1
  O  O32  1  0.76616900  0.80825100  0.00013700  1
  O  O33  1  0.07686200  0.71922900  0.24041500  1
