# generated using pymatgen
data_Ba10V10O29
_symmetry_space_group_name_H-M   'P 1'
_cell_length_a   10.00280800
_cell_length_b   11.62592747
_cell_length_c   13.17885562
_cell_angle_alpha   115.86396438
_cell_angle_beta   90.27287957
_cell_angle_gamma   90.27761580
_symmetry_Int_Tables_number   1
_chemical_formula_structural   Ba10V10O29
_chemical_formula_sum   'Ba20 V20 O58'
_cell_volume   1379.02154810
_cell_formula_units_Z   2
loop_
 _symmetry_equiv_pos_site_id
 _symmetry_equiv_pos_as_xyz
  1  'x, y, z'
loop_
 _atom_site_type_symbol
 _atom_site_label
 _atom_site_symmetry_multiplicity
 _atom_site_fract_x
 _atom_site_fract_y
 _atom_site_fract_z
 _atom_site_occupancy
  Ba  Ba0  1  0.83282100  0.35618000  0.21424100  1
  Ba  Ba1  1  0.16623800  0.45411900  0.40906300  1
  Ba  Ba2  1  0.33367100  0.60925800  0.21567000  1
  Ba  Ba3  1  0.66416800  0.70596900  0.40878200  1
  Ba  Ba4  1  0.66642600  0.89461600  0.78626100  1
  Ba  Ba5  1  0.33533200  0.79697300  0.59000100  1
  Ba  Ba6  1  0.16973500  0.14701600  0.78492500  1
  Ba  Ba7  1  0.83177800  0.86314200  0.21434500  1
  Ba  Ba8  1  0.16732900  0.95747300  0.40929500  1
  Ba  Ba9  1  0.83269600  0.04796500  0.59042100  1
  Ba  Ba10  1  0.50344700  0.24992800  0.99902200  1
  Ba  Ba11  1  0.33427200  0.10157200  0.21531800  1
  Ba  Ba12  1  0.66526200  0.38724900  0.78322700  1
  Ba  Ba13  1  0.66643600  0.20255800  0.40984300  1
  Ba  Ba14  1  0.33354400  0.29230400  0.59270200  1
  Ba  Ba15  1  0.00349400  0.49971400  0.99939100  1
  Ba  Ba16  1  0.16572500  0.63917900  0.78632700  1
  Ba  Ba17  1  0.83444500  0.54212300  0.58968900  1
  Ba  Ba18  1  0.49628100  0.75167700  0.00111700  1
  Ba  Ba19  1  0.99595200  0.99824400  0.00001400  1
  V  V20  1  0.15673200  0.31899500  0.10754000  1
  V  V21  1  0.49556200  0.38209400  0.28194800  1
  V  V22  1  0.65609700  0.53542800  0.10493800  1
  V  V23  1  0.34281800  0.92998000  0.89117400  1
  V  V24  1  0.00284500  0.86581000  0.71617700  1
  V  V25  1  0.99357900  0.65136200  0.28334200  1
  V  V26  1  0.00135100  0.75406700  0.49996000  1
  V  V27  1  0.16875000  0.79941300  0.09434200  1
  V  V28  1  0.83380000  0.20176900  0.90941700  1
  V  V29  1  0.50073900  0.11234100  0.72185600  1
  V  V30  1  0.50037600  0.99882800  0.49966200  1
  V  V31  1  0.50140300  0.88609600  0.27740000  1
  V  V32  1  0.66827300  0.04468600  0.09423900  1
  V  V33  1  0.33029400  0.45362300  0.90357500  1
  V  V34  1  0.99500300  0.35475700  0.72227100  1
  V  V35  1  0.99866000  0.25266100  0.50097600  1
  V  V36  1  0.00238200  0.14006500  0.27832700  1
  V  V37  1  0.84307900  0.70981200  0.89076800  1
  V  V38  1  0.50091400  0.49530700  0.49870900  1
  V  V39  1  0.50149000  0.60041000  0.71513700  1
  O  O40  1  0.58019300  0.22823200  0.20041500  1
  O  O41  1  0.09414900  0.21721200  0.18065200  1
  O  O42  1  0.65102200  0.44838400  0.40171500  1
  O  O43  1  0.33152900  0.34099700  0.19237500  1
  O  O44  1  0.42271800  0.55394400  0.39255800  1
  O  O45  1  0.57917500  0.66253300  0.61043800  1
  O  O46  1  0.08266000  0.47563500  0.20200100  1
  O  O47  1  0.58167500  0.47575000  0.20182300  1
  O  O48  1  0.07860300  0.69748300  0.60981300  1
  O  O49  1  0.92208000  0.58797600  0.38938900  1
  O  O50  1  0.17615000  0.91466900  0.81460600  1
  O  O51  1  0.82582500  0.60024500  0.18702500  1
  O  O52  1  0.85045800  0.80185400  0.59943000  1
  O  O53  1  0.14967300  0.70444000  0.40139200  1
  O  O54  1  0.07985300  0.91898900  0.60469200  1
  O  O55  1  0.92076800  0.81536200  0.39491100  1
  O  O56  1  0.41175100  0.03443200  0.81158000  1
  O  O57  1  0.58963500  0.72166800  0.18610000  1
  O  O58  1  0.74801600  0.12607500  0.00094100  1
  O  O59  1  0.92183000  0.01859700  0.79836400  1
  O  O60  1  0.07937100  0.72106700  0.20024400  1
  O  O61  1  0.57459100  0.93848000  0.60249800  1
  O  O62  1  0.42648800  0.83079400  0.39366800  1
  O  O63  1  0.35225800  0.05526100  0.61043100  1
  O  O64  1  0.64892100  0.94406300  0.38985700  1
  O  O65  1  0.66329300  0.14929000  0.80206300  1
  O  O66  1  0.00504600  0.24497200  0.99705200  1
  O  O67  1  0.34102700  0.84954400  0.19945100  1
  O  O68  1  0.42451300  0.05957500  0.39932700  1
  O  O69  1  0.57622200  0.16536900  0.60591900  1
  O  O70  1  0.91565900  0.27899000  0.80330600  1
  O  O71  1  0.08468600  0.97057700  0.19395400  1
  O  O72  1  0.24483900  0.36222100  0.00634200  1
  O  O73  1  0.74910700  0.38681200  0.00318700  1
  O  O74  1  0.41542300  0.28018200  0.80801900  1
  O  O75  1  0.58462200  0.97382800  0.19299000  1
  O  O76  1  0.07615200  0.19163100  0.60784200  1
  O  O77  1  0.92535300  0.08978900  0.39882400  1
  O  O78  1  0.16670400  0.40425200  0.80655400  1
  O  O79  1  0.51393000  0.50693400  0.00352200  1
  O  O80  1  0.84687000  0.30212100  0.60585300  1
  O  O81  1  0.14849500  0.19681200  0.38906700  1
  O  O82  1  0.84302700  0.10045500  0.19868100  1
  O  O83  1  0.07280400  0.41269300  0.60381100  1
  O  O84  1  0.92858200  0.31245100  0.39203500  1
  O  O85  1  0.42175500  0.53062800  0.80026200  1
  O  O86  1  0.25047600  0.62569000  0.00289700  1
  O  O87  1  0.91438300  0.52871000  0.80762200  1
  O  O88  1  0.42129500  0.33038600  0.39600800  1
  O  O89  1  0.57837300  0.43612900  0.60514700  1
  O  O90  1  0.34967800  0.54777800  0.60056200  1
  O  O91  1  0.67554200  0.64958000  0.81596000  1
  O  O92  1  0.97645500  0.74221700  0.99707900  1
  O  O93  1  0.91977400  0.77563500  0.79932400  1
  O  O94  1  0.24757000  0.87516500  0.99768000  1
  O  O95  1  0.74909000  0.87228000  0.99628300  1
  O  O96  1  0.41925000  0.77405800  0.79930300  1
  O  O97  1  0.47741200  0.00374300  0.99574100  1
