# generated using pymatgen
data_Li9Ti12NbO30
_symmetry_space_group_name_H-M   'P 1'
_cell_length_a   5.13677624
_cell_length_b   23.82055862
_cell_length_c   5.13690100
_cell_angle_alpha   96.20107818
_cell_angle_beta   59.97957290
_cell_angle_gamma   96.21908479
_symmetry_Int_Tables_number   1
_chemical_formula_structural   Li9Ti12NbO30
_chemical_formula_sum   'Li9 Ti12 Nb1 O30'
_cell_volume   539.97168080
_cell_formula_units_Z   1
loop_
 _symmetry_equiv_pos_site_id
 _symmetry_equiv_pos_as_xyz
  1  'x, y, z'
loop_
 _atom_site_type_symbol
 _atom_site_label
 _atom_site_symmetry_multiplicity
 _atom_site_fract_x
 _atom_site_fract_y
 _atom_site_fract_z
 _atom_site_occupancy
  Li  Li0  1  0.02568900  0.07695300  0.02563500  1
  Li  Li1  1  0.24469600  0.73701100  0.24629700  1
  Li  Li2  1  0.60854700  0.82544200  0.60803500  1
  Li  Li3  1  0.38996900  0.17013100  0.39017600  1
  Li  Li4  1  0.47355700  0.42078200  0.47360600  1
  Li  Li5  1  0.52655300  0.58009300  0.52707700  1
  Li  Li6  1  0.97381900  0.92179500  0.97394200  1
  Li  Li7  1  0.89109400  0.67042800  0.88974800  1
  Li  Li8  1  0.74552800  0.23654600  0.74550300  1
  Ti  Ti9  1  0.10409800  0.31272700  0.10472600  1
  Ti  Ti10  1  0.16197700  0.48614400  0.16200600  1
  Ti  Ti11  1  0.20431700  0.61232500  0.20435400  1
  Ti  Ti12  1  0.06567700  0.19650700  0.06538800  1
  Ti  Ti13  1  0.29588200  0.88773000  0.29553400  1
  Ti  Ti14  1  0.66200400  0.98610300  0.66192500  1
  Ti  Ti15  1  0.33812800  0.01422000  0.33806800  1
  Ti  Ti16  1  0.43229800  0.29762600  0.43249200  1
  Ti  Ti17  1  0.56645400  0.69948400  0.56628100  1
  Ti  Ti18  1  0.70381700  0.11149600  0.70397400  1
  Ti  Ti19  1  0.79636100  0.39036700  0.79692000  1
  Ti  Ti20  1  0.83817800  0.51455000  0.83836800  1
  Nb  Nb21  1  0.93176100  0.79647200  0.93210300  1
  O  O22  1  0.00546400  0.95285500  0.35074700  1
  O  O23  1  0.01056700  0.15245600  0.38366400  1
  O  O24  1  0.59689800  0.95292100  0.00522400  1
  O  O25  1  0.14961400  0.54817600  0.49469700  1
  O  O26  1  0.35064100  0.95290300  0.59636300  1
  O  O27  1  0.25341100  0.74943900  0.62604100  1
  O  O28  1  0.12572800  0.35126400  0.45908700  1
  O  O29  1  0.09576800  0.45136700  0.84955400  1
  O  O30  1  0.24437700  0.85116300  0.98467100  1
  O  O31  1  0.36707800  0.25454700  0.12429400  1
  O  O32  1  0.50876000  0.65071900  0.26255400  1
  O  O33  1  0.62116200  0.85120100  0.24450100  1
  O  O34  1  0.50628200  0.45138700  0.09573400  1
  O  O35  1  0.26348700  0.65062500  0.87998700  1
  O  O36  1  0.12425100  0.25461300  0.76328100  1
  O  O37  1  0.86929900  0.74980800  0.25541300  1
  O  O38  1  0.76665300  0.35118900  0.12569800  1
  O  O39  1  0.49512300  0.54805700  0.90327400  1
  O  O40  1  0.38355800  0.15241800  0.75834500  1
  O  O41  1  0.45892800  0.35115200  0.76654700  1
  O  O42  1  0.62392700  0.74970800  0.87090000  1
  O  O43  1  0.75806600  0.15241400  0.01080400  1
  O  O44  1  0.90401000  0.54811300  0.14993700  1
  O  O45  1  0.88168500  0.65107700  0.50655300  1
  O  O46  1  0.76330100  0.25463000  0.36706500  1
  O  O47  1  0.64975700  0.04966000  0.40402200  1
  O  O48  1  0.84958700  0.45135700  0.50614200  1
  O  O49  1  0.40394100  0.04959300  0.99575600  1
  O  O50  1  0.98581700  0.85096800  0.62068400  1
  O  O51  1  0.99583100  0.04963000  0.64968600  1
