# generated using pymatgen
data_Cr8Ni50Mo17
_symmetry_space_group_name_H-M   'P 1'
_cell_length_a   9.26260400
_cell_length_b   9.90955069
_cell_length_c   11.19686719
_cell_angle_alpha   91.40898437
_cell_angle_beta   114.21471756
_cell_angle_gamma   105.15209186
_symmetry_Int_Tables_number   1
_chemical_formula_structural   Cr8Ni50Mo17
_chemical_formula_sum   'Cr8 Ni50 Mo17'
_cell_volume   894.53216987
_cell_formula_units_Z   1
loop_
 _symmetry_equiv_pos_site_id
 _symmetry_equiv_pos_as_xyz
  1  'x, y, z'
loop_
 _atom_site_type_symbol
 _atom_site_label
 _atom_site_symmetry_multiplicity
 _atom_site_fract_x
 _atom_site_fract_y
 _atom_site_fract_z
 _atom_site_occupancy
  Cr  Cr0  1  0.64213700  0.03750600  0.71455600  1
  Cr  Cr1  1  0.47992200  0.27923700  0.04055500  1
  Cr  Cr2  1  0.75647600  0.36220500  0.48401000  1
  Cr  Cr3  1  0.68236900  0.47680800  0.63563600  1
  Cr  Cr4  1  0.32115100  0.52042700  0.36044100  1
  Cr  Cr5  1  0.08003300  0.87989900  0.83981600  1
  Cr  Cr6  1  0.71720600  0.92354900  0.56476100  1
  Cr  Cr7  1  0.36081000  0.96031200  0.28007700  1
  Ni  Ni8  1  0.86506700  0.19989600  0.92921200  1
  Ni  Ni9  1  0.51244900  0.24258100  0.65343500  1
  Ni  Ni10  1  0.15214700  0.28569100  0.37350500  1
  Ni  Ni11  1  0.42846100  0.35987700  0.81586900  1
  Ni  Ni12  1  0.06397200  0.40127400  0.53285700  1
  Ni  Ni13  1  0.97925600  0.51923500  0.68910300  1
  Ni  Ni14  1  0.90835500  0.64537500  0.85003300  1
  Ni  Ni15  1  0.78372300  0.32141600  0.09217300  1
  Ni  Ni16  1  0.70512800  0.43853500  0.25386500  1
  Ni  Ni17  1  0.34979800  0.47970900  0.97450100  1
  Ni  Ni18  1  0.62678300  0.55851400  0.41672700  1
  Ni  Ni19  1  0.26996700  0.60106700  0.13726900  1
  Ni  Ni20  1  0.55038700  0.68107700  0.57080800  1
  Ni  Ni21  1  0.19340400  0.72451200  0.29365600  1
  Ni  Ni22  1  0.47033700  0.80529100  0.73133700  1
  Ni  Ni23  1  0.10891000  0.84130300  0.45485900  1
  Ni  Ni24  1  0.38442700  0.92146700  0.89355900  1
  Ni  Ni25  1  0.02460600  0.96157300  0.61659900  1
  Ni  Ni26  1  0.94172200  0.07787500  0.76964600  1
  Ni  Ni27  1  0.82662000  0.76150100  0.01170900  1
  Ni  Ni28  1  0.74773000  0.88301800  0.17343300  1
  Ni  Ni29  1  0.66428800  0.00057300  0.33659900  1
  Ni  Ni30  1  0.30978300  0.04394800  0.05405600  1
  Ni  Ni31  1  0.59015900  0.12065600  0.49353700  1
  Ni  Ni32  1  0.22986600  0.15931600  0.21374700  1
  Ni  Ni33  1  0.17606400  0.23802800  0.98749800  1
  Ni  Ni34  1  0.80624100  0.27683300  0.70214500  1
  Ni  Ni35  1  0.45792400  0.32218900  0.42954200  1
  Ni  Ni36  1  0.73164000  0.39938900  0.86289600  1
  Ni  Ni37  1  0.37630300  0.43877300  0.58478700  1
  Ni  Ni38  1  0.29112200  0.55869200  0.74543100  1
  Ni  Ni39  1  0.21044600  0.67969200  0.90693400  1
  Ni  Ni40  1  0.09501700  0.35892200  0.14926200  1
  Ni  Ni41  1  0.01602100  0.47879700  0.30694900  1
  Ni  Ni42  1  0.64868600  0.51381100  0.02709100  1
  Ni  Ni43  1  0.92856300  0.59431900  0.46718200  1
  Ni  Ni44  1  0.57256900  0.63896800  0.18846100  1
  Ni  Ni45  1  0.84967400  0.71915000  0.62902000  1
  Ni  Ni46  1  0.49102900  0.75818700  0.35025900  1
  Ni  Ni47  1  0.77185100  0.84168000  0.78220800  1
  Ni  Ni48  1  0.42006500  0.88182200  0.50783600  1
  Ni  Ni49  1  0.69051300  0.95939800  0.94252200  1
  Ni  Ni50  1  0.33691700  0.99915000  0.66716500  1
  Ni  Ni51  1  0.25179700  0.11567200  0.83033400  1
  Ni  Ni52  1  0.13406200  0.80072700  0.06607200  1
  Ni  Ni53  1  0.05592300  0.91749200  0.22664200  1
  Ni  Ni54  1  0.97246300  0.03883200  0.38738800  1
  Ni  Ni55  1  0.61045300  0.08117700  0.10660000  1
  Ni  Ni56  1  0.88673900  0.15638100  0.54632100  1
  Ni  Ni57  1  0.53047400  0.19664600  0.26734900  1
  Mo  Mo58  1  0.00191400  0.99717200  0.99490100  1
  Mo  Mo59  1  0.28455700  0.07763200  0.43581500  1
  Mo  Mo60  1  0.55957000  0.16007200  0.87947500  1
  Mo  Mo61  1  0.20116900  0.19902200  0.59955100  1
  Mo  Mo62  1  0.11813100  0.31831400  0.75910500  1
  Mo  Mo63  1  0.03983700  0.43984100  0.91971000  1
  Mo  Mo64  1  0.92010600  0.12050600  0.15961000  1
  Mo  Mo65  1  0.83727600  0.24273200  0.32491100  1
  Mo  Mo66  1  0.40089700  0.39905600  0.20041800  1
  Mo  Mo67  1  0.60210600  0.59758200  0.79447500  1
  Mo  Mo68  1  0.24373800  0.63790300  0.51591700  1
  Mo  Mo69  1  0.51964200  0.71990900  0.95907700  1
  Mo  Mo70  1  0.15681700  0.76256900  0.68348400  1
  Mo  Mo71  1  0.95963600  0.56068500  0.07913900  1
  Mo  Mo72  1  0.87958700  0.68054600  0.24219300  1
  Mo  Mo73  1  0.79661700  0.80287300  0.40639700  1
  Mo  Mo74  1  0.43839800  0.84363600  0.12598500  1
