# generated using pymatgen
data_MnV3Sb2(PO4)6
_symmetry_space_group_name_H-M   'P 1'
_cell_length_a   8.88241030
_cell_length_b   8.88241030
_cell_length_c   8.88240957
_cell_angle_alpha   58.91805739
_cell_angle_beta   58.91805739
_cell_angle_gamma   58.91806081
_symmetry_Int_Tables_number   1
_chemical_formula_structural   MnV3Sb2(PO4)6
_chemical_formula_sum   'Mn1 V3 Sb2 P6 O24'
_cell_volume   483.30303990
_cell_formula_units_Z   1
loop_
 _symmetry_equiv_pos_site_id
 _symmetry_equiv_pos_as_xyz
  1  'x, y, z'
loop_
 _atom_site_type_symbol
 _atom_site_label
 _atom_site_symmetry_multiplicity
 _atom_site_fract_x
 _atom_site_fract_y
 _atom_site_fract_z
 _atom_site_occupancy
  Mn  Mn0  1  0.85002500  0.85002500  0.85002500  1
  V  V1  1  0.35181200  0.35181200  0.35181200  1
  V  V2  1  0.14551500  0.14551500  0.14551500  1
  V  V3  1  0.64728100  0.64728100  0.64728100  1
  Sb  Sb4  1  0.99538700  0.99538700  0.99538700  1
  Sb  Sb5  1  0.49738700  0.49738700  0.49738700  1
  P  P6  1  0.45590600  0.75031000  0.04305100  1
  P  P7  1  0.75031000  0.04305100  0.45590600  1
  P  P8  1  0.04305100  0.45590600  0.75031000  1
  P  P9  1  0.96105500  0.53740700  0.25398500  1
  P  P10  1  0.25398500  0.96105500  0.53740700  1
  P  P11  1  0.53740700  0.25398500  0.96105500  1
  O  O12  1  0.69827000  0.88409300  0.49215200  1
  O  O13  1  0.88409300  0.49215200  0.69827000  1
  O  O14  1  0.49215200  0.69827000  0.88409300  1
  O  O15  1  0.26281300  0.91344900  0.06543300  1
  O  O16  1  0.60602900  0.79727100  0.02433000  1
  O  O17  1  0.42997000  0.57986400  0.23592400  1
  O  O18  1  0.91344900  0.06543300  0.26281300  1
  O  O19  1  0.57986400  0.23592400  0.42997000  1
  O  O20  1  0.99431700  0.38354200  0.19967200  1
  O  O21  1  0.23592400  0.42997000  0.57986400  1
  O  O22  1  0.94693300  0.73002200  0.09178700  1
  O  O23  1  0.19967200  0.99431700  0.38354200  1
  O  O24  1  0.79727100  0.02433000  0.60602900  1
  O  O25  1  0.06543300  0.26281300  0.91344900  1
  O  O26  1  0.76874100  0.55909600  0.41960900  1
  O  O27  1  0.02433000  0.60602900  0.79727100  1
  O  O28  1  0.41960900  0.76874100  0.55909600  1
  O  O29  1  0.09178700  0.94693300  0.73002200  1
  O  O30  1  0.55909600  0.41960900  0.76874100  1
  O  O31  1  0.38354200  0.19967200  0.99431700  1
  O  O32  1  0.73002200  0.09178700  0.94693300  1
  O  O33  1  0.49634500  0.31439500  0.11684300  1
  O  O34  1  0.11684300  0.49634500  0.31439500  1
  O  O35  1  0.31439500  0.11684300  0.49634500  1
