# generated using pymatgen
data_V4Si4O13
_symmetry_space_group_name_H-M   'P 1'
_cell_length_a   6.96106400
_cell_length_b   7.82975302
_cell_length_c   10.11539211
_cell_angle_alpha   67.72909898
_cell_angle_beta   79.87247580
_cell_angle_gamma   77.60808858
_symmetry_Int_Tables_number   1
_chemical_formula_structural   V4Si4O13
_chemical_formula_sum   'V8 Si8 O26'
_cell_volume   495.57798903
_cell_formula_units_Z   2
loop_
 _symmetry_equiv_pos_site_id
 _symmetry_equiv_pos_as_xyz
  1  'x, y, z'
loop_
 _atom_site_type_symbol
 _atom_site_label
 _atom_site_symmetry_multiplicity
 _atom_site_fract_x
 _atom_site_fract_y
 _atom_site_fract_z
 _atom_site_occupancy
  V  V0  1  0.08039500  0.19854600  0.99213700  1
  V  V1  1  0.57578500  0.19632100  0.98745400  1
  V  V2  1  0.57658700  0.55579000  0.62572600  1
  V  V3  1  0.07726000  0.55110100  0.62187800  1
  V  V4  1  0.92274000  0.44889900  0.37812200  1
  V  V5  1  0.42341300  0.44421000  0.37427400  1
  V  V6  1  0.42421500  0.80367900  0.01254600  1
  V  V7  1  0.91960500  0.80145400  0.00786300  1
  Si  Si8  1  0.26569500  0.58933900  0.82578400  1
  Si  Si9  1  0.72831800  0.85484900  0.71738500  1
  Si  Si10  1  0.37816400  0.15293700  0.71135000  1
  Si  Si11  1  0.93249800  0.15694000  0.70909400  1
  Si  Si12  1  0.06750200  0.84306000  0.29090600  1
  Si  Si13  1  0.62183600  0.84706300  0.28865000  1
  Si  Si14  1  0.27168200  0.14515100  0.28261500  1
  Si  Si15  1  0.73430500  0.41066100  0.17421600  1
  O  O16  1  0.37147100  0.10947000  0.88480400  1
  O  O17  1  0.87754400  0.10315900  0.88529000  1
  O  O18  1  0.19372300  0.72510600  0.92155300  1
  O  O19  1  0.10196800  0.44887900  0.84923400  1
  O  O20  1  0.49482800  0.46864000  0.83980900  1
  O  O21  1  0.71903800  0.76917900  0.89256000  1
  O  O22  1  0.41590800  0.36564700  0.60301100  1
  O  O23  1  0.85045700  0.37482100  0.61182700  1
  O  O24  1  0.28588300  0.69793100  0.65001000  1
  O  O25  1  0.77687200  0.69972400  0.63985900  1
  O  O26  1  0.16610400  0.14491000  0.67718000  1
  O  O27  1  0.51860400  0.98536300  0.66812100  1
  O  O28  1  0.88659000  0.00083000  0.65596000  1
  O  O29  1  0.11341000  0.99917000  0.34404000  1
  O  O30  1  0.48139600  0.01463700  0.33187900  1
  O  O31  1  0.83389600  0.85509000  0.32282000  1
  O  O32  1  0.22312800  0.30027600  0.36014100  1
  O  O33  1  0.71411700  0.30206900  0.34999000  1
  O  O34  1  0.14954300  0.62517900  0.38817300  1
  O  O35  1  0.58409200  0.63435300  0.39698900  1
  O  O36  1  0.28096200  0.23082100  0.10744000  1
  O  O37  1  0.50517200  0.53136000  0.16019100  1
  O  O38  1  0.89803200  0.55112100  0.15076600  1
  O  O39  1  0.80627700  0.27489400  0.07844700  1
  O  O40  1  0.12245600  0.89684100  0.11471000  1
  O  O41  1  0.62852900  0.89053000  0.11519600  1
