# generated using pymatgen
data_Na2YPCO7
_symmetry_space_group_name_H-M   'P 1'
_cell_length_a   7.00359700
_cell_length_b   5.22591700
_cell_length_c   9.28664862
_cell_angle_alpha   89.31917059
_cell_angle_beta   90.00000000
_cell_angle_gamma   90.00000000
_symmetry_Int_Tables_number   1
_chemical_formula_structural   Na2YPCO7
_chemical_formula_sum   'Na4 Y2 P2 C2 O14'
_cell_volume   339.86935536
_cell_formula_units_Z   2
loop_
 _symmetry_equiv_pos_site_id
 _symmetry_equiv_pos_as_xyz
  1  'x, y, z'
loop_
 _atom_site_type_symbol
 _atom_site_label
 _atom_site_symmetry_multiplicity
 _atom_site_fract_x
 _atom_site_fract_y
 _atom_site_fract_z
 _atom_site_occupancy
  Na  Na0  1  0.49983900  0.23115800  0.79225200  1
  Na  Na1  1  0.00016100  0.23115800  0.79225200  1
  Na  Na2  1  0.50016100  0.76884200  0.20774800  1
  Na  Na3  1  0.99983900  0.76884200  0.20774800  1
  Y  Y4  1  0.75000000  0.77625100  0.62986200  1
  Y  Y5  1  0.25000000  0.22374900  0.37013800  1
  P  P6  1  0.25000000  0.70536000  0.58246300  1
  P  P7  1  0.75000000  0.29464000  0.41753700  1
  C  C8  1  0.75000000  0.73108800  0.92767500  1
  C  C9  1  0.25000000  0.26891200  0.07232500  1
  O  O10  1  0.25000000  0.29978600  0.93768400  1
  O  O11  1  0.75000000  0.95746900  0.86411100  1
  O  O12  1  0.75000000  0.53579100  0.83754500  1
  O  O13  1  0.06896700  0.81729400  0.65268200  1
  O  O14  1  0.43103300  0.81729400  0.65268200  1
  O  O15  1  0.75000000  0.22431800  0.58348900  1
  O  O16  1  0.25000000  0.40649600  0.59330800  1
  O  O17  1  0.75000000  0.59350400  0.40669200  1
  O  O18  1  0.25000000  0.77568200  0.41651100  1
  O  O19  1  0.56896700  0.18270600  0.34731800  1
  O  O20  1  0.93103300  0.18270600  0.34731800  1
  O  O21  1  0.25000000  0.46420900  0.16245500  1
  O  O22  1  0.25000000  0.04253100  0.13588900  1
  O  O23  1  0.75000000  0.70021400  0.06231600  1
