# generated using pymatgen
data_K6Na2MnH24(WO6)6
_symmetry_space_group_name_H-M   'P 1'
_cell_length_a   9.82044825
_cell_length_b   9.82044825
_cell_length_c   9.82044783
_cell_angle_alpha   84.39755036
_cell_angle_beta   84.39755036
_cell_angle_gamma   84.39755408
_symmetry_Int_Tables_number   1
_chemical_formula_structural   K6Na2MnH24(WO6)6
_chemical_formula_sum   'K6 Na2 Mn1 H24 W6 O36'
_cell_volume   934.35151889
_cell_formula_units_Z   1
loop_
 _symmetry_equiv_pos_site_id
 _symmetry_equiv_pos_as_xyz
  1  'x, y, z'
loop_
 _atom_site_type_symbol
 _atom_site_label
 _atom_site_symmetry_multiplicity
 _atom_site_fract_x
 _atom_site_fract_y
 _atom_site_fract_z
 _atom_site_occupancy
  K  K0  1  0.66701300  0.10149700  0.66701300  1
  K  K1  1  0.89850300  0.33298700  0.33298700  1
  K  K2  1  0.66701300  0.66701300  0.10149700  1
  K  K3  1  0.33298700  0.33298700  0.89850300  1
  K  K4  1  0.10149700  0.66701300  0.66701300  1
  K  K5  1  0.33298700  0.89850300  0.33298700  1
  Na  Na6  1  0.73954900  0.73954800  0.73954900  1
  Na  Na7  1  0.26045200  0.26045100  0.26045100  1
  Mn  Mn8  1  0.00000000  0.00000000  0.00000000  1
  H  H9  1  0.90197700  0.52640500  0.90197700  1
  H  H10  1  0.47359500  0.09802300  0.09802300  1
  H  H11  1  0.51734300  0.15714500  0.39811400  1
  H  H12  1  0.84285500  0.48265700  0.60188600  1
  H  H13  1  0.35250900  0.03698600  0.03698600  1
  H  H14  1  0.96301400  0.64749100  0.96301400  1
  H  H15  1  0.39811400  0.15714500  0.51734300  1
  H  H16  1  0.84285500  0.60188600  0.48265700  1
  H  H17  1  0.60188600  0.48265700  0.84285500  1
  H  H18  1  0.51734300  0.39811400  0.15714500  1
  H  H19  1  0.09802300  0.09802300  0.47359500  1
  H  H20  1  0.03698600  0.03698600  0.35250900  1
  H  H21  1  0.96301400  0.96301400  0.64749100  1
  H  H22  1  0.90197700  0.90197700  0.52640500  1
  H  H23  1  0.39811400  0.51734300  0.15714500  1
  H  H24  1  0.48265700  0.60188600  0.84285500  1
  H  H25  1  0.60188600  0.84285500  0.48265700  1
  H  H26  1  0.15714500  0.39811400  0.51734300  1
  H  H27  1  0.03698600  0.35250900  0.03698600  1
  H  H28  1  0.64749100  0.96301400  0.96301400  1
  H  H29  1  0.48265700  0.84285500  0.60188600  1
  H  H30  1  0.15714500  0.51734300  0.39811400  1
  H  H31  1  0.09802300  0.47359500  0.09802300  1
  H  H32  1  0.52640500  0.90197700  0.90197700  1
  W  W33  1  0.75460000  0.00000000  0.24540000  1
  W  W34  1  0.75460000  0.24540000  0.00000000  1
  W  W35  1  0.24540000  0.00000000  0.75460000  1
  W  W36  1  0.00000000  0.24540000  0.75460000  1
  W  W37  1  0.24540000  0.75460000  0.00000000  1
  W  W38  1  0.00000000  0.75460000  0.24540000  1
  O  O39  1  0.87375000  0.10019900  0.87375000  1
  O  O40  1  0.89980100  0.12625000  0.12625000  1
  O  O41  1  0.70870500  0.12519600  0.36804500  1
  O  O42  1  0.87480400  0.29129500  0.63195500  1
  O  O43  1  0.90948400  0.34805100  0.90948400  1
  O  O44  1  0.65194900  0.09051600  0.09051600  1
  O  O45  1  0.70870500  0.36804500  0.12519600  1
  O  O46  1  0.63195500  0.29129500  0.87480400  1
  O  O47  1  0.89832800  0.62789800  0.89832800  1
  O  O48  1  0.37210200  0.10167200  0.10167200  1
  O  O49  1  0.41695300  0.15627900  0.41695300  1
  O  O50  1  0.84372100  0.58304700  0.58304700  1
  O  O51  1  0.87480400  0.63195500  0.29129500  1
  O  O52  1  0.36804500  0.12519600  0.70870500  1
  O  O53  1  0.12625000  0.12625000  0.89980100  1
  O  O54  1  0.10167200  0.10167200  0.37210200  1
  O  O55  1  0.58304700  0.58304700  0.84372100  1
  O  O56  1  0.89832800  0.89832800  0.62789800  1
  O  O57  1  0.09051600  0.09051600  0.65194900  1
  O  O58  1  0.41695300  0.41695300  0.15627900  1
  O  O59  1  0.90948400  0.90948400  0.34805100  1
  O  O60  1  0.87375000  0.87375000  0.10019900  1
  O  O61  1  0.63195500  0.87480400  0.29129500  1
  O  O62  1  0.12519600  0.36804500  0.70870500  1
  O  O63  1  0.58304700  0.84372100  0.58304700  1
  O  O64  1  0.15627900  0.41695300  0.41695300  1
  O  O65  1  0.10167200  0.37210200  0.10167200  1
  O  O66  1  0.62789800  0.89832800  0.89832800  1
  O  O67  1  0.29129500  0.63195500  0.87480400  1
  O  O68  1  0.36804500  0.70870500  0.12519600  1
  O  O69  1  0.34805100  0.90948400  0.90948400  1
  O  O70  1  0.09051600  0.65194900  0.09051600  1
  O  O71  1  0.29129500  0.87480400  0.63195500  1
  O  O72  1  0.12519600  0.70870500  0.36804500  1
  O  O73  1  0.10019900  0.87375000  0.87375000  1
  O  O74  1  0.12625000  0.89980100  0.12625000  1
