# generated using pymatgen
data_MnFe(PO4)2
_symmetry_space_group_name_H-M   'P 1'
_cell_length_a   5.98917800
_cell_length_b   9.88322900
_cell_length_c   14.72173746
_cell_angle_alpha   89.95066216
_cell_angle_beta   90.00000000
_cell_angle_gamma   90.00000000
_symmetry_Int_Tables_number   1
_chemical_formula_structural   MnFe(PO4)2
_chemical_formula_sum   'Mn6 Fe6 P12 O48'
_cell_volume   871.41490975
_cell_formula_units_Z   6
loop_
 _symmetry_equiv_pos_site_id
 _symmetry_equiv_pos_as_xyz
  1  'x, y, z'
loop_
 _atom_site_type_symbol
 _atom_site_label
 _atom_site_symmetry_multiplicity
 _atom_site_fract_x
 _atom_site_fract_y
 _atom_site_fract_z
 _atom_site_occupancy
  Mn  Mn0  1  0.50000000  0.71669500  0.97872200  1
  Mn  Mn1  1  0.50000000  0.21807400  0.85354300  1
  Mn  Mn2  1  0.00000000  0.78286800  0.81334400  1
  Mn  Mn3  1  0.50000000  0.71867900  0.64525800  1
  Mn  Mn4  1  0.50000000  0.21969100  0.51986900  1
  Mn  Mn5  1  0.50000000  0.71689000  0.31164400  1
  Fe  Fe6  1  0.00000000  0.27515400  0.67922500  1
  Fe  Fe7  1  0.00000000  0.77710100  0.48604300  1
  Fe  Fe8  1  0.00000000  0.27603300  0.34564600  1
  Fe  Fe9  1  0.50000000  0.22617300  0.17971000  1
  Fe  Fe10  1  0.00000000  0.77609000  0.15340100  1
  Fe  Fe11  1  0.00000000  0.27400600  0.01271600  1
  P  P12  1  0.00000000  0.59775000  0.97189100  1
  P  P13  1  0.00000000  0.09518100  0.86125700  1
  P  P14  1  0.50000000  0.90127500  0.80649100  1
  P  P15  1  0.50000000  0.40083300  0.69342100  1
  P  P16  1  0.00000000  0.59908000  0.63914800  1
  P  P17  1  0.00000000  0.09718900  0.52845600  1
  P  P18  1  0.50000000  0.90151000  0.47307800  1
  P  P19  1  0.50000000  0.40258900  0.36095500  1
  P  P20  1  0.00000000  0.59698400  0.30507300  1
  P  P21  1  0.00000000  0.09762000  0.19579400  1
  P  P22  1  0.50000000  0.89974300  0.13945600  1
  P  P23  1  0.50000000  0.40168200  0.02671500  1
  O  O24  1  0.00000000  0.44563200  0.95014400  1
  O  O25  1  0.20092500  0.67041800  0.92376300  1
  O  O26  1  0.79907500  0.67041800  0.92376300  1
  O  O27  1  0.50000000  0.38107700  0.92304000  1
  O  O28  1  0.50000000  0.88129600  0.91002800  1
  O  O29  1  0.19853300  0.16960100  0.91084400  1
  O  O30  1  0.80146700  0.16960100  0.91084400  1
  O  O31  1  0.00000000  0.94407200  0.88505800  1
  O  O32  1  0.50000000  0.05431300  0.78583300  1
  O  O33  1  0.70080000  0.83052100  0.75829900  1
  O  O34  1  0.29920000  0.83052100  0.75829900  1
  O  O35  1  0.00000000  0.11756100  0.75911400  1
  O  O36  1  0.00000000  0.62056000  0.74225600  1
  O  O37  1  0.70313900  0.32947400  0.74013800  1
  O  O38  1  0.29686100  0.32947400  0.74013800  1
  O  O39  1  0.50000000  0.55390900  0.71357000  1
  O  O40  1  0.00000000  0.44881800  0.61721500  1
  O  O41  1  0.19844500  0.67364500  0.59006700  1
  O  O42  1  0.80155500  0.67364500  0.59006700  1
  O  O43  1  0.50000000  0.38239500  0.58928600  1
  O  O44  1  0.50000000  0.88247500  0.57752000  1
  O  O45  1  0.80157000  0.17274800  0.57791500  1
  O  O46  1  0.19843000  0.17274800  0.57791500  1
  O  O47  1  0.00000000  0.94709600  0.55264300  1
  O  O48  1  0.50000000  0.05456300  0.45312000  1
  O  O49  1  0.70372600  0.83082100  0.42713300  1
  O  O50  1  0.29627400  0.83082100  0.42713300  1
  O  O51  1  0.00000000  0.11967000  0.42635300  1
  O  O52  1  0.00000000  0.61977000  0.40751300  1
  O  O53  1  0.29641600  0.33101900  0.40751400  1
  O  O54  1  0.70358400  0.33101900  0.40751400  1
  O  O55  1  0.50000000  0.55557900  0.38295700  1
  O  O56  1  0.00000000  0.44714100  0.28120300  1
  O  O57  1  0.19854600  0.67232300  0.25616500  1
  O  O58  1  0.80145400  0.67232300  0.25616500  1
  O  O59  1  0.50000000  0.38311400  0.25751400  1
  O  O60  1  0.50000000  0.88045200  0.24384400  1
  O  O61  1  0.79926800  0.17320000  0.24318600  1
  O  O62  1  0.20073200  0.17320000  0.24318600  1
  O  O63  1  0.00000000  0.94725700  0.21876400  1
  O  O64  1  0.50000000  0.05223200  0.11995700  1
  O  O65  1  0.70348000  0.82821700  0.09346700  1
  O  O66  1  0.29652000  0.82821700  0.09346700  1
  O  O67  1  0.00000000  0.11990900  0.09285800  1
  O  O68  1  0.00000000  0.61863500  0.07462000  1
  O  O69  1  0.29969500  0.32823500  0.07477600  1
  O  O70  1  0.70030500  0.32823500  0.07477600  1
  O  O71  1  0.50000000  0.55314000  0.04819800  1
