# generated using pymatgen
data_Mn2VFe3(PO4)6
_symmetry_space_group_name_H-M   'P 1'
_cell_length_a   8.62569822
_cell_length_b   8.62569822
_cell_length_c   8.62569796
_cell_angle_alpha   60.12671954
_cell_angle_beta   60.12671954
_cell_angle_gamma   60.12671720
_symmetry_Int_Tables_number   1
_chemical_formula_structural   Mn2VFe3(PO4)6
_chemical_formula_sum   'Mn2 V1 Fe3 P6 O24'
_cell_volume   455.10616996
_cell_formula_units_Z   1
loop_
 _symmetry_equiv_pos_site_id
 _symmetry_equiv_pos_as_xyz
  1  'x, y, z'
loop_
 _atom_site_type_symbol
 _atom_site_label
 _atom_site_symmetry_multiplicity
 _atom_site_fract_x
 _atom_site_fract_y
 _atom_site_fract_z
 _atom_site_occupancy
  Mn  Mn0  1  0.99786700  0.99786700  0.99786700  1
  Mn  Mn1  1  0.49882600  0.49882600  0.49882600  1
  V  V2  1  0.14528400  0.14528400  0.14528400  1
  Fe  Fe3  1  0.64530600  0.64530600  0.64530600  1
  Fe  Fe4  1  0.85387400  0.85387400  0.85387400  1
  Fe  Fe5  1  0.35614300  0.35614300  0.35614300  1
  P  P6  1  0.95717600  0.25196500  0.54353300  1
  P  P7  1  0.54353300  0.95717600  0.25196500  1
  P  P8  1  0.25196500  0.54353300  0.95717600  1
  P  P9  1  0.75214100  0.45591000  0.04366200  1
  P  P10  1  0.45591000  0.04366200  0.75214100  1
  P  P11  1  0.04366200  0.75214100  0.45591000  1
  O  O12  1  0.50089100  0.11258200  0.31649500  1
  O  O13  1  0.31649500  0.50089100  0.11258200  1
  O  O14  1  0.11258200  0.31649500  0.50089100  1
  O  O15  1  0.94223800  0.08667800  0.73372700  1
  O  O16  1  0.01182300  0.18473100  0.37503600  1
  O  O17  1  0.76454800  0.41190800  0.54754400  1
  O  O18  1  0.73372700  0.94223800  0.08667800  1
  O  O19  1  0.54754400  0.76454800  0.41190800  1
  O  O20  1  0.81668000  0.61097200  0.00418200  1
  O  O21  1  0.41190800  0.54754400  0.76454800  1
  O  O22  1  0.92029400  0.25807900  0.06596800  1
  O  O23  1  0.61097200  0.00418200  0.81668000  1
  O  O24  1  0.37503600  0.01182300  0.18473100  1
  O  O25  1  0.08667800  0.73372700  0.94223800  1
  O  O26  1  0.59204800  0.43469100  0.23848400  1
  O  O27  1  0.18473100  0.37503600  0.01182300  1
  O  O28  1  0.43469100  0.23848400  0.59204800  1
  O  O29  1  0.25807900  0.06596800  0.92029400  1
  O  O30  1  0.23848400  0.59204800  0.43469100  1
  O  O31  1  0.00418200  0.81668000  0.61097200  1
  O  O32  1  0.06596800  0.92029400  0.25807900  1
  O  O33  1  0.88323500  0.70026300  0.48520800  1
  O  O34  1  0.70026300  0.48520800  0.88323500  1
  O  O35  1  0.48520800  0.88323500  0.70026300  1
