# generated using pymatgen
data_VPO4
_symmetry_space_group_name_H-M   'P 1'
_cell_length_a   4.78393004
_cell_length_b   8.79355000
_cell_length_c   6.58851805
_cell_angle_alpha   89.99850062
_cell_angle_beta   89.98558734
_cell_angle_gamma   89.99978135
_symmetry_Int_Tables_number   1
_chemical_formula_structural   VPO4
_chemical_formula_sum   'V4 P4 O16'
_cell_volume   277.16397642
_cell_formula_units_Z   4
loop_
 _symmetry_equiv_pos_site_id
 _symmetry_equiv_pos_as_xyz
  1  'x, y, z'
loop_
 _atom_site_type_symbol
 _atom_site_label
 _atom_site_symmetry_multiplicity
 _atom_site_fract_x
 _atom_site_fract_y
 _atom_site_fract_z
 _atom_site_occupancy
  V  V0  1  0.99993600  0.00003400  0.50002600  1
  V  V1  1  0.50007300  0.50006100  0.00001200  1
  V  V2  1  0.00011400  0.00001000  0.99997700  1
  V  V3  1  0.50000400  0.49990500  0.50005700  1
  P  P4  1  0.47586500  0.17600700  0.24989000  1
  P  P5  1  0.97588100  0.32399900  0.74989700  1
  P  P6  1  0.02412600  0.67600300  0.25012200  1
  P  P7  1  0.52411500  0.82399900  0.75011200  1
  O  O8  1  0.78484700  0.11650100  0.24980200  1
  O  O9  1  0.28487100  0.38348900  0.74978000  1
  O  O10  1  0.71512900  0.61649800  0.25021600  1
  O  O11  1  0.21512100  0.88350300  0.75019800  1
  O  O12  1  0.95003600  0.14512700  0.74993300  1
  O  O13  1  0.45005700  0.35488000  0.24989600  1
  O  O14  1  0.54991200  0.64511900  0.75009500  1
  O  O15  1  0.04992100  0.85488600  0.25008600  1
  O  O16  1  0.33173000  0.12153900  0.05524300  1
  O  O17  1  0.33177300  0.12149700  0.44459400  1
  O  O18  1  0.83171800  0.37844400  0.55524700  1
  O  O19  1  0.83181700  0.37852000  0.94459100  1
  O  O20  1  0.16814300  0.62148100  0.05539700  1
  O  O21  1  0.16833500  0.62150200  0.44473100  1
  O  O22  1  0.66814900  0.87850200  0.55538400  1
  O  O23  1  0.66832800  0.87849500  0.94471400  1
