# generated using pymatgen
data_V5BiO10
_symmetry_space_group_name_H-M   'P 1'
_cell_length_a   10.03626100
_cell_length_b   10.04209916
_cell_length_c   10.39646302
_cell_angle_alpha   118.63520074
_cell_angle_beta   118.66625436
_cell_angle_gamma   90.02754073
_symmetry_Int_Tables_number   1
_chemical_formula_structural   V5BiO10
_chemical_formula_sum   'V20 Bi4 O40'
_cell_volume   769.97742766
_cell_formula_units_Z   4
loop_
 _symmetry_equiv_pos_site_id
 _symmetry_equiv_pos_as_xyz
  1  'x, y, z'
loop_
 _atom_site_type_symbol
 _atom_site_label
 _atom_site_symmetry_multiplicity
 _atom_site_fract_x
 _atom_site_fract_y
 _atom_site_fract_z
 _atom_site_occupancy
  V  V0  1  0.95679000  0.76739400  0.19802800  1
  V  V1  1  0.82982100  0.35358900  0.99693300  1
  V  V2  1  0.76998300  0.24221100  0.20235400  1
  V  V3  1  0.96682300  0.44302400  0.59572100  1
  V  V4  1  0.64467100  0.82824700  0.99638800  1
  V  V5  1  0.84692800  0.02779200  0.39947600  1
  V  V6  1  0.55549500  0.37105300  0.40444800  1
  V  V7  1  0.35610800  0.17054500  0.00486000  1
  V  V8  1  0.75380400  0.56807500  0.79842700  1
  V  V9  1  0.63269400  0.15077700  0.59814800  1
  V  V10  1  0.43001700  0.95385300  0.20270000  1
  V  V11  1  0.56984400  0.04769100  0.80316800  1
  V  V12  1  0.16695600  0.63692300  0.99320100  1
  V  V13  1  0.36868600  0.84314500  0.39636200  1
  V  V14  1  0.44278900  0.63233500  0.60229500  1
  V  V15  1  0.24779900  0.43417800  0.20798200  1
  V  V16  1  0.15568600  0.96585500  0.59320000  1
  V  V17  1  0.03201700  0.55282500  0.39961800  1
  V  V18  1  0.23160800  0.76118400  0.80414200  1
  V  V19  1  0.05126200  0.23138900  0.80261300  1
  Bi  Bi20  1  0.58619500  0.58914200  0.17858400  1
  Bi  Bi21  1  0.80683700  0.81177200  0.62105400  1
  Bi  Bi22  1  0.01207700  0.02260200  0.03519700  1
  Bi  Bi23  1  0.38943700  0.38230100  0.76632700  1
  O  O24  1  0.85080700  0.80907300  0.00432800  1
  O  O25  1  0.83488700  0.54702400  0.00324500  1
  O  O26  1  0.81340900  0.15310600  0.00841400  1
  O  O27  1  0.99784200  0.65129500  0.60916900  1
  O  O28  1  0.79057300  0.43936800  0.18481400  1
  O  O29  1  0.76511000  0.06219100  0.20420800  1
  O  O30  1  0.96048000  0.25946300  0.59588900  1
  O  O31  1  0.95318400  0.99583900  0.60132800  1
  O  O32  1  0.75129900  0.79298300  0.19737400  1
  O  O33  1  0.74440200  0.37236900  0.40063900  1
  O  O34  1  0.54906700  0.16458100  0.00523900  1
  O  O35  1  0.94941200  0.56349100  0.80088800  1
  O  O36  1  0.86095800  0.24381500  0.81399000  1
  O  O37  1  0.66283200  0.03025200  0.39327900  1
  O  O38  1  0.45261500  0.83997900  0.00500600  1
  O  O39  1  0.64965000  0.60890300  0.60008800  1
  O  O40  1  0.44893500  0.41307000  0.20551900  1
  O  O41  1  0.63591700  0.33761200  0.58710300  1
  O  O42  1  0.44353400  0.14954800  0.21058400  1
  O  O43  1  0.40332600  0.74156200  0.18922000  1
  O  O44  1  0.60784500  0.95127900  0.60347600  1
  O  O45  1  0.59576300  0.25369800  0.80424700  1
  O  O46  1  0.40039100  0.03311300  0.38510500  1
  O  O47  1  0.19806300  0.84639200  0.00420200  1
  O  O48  1  0.56046700  0.84919500  0.79464400  1
  O  O49  1  0.17183700  0.46260700  0.00576200  1
  O  O50  1  0.36174900  0.65531300  0.40332400  1
  O  O51  1  0.36357600  0.40854300  0.40522200  1
  O  O52  1  0.54430900  0.58407600  0.78975300  1
  O  O53  1  0.15566200  0.19955900  0.00960900  1
  O  O54  1  0.13593600  0.75837700  0.19058800  1
  O  O55  1  0.33570600  0.96350100  0.59777000  1
  O  O56  1  0.26054000  0.64063800  0.60744900  1
  O  O57  1  0.05970800  0.43537200  0.19299800  1
  O  O58  1  0.03469200  0.99574400  0.39616900  1
  O  O59  1  0.24779100  0.19971600  0.79648600  1
  O  O60  1  0.03351000  0.74491000  0.39606300  1
  O  O61  1  0.23112800  0.93560300  0.79361700  1
  O  O62  1  0.99321900  0.36041900  0.39945300  1
  O  O63  1  0.20306300  0.55275700  0.79679100  1
