# generated using pymatgen
data_Na4Bi2C4SO16
_symmetry_space_group_name_H-M   'P 1'
_cell_length_a   10.44563978
_cell_length_b   10.31829318
_cell_length_c   10.30570760
_cell_angle_alpha   60.85923192
_cell_angle_beta   59.62990846
_cell_angle_gamma   59.51085962
_symmetry_Int_Tables_number   1
_chemical_formula_structural   Na4Bi2C4SO16
_chemical_formula_sum   'Na8 Bi4 C8 S2 O32'
_cell_volume   785.15788874
_cell_formula_units_Z   2
loop_
 _symmetry_equiv_pos_site_id
 _symmetry_equiv_pos_as_xyz
  1  'x, y, z'
loop_
 _atom_site_type_symbol
 _atom_site_label
 _atom_site_symmetry_multiplicity
 _atom_site_fract_x
 _atom_site_fract_y
 _atom_site_fract_z
 _atom_site_occupancy
  Na  Na0  1  0.20439700  0.79560300  0.20439700  1
  Na  Na1  1  0.79539200  0.79539200  0.20460800  1
  Na  Na2  1  0.79672300  0.20327700  0.20327700  1
  Na  Na3  1  0.20327700  0.79672300  0.79672300  1
  Na  Na4  1  0.05763900  0.44236100  0.44236100  1
  Na  Na5  1  0.79560300  0.20439700  0.79560300  1
  Na  Na6  1  0.20460800  0.20460800  0.79539200  1
  Na  Na7  1  0.44236100  0.05763900  0.05763900  1
  Bi  Bi8  1  0.61567600  0.62854200  0.62993300  1
  Bi  Bi9  1  0.12584900  0.62993300  0.62854200  1
  Bi  Bi10  1  0.62993300  0.12584900  0.61567600  1
  Bi  Bi11  1  0.62854200  0.61567600  0.12584900  1
  C  C12  1  0.40362900  0.78703800  0.40382500  1
  C  C13  1  0.85263000  0.84122500  0.45184600  1
  C  C14  1  0.45184700  0.85429900  0.85263000  1
  C  C15  1  0.84122500  0.85263000  0.85429900  1
  C  C16  1  0.78703800  0.40362900  0.40550700  1
  C  C17  1  0.40382500  0.40550700  0.40362900  1
  C  C18  1  0.40550700  0.40382500  0.78703800  1
  C  C19  1  0.85429900  0.45184700  0.84122500  1
  S  S20  1  0.25000000  0.25000000  0.25000000  1
  S  S21  1  0.00000000  0.00000000  0.00000000  1
  O  O22  1  0.52416500  0.79609500  0.27160300  1
  O  O23  1  0.98616500  0.72265000  0.45151800  1
  O  O24  1  0.28036400  0.78152600  0.40817200  1
  O  O25  1  0.73705700  0.82570000  0.45243900  1
  O  O26  1  0.40822200  0.77963900  0.53073500  1
  O  O27  1  0.19527700  0.18839300  0.18870600  1
  O  O28  1  0.42762300  0.18870600  0.18839300  1
  O  O29  1  0.83888000  0.97560100  0.44737300  1
  O  O30  1  0.44737300  0.73814600  0.83888000  1
  O  O31  1  0.97560100  0.83888000  0.73814600  1
  O  O32  1  0.18870600  0.42762300  0.19527700  1
  O  O33  1  0.18839300  0.19527700  0.42762300  1
  O  O34  1  0.53073500  0.28140500  0.40822200  1
  O  O35  1  0.77963900  0.40822200  0.28140500  1
  O  O36  1  0.82570000  0.73705700  0.98480300  1
  O  O37  1  0.45243900  0.98480300  0.73705700  1
  O  O38  1  0.78152600  0.28036400  0.52993900  1
  O  O39  1  0.40817200  0.52993900  0.28036400  1
  O  O40  1  0.72265000  0.98616500  0.83966700  1
  O  O41  1  0.45151800  0.83966700  0.98616500  1
  O  O42  1  0.05973800  0.05746000  0.82304200  1
  O  O43  1  0.05976100  0.82304200  0.05746000  1
  O  O44  1  0.79609500  0.52416500  0.40813600  1
  O  O45  1  0.27160300  0.40813600  0.52416500  1
  O  O46  1  0.40813600  0.27160300  0.79609500  1
  O  O47  1  0.05746000  0.05973800  0.05976100  1
  O  O48  1  0.82304200  0.05976100  0.05973800  1
  O  O49  1  0.83966700  0.45151800  0.72265000  1
  O  O50  1  0.52993900  0.40817200  0.78152600  1
  O  O51  1  0.98480300  0.45243900  0.82570000  1
  O  O52  1  0.28140500  0.53073500  0.77963900  1
  O  O53  1  0.73814600  0.44737300  0.97560100  1
