# generated using pymatgen
data_Na3NiBPO7
_symmetry_space_group_name_H-M   'P 1'
_cell_length_a   6.75227700
_cell_length_b   5.16161200
_cell_length_c   8.88775191
_cell_angle_alpha   88.34624978
_cell_angle_beta   90.00000000
_cell_angle_gamma   90.00000000
_symmetry_Int_Tables_number   1
_chemical_formula_structural   Na3NiBPO7
_chemical_formula_sum   'Na6 Ni2 B2 P2 O14'
_cell_volume   309.63254300
_cell_formula_units_Z   2
loop_
 _symmetry_equiv_pos_site_id
 _symmetry_equiv_pos_as_xyz
  1  'x, y, z'
loop_
 _atom_site_type_symbol
 _atom_site_label
 _atom_site_symmetry_multiplicity
 _atom_site_fract_x
 _atom_site_fract_y
 _atom_site_fract_z
 _atom_site_occupancy
  Na  Na0  1  0.75000000  0.23510000  0.91580400  1
  Na  Na1  1  0.99303000  0.74687100  0.73194700  1
  Na  Na2  1  0.50697000  0.74687100  0.73194700  1
  Na  Na3  1  0.49303000  0.25312900  0.26805300  1
  Na  Na4  1  0.00697000  0.25312900  0.26805300  1
  Na  Na5  1  0.25000000  0.76490000  0.08419600  1
  Ni  Ni6  1  0.25000000  0.21803200  0.65709600  1
  Ni  Ni7  1  0.75000000  0.78196800  0.34290400  1
  B  B8  1  0.25000000  0.26722000  0.93084300  1
  B  B9  1  0.75000000  0.73278000  0.06915700  1
  P  P10  1  0.75000000  0.28257500  0.58107900  1
  P  P11  1  0.25000000  0.71742500  0.41892100  1
  O  O12  1  0.75000000  0.70616600  0.91939500  1
  O  O13  1  0.25000000  0.03127400  0.86018500  1
  O  O14  1  0.25000000  0.47200100  0.82566900  1
  O  O15  1  0.93401400  0.21923800  0.68014900  1
  O  O16  1  0.56598600  0.21923800  0.68014900  1
  O  O17  1  0.75000000  0.58057600  0.53927100  1
  O  O18  1  0.25000000  0.86831200  0.56645000  1
  O  O19  1  0.75000000  0.13168800  0.43355000  1
  O  O20  1  0.25000000  0.41942400  0.46072900  1
  O  O21  1  0.43401400  0.78076200  0.31985100  1
  O  O22  1  0.06598600  0.78076200  0.31985100  1
  O  O23  1  0.75000000  0.52799900  0.17433100  1
  O  O24  1  0.75000000  0.96872600  0.13981500  1
  O  O25  1  0.25000000  0.29383400  0.08060500  1
