# generated using pymatgen
data_Co2(SO4)3
_symmetry_space_group_name_H-M   'P 1'
_cell_length_a   8.45040400
_cell_length_b   8.53711200
_cell_length_c   11.83307600
_cell_angle_alpha   90.00000000
_cell_angle_beta   90.00000000
_cell_angle_gamma   90.00000000
_symmetry_Int_Tables_number   1
_chemical_formula_structural   Co2(SO4)3
_chemical_formula_sum   'Co8 S12 O48'
_cell_volume   853.66230593
_cell_formula_units_Z   4
loop_
 _symmetry_equiv_pos_site_id
 _symmetry_equiv_pos_as_xyz
  1  'x, y, z'
loop_
 _atom_site_type_symbol
 _atom_site_label
 _atom_site_symmetry_multiplicity
 _atom_site_fract_x
 _atom_site_fract_y
 _atom_site_fract_z
 _atom_site_occupancy
  Co  Co0  1  0.96891700  0.25036900  0.12186400  1
  Co  Co1  1  0.46891700  0.74963100  0.12186400  1
  Co  Co2  1  0.96891700  0.75036900  0.37813600  1
  Co  Co3  1  0.46891700  0.24963100  0.37813600  1
  Co  Co4  1  0.03108300  0.24963100  0.62186400  1
  Co  Co5  1  0.53108300  0.75036900  0.62186400  1
  Co  Co6  1  0.53108300  0.25036900  0.87813600  1
  Co  Co7  1  0.03108300  0.74963100  0.87813600  1
  S  S8  1  0.25000000  0.46115200  0.00000000  1
  S  S9  1  0.75000000  0.53884800  0.00000000  1
  S  S10  1  0.60575600  0.10274000  0.14547600  1
  S  S11  1  0.10575600  0.89726000  0.14547600  1
  S  S12  1  0.10575600  0.39726000  0.35452400  1
  S  S13  1  0.60575600  0.60274000  0.35452400  1
  S  S14  1  0.75000000  0.03884800  0.50000000  1
  S  S15  1  0.25000000  0.96115200  0.50000000  1
  S  S16  1  0.39424400  0.39726000  0.64547600  1
  S  S17  1  0.89424400  0.60274000  0.64547600  1
  S  S18  1  0.89424400  0.10274000  0.85452400  1
  S  S19  1  0.39424400  0.89726000  0.85452400  1
  O  O20  1  0.56940700  0.14086100  0.02738100  1
  O  O21  1  0.06940700  0.85913900  0.02738100  1
  O  O22  1  0.36523100  0.55880100  0.06256600  1
  O  O23  1  0.86523100  0.44119900  0.06256600  1
  O  O24  1  0.16966500  0.36150100  0.08406900  1
  O  O25  1  0.66966500  0.63849900  0.08406900  1
  O  O26  1  0.10424300  0.07161200  0.16074200  1
  O  O27  1  0.60424300  0.92838800  0.16074200  1
  O  O28  1  0.76339800  0.15937800  0.18010200  1
  O  O29  1  0.26339800  0.84062200  0.18010200  1
  O  O30  1  0.98128200  0.82900500  0.21947000  1
  O  O31  1  0.48128200  0.17099500  0.21947000  1
  O  O32  1  0.98128200  0.32900500  0.28053000  1
  O  O33  1  0.48128200  0.67099500  0.28053000  1
  O  O34  1  0.76339800  0.65937800  0.31989800  1
  O  O35  1  0.26339800  0.34062200  0.31989800  1
  O  O36  1  0.60424300  0.42838800  0.33925800  1
  O  O37  1  0.10424300  0.57161200  0.33925800  1
  O  O38  1  0.66966500  0.13849900  0.41593100  1
  O  O39  1  0.16966500  0.86150100  0.41593100  1
  O  O40  1  0.36523100  0.05880100  0.43743400  1
  O  O41  1  0.86523100  0.94119900  0.43743400  1
  O  O42  1  0.56940700  0.64086100  0.47261900  1
  O  O43  1  0.06940700  0.35913900  0.47261900  1
  O  O44  1  0.43059300  0.35913900  0.52738100  1
  O  O45  1  0.93059300  0.64086100  0.52738100  1
  O  O46  1  0.13476900  0.05880100  0.56256600  1
  O  O47  1  0.63476900  0.94119900  0.56256600  1
  O  O48  1  0.83033500  0.13849900  0.58406900  1
  O  O49  1  0.33033500  0.86150100  0.58406900  1
  O  O50  1  0.89575700  0.42838800  0.66074200  1
  O  O51  1  0.39575700  0.57161200  0.66074200  1
  O  O52  1  0.23660200  0.34062200  0.68010200  1
  O  O53  1  0.73660200  0.65937800  0.68010200  1
  O  O54  1  0.51871800  0.32900500  0.71947000  1
  O  O55  1  0.01871800  0.67099500  0.71947000  1
  O  O56  1  0.01871800  0.17099500  0.78053000  1
  O  O57  1  0.51871800  0.82900500  0.78053000  1
  O  O58  1  0.73660200  0.15937800  0.81989800  1
  O  O59  1  0.23660200  0.84062200  0.81989800  1
  O  O60  1  0.39575700  0.07161200  0.83925800  1
  O  O61  1  0.89575700  0.92838800  0.83925800  1
  O  O62  1  0.33033500  0.36150100  0.91593100  1
  O  O63  1  0.83033500  0.63849900  0.91593100  1
  O  O64  1  0.63476900  0.44119900  0.93743400  1
  O  O65  1  0.13476900  0.55880100  0.93743400  1
  O  O66  1  0.93059300  0.14086100  0.97261900  1
  O  O67  1  0.43059300  0.85913900  0.97261900  1
