# generated using pymatgen
data_Sr2CaI6
_symmetry_space_group_name_H-M   'P 1'
_cell_length_a   12.69599714
_cell_length_b   12.69599714
_cell_length_c   8.03297500
_cell_angle_alpha   90.00000000
_cell_angle_beta   90.00000000
_cell_angle_gamma   142.96805742
_symmetry_Int_Tables_number   1
_chemical_formula_structural   Sr2CaI6
_chemical_formula_sum   'Sr4 Ca2 I12'
_cell_volume   779.81967960
_cell_formula_units_Z   2
loop_
 _symmetry_equiv_pos_site_id
 _symmetry_equiv_pos_as_xyz
  1  'x, y, z'
loop_
 _atom_site_type_symbol
 _atom_site_label
 _atom_site_symmetry_multiplicity
 _atom_site_fract_x
 _atom_site_fract_y
 _atom_site_fract_z
 _atom_site_occupancy
  Sr  Sr0  1  0.33321400  0.66678600  0.50000000  1
  Sr  Sr1  1  0.16678600  0.83321400  0.00000000  1
  Sr  Sr2  1  0.66678600  0.33321400  0.50000000  1
  Sr  Sr3  1  0.83321400  0.16678600  0.00000000  1
  Ca  Ca4  1  0.00000000  0.00000000  0.50000000  1
  Ca  Ca5  1  0.50000000  0.50000000  0.00000000  1
  I  I6  1  0.71183100  0.88325900  0.29429300  1
  I  I7  1  0.51872000  0.01872000  0.75000000  1
  I  I8  1  0.61674100  0.78816900  0.79429300  1
  I  I9  1  0.21183100  0.38325900  0.20570700  1
  I  I10  1  0.88325900  0.71183100  0.29429300  1
  I  I11  1  0.98128000  0.48128000  0.25000000  1
  I  I12  1  0.01872000  0.51872000  0.75000000  1
  I  I13  1  0.78816900  0.61674100  0.79429300  1
  I  I14  1  0.11674100  0.28816900  0.70570700  1
  I  I15  1  0.38325900  0.21183100  0.20570700  1
  I  I16  1  0.48128000  0.98128000  0.25000000  1
  I  I17  1  0.28816900  0.11674100  0.70570700  1
