# generated using pymatgen
data_Ba4Sn3O10
_symmetry_space_group_name_H-M   'P 1'
_cell_length_a   15.42004479
_cell_length_b   15.42004479
_cell_length_c   5.93575700
_cell_angle_alpha   90.00000000
_cell_angle_beta   90.00000000
_cell_angle_gamma   157.74164210
_symmetry_Int_Tables_number   1
_chemical_formula_structural   Ba4Sn3O10
_chemical_formula_sum   'Ba8 Sn6 O20'
_cell_volume   534.61184761
_cell_formula_units_Z   2
loop_
 _symmetry_equiv_pos_site_id
 _symmetry_equiv_pos_as_xyz
  1  'x, y, z'
loop_
 _atom_site_type_symbol
 _atom_site_label
 _atom_site_symmetry_multiplicity
 _atom_site_fract_x
 _atom_site_fract_y
 _atom_site_fract_z
 _atom_site_occupancy
  Ba  Ba0  1  0.93066800  0.06933200  0.00000000  1
  Ba  Ba1  1  0.20320800  0.79679200  0.00000000  1
  Ba  Ba2  1  0.79679200  0.20320800  0.00000000  1
  Ba  Ba3  1  0.06933200  0.93066800  0.00000000  1
  Ba  Ba4  1  0.43066800  0.56933200  0.50000000  1
  Ba  Ba5  1  0.29679200  0.70320800  0.50000000  1
  Ba  Ba6  1  0.70320800  0.29679200  0.50000000  1
  Ba  Ba7  1  0.56933200  0.43066800  0.50000000  1
  Sn  Sn8  1  0.50000000  0.50000000  0.00000000  1
  Sn  Sn9  1  0.36075500  0.63924500  0.00000000  1
  Sn  Sn10  1  0.63924500  0.36075500  0.00000000  1
  Sn  Sn11  1  0.00000000  0.00000000  0.50000000  1
  Sn  Sn12  1  0.13924500  0.86075500  0.50000000  1
  Sn  Sn13  1  0.86075500  0.13924500  0.50000000  1
  O  O14  1  0.43060700  0.56939300  0.00000000  1
  O  O15  1  0.29185100  0.70814900  0.00000000  1
  O  O16  1  0.70814900  0.29185100  0.00000000  1
  O  O17  1  0.56939300  0.43060700  0.00000000  1
  O  O18  1  0.22230000  0.22230000  0.22194500  1
  O  O19  1  0.90156900  0.62459700  0.23668400  1
  O  O20  1  0.62459700  0.90156900  0.23668400  1
  O  O21  1  0.12459700  0.40156900  0.26331600  1
  O  O22  1  0.40156900  0.12459700  0.26331600  1
  O  O23  1  0.72230000  0.72230000  0.27805500  1
  O  O24  1  0.93060700  0.06939300  0.50000000  1
  O  O25  1  0.20814900  0.79185100  0.50000000  1
  O  O26  1  0.79185100  0.20814900  0.50000000  1
  O  O27  1  0.06939300  0.93060700  0.50000000  1
  O  O28  1  0.27770000  0.27770000  0.72194500  1
  O  O29  1  0.87540300  0.59843100  0.73668400  1
  O  O30  1  0.59843100  0.87540300  0.73668400  1
  O  O31  1  0.09843100  0.37540300  0.76331600  1
  O  O32  1  0.37540300  0.09843100  0.76331600  1
  O  O33  1  0.77770000  0.77770000  0.77805500  1
