# generated using pymatgen
data_Li8TiMn3(PO4)6
_symmetry_space_group_name_H-M   'P 1'
_cell_length_a   9.34681356
_cell_length_b   8.43767042
_cell_length_c   8.48973419
_cell_angle_alpha   60.68861752
_cell_angle_beta   63.18558261
_cell_angle_gamma   90.30083885
_symmetry_Int_Tables_number   1
_chemical_formula_structural   Li8TiMn3(PO4)6
_chemical_formula_sum   'Li8 Ti1 Mn3 P6 O24'
_cell_volume   498.57353574
_cell_formula_units_Z   1
loop_
 _symmetry_equiv_pos_site_id
 _symmetry_equiv_pos_as_xyz
  1  'x, y, z'
loop_
 _atom_site_type_symbol
 _atom_site_label
 _atom_site_symmetry_multiplicity
 _atom_site_fract_x
 _atom_site_fract_y
 _atom_site_fract_z
 _atom_site_occupancy
  Li  Li0  1  0.86348500  0.26401600  0.80930100  1
  Li  Li1  1  0.90102800  0.93842900  0.36881300  1
  Li  Li2  1  0.85416000  0.66256800  0.06891000  1
  Li  Li3  1  0.59377900  0.79888400  0.66725300  1
  Li  Li4  1  0.41448000  0.19901600  0.33025400  1
  Li  Li5  1  0.14685000  0.34471500  0.92197300  1
  Li  Li6  1  0.09510500  0.05672200  0.63739600  1
  Li  Li7  1  0.13681800  0.73576300  0.20030100  1
  Ti  Ti8  1  0.03431400  0.35346800  0.30672800  1
  Mn  Mn9  1  0.96865300  0.64956100  0.68899200  1
  Mn  Mn10  1  0.43891000  0.15008800  0.71093700  1
  Mn  Mn11  1  0.56234700  0.84984800  0.28577000  1
  P  P12  1  0.75215100  0.95541800  0.77957100  1
  P  P13  1  0.75080300  0.53956800  0.50987500  1
  P  P14  1  0.75961700  0.25243100  0.19849200  1
  P  P15  1  0.23871900  0.74868600  0.81358600  1
  P  P16  1  0.24735500  0.44577500  0.49510800  1
  P  P17  1  0.24796900  0.05881900  0.20523700  1
  O  O18  1  0.89354900  0.15865000  0.62745100  1
  O  O19  1  0.81155400  0.49153400  0.66455800  1
  O  O20  1  0.81005000  0.84300500  0.67240400  1
  O  O21  1  0.89919500  0.53810500  0.31176000  1
  O  O22  1  0.89961900  0.21092400  0.26423000  1
  O  O23  1  0.73909600  0.74791000  0.41602200  1
  O  O24  1  0.58392400  0.97543800  0.80301500  1
  O  O25  1  0.59024900  0.40250000  0.60150500  1
  O  O26  1  0.81615300  0.46624400  0.02976800  1
  O  O27  1  0.75934100  0.13005700  0.11051500  1
  O  O28  1  0.58887800  0.19180700  0.39349800  1
  O  O29  1  0.75153500  0.86273400  0.98816500  1
  O  O30  1  0.26798800  0.16599600  0.98600000  1
  O  O31  1  0.40621400  0.77864500  0.63131900  1
  O  O32  1  0.25422000  0.86296600  0.90362700  1
  O  O33  1  0.16790400  0.52733200  0.99909900  1
  O  O34  1  0.40398300  0.60519200  0.37417000  1
  O  O35  1  0.40870900  0.04046000  0.21075100  1
  O  O36  1  0.27631100  0.24697600  0.56072000  1
  O  O37  1  0.10248900  0.79720500  0.75383800  1
  O  O38  1  0.10406200  0.42841800  0.69721300  1
  O  O39  1  0.17517400  0.17574500  0.31188200  1
  O  O40  1  0.17185400  0.48430200  0.34797000  1
  O  O41  1  0.11140700  0.86408000  0.34202100  1
