# generated using pymatgen
data_Sb2(SO4)3
_symmetry_space_group_name_H-M   'P 1'
_cell_length_a   9.30824409
_cell_length_b   9.30824409
_cell_length_c   9.30824449
_cell_angle_alpha   59.96523982
_cell_angle_beta   59.96523982
_cell_angle_gamma   59.96524614
_symmetry_Int_Tables_number   1
_chemical_formula_structural   Sb2(SO4)3
_chemical_formula_sum   'Sb4 S6 O24'
_cell_volume   569.83071380
_cell_formula_units_Z   2
loop_
 _symmetry_equiv_pos_site_id
 _symmetry_equiv_pos_as_xyz
  1  'x, y, z'
loop_
 _atom_site_type_symbol
 _atom_site_label
 _atom_site_symmetry_multiplicity
 _atom_site_fract_x
 _atom_site_fract_y
 _atom_site_fract_z
 _atom_site_occupancy
  Sb  Sb0  1  0.86129100  0.86129100  0.86129100  1
  Sb  Sb1  1  0.63870900  0.63870900  0.63870900  1
  Sb  Sb2  1  0.13870900  0.13870900  0.13870900  1
  Sb  Sb3  1  0.36129100  0.36129100  0.36129100  1
  S  S4  1  0.25000000  0.54527700  0.95472300  1
  S  S5  1  0.45472300  0.04527700  0.75000000  1
  S  S6  1  0.04527700  0.75000000  0.45472300  1
  S  S7  1  0.95472300  0.25000000  0.54527700  1
  S  S8  1  0.54527700  0.95472300  0.25000000  1
  S  S9  1  0.75000000  0.45472300  0.04527700  1
  O  O10  1  0.39760200  0.55951300  0.78173000  1
  O  O11  1  0.21827000  0.60239800  0.44048700  1
  O  O12  1  0.40509900  0.99214500  0.19132900  1
  O  O13  1  0.50785500  0.09490100  0.30867100  1
  O  O14  1  0.10239800  0.71827000  0.94048700  1
  O  O15  1  0.28173000  0.05951300  0.89760200  1
  O  O16  1  0.44048700  0.21827000  0.60239800  1
  O  O17  1  0.69132900  0.49214500  0.90509900  1
  O  O18  1  0.00785500  0.80867100  0.59490100  1
  O  O19  1  0.80867100  0.59490100  0.00785500  1
  O  O20  1  0.90509900  0.69132900  0.49214500  1
  O  O21  1  0.05951300  0.89760200  0.28173000  1
  O  O22  1  0.94048700  0.10239800  0.71827000  1
  O  O23  1  0.19132900  0.40509900  0.99214500  1
  O  O24  1  0.09490100  0.30867100  0.50785500  1
  O  O25  1  0.30867100  0.50785500  0.09490100  1
  O  O26  1  0.99214500  0.19132900  0.40509900  1
  O  O27  1  0.55951300  0.78173000  0.39760200  1
  O  O28  1  0.71827000  0.94048700  0.10239800  1
  O  O29  1  0.89760200  0.28173000  0.05951300  1
  O  O30  1  0.59490100  0.00785500  0.80867100  1
  O  O31  1  0.49214500  0.90509900  0.69132900  1
  O  O32  1  0.78173000  0.39760200  0.55951300  1
  O  O33  1  0.60239800  0.44048700  0.21827000  1
