# generated using pymatgen
data_Mn2(SO4)3
_symmetry_space_group_name_H-M   'P 1'
_cell_length_a   7.77795199
_cell_length_b   7.77795199
_cell_length_c   9.19454436
_cell_angle_alpha   65.41283691
_cell_angle_beta   65.41283691
_cell_angle_gamma   64.63974603
_symmetry_Int_Tables_number   1
_chemical_formula_structural   Mn2(SO4)3
_chemical_formula_sum   'Mn4 S6 O24'
_cell_volume   437.49081743
_cell_formula_units_Z   2
loop_
 _symmetry_equiv_pos_site_id
 _symmetry_equiv_pos_as_xyz
  1  'x, y, z'
loop_
 _atom_site_type_symbol
 _atom_site_label
 _atom_site_symmetry_multiplicity
 _atom_site_fract_x
 _atom_site_fract_y
 _atom_site_fract_z
 _atom_site_occupancy
  Mn  Mn0  1  0.36795700  0.86994200  0.46875700  1
  Mn  Mn1  1  0.86994200  0.36795700  0.96875700  1
  Mn  Mn2  1  0.13005800  0.63204300  0.03124300  1
  Mn  Mn3  1  0.63204300  0.13005800  0.53124300  1
  S  S4  1  0.75584900  0.53748400  0.33167000  1
  S  S5  1  0.53748400  0.75584900  0.83167000  1
  S  S6  1  0.03797100  0.96202900  0.25000000  1
  S  S7  1  0.96202900  0.03797100  0.75000000  1
  S  S8  1  0.46251600  0.24415100  0.16833000  1
  S  S9  1  0.24415100  0.46251600  0.66833000  1
  O  O10  1  0.84157400  0.97298200  0.38285500  1
  O  O11  1  0.97298200  0.84157400  0.88285500  1
  O  O12  1  0.86715800  0.48698000  0.44155400  1
  O  O13  1  0.60305300  0.74076700  0.31330200  1
  O  O14  1  0.88165400  0.54675600  0.15057200  1
  O  O15  1  0.48698000  0.86715800  0.94155400  1
  O  O16  1  0.19270400  0.92343100  0.31999000  1
  O  O17  1  0.64832700  0.39216400  0.37726900  1
  O  O18  1  0.74076700  0.60305300  0.81330200  1
  O  O19  1  0.54675600  0.88165400  0.65057200  1
  O  O20  1  0.92343100  0.19270400  0.81999000  1
  O  O21  1  0.60783600  0.35167300  0.12273100  1
  O  O22  1  0.39216400  0.64832700  0.87726900  1
  O  O23  1  0.07656900  0.80729600  0.18001000  1
  O  O24  1  0.45324400  0.11834600  0.34942800  1
  O  O25  1  0.25923300  0.39694700  0.18669800  1
  O  O26  1  0.35167300  0.60783600  0.62273100  1
  O  O27  1  0.80729600  0.07656900  0.68001000  1
  O  O28  1  0.51302000  0.13284200  0.05844600  1
  O  O29  1  0.11834600  0.45324400  0.84942800  1
  O  O30  1  0.39694700  0.25923300  0.68669800  1
  O  O31  1  0.13284200  0.51302000  0.55844600  1
  O  O32  1  0.02701800  0.15842600  0.11714500  1
  O  O33  1  0.15842600  0.02701800  0.61714500  1
