# generated using pymatgen
data_Mn2AlO4
_symmetry_space_group_name_H-M   'P 1'
_cell_length_a   4.96663400
_cell_length_b   10.41957200
_cell_length_c   6.29404200
_cell_angle_alpha   90.00002010
_cell_angle_beta   89.99937902
_cell_angle_gamma   90.00028140
_symmetry_Int_Tables_number   1
_chemical_formula_structural   Mn2AlO4
_chemical_formula_sum   'Mn8 Al4 O16'
_cell_volume   325.71793583
_cell_formula_units_Z   4
loop_
 _symmetry_equiv_pos_site_id
 _symmetry_equiv_pos_as_xyz
  1  'x, y, z'
loop_
 _atom_site_type_symbol
 _atom_site_label
 _atom_site_symmetry_multiplicity
 _atom_site_fract_x
 _atom_site_fract_y
 _atom_site_fract_z
 _atom_site_occupancy
  Mn  Mn0  1  0.50000200  0.50003300  0.99996900  1
  Mn  Mn1  1  0.50007100  0.49998500  0.49997700  1
  Mn  Mn2  1  0.96965100  0.27777000  0.24995400  1
  Mn  Mn3  1  0.03039400  0.72223000  0.74996200  1
  Mn  Mn4  1  0.00001200  0.00002200  0.00008800  1
  Mn  Mn5  1  0.00009600  0.00001100  0.49996800  1
  Mn  Mn6  1  0.46937700  0.22222800  0.75001600  1
  Mn  Mn7  1  0.53053500  0.77780800  0.25002600  1
  Al  Al8  1  0.42142200  0.08880400  0.24997000  1
  Al  Al9  1  0.92141400  0.41116700  0.75005000  1
  Al  Al10  1  0.07862600  0.58885500  0.25005500  1
  Al  Al11  1  0.57848200  0.91116000  0.74997400  1
  O  O12  1  0.75602200  0.06436100  0.75000700  1
  O  O13  1  0.25614200  0.43565100  0.24997100  1
  O  O14  1  0.74387500  0.56436100  0.74997200  1
  O  O15  1  0.24388100  0.93562000  0.25000900  1
  O  O16  1  0.76924300  0.09348300  0.25000500  1
  O  O17  1  0.26917800  0.40650500  0.74998700  1
  O  O18  1  0.73085600  0.59350700  0.24998700  1
  O  O19  1  0.23077200  0.90650200  0.75000800  1
  O  O20  1  0.24781800  0.14881000  0.02063800  1
  O  O21  1  0.24790400  0.14883600  0.47934200  1
  O  O22  1  0.74798000  0.35111600  0.52065900  1
  O  O23  1  0.74778600  0.35119300  0.97937900  1
  O  O24  1  0.25204800  0.64889300  0.02069300  1
  O  O25  1  0.25223900  0.64881500  0.47935500  1
  O  O26  1  0.75213000  0.85115000  0.52070600  1
  O  O27  1  0.75204500  0.85112400  0.97927400  1
