# generated using pymatgen
data_BaSO3
_symmetry_space_group_name_H-M   'P 1'
_cell_length_a   5.57264300
_cell_length_b   4.71665800
_cell_length_c   6.79782843
_cell_angle_alpha   73.21345750
_cell_angle_beta   90.00000000
_cell_angle_gamma   90.00000000
_symmetry_Int_Tables_number   1
_chemical_formula_structural   BaSO3
_chemical_formula_sum   'Ba2 S2 O6'
_cell_volume   171.06198078
_cell_formula_units_Z   2
loop_
 _symmetry_equiv_pos_site_id
 _symmetry_equiv_pos_as_xyz
  1  'x, y, z'
loop_
 _atom_site_type_symbol
 _atom_site_label
 _atom_site_symmetry_multiplicity
 _atom_site_fract_x
 _atom_site_fract_y
 _atom_site_fract_z
 _atom_site_occupancy
  Ba  Ba0  1  0.25000000  0.65537800  0.72606900  1
  Ba  Ba1  1  0.75000000  0.34462200  0.27393100  1
  S  S2  1  0.25000000  0.92650300  0.17620000  1
  S  S3  1  0.75000000  0.07349700  0.82380000  1
  O  O4  1  0.75000000  0.73130100  0.87085400  1
  O  O5  1  0.46928200  0.82320100  0.31888300  1
  O  O6  1  0.03071800  0.82320100  0.31888300  1
  O  O7  1  0.96928200  0.17679900  0.68111700  1
  O  O8  1  0.53071800  0.17679900  0.68111700  1
  O  O9  1  0.25000000  0.26869900  0.12914600  1
