# generated using pymatgen
data_Sb2(SO4)3
_symmetry_space_group_name_H-M   'P 1'
_cell_length_a   8.36873723
_cell_length_b   8.36873723
_cell_length_c   9.29531936
_cell_angle_alpha   68.60466095
_cell_angle_beta   68.60466095
_cell_angle_gamma   66.05904815
_symmetry_Int_Tables_number   1
_chemical_formula_structural   Sb2(SO4)3
_chemical_formula_sum   'Sb4 S6 O24'
_cell_volume   535.71684817
_cell_formula_units_Z   2
loop_
 _symmetry_equiv_pos_site_id
 _symmetry_equiv_pos_as_xyz
  1  'x, y, z'
loop_
 _atom_site_type_symbol
 _atom_site_label
 _atom_site_symmetry_multiplicity
 _atom_site_fract_x
 _atom_site_fract_y
 _atom_site_fract_z
 _atom_site_occupancy
  Sb  Sb0  1  0.37127200  0.85609900  0.47303800  1
  Sb  Sb1  1  0.85609900  0.37127200  0.97303800  1
  Sb  Sb2  1  0.14390100  0.62872800  0.02696200  1
  Sb  Sb3  1  0.62872800  0.14390100  0.52696200  1
  S  S4  1  0.75465100  0.54401000  0.32655000  1
  S  S5  1  0.54401000  0.75465100  0.82655000  1
  S  S6  1  0.06055600  0.93944400  0.25000000  1
  S  S7  1  0.93944400  0.06055600  0.75000000  1
  S  S8  1  0.45599000  0.24534900  0.17345000  1
  S  S9  1  0.24534900  0.45599000  0.67345000  1
  O  O10  1  0.89067500  0.94857100  0.37601000  1
  O  O11  1  0.94857100  0.89067500  0.87601000  1
  O  O12  1  0.86204300  0.51120700  0.43040600  1
  O  O13  1  0.61067300  0.72908000  0.31116600  1
  O  O14  1  0.86591400  0.54080100  0.15601600  1
  O  O15  1  0.51120700  0.86204300  0.93040600  1
  O  O16  1  0.21527500  0.89387400  0.31989800  1
  O  O17  1  0.65540000  0.40733800  0.37814100  1
  O  O18  1  0.72908000  0.61067300  0.81116600  1
  O  O19  1  0.54080100  0.86591400  0.65601600  1
  O  O20  1  0.89387400  0.21527500  0.81989800  1
  O  O21  1  0.59266200  0.34460000  0.12185900  1
  O  O22  1  0.40733800  0.65540000  0.87814100  1
  O  O23  1  0.10612600  0.78472500  0.18010200  1
  O  O24  1  0.45919900  0.13408600  0.34398400  1
  O  O25  1  0.27092000  0.38932700  0.18883400  1
  O  O26  1  0.34460000  0.59266200  0.62185900  1
  O  O27  1  0.78472500  0.10612600  0.68010200  1
  O  O28  1  0.48879300  0.13795700  0.06959400  1
  O  O29  1  0.13408600  0.45919900  0.84398400  1
  O  O30  1  0.38932700  0.27092000  0.68883400  1
  O  O31  1  0.13795700  0.48879300  0.56959400  1
  O  O32  1  0.05142900  0.10932500  0.12399000  1
  O  O33  1  0.10932500  0.05142900  0.62399000  1
