# generated using pymatgen
data_Ni2(SO4)3
_symmetry_space_group_name_H-M   'P 1'
_cell_length_a   8.93641559
_cell_length_b   8.93641559
_cell_length_c   8.93641620
_cell_angle_alpha   55.39898714
_cell_angle_beta   55.39898714
_cell_angle_gamma   55.39899046
_symmetry_Int_Tables_number   1
_chemical_formula_structural   Ni2(SO4)3
_chemical_formula_sum   'Ni4 S6 O24'
_cell_volume   450.70056902
_cell_formula_units_Z   2
loop_
 _symmetry_equiv_pos_site_id
 _symmetry_equiv_pos_as_xyz
  1  'x, y, z'
loop_
 _atom_site_type_symbol
 _atom_site_label
 _atom_site_symmetry_multiplicity
 _atom_site_fract_x
 _atom_site_fract_y
 _atom_site_fract_z
 _atom_site_occupancy
  Ni  Ni0  1  0.14305400  0.14305400  0.14305400  1
  Ni  Ni1  1  0.34755000  0.34755000  0.34755000  1
  Ni  Ni2  1  0.65245000  0.65245000  0.65245000  1
  Ni  Ni3  1  0.85694600  0.85694600  0.85694600  1
  S  S4  1  0.74596400  0.04297900  0.45889500  1
  S  S5  1  0.95702100  0.54110500  0.25403600  1
  S  S6  1  0.54110500  0.25403600  0.95702100  1
  S  S7  1  0.45889500  0.74596400  0.04297900  1
  S  S8  1  0.04297900  0.45889500  0.74596400  1
  S  S9  1  0.25403600  0.95702100  0.54110500  1
  O  O10  1  0.52766500  0.21571200  0.14976800  1
  O  O11  1  0.21571200  0.14976800  0.52766500  1
  O  O12  1  0.79555000  0.01766600  0.60488800  1
  O  O13  1  0.87107700  0.13120100  0.25936600  1
  O  O14  1  0.14976800  0.52766500  0.21571200  1
  O  O15  1  0.74063400  0.12892300  0.86879900  1
  O  O16  1  0.98233400  0.39511200  0.20445000  1
  O  O17  1  0.53789400  0.16945900  0.49228100  1
  O  O18  1  0.83054100  0.50771900  0.46210600  1
  O  O19  1  0.39511200  0.20445000  0.98233400  1
  O  O20  1  0.86879900  0.74063400  0.12892300  1
  O  O21  1  0.50771900  0.46210600  0.83054100  1
  O  O22  1  0.49228100  0.53789400  0.16945900  1
  O  O23  1  0.13120100  0.25936600  0.87107700  1
  O  O24  1  0.60488800  0.79555000  0.01766600  1
  O  O25  1  0.16945900  0.49228100  0.53789400  1
  O  O26  1  0.46210600  0.83054100  0.50771900  1
  O  O27  1  0.01766600  0.60488800  0.79555000  1
  O  O28  1  0.25936600  0.87107700  0.13120100  1
  O  O29  1  0.85023200  0.47233500  0.78428800  1
  O  O30  1  0.12892300  0.86879900  0.74063400  1
  O  O31  1  0.20445000  0.98233400  0.39511200  1
  O  O32  1  0.78428800  0.85023200  0.47233500  1
  O  O33  1  0.47233500  0.78428800  0.85023200  1
