# generated using pymatgen
data_Li3Cr3GaO8
_symmetry_space_group_name_H-M   'P 1'
_cell_length_a   5.18233770
_cell_length_b   5.91950436
_cell_length_c   10.67121332
_cell_angle_alpha   73.50952544
_cell_angle_beta   75.80844027
_cell_angle_gamma   72.85100641
_symmetry_Int_Tables_number   1
_chemical_formula_structural   Li3Cr3GaO8
_chemical_formula_sum   'Li6 Cr6 Ga2 O16'
_cell_volume   295.24450466
_cell_formula_units_Z   2
loop_
 _symmetry_equiv_pos_site_id
 _symmetry_equiv_pos_as_xyz
  1  'x, y, z'
loop_
 _atom_site_type_symbol
 _atom_site_label
 _atom_site_symmetry_multiplicity
 _atom_site_fract_x
 _atom_site_fract_y
 _atom_site_fract_z
 _atom_site_occupancy
  Li  Li0  1  0.99544100  0.51351500  0.99876300  1
  Li  Li1  1  0.00337900  0.12520400  0.25316400  1
  Li  Li2  1  0.99771300  0.25279600  0.49818400  1
  Li  Li3  1  0.00261100  0.37199000  0.75090200  1
  Li  Li4  1  0.00001000  0.98944100  0.99680400  1
  Li  Li5  1  0.99840200  0.74922700  0.49877900  1
  Cr  Cr6  1  0.49080500  0.31642100  0.12562000  1
  Cr  Cr7  1  0.49456500  0.81086200  0.12722700  1
  Cr  Cr8  1  0.50029200  0.06211100  0.62568000  1
  Cr  Cr9  1  0.51062100  0.18376600  0.87453400  1
  Cr  Cr10  1  0.51380400  0.93228000  0.37414400  1
  Cr  Cr11  1  0.48554700  0.56692300  0.62728200  1
  Ga  Ga12  1  0.49822500  0.43902700  0.37425000  1
  Ga  Ga13  1  0.50700900  0.69382600  0.87094200  1
  O  O14  1  0.27633000  0.15645000  0.06186300  1
  O  O15  1  0.28375400  0.64436400  0.05697300  1
  O  O16  1  0.28663500  0.26683400  0.30964700  1
  O  O17  1  0.28773500  0.02990800  0.81270800  1
  O  O18  1  0.28754000  0.77731300  0.31459300  1
  O  O19  1  0.27012300  0.40313500  0.56138900  1
  O  O20  1  0.28699300  0.52067100  0.80746500  1
  O  O21  1  0.28865000  0.89374700  0.55901600  1
  O  O22  1  0.72931700  0.10037100  0.43914100  1
  O  O23  1  0.70985000  0.46536000  0.18647200  1
  O  O24  1  0.70953400  0.99346100  0.18384800  1
  O  O25  1  0.71118900  0.24319500  0.68385100  1
  O  O26  1  0.71477200  0.58912200  0.45141500  1
  O  O27  1  0.72493900  0.34795500  0.94308700  1
  O  O28  1  0.71339500  0.71608800  0.68652500  1
  O  O29  1  0.72079800  0.84448100  0.94585000  1
