# generated using pymatgen
data_Ba3Y
_symmetry_space_group_name_H-M   'P 1'
_cell_length_a   8.44421774
_cell_length_b   8.44421774
_cell_length_c   6.73617200
_cell_angle_alpha   90.00000000
_cell_angle_beta   90.00000000
_cell_angle_gamma   119.99999794
_symmetry_Int_Tables_number   1
_chemical_formula_structural   Ba3Y
_chemical_formula_sum   'Ba6 Y2'
_cell_volume   415.97061760
_cell_formula_units_Z   2
loop_
 _symmetry_equiv_pos_site_id
 _symmetry_equiv_pos_as_xyz
  1  'x, y, z'
loop_
 _atom_site_type_symbol
 _atom_site_label
 _atom_site_symmetry_multiplicity
 _atom_site_fract_x
 _atom_site_fract_y
 _atom_site_fract_z
 _atom_site_occupancy
  Ba  Ba0  1  0.17211400  0.34422900  0.25000000  1
  Ba  Ba1  1  0.65577100  0.82788600  0.25000000  1
  Ba  Ba2  1  0.17211400  0.82788600  0.25000000  1
  Ba  Ba3  1  0.82788600  0.65577100  0.75000000  1
  Ba  Ba4  1  0.34422900  0.17211400  0.75000000  1
  Ba  Ba5  1  0.82788600  0.17211400  0.75000000  1
  Y  Y6  1  0.33333300  0.66666700  0.75000000  1
  Y  Y7  1  0.66666700  0.33333300  0.25000000  1
