# generated using pymatgen
data_Ba3Te
_symmetry_space_group_name_H-M   'P 1'
_cell_length_a   7.69843192
_cell_length_b   7.69843192
_cell_length_c   7.69843192
_cell_angle_alpha   139.29155951
_cell_angle_beta   139.29155951
_cell_angle_gamma   58.93056113
_symmetry_Int_Tables_number   1
_chemical_formula_structural   Ba3Te
_chemical_formula_sum   'Ba3 Te1'
_cell_volume   192.23349914
_cell_formula_units_Z   1
loop_
 _symmetry_equiv_pos_site_id
 _symmetry_equiv_pos_as_xyz
  1  'x, y, z'
loop_
 _atom_site_type_symbol
 _atom_site_label
 _atom_site_symmetry_multiplicity
 _atom_site_fract_x
 _atom_site_fract_y
 _atom_site_fract_z
 _atom_site_occupancy
  Ba  Ba0  1  0.75000000  0.25000000  0.50000000  1
  Ba  Ba1  1  0.25000000  0.75000000  0.50000000  1
  Ba  Ba2  1  0.50000000  0.50000000  0.00000000  1
  Te  Te3  1  0.00000000  0.00000000  0.00000000  1
