# generated using pymatgen
data_Y2(SeO4)3
_symmetry_space_group_name_H-M   'P 1'
_cell_length_a   6.83575531
_cell_length_b   6.83575531
_cell_length_c   11.33435204
_cell_angle_alpha   80.70084804
_cell_angle_beta   80.70084804
_cell_angle_gamma   117.17467000
_symmetry_Int_Tables_number   1
_chemical_formula_structural   Y2(SeO4)3
_chemical_formula_sum   'Y4 Se6 O24'
_cell_volume   447.94900553
_cell_formula_units_Z   2
loop_
 _symmetry_equiv_pos_site_id
 _symmetry_equiv_pos_as_xyz
  1  'x, y, z'
loop_
 _atom_site_type_symbol
 _atom_site_label
 _atom_site_symmetry_multiplicity
 _atom_site_fract_x
 _atom_site_fract_y
 _atom_site_fract_z
 _atom_site_occupancy
  Y  Y0  1  0.70058300  0.95031700  0.59408500  1
  Y  Y1  1  0.95031700  0.70058300  0.09408500  1
  Y  Y2  1  0.04968300  0.29941700  0.90591500  1
  Y  Y3  1  0.29941700  0.04968300  0.40591500  1
  Se  Se4  1  0.54838400  0.78680100  0.92214200  1
  Se  Se5  1  0.78680100  0.54838400  0.42214200  1
  Se  Se6  1  0.13209800  0.86790200  0.75000000  1
  Se  Se7  1  0.86790200  0.13209800  0.25000000  1
  Se  Se8  1  0.21319900  0.45161600  0.57785800  1
  Se  Se9  1  0.45161600  0.21319900  0.07785800  1
  O  O10  1  0.62340800  0.73182800  0.78866000  1
  O  O11  1  0.41512800  0.00058100  0.71129300  1
  O  O12  1  0.04525200  0.94140700  0.87680100  1
  O  O13  1  0.69103000  0.62300400  0.54088400  1
  O  O14  1  0.25696000  0.65565200  0.95638500  1
  O  O15  1  0.92853000  0.31887500  0.60881400  1
  O  O16  1  0.73182800  0.62340800  0.28866000  1
  O  O17  1  0.68112500  0.07147000  0.89118600  1
  O  O18  1  0.34434800  0.74304000  0.54361500  1
  O  O19  1  0.37699600  0.30897000  0.95911600  1
  O  O20  1  0.05859300  0.95474800  0.62319900  1
  O  O21  1  0.00058100  0.41512800  0.21129300  1
  O  O22  1  0.99941900  0.58487200  0.78870700  1
  O  O23  1  0.94140700  0.04525200  0.37680100  1
  O  O24  1  0.62300400  0.69103000  0.04088400  1
  O  O25  1  0.65565200  0.25696000  0.45638500  1
  O  O26  1  0.31887500  0.92853000  0.10881400  1
  O  O27  1  0.26817200  0.37659200  0.71134000  1
  O  O28  1  0.07147000  0.68112500  0.39118600  1
  O  O29  1  0.74304000  0.34434800  0.04361500  1
  O  O30  1  0.30897000  0.37699600  0.45911600  1
  O  O31  1  0.95474800  0.05859300  0.12319900  1
  O  O32  1  0.58487200  0.99941900  0.28870700  1
  O  O33  1  0.37659200  0.26817200  0.21134000  1
