# generated using pymatgen
data_Ba2Y5Cl19
_symmetry_space_group_name_H-M   'P 1'
_cell_length_a   7.43742800
_cell_length_b   9.19651600
_cell_length_c   29.75729074
_cell_angle_alpha   84.00386602
_cell_angle_beta   90.00000000
_cell_angle_gamma   90.00000000
_symmetry_Int_Tables_number   1
_chemical_formula_structural   Ba2Y5Cl19
_chemical_formula_sum   'Ba4 Y10 Cl38'
_cell_volume   2024.21631726
_cell_formula_units_Z   2
loop_
 _symmetry_equiv_pos_site_id
 _symmetry_equiv_pos_as_xyz
  1  'x, y, z'
loop_
 _atom_site_type_symbol
 _atom_site_label
 _atom_site_symmetry_multiplicity
 _atom_site_fract_x
 _atom_site_fract_y
 _atom_site_fract_z
 _atom_site_occupancy
  Ba  Ba0  1  0.21437400  0.77214700  0.74282700  1
  Ba  Ba1  1  0.29014900  0.75546400  0.17450800  1
  Ba  Ba2  1  0.79014900  0.24453600  0.82549200  1
  Ba  Ba3  1  0.71437400  0.22785300  0.25717300  1
  Y  Y4  1  0.76249800  0.83460800  0.97009100  1
  Y  Y5  1  0.74342800  0.82303100  0.53909300  1
  Y  Y6  1  0.23494800  0.85311300  0.32650200  1
  Y  Y7  1  0.27058300  0.56790600  0.89591200  1
  Y  Y8  1  0.25012800  0.46036400  0.60351400  1
  Y  Y9  1  0.75012800  0.53963600  0.39648600  1
  Y  Y10  1  0.77058300  0.43209400  0.10408800  1
  Y  Y11  1  0.73494800  0.14688700  0.67349800  1
  Y  Y12  1  0.24342800  0.17696900  0.46090700  1
  Y  Y13  1  0.26249800  0.16539200  0.02990900  1
  Cl  Cl14  1  0.06466400  0.96331400  0.99327700  1
  Cl  Cl15  1  0.43417200  0.03047100  0.70704600  1
  Cl  Cl16  1  0.76005100  0.93925700  0.61693800  1
  Cl  Cl17  1  0.89561300  0.97755600  0.74147500  1
  Cl  Cl18  1  0.02622400  0.97137500  0.50217500  1
  Cl  Cl19  1  0.45380700  0.69761500  0.95655800  1
  Cl  Cl20  1  0.24426900  0.02116500  0.10992200  1
  Cl  Cl21  1  0.95540400  0.63026600  0.93409700  1
  Cl  Cl22  1  0.26940500  0.80971900  0.84014700  1
  Cl  Cl23  1  0.44593700  0.69322400  0.57365800  1
  Cl  Cl24  1  0.22998300  0.64765100  0.27172900  1
  Cl  Cl25  1  0.55095400  0.76684300  0.36304300  1
  Cl  Cl26  1  0.26947400  0.52777600  0.68643400  1
  Cl  Cl27  1  0.72173200  0.64054500  0.47703400  1
  Cl  Cl28  1  0.96133900  0.62470200  0.58343000  1
  Cl  Cl29  1  0.05802500  0.68767500  0.38961200  1
  Cl  Cl30  1  0.61363400  0.56016900  0.17163400  1
  Cl  Cl31  1  0.25949600  0.31362600  0.94791100  1
  Cl  Cl32  1  0.57182800  0.47933600  0.86107300  1
  Cl  Cl33  1  0.07182800  0.52066400  0.13892700  1
  Cl  Cl34  1  0.75949600  0.68637400  0.05208900  1
  Cl  Cl35  1  0.11363400  0.43983100  0.82836600  1
  Cl  Cl36  1  0.55802500  0.31232500  0.61038800  1
  Cl  Cl37  1  0.46133900  0.37529800  0.41657000  1
  Cl  Cl38  1  0.22173200  0.35945500  0.52296600  1
  Cl  Cl39  1  0.76947400  0.47222400  0.31356600  1
  Cl  Cl40  1  0.05095400  0.23315700  0.63695700  1
  Cl  Cl41  1  0.72998300  0.35234900  0.72827100  1
  Cl  Cl42  1  0.94593700  0.30677600  0.42634200  1
  Cl  Cl43  1  0.76940500  0.19028100  0.15985300  1
  Cl  Cl44  1  0.45540400  0.36973400  0.06590300  1
  Cl  Cl45  1  0.74426900  0.97883500  0.89007800  1
  Cl  Cl46  1  0.95380700  0.30238500  0.04344200  1
  Cl  Cl47  1  0.52622400  0.02862500  0.49782500  1
  Cl  Cl48  1  0.39561300  0.02244400  0.25852500  1
  Cl  Cl49  1  0.26005100  0.06074300  0.38306200  1
  Cl  Cl50  1  0.93417200  0.96952900  0.29295400  1
  Cl  Cl51  1  0.56466400  0.03668600  0.00672300  1
