# generated using pymatgen
data_BaYCl5
_symmetry_space_group_name_H-M   'P 1'
_cell_length_a   24.05442600
_cell_length_b   7.21699300
_cell_length_c   11.94106822
_cell_angle_alpha   55.90565804
_cell_angle_beta   90.00000000
_cell_angle_gamma   90.00000000
_symmetry_Int_Tables_number   1
_chemical_formula_structural   BaYCl5
_chemical_formula_sum   'Ba8 Y8 Cl40'
_cell_volume   1716.66470068
_cell_formula_units_Z   8
loop_
 _symmetry_equiv_pos_site_id
 _symmetry_equiv_pos_as_xyz
  1  'x, y, z'
loop_
 _atom_site_type_symbol
 _atom_site_label
 _atom_site_symmetry_multiplicity
 _atom_site_fract_x
 _atom_site_fract_y
 _atom_site_fract_z
 _atom_site_occupancy
  Ba  Ba0  1  0.54269700  0.39506900  0.75619300  1
  Ba  Ba1  1  0.26608600  0.82522000  0.49201300  1
  Ba  Ba2  1  0.04269700  0.60493100  0.74380700  1
  Ba  Ba3  1  0.76608600  0.17478000  0.00798700  1
  Ba  Ba4  1  0.23391400  0.82522000  0.99201300  1
  Ba  Ba5  1  0.95730300  0.39506900  0.25619300  1
  Ba  Ba6  1  0.73391400  0.17478000  0.50798700  1
  Ba  Ba7  1  0.45730300  0.60493100  0.24380700  1
  Y  Y8  1  0.37041300  0.29958500  0.96408200  1
  Y  Y9  1  0.87041300  0.70041500  0.53591800  1
  Y  Y10  1  0.10696200  0.09494700  0.13281200  1
  Y  Y11  1  0.60696200  0.90505300  0.36718800  1
  Y  Y12  1  0.39303800  0.09494700  0.63281200  1
  Y  Y13  1  0.89303800  0.90505300  0.86718800  1
  Y  Y14  1  0.12958700  0.29958500  0.46408200  1
  Y  Y15  1  0.62958700  0.70041500  0.03591800  1
  Cl  Cl16  1  0.11996700  0.12877200  0.90427700  1
  Cl  Cl17  1  0.36388000  0.51407900  0.50552300  1
  Cl  Cl18  1  0.16123400  0.51213700  0.56992000  1
  Cl  Cl19  1  0.92070700  0.34348200  0.75660900  1
  Cl  Cl20  1  0.58898700  0.92703000  0.14075800  1
  Cl  Cl21  1  0.34563100  0.89155100  0.16546200  1
  Cl  Cl22  1  0.27626800  0.33804400  0.83830000  1
  Cl  Cl23  1  0.20996000  0.95063100  0.20707100  1
  Cl  Cl24  1  0.97232500  0.77866000  0.44368100  1
  Cl  Cl25  1  0.50369300  0.77813800  0.43504300  1
  Cl  Cl26  1  0.77626800  0.66195600  0.66170000  1
  Cl  Cl27  1  0.00369300  0.22186200  0.06495700  1
  Cl  Cl28  1  0.47232500  0.22134000  0.05631900  1
  Cl  Cl29  1  0.70996000  0.04936900  0.29292900  1
  Cl  Cl30  1  0.42070700  0.65651800  0.74339100  1
  Cl  Cl31  1  0.66123400  0.48786300  0.93008000  1
  Cl  Cl32  1  0.84563100  0.10844900  0.33453800  1
  Cl  Cl33  1  0.08898700  0.07297000  0.35924200  1
  Cl  Cl34  1  0.86388000  0.48592100  0.99447700  1
  Cl  Cl35  1  0.61996700  0.87122800  0.59572300  1
  Cl  Cl36  1  0.38003300  0.12877200  0.40427700  1
  Cl  Cl37  1  0.13612000  0.51407900  0.00552300  1
  Cl  Cl38  1  0.91101300  0.92703000  0.64075800  1
  Cl  Cl39  1  0.15436900  0.89155100  0.66546200  1
  Cl  Cl40  1  0.33876600  0.51213700  0.06992000  1
  Cl  Cl41  1  0.57929300  0.34348200  0.25660900  1
  Cl  Cl42  1  0.29004000  0.95063100  0.70707100  1
  Cl  Cl43  1  0.52767500  0.77866000  0.94368100  1
  Cl  Cl44  1  0.99630700  0.77813800  0.93504300  1
  Cl  Cl45  1  0.22373200  0.33804400  0.33830000  1
  Cl  Cl46  1  0.49630700  0.22186200  0.56495700  1
  Cl  Cl47  1  0.02767500  0.22134000  0.55631900  1
  Cl  Cl48  1  0.79004000  0.04936900  0.79292900  1
  Cl  Cl49  1  0.72373200  0.66195600  0.16170000  1
  Cl  Cl50  1  0.65436900  0.10844900  0.83453800  1
  Cl  Cl51  1  0.41101300  0.07297000  0.85924200  1
  Cl  Cl52  1  0.07929300  0.65651800  0.24339100  1
  Cl  Cl53  1  0.83876600  0.48786300  0.43008000  1
  Cl  Cl54  1  0.63612000  0.48592100  0.49447700  1
  Cl  Cl55  1  0.88003300  0.87122800  0.09572300  1
