# generated using pymatgen
data_Bi5BO10
_symmetry_space_group_name_H-M   'P 1'
_cell_length_a   22.43860200
_cell_length_b   5.65100500
_cell_length_c   8.47987361
_cell_angle_alpha   73.17457646
_cell_angle_beta   90.00000000
_cell_angle_gamma   90.00000000
_symmetry_Int_Tables_number   1
_chemical_formula_structural   Bi5BO10
_chemical_formula_sum   'Bi20 B4 O40'
_cell_volume   1029.22314096
_cell_formula_units_Z   4
loop_
 _symmetry_equiv_pos_site_id
 _symmetry_equiv_pos_as_xyz
  1  'x, y, z'
loop_
 _atom_site_type_symbol
 _atom_site_label
 _atom_site_symmetry_multiplicity
 _atom_site_fract_x
 _atom_site_fract_y
 _atom_site_fract_z
 _atom_site_occupancy
  Bi  Bi0  1  0.69592400  0.28098600  0.00453200  1
  Bi  Bi1  1  0.80407600  0.78098600  0.00453200  1
  Bi  Bi2  1  0.05751100  0.41443400  0.71585300  1
  Bi  Bi3  1  0.31454300  0.45367500  0.63878300  1
  Bi  Bi4  1  0.81450000  0.44879100  0.66315500  1
  Bi  Bi5  1  0.55740100  0.48630300  0.64612600  1
  Bi  Bi6  1  0.44248900  0.91443400  0.71585300  1
  Bi  Bi7  1  0.18545700  0.95367500  0.63878300  1
  Bi  Bi8  1  0.68550000  0.94879100  0.66315500  1
  Bi  Bi9  1  0.94259900  0.98630300  0.64612600  1
  Bi  Bi10  1  0.05740100  0.01369700  0.35387400  1
  Bi  Bi11  1  0.31450000  0.05120900  0.33684500  1
  Bi  Bi12  1  0.81454300  0.04632500  0.36121700  1
  Bi  Bi13  1  0.55751100  0.08556600  0.28414700  1
  Bi  Bi14  1  0.44259900  0.51369700  0.35387400  1
  Bi  Bi15  1  0.18550000  0.55120900  0.33684500  1
  Bi  Bi16  1  0.68545700  0.54632500  0.36121700  1
  Bi  Bi17  1  0.94248900  0.58556600  0.28414700  1
  Bi  Bi18  1  0.19592400  0.21901400  0.99546800  1
  Bi  Bi19  1  0.30407600  0.71901400  0.99546800  1
  B  B20  1  0.92006200  0.29429700  0.99872700  1
  B  B21  1  0.57993800  0.79429700  0.99872700  1
  B  B22  1  0.42006200  0.20570300  0.00127300  1
  B  B23  1  0.07993800  0.70570300  0.00127300  1
  O  O24  1  0.38825300  0.07114600  0.91466700  1
  O  O25  1  0.46945900  0.32851000  0.92225000  1
  O  O26  1  0.11174700  0.57114600  0.91466700  1
  O  O27  1  0.90408600  0.28498900  0.84362700  1
  O  O28  1  0.25605700  0.48843300  0.84665500  1
  O  O29  1  0.03054100  0.82851000  0.92225000  1
  O  O30  1  0.76041900  0.55966700  0.84117000  1
  O  O31  1  0.59591400  0.78498900  0.84362700  1
  O  O32  1  0.24394300  0.98843300  0.84665500  1
  O  O33  1  0.73958100  0.05966700  0.84117000  1
  O  O34  1  0.36139600  0.71350700  0.75088000  1
  O  O35  1  0.13860400  0.21350700  0.75088000  1
  O  O36  1  0.85256600  0.82840600  0.61115900  1
  O  O37  1  0.47619200  0.71753000  0.52377200  1
  O  O38  1  0.10435600  0.71165300  0.53681800  1
  O  O39  1  0.25295600  0.77067400  0.51405000  1
  O  O40  1  0.75295600  0.72932600  0.48595000  1
  O  O41  1  0.60435600  0.78834700  0.46318200  1
  O  O42  1  0.64743400  0.32840600  0.61115900  1
  O  O43  1  0.97619200  0.78247000  0.47622800  1
  O  O44  1  0.02380800  0.21753000  0.52377200  1
  O  O45  1  0.35256600  0.67159400  0.38884100  1
  O  O46  1  0.39564400  0.21165300  0.53681800  1
  O  O47  1  0.24704400  0.27067400  0.51405000  1
  O  O48  1  0.74704400  0.22932600  0.48595000  1
  O  O49  1  0.89564400  0.28834700  0.46318200  1
  O  O50  1  0.52380800  0.28247000  0.47622800  1
  O  O51  1  0.14743400  0.17159400  0.38884100  1
  O  O52  1  0.86139600  0.78649300  0.24912000  1
  O  O53  1  0.63860400  0.28649300  0.24912000  1
  O  O54  1  0.26041900  0.94033300  0.15883000  1
  O  O55  1  0.75605700  0.01156700  0.15334500  1
  O  O56  1  0.40408600  0.21501100  0.15637300  1
  O  O57  1  0.23958100  0.44033300  0.15883000  1
  O  O58  1  0.96945900  0.17149000  0.07775000  1
  O  O59  1  0.74394300  0.51156700  0.15334500  1
  O  O60  1  0.09591400  0.71501100  0.15637300  1
  O  O61  1  0.88825300  0.42885400  0.08533300  1
  O  O62  1  0.53054100  0.67149000  0.07775000  1
  O  O63  1  0.61174700  0.92885400  0.08533300  1
