# generated using pymatgen
data_Sr3TeO6
_symmetry_space_group_name_H-M   'P 1'
_cell_length_a   6.06038112
_cell_length_b   6.06038112
_cell_length_c   6.06038108
_cell_angle_alpha   59.59511291
_cell_angle_beta   59.59511291
_cell_angle_gamma   59.59510587
_symmetry_Int_Tables_number   1
_chemical_formula_structural   Sr3TeO6
_chemical_formula_sum   'Sr3 Te1 O6'
_cell_volume   155.94430453
_cell_formula_units_Z   1
loop_
 _symmetry_equiv_pos_site_id
 _symmetry_equiv_pos_as_xyz
  1  'x, y, z'
loop_
 _atom_site_type_symbol
 _atom_site_label
 _atom_site_symmetry_multiplicity
 _atom_site_fract_x
 _atom_site_fract_y
 _atom_site_fract_z
 _atom_site_occupancy
  Sr  Sr0  1  0.35339800  0.35339800  0.35339800  1
  Sr  Sr1  1  0.61855500  0.61855500  0.61855500  1
  Sr  Sr2  1  0.11830800  0.11830800  0.11830800  1
  Te  Te3  1  0.84748500  0.84748500  0.84748500  1
  O  O4  1  0.15263700  0.61942600  0.98499700  1
  O  O5  1  0.05138200  0.71560400  0.53820700  1
  O  O6  1  0.53820700  0.05138200  0.71560400  1
  O  O7  1  0.61942600  0.98499700  0.15263700  1
  O  O8  1  0.98499700  0.15263700  0.61942600  1
  O  O9  1  0.71560400  0.53820700  0.05138200  1
