# generated using pymatgen
data_Ba3Y2Cl12
_symmetry_space_group_name_H-M   'P 1'
_cell_length_a   12.88034700
_cell_length_b   12.02072400
_cell_length_c   19.33331690
_cell_angle_alpha   57.59236628
_cell_angle_beta   90.00000000
_cell_angle_gamma   90.00000000
_symmetry_Int_Tables_number   1
_chemical_formula_structural   Ba3Y2Cl12
_chemical_formula_sum   'Ba12 Y8 Cl48'
_cell_volume   2527.19635187
_cell_formula_units_Z   4
loop_
 _symmetry_equiv_pos_site_id
 _symmetry_equiv_pos_as_xyz
  1  'x, y, z'
loop_
 _atom_site_type_symbol
 _atom_site_label
 _atom_site_symmetry_multiplicity
 _atom_site_fract_x
 _atom_site_fract_y
 _atom_site_fract_z
 _atom_site_occupancy
  Ba  Ba0  1  0.20519000  0.42932200  0.52336500  1
  Ba  Ba1  1  0.13132700  0.71759200  0.14664900  1
  Ba  Ba2  1  0.34561200  0.96234400  0.89814600  1
  Ba  Ba3  1  0.63132700  0.28240800  0.35335100  1
  Ba  Ba4  1  0.84561200  0.03765600  0.60185400  1
  Ba  Ba5  1  0.70519000  0.57067800  0.97663500  1
  Ba  Ba6  1  0.29481000  0.42932200  0.02336500  1
  Ba  Ba7  1  0.15438800  0.96234400  0.39814600  1
  Ba  Ba8  1  0.36867300  0.71759200  0.64664900  1
  Ba  Ba9  1  0.65438800  0.03765600  0.10185400  1
  Ba  Ba10  1  0.86867300  0.28240800  0.85335100  1
  Ba  Ba11  1  0.79481000  0.57067800  0.47663500  1
  Y  Y12  1  0.48204800  0.63036200  0.13614400  1
  Y  Y13  1  0.98204800  0.36963800  0.36385600  1
  Y  Y14  1  0.53085300  0.11277200  0.64154500  1
  Y  Y15  1  0.03085300  0.88722800  0.85845500  1
  Y  Y16  1  0.96914700  0.11277200  0.14154500  1
  Y  Y17  1  0.46914700  0.88722800  0.35845500  1
  Y  Y18  1  0.01795200  0.63036200  0.63614400  1
  Y  Y19  1  0.51795200  0.36963800  0.86385600  1
  Cl  Cl20  1  0.62706300  0.80957900  0.06993000  1
  Cl  Cl21  1  0.65257600  0.32860700  0.55046000  1
  Cl  Cl22  1  0.80313100  0.50476400  0.34119600  1
  Cl  Cl23  1  0.92685800  0.11022400  0.78779100  1
  Cl  Cl24  1  0.12589000  0.54405300  0.34491300  1
  Cl  Cl25  1  0.35325200  0.83004200  0.09274100  1
  Cl  Cl26  1  0.11475300  0.94752800  0.96496100  1
  Cl  Cl27  1  0.47663500  0.15860600  0.75383000  1
  Cl  Cl28  1  0.19138400  0.02343800  0.76580800  1
  Cl  Cl29  1  0.37160900  0.23971000  0.54296000  1
  Cl  Cl30  1  0.98634300  0.48465100  0.20626800  1
  Cl  Cl31  1  0.46505400  0.67467200  0.97971400  1
  Cl  Cl32  1  0.48634300  0.51534900  0.29373200  1
  Cl  Cl33  1  0.96505400  0.32532800  0.52028600  1
  Cl  Cl34  1  0.87160900  0.76029000  0.95704000  1
  Cl  Cl35  1  0.69138400  0.97656200  0.73419200  1
  Cl  Cl36  1  0.61475300  0.05247200  0.53503900  1
  Cl  Cl37  1  0.85325200  0.16995800  0.40725900  1
  Cl  Cl38  1  0.97663500  0.84139400  0.74617000  1
  Cl  Cl39  1  0.62589000  0.45594700  0.15508700  1
  Cl  Cl40  1  0.30313100  0.49523600  0.15880400  1
  Cl  Cl41  1  0.12706300  0.19042100  0.43007000  1
  Cl  Cl42  1  0.42685800  0.88977600  0.71220900  1
  Cl  Cl43  1  0.15257600  0.67139300  0.94954000  1
  Cl  Cl44  1  0.84742400  0.32860700  0.05046000  1
  Cl  Cl45  1  0.57314200  0.11022400  0.28779100  1
  Cl  Cl46  1  0.87293700  0.80957900  0.56993000  1
  Cl  Cl47  1  0.69686900  0.50476400  0.84119600  1
  Cl  Cl48  1  0.37411000  0.54405300  0.84491300  1
  Cl  Cl49  1  0.02336500  0.15860600  0.25383000  1
  Cl  Cl50  1  0.14674800  0.83004200  0.59274100  1
  Cl  Cl51  1  0.38524700  0.94752800  0.46496100  1
  Cl  Cl52  1  0.30861600  0.02343800  0.26580800  1
  Cl  Cl53  1  0.12839100  0.23971000  0.04296000  1
  Cl  Cl54  1  0.03494600  0.67467200  0.47971400  1
  Cl  Cl55  1  0.51365700  0.48465100  0.70626800  1
  Cl  Cl56  1  0.53494600  0.32532800  0.02028600  1
  Cl  Cl57  1  0.01365700  0.51534900  0.79373200  1
  Cl  Cl58  1  0.62839100  0.76029000  0.45704000  1
  Cl  Cl59  1  0.80861600  0.97656200  0.23419200  1
  Cl  Cl60  1  0.52336500  0.84139400  0.24617000  1
  Cl  Cl61  1  0.88524700  0.05247200  0.03503900  1
  Cl  Cl62  1  0.64674800  0.16995800  0.90725900  1
  Cl  Cl63  1  0.87411000  0.45594700  0.65508700  1
  Cl  Cl64  1  0.07314200  0.88977600  0.21220900  1
  Cl  Cl65  1  0.19686900  0.49523600  0.65880400  1
  Cl  Cl66  1  0.34742400  0.67139300  0.44954000  1
  Cl  Cl67  1  0.37293700  0.19042100  0.93007000  1
