# generated using pymatgen
data_Sr3Ta2O8
_symmetry_space_group_name_H-M   'P 1'
_cell_length_a   6.98823617
_cell_length_b   6.98823617
_cell_length_c   9.43596400
_cell_angle_alpha   72.93312425
_cell_angle_beta   72.93312425
_cell_angle_gamma   82.43549537
_symmetry_Int_Tables_number   1
_chemical_formula_structural   Sr3Ta2O8
_chemical_formula_sum   'Sr6 Ta4 O16'
_cell_volume   420.59521224
_cell_formula_units_Z   2
loop_
 _symmetry_equiv_pos_site_id
 _symmetry_equiv_pos_as_xyz
  1  'x, y, z'
loop_
 _atom_site_type_symbol
 _atom_site_label
 _atom_site_symmetry_multiplicity
 _atom_site_fract_x
 _atom_site_fract_y
 _atom_site_fract_z
 _atom_site_occupancy
  Sr  Sr0  1  0.61456100  0.73707600  0.49680300  1
  Sr  Sr1  1  0.72351400  0.27648600  0.75000000  1
  Sr  Sr2  1  0.26292400  0.38543900  0.00319700  1
  Sr  Sr3  1  0.73707600  0.61456100  0.99680300  1
  Sr  Sr4  1  0.27648600  0.72351400  0.25000000  1
  Sr  Sr5  1  0.38543900  0.26292400  0.50319700  1
  Ta  Ta6  1  0.20905600  0.92936800  0.88034800  1
  Ta  Ta7  1  0.92936800  0.20905600  0.38034800  1
  Ta  Ta8  1  0.07063200  0.79094400  0.61965200  1
  Ta  Ta9  1  0.79094400  0.07063200  0.11965200  1
  O  O10  1  0.06503200  0.70271300  0.85131200  1
  O  O11  1  0.70271300  0.06503200  0.35131200  1
  O  O12  1  0.83878100  0.63377300  0.67952600  1
  O  O13  1  0.39058300  0.72270800  0.96463300  1
  O  O14  1  0.94541000  0.10116600  0.89236700  1
  O  O15  1  0.63377300  0.83878100  0.17952600  1
  O  O16  1  0.72270800  0.39058300  0.46463300  1
  O  O17  1  0.89883400  0.05459000  0.60763300  1
  O  O18  1  0.10116600  0.94541000  0.39236700  1
  O  O19  1  0.27729200  0.60941700  0.53536700  1
  O  O20  1  0.36622700  0.16121900  0.82047400  1
  O  O21  1  0.05459000  0.89883400  0.10763300  1
  O  O22  1  0.60941700  0.27729200  0.03536700  1
  O  O23  1  0.16121900  0.36622700  0.32047400  1
  O  O24  1  0.29728700  0.93496800  0.64868800  1
  O  O25  1  0.93496800  0.29728700  0.14868800  1
