# generated using pymatgen
data_BaY2Cl8
_symmetry_space_group_name_H-M   'P 1'
_cell_length_a   9.90688811
_cell_length_b   9.90688811
_cell_length_c   10.55474425
_cell_angle_alpha   65.39380806
_cell_angle_beta   65.39380806
_cell_angle_gamma   67.92314767
_symmetry_Int_Tables_number   1
_chemical_formula_structural   BaY2Cl8
_chemical_formula_sum   'Ba2 Y4 Cl16'
_cell_volume   830.22726196
_cell_formula_units_Z   2
loop_
 _symmetry_equiv_pos_site_id
 _symmetry_equiv_pos_as_xyz
  1  'x, y, z'
loop_
 _atom_site_type_symbol
 _atom_site_label
 _atom_site_symmetry_multiplicity
 _atom_site_fract_x
 _atom_site_fract_y
 _atom_site_fract_z
 _atom_site_occupancy
  Ba  Ba0  1  0.96908700  0.03091300  0.25000000  1
  Ba  Ba1  1  0.03091300  0.96908700  0.75000000  1
  Y  Y2  1  0.49121900  0.94279500  0.22855800  1
  Y  Y3  1  0.94279500  0.49121900  0.72855800  1
  Y  Y4  1  0.05720500  0.50878100  0.27144200  1
  Y  Y5  1  0.50878100  0.05720500  0.77144200  1
  Cl  Cl6  1  0.60024300  0.66782200  0.32524100  1
  Cl  Cl7  1  0.21208200  0.97981700  0.41257900  1
  Cl  Cl8  1  0.94076000  0.36645600  0.20638200  1
  Cl  Cl9  1  0.32510400  0.98221000  0.05536700  1
  Cl  Cl10  1  0.66782200  0.60024300  0.82524100  1
  Cl  Cl11  1  0.97981700  0.21208200  0.91257900  1
  Cl  Cl12  1  0.36645600  0.94076000  0.70638200  1
  Cl  Cl13  1  0.98221000  0.32510400  0.55536700  1
  Cl  Cl14  1  0.01779000  0.67489600  0.44463300  1
  Cl  Cl15  1  0.63354400  0.05924000  0.29361800  1
  Cl  Cl16  1  0.02018300  0.78791800  0.08742100  1
  Cl  Cl17  1  0.33217800  0.39975700  0.17475900  1
  Cl  Cl18  1  0.67489600  0.01779000  0.94463300  1
  Cl  Cl19  1  0.05924000  0.63354400  0.79361800  1
  Cl  Cl20  1  0.78791800  0.02018300  0.58742100  1
  Cl  Cl21  1  0.39975700  0.33217800  0.67475900  1
