# generated using pymatgen
data_Rb5FeO4
_symmetry_space_group_name_H-M   'P 1'
_cell_length_a   11.98825500
_cell_length_b   12.54154200
_cell_length_c   12.77894200
_cell_angle_alpha   90.00000000
_cell_angle_beta   90.00000000
_cell_angle_gamma   90.00000000
_symmetry_Int_Tables_number   1
_chemical_formula_structural   Rb5FeO4
_chemical_formula_sum   'Rb40 Fe8 O32'
_cell_volume   1921.32931030
_cell_formula_units_Z   8
loop_
 _symmetry_equiv_pos_site_id
 _symmetry_equiv_pos_as_xyz
  1  'x, y, z'
loop_
 _atom_site_type_symbol
 _atom_site_label
 _atom_site_symmetry_multiplicity
 _atom_site_fract_x
 _atom_site_fract_y
 _atom_site_fract_z
 _atom_site_occupancy
  Rb  Rb0  1  0.83892500  0.38316500  0.10813400  1
  Rb  Rb1  1  0.33892500  0.11683500  0.10813400  1
  Rb  Rb2  1  0.16247400  0.89281300  0.10756000  1
  Rb  Rb3  1  0.66247400  0.60718700  0.10756000  1
  Rb  Rb4  1  0.63857600  0.15969700  0.11854000  1
  Rb  Rb5  1  0.13857600  0.34030300  0.11854000  1
  Rb  Rb6  1  0.92582500  0.11145900  0.14502100  1
  Rb  Rb7  1  0.42582500  0.38854100  0.14502100  1
  Rb  Rb8  1  0.59835000  0.87428600  0.15656800  1
  Rb  Rb9  1  0.09835000  0.62571400  0.15656800  1
  Rb  Rb10  1  0.09835000  0.12571400  0.34343200  1
  Rb  Rb11  1  0.59835000  0.37428600  0.34343200  1
  Rb  Rb12  1  0.92582500  0.61145900  0.35497900  1
  Rb  Rb13  1  0.42582500  0.88854100  0.35497900  1
  Rb  Rb14  1  0.63857600  0.65969700  0.38146000  1
  Rb  Rb15  1  0.13857600  0.84030300  0.38146000  1
  Rb  Rb16  1  0.66247400  0.10718700  0.39244000  1
  Rb  Rb17  1  0.16247400  0.39281300  0.39244000  1
  Rb  Rb18  1  0.83892500  0.88316500  0.39186600  1
  Rb  Rb19  1  0.33892500  0.61683500  0.39186600  1
  Rb  Rb20  1  0.66107500  0.38316500  0.60813400  1
  Rb  Rb21  1  0.16107500  0.11683500  0.60813400  1
  Rb  Rb22  1  0.83752600  0.60718700  0.60756000  1
  Rb  Rb23  1  0.33752600  0.89281300  0.60756000  1
  Rb  Rb24  1  0.36142400  0.34030300  0.61854000  1
  Rb  Rb25  1  0.86142400  0.15969700  0.61854000  1
  Rb  Rb26  1  0.57417500  0.11145900  0.64502100  1
  Rb  Rb27  1  0.07417500  0.38854100  0.64502100  1
  Rb  Rb28  1  0.90165000  0.87428600  0.65656800  1
  Rb  Rb29  1  0.40165000  0.62571400  0.65656800  1
  Rb  Rb30  1  0.90165000  0.37428600  0.84343200  1
  Rb  Rb31  1  0.40165000  0.12571400  0.84343200  1
  Rb  Rb32  1  0.57417500  0.61145900  0.85497900  1
  Rb  Rb33  1  0.07417500  0.88854100  0.85497900  1
  Rb  Rb34  1  0.36142400  0.84030300  0.88146000  1
  Rb  Rb35  1  0.86142400  0.65969700  0.88146000  1
  Rb  Rb36  1  0.33752600  0.39281300  0.89244000  1
  Rb  Rb37  1  0.83752600  0.10718700  0.89244000  1
  Rb  Rb38  1  0.66107500  0.88316500  0.89186600  1
  Rb  Rb39  1  0.16107500  0.61683500  0.89186600  1
  Fe  Fe40  1  0.88274800  0.84848700  0.13607800  1
  Fe  Fe41  1  0.38274800  0.65151300  0.13607800  1
  Fe  Fe42  1  0.88274800  0.34848700  0.36392200  1
  Fe  Fe43  1  0.38274800  0.15151300  0.36392200  1
  Fe  Fe44  1  0.61725200  0.84848700  0.63607800  1
  Fe  Fe45  1  0.11725200  0.65151300  0.63607800  1
  Fe  Fe46  1  0.61725200  0.34848700  0.86392200  1
  Fe  Fe47  1  0.11725200  0.15151300  0.86392200  1
  O  O48  1  0.47547900  0.72755600  0.03535500  1
  O  O49  1  0.97547900  0.77244400  0.03535500  1
  O  O50  1  0.78802200  0.95679000  0.07010100  1
  O  O51  1  0.28802200  0.54321000  0.07010100  1
  O  O52  1  0.98441300  0.92195300  0.23425500  1
  O  O53  1  0.48441300  0.57804700  0.23425500  1
  O  O54  1  0.78614500  0.76005900  0.22362400  1
  O  O55  1  0.28614500  0.73994100  0.22362400  1
  O  O56  1  0.78614500  0.26005900  0.27637600  1
  O  O57  1  0.28614500  0.23994100  0.27637600  1
  O  O58  1  0.98441300  0.42195300  0.26574500  1
  O  O59  1  0.48441300  0.07804700  0.26574500  1
  O  O60  1  0.78802200  0.45679000  0.42989900  1
  O  O61  1  0.28802200  0.04321000  0.42989900  1
  O  O62  1  0.47547900  0.22755600  0.46464500  1
  O  O63  1  0.97547900  0.27244400  0.46464500  1
  O  O64  1  0.02452100  0.72755600  0.53535500  1
  O  O65  1  0.52452100  0.77244400  0.53535500  1
  O  O66  1  0.71197800  0.95679000  0.57010100  1
  O  O67  1  0.21197800  0.54321000  0.57010100  1
  O  O68  1  0.01558700  0.57804700  0.73425500  1
  O  O69  1  0.51558700  0.92195300  0.73425500  1
  O  O70  1  0.71385500  0.76005900  0.72362400  1
  O  O71  1  0.21385500  0.73994100  0.72362400  1
  O  O72  1  0.71385500  0.26005900  0.77637600  1
  O  O73  1  0.21385500  0.23994100  0.77637600  1
  O  O74  1  0.01558700  0.07804700  0.76574500  1
  O  O75  1  0.51558700  0.42195300  0.76574500  1
  O  O76  1  0.21197800  0.04321000  0.92989900  1
  O  O77  1  0.71197800  0.45679000  0.92989900  1
  O  O78  1  0.02452100  0.22755600  0.96464500  1
  O  O79  1  0.52452100  0.27244400  0.96464500  1
