# generated using pymatgen
data_Dy2Sb2O7
_symmetry_space_group_name_H-M   'P 1'
_cell_length_a   7.54491669
_cell_length_b   7.54491669
_cell_length_c   7.54491669
_cell_angle_alpha   121.17145876
_cell_angle_beta   118.62947412
_cell_angle_gamma   90.18653808
_symmetry_Int_Tables_number   1
_chemical_formula_structural   Dy2Sb2O7
_chemical_formula_sum   'Dy4 Sb4 O14'
_cell_volume   303.97128237
_cell_formula_units_Z   2
loop_
 _symmetry_equiv_pos_site_id
 _symmetry_equiv_pos_as_xyz
  1  'x, y, z'
loop_
 _atom_site_type_symbol
 _atom_site_label
 _atom_site_symmetry_multiplicity
 _atom_site_fract_x
 _atom_site_fract_y
 _atom_site_fract_z
 _atom_site_occupancy
  Dy  Dy0  1  0.50000000  0.50000000  0.00000000  1
  Dy  Dy1  1  0.00000000  0.00000000  0.00000000  1
  Dy  Dy2  1  0.00000000  0.50000000  0.00000000  1
  Dy  Dy3  1  0.50000000  0.50000000  0.50000000  1
  Sb  Sb4  1  0.50000000  0.00000000  0.00000000  1
  Sb  Sb5  1  0.50000000  0.00000000  0.50000000  1
  Sb  Sb6  1  0.00000000  0.00000000  0.50000000  1
  Sb  Sb7  1  0.00000000  0.50000000  0.50000000  1
  O  O8  1  0.62972200  0.32725100  0.20345200  1
  O  O9  1  0.75000000  0.96590700  0.21590700  1
  O  O10  1  0.11875700  0.36613500  0.24737800  1
  O  O11  1  0.61875700  0.37137800  0.75262200  1
  O  O12  1  0.87027800  0.07373000  0.69752900  1
  O  O13  1  0.62380000  0.92627000  0.79654800  1
  O  O14  1  0.12380000  0.32725100  0.69752900  1
  O  O15  1  0.37620000  0.07373000  0.20345200  1
  O  O16  1  0.12972200  0.92627000  0.30247100  1
  O  O17  1  0.87620000  0.67274900  0.30247100  1
  O  O18  1  0.88124300  0.63386500  0.75262200  1
  O  O19  1  0.25000000  0.03409300  0.78409300  1
  O  O20  1  0.38124300  0.62862200  0.24737800  1
  O  O21  1  0.37027800  0.67274900  0.79654800  1
