# generated using pymatgen
data_CeNiSn2
_symmetry_space_group_name_H-M   'P 1'
_cell_length_a   9.32205319
_cell_length_b   9.32205319
_cell_length_c   4.54737100
_cell_angle_alpha   90.00000000
_cell_angle_beta   90.00000000
_cell_angle_gamma   152.45352187
_symmetry_Int_Tables_number   1
_chemical_formula_structural   CeNiSn2
_chemical_formula_sum   'Ce2 Ni2 Sn4'
_cell_volume   182.75330070
_cell_formula_units_Z   2
loop_
 _symmetry_equiv_pos_site_id
 _symmetry_equiv_pos_as_xyz
  1  'x, y, z'
loop_
 _atom_site_type_symbol
 _atom_site_label
 _atom_site_symmetry_multiplicity
 _atom_site_fract_x
 _atom_site_fract_y
 _atom_site_fract_z
 _atom_site_occupancy
  Ce  Ce0  1  0.60985000  0.39015000  0.25000000  1
  Ce  Ce1  1  0.39015000  0.60985000  0.75000000  1
  Ni  Ni2  1  0.81839400  0.18160600  0.25000000  1
  Ni  Ni3  1  0.18160600  0.81839400  0.75000000  1
  Sn  Sn4  1  0.95380000  0.04620000  0.25000000  1
  Sn  Sn5  1  0.04620000  0.95380000  0.75000000  1
  Sn  Sn6  1  0.24905500  0.75094500  0.25000000  1
  Sn  Sn7  1  0.75094500  0.24905500  0.75000000  1
