# generated using pymatgen
data_Ba3Y2Cl12
_symmetry_space_group_name_H-M   'P 1'
_cell_length_a   9.14687101
_cell_length_b   9.14687101
_cell_length_c   15.04505324
_cell_angle_alpha   79.41514733
_cell_angle_beta   79.41514733
_cell_angle_gamma   110.45182445
_symmetry_Int_Tables_number   1
_chemical_formula_structural   Ba3Y2Cl12
_chemical_formula_sum   'Ba6 Y4 Cl24'
_cell_volume   1116.56006141
_cell_formula_units_Z   2
loop_
 _symmetry_equiv_pos_site_id
 _symmetry_equiv_pos_as_xyz
  1  'x, y, z'
loop_
 _atom_site_type_symbol
 _atom_site_label
 _atom_site_symmetry_multiplicity
 _atom_site_fract_x
 _atom_site_fract_y
 _atom_site_fract_z
 _atom_site_occupancy
  Ba  Ba0  1  0.55162200  0.78579900  0.92764400  1
  Ba  Ba1  1  0.13039200  0.86960800  0.75000000  1
  Ba  Ba2  1  0.78579900  0.55162200  0.42764400  1
  Ba  Ba3  1  0.21420100  0.44837800  0.57235600  1
  Ba  Ba4  1  0.86960800  0.13039200  0.25000000  1
  Ba  Ba5  1  0.44837800  0.21420100  0.07235600  1
  Y  Y6  1  0.66544700  0.93772600  0.59337900  1
  Y  Y7  1  0.93772600  0.66544700  0.09337900  1
  Y  Y8  1  0.06227400  0.33455300  0.90662100  1
  Y  Y9  1  0.33455300  0.06227400  0.40662100  1
  Cl  Cl10  1  0.16186400  0.63747500  0.92753000  1
  Cl  Cl11  1  0.49752700  0.98768000  0.74599900  1
  Cl  Cl12  1  0.77907500  0.82277900  0.72790200  1
  Cl  Cl13  1  0.63747500  0.16186400  0.42753000  1
  Cl  Cl14  1  0.98768000  0.49752700  0.24599900  1
  Cl  Cl15  1  0.14765900  0.07844500  0.55853600  1
  Cl  Cl16  1  0.39927100  0.43756000  0.90135300  1
  Cl  Cl17  1  0.74026200  0.14249000  0.93252600  1
  Cl  Cl18  1  0.82277900  0.77907500  0.22790200  1
  Cl  Cl19  1  0.85751000  0.25973800  0.56747400  1
  Cl  Cl20  1  0.56244000  0.60072900  0.59864700  1
  Cl  Cl21  1  0.92155500  0.85234100  0.94146400  1
  Cl  Cl22  1  0.07844500  0.14765900  0.05853600  1
  Cl  Cl23  1  0.43756000  0.39927100  0.40135300  1
  Cl  Cl24  1  0.14249000  0.74026200  0.43252600  1
  Cl  Cl25  1  0.17722100  0.22092500  0.77209800  1
  Cl  Cl26  1  0.25973800  0.85751000  0.06747400  1
  Cl  Cl27  1  0.60072900  0.56244000  0.09864700  1
  Cl  Cl28  1  0.85234100  0.92155500  0.44146400  1
  Cl  Cl29  1  0.01232000  0.50247300  0.75400100  1
  Cl  Cl30  1  0.36252500  0.83813600  0.57247000  1
  Cl  Cl31  1  0.22092500  0.17722100  0.27209800  1
  Cl  Cl32  1  0.50247300  0.01232000  0.25400100  1
  Cl  Cl33  1  0.83813600  0.36252500  0.07247000  1
