# generated using pymatgen
data_AgH8O5
_symmetry_space_group_name_H-M   'P 1'
_cell_length_a   6.31191700
_cell_length_b   6.44803100
_cell_length_c   13.01579900
_cell_angle_alpha   90.00000000
_cell_angle_beta   90.00000000
_cell_angle_gamma   90.00000000
_symmetry_Int_Tables_number   1
_chemical_formula_structural   AgH8O5
_chemical_formula_sum   'Ag4 H32 O20'
_cell_volume   529.73568471
_cell_formula_units_Z   4
loop_
 _symmetry_equiv_pos_site_id
 _symmetry_equiv_pos_as_xyz
  1  'x, y, z'
loop_
 _atom_site_type_symbol
 _atom_site_label
 _atom_site_symmetry_multiplicity
 _atom_site_fract_x
 _atom_site_fract_y
 _atom_site_fract_z
 _atom_site_occupancy
  Ag  Ag0  1  0.00500500  0.74921500  0.50028300  1
  Ag  Ag1  1  0.49499500  0.25078500  0.00028300  1
  Ag  Ag2  1  0.50500500  0.75078500  0.49971700  1
  Ag  Ag3  1  0.99499500  0.24921500  0.99971700  1
  H  H4  1  0.04190300  0.70203000  0.81097700  1
  H  H5  1  0.20124100  0.53054400  0.76571400  1
  H  H6  1  0.22057300  0.06260400  0.34045700  1
  H  H7  1  0.23078500  0.36436000  0.60375500  1
  H  H8  1  0.23180000  0.83818100  0.29300700  1
  H  H9  1  0.24162400  0.56503800  0.93685700  1
  H  H10  1  0.24394500  0.12537100  0.63783700  1
  H  H11  1  0.24459700  0.19751000  0.16230600  1
  H  H12  1  0.25540300  0.80249000  0.66230600  1
  H  H13  1  0.25605500  0.87462900  0.13783700  1
  H  H14  1  0.25837600  0.43496200  0.43685700  1
  H  H15  1  0.26820000  0.16181900  0.79300700  1
  H  H16  1  0.26921500  0.63564000  0.10375500  1
  H  H17  1  0.27942700  0.93739600  0.84045700  1
  H  H18  1  0.29875900  0.46945600  0.26571400  1
  H  H19  1  0.45809700  0.29797000  0.31097700  1
  H  H20  1  0.54190300  0.79797000  0.18902300  1
  H  H21  1  0.70124100  0.96945600  0.23428600  1
  H  H22  1  0.72057300  0.43739600  0.65954300  1
  H  H23  1  0.73078500  0.13564000  0.39624500  1
  H  H24  1  0.73180000  0.66181900  0.70699300  1
  H  H25  1  0.74162400  0.93496200  0.06314300  1
  H  H26  1  0.74394500  0.37462900  0.36216300  1
  H  H27  1  0.74459700  0.30249000  0.83769400  1
  H  H28  1  0.75540300  0.69751000  0.33769400  1
  H  H29  1  0.75605500  0.62537100  0.86216300  1
  H  H30  1  0.75837600  0.06503800  0.56314300  1
  H  H31  1  0.76820000  0.33818100  0.20699300  1
  H  H32  1  0.76921500  0.86436000  0.89624500  1
  H  H33  1  0.77942700  0.56260400  0.15954300  1
  H  H34  1  0.79875900  0.03054400  0.73428600  1
  H  H35  1  0.95809700  0.20203000  0.68902300  1
  O  O36  1  0.19624100  0.66498700  0.80075500  1
  O  O37  1  0.21006100  0.27004100  0.66560700  1
  O  O38  1  0.23676500  0.91511200  0.35805700  1
  O  O39  1  0.24292600  0.10882100  0.10064900  1
  O  O40  1  0.24447900  0.48955800  0.00301400  1
  O  O41  1  0.25552100  0.51044200  0.50301400  1
  O  O42  1  0.25707400  0.89117900  0.60064900  1
  O  O43  1  0.26323500  0.08488800  0.85805700  1
  O  O44  1  0.28993900  0.72995900  0.16560700  1
  O  O45  1  0.30375900  0.33501300  0.30075500  1
  O  O46  1  0.69624100  0.83501300  0.19924500  1
  O  O47  1  0.71006100  0.22995900  0.33439300  1
  O  O48  1  0.73676500  0.58488800  0.64194300  1
  O  O49  1  0.74292600  0.39117900  0.89935100  1
  O  O50  1  0.74447900  0.01044200  0.99698600  1
  O  O51  1  0.75552100  0.98955800  0.49698600  1
  O  O52  1  0.75707400  0.60882100  0.39935100  1
  O  O53  1  0.76323500  0.41511200  0.14194300  1
  O  O54  1  0.78993900  0.77004100  0.83439300  1
  O  O55  1  0.80375900  0.16498700  0.69924500  1
