# generated using pymatgen
data_Li4VCr3O8
_symmetry_space_group_name_H-M   'P 1'
_cell_length_a   5.15659579
_cell_length_b   5.96221552
_cell_length_c   10.71702907
_cell_angle_alpha   105.90492651
_cell_angle_beta   85.38584109
_cell_angle_gamma   72.96842172
_symmetry_Int_Tables_number   1
_chemical_formula_structural   Li4VCr3O8
_chemical_formula_sum   'Li8 V2 Cr6 O16'
_cell_volume   298.31801050
_cell_formula_units_Z   2
loop_
 _symmetry_equiv_pos_site_id
 _symmetry_equiv_pos_as_xyz
  1  'x, y, z'
loop_
 _atom_site_type_symbol
 _atom_site_label
 _atom_site_symmetry_multiplicity
 _atom_site_fract_x
 _atom_site_fract_y
 _atom_site_fract_z
 _atom_site_occupancy
  Li  Li0  1  0.00003500  0.12507300  0.74999300  1
  Li  Li1  1  0.99987100  0.00060500  0.00138900  1
  Li  Li2  1  0.00006400  0.24933700  0.49863700  1
  Li  Li3  1  0.00049700  0.37507900  0.24948400  1
  Li  Li4  1  0.00010300  0.62488900  0.75001200  1
  Li  Li5  1  0.99731300  0.50230600  0.00074300  1
  Li  Li6  1  0.00257000  0.74779600  0.49923500  1
  Li  Li7  1  0.99949500  0.87493100  0.25048600  1
  V  V8  1  0.49977100  0.06436700  0.87402900  1
  V  V9  1  0.50025600  0.18558200  0.62598900  1
  Cr  Cr10  1  0.50035300  0.31117400  0.37486200  1
  Cr  Cr11  1  0.49939300  0.56567400  0.87553600  1
  Cr  Cr12  1  0.50000700  0.43878100  0.12498800  1
  Cr  Cr13  1  0.50068800  0.68430000  0.62445600  1
  Cr  Cr14  1  0.49990100  0.81124900  0.37502700  1
  Cr  Cr15  1  0.49966600  0.93883500  0.12512900  1
  O  O16  1  0.27597800  0.08652400  0.31058900  1
  O  O17  1  0.72516400  0.03590100  0.43922300  1
  O  O18  1  0.27034800  0.34226500  0.81184900  1
  O  O19  1  0.72629700  0.29305500  0.94009500  1
  O  O20  1  0.72400300  0.16353800  0.18941000  1
  O  O21  1  0.27478200  0.21409800  0.06079500  1
  O  O22  1  0.27604700  0.45995800  0.56013100  1
  O  O23  1  0.72714400  0.41449800  0.69122300  1
  O  O24  1  0.27615900  0.58590500  0.31033500  1
  O  O25  1  0.72483500  0.53555000  0.43896300  1
  O  O26  1  0.27297400  0.83560600  0.80882400  1
  O  O27  1  0.72405500  0.78998100  0.93989500  1
  O  O28  1  0.27516600  0.71446700  0.06102800  1
  O  O29  1  0.27361400  0.95680200  0.55987100  1
  O  O30  1  0.72379700  0.66410700  0.18965900  1
  O  O31  1  0.72965900  0.90776700  0.68811300  1
