# generated using pymatgen
data_Na5Cr2As(CO4)4
_symmetry_space_group_name_H-M   'P 1'
_cell_length_a   9.93880050
_cell_length_b   9.92761808
_cell_length_c   9.87907514
_cell_angle_alpha   60.23639869
_cell_angle_beta   60.12386350
_cell_angle_gamma   59.63973781
_symmetry_Int_Tables_number   1
_chemical_formula_structural   Na5Cr2As(CO4)4
_chemical_formula_sum   'Na10 Cr4 As2 C8 O32'
_cell_volume   689.21356293
_cell_formula_units_Z   2
loop_
 _symmetry_equiv_pos_site_id
 _symmetry_equiv_pos_as_xyz
  1  'x, y, z'
loop_
 _atom_site_type_symbol
 _atom_site_label
 _atom_site_symmetry_multiplicity
 _atom_site_fract_x
 _atom_site_fract_y
 _atom_site_fract_z
 _atom_site_occupancy
  Na  Na0  1  0.67412600  0.06984500  0.84198600  1
  Na  Na1  1  0.06882400  0.67365400  0.84315200  1
  Na  Na2  1  0.40801400  0.83595700  0.57587400  1
  Na  Na3  1  0.83562900  0.40684800  0.57634600  1
  Na  Na4  1  0.67084500  0.67084500  0.82915500  1
  Na  Na5  1  0.06984500  0.67412600  0.41404300  1
  Na  Na6  1  0.67365400  0.06882400  0.41437100  1
  Na  Na7  1  0.42084500  0.42084500  0.57915500  1
  Na  Na8  1  0.83595700  0.40801400  0.18015500  1
  Na  Na9  1  0.40684800  0.83562900  0.18117600  1
  Cr  Cr10  1  0.75228600  0.24729400  0.00065700  1
  Cr  Cr11  1  0.24729400  0.75228600  0.99976300  1
  Cr  Cr12  1  0.24934300  0.25023700  0.49771400  1
  Cr  Cr13  1  0.25023700  0.24934300  0.00270600  1
  As  As14  1  0.62687300  0.62687300  0.37312700  1
  As  As15  1  0.87687300  0.87687300  0.62312700  1
  C  C16  1  0.46254100  0.46252100  0.86227200  1
  C  C17  1  0.04085600  0.03825800  0.78566500  1
  C  C18  1  0.38772800  0.03733400  0.78745900  1
  C  C19  1  0.03733400  0.38772800  0.78747900  1
  C  C20  1  0.46433500  0.11477900  0.20914400  1
  C  C21  1  0.11477900  0.46433500  0.21174200  1
  C  C22  1  0.46252100  0.46254100  0.21266600  1
  C  C23  1  0.03825800  0.04085600  0.13522100  1
  O  O24  1  0.43668400  0.34796500  0.85962200  1
  O  O25  1  0.06572200  0.89447400  0.89852200  1
  O  O26  1  0.34747000  0.60649500  0.85854300  1
  O  O27  1  0.89583800  0.15349600  0.81103000  1
  O  O28  1  0.60523100  0.43607100  0.86054800  1
  O  O29  1  0.41294900  0.69435400  0.44663600  1
  O  O30  1  0.69435400  0.41294900  0.44606200  1
  O  O31  1  0.15694800  0.06511300  0.64602800  1
  O  O32  1  0.89427000  0.39037800  0.90203500  1
  O  O33  1  0.39037800  0.89427000  0.81331600  1
  O  O34  1  0.68788300  0.68861100  0.16227100  1
  O  O35  1  0.68861100  0.68788300  0.46123600  1
  O  O36  1  0.35147800  0.10871800  0.18427800  1
  O  O37  1  0.10871800  0.35147800  0.35552600  1
  O  O38  1  0.06250800  0.39145700  0.64350500  1
  O  O39  1  0.39145700  0.06250800  0.90253000  1
  O  O40  1  0.11036400  0.43897000  0.09650400  1
  O  O41  1  0.43897000  0.11036400  0.35416200  1
  O  O42  1  0.38945200  0.15185000  0.64476900  1
  O  O43  1  0.15185000  0.38945200  0.81392900  1
  O  O44  1  0.80393800  0.80336400  0.55564600  1
  O  O45  1  0.80336400  0.80393800  0.83705100  1
  O  O46  1  0.60397200  0.11808800  0.09305200  1
  O  O47  1  0.11808800  0.60397200  0.18488700  1
  O  O48  1  0.34796500  0.43668400  0.35573000  1
  O  O49  1  0.78876400  0.08772900  0.56138900  1
  O  O50  1  0.08772900  0.78876400  0.56211700  1
  O  O51  1  0.89447400  0.06572200  0.14128200  1
  O  O52  1  0.60649500  0.34747000  0.18749200  1
  O  O53  1  0.15349600  0.89583800  0.13963600  1
  O  O54  1  0.43607100  0.60523100  0.09815000  1
  O  O55  1  0.06511300  0.15694800  0.13191200  1
