# generated using pymatgen
data_NaMnPCO7
_symmetry_space_group_name_H-M   'P 1'
_cell_length_a   6.25809400
_cell_length_b   5.25329300
_cell_length_c   9.04495342
_cell_angle_alpha   87.51359623
_cell_angle_beta   90.00000000
_cell_angle_gamma   90.00000000
_symmetry_Int_Tables_number   1
_chemical_formula_structural   NaMnPCO7
_chemical_formula_sum   'Na2 Mn2 P2 C2 O14'
_cell_volume   297.07833380
_cell_formula_units_Z   2
loop_
 _symmetry_equiv_pos_site_id
 _symmetry_equiv_pos_as_xyz
  1  'x, y, z'
loop_
 _atom_site_type_symbol
 _atom_site_label
 _atom_site_symmetry_multiplicity
 _atom_site_fract_x
 _atom_site_fract_y
 _atom_site_fract_z
 _atom_site_occupancy
  Na  Na0  1  0.52424800  0.76086900  0.76416800  1
  Na  Na1  1  0.02424800  0.23913100  0.23583200  1
  Mn  Mn2  1  0.23870000  0.21558800  0.65694500  1
  Mn  Mn3  1  0.73870000  0.78441200  0.34305500  1
  P  P4  1  0.74485400  0.27855500  0.56676700  1
  P  P5  1  0.24485400  0.72144500  0.43323300  1
  C  C6  1  0.25541600  0.27434600  0.92116700  1
  C  C7  1  0.75541600  0.72565400  0.07883300  1
  O  O8  1  0.76083600  0.69129700  0.94498400  1
  O  O9  1  0.25021900  0.05115600  0.86010900  1
  O  O10  1  0.25278700  0.46006900  0.81685100  1
  O  O11  1  0.93597300  0.21537800  0.67055500  1
  O  O12  1  0.55086900  0.20476300  0.66681300  1
  O  O13  1  0.25245300  0.87132500  0.57554900  1
  O  O14  1  0.73579300  0.56920800  0.52517000  1
  O  O15  1  0.23579300  0.43079200  0.47483000  1
  O  O16  1  0.75245300  0.12867500  0.42445100  1
  O  O17  1  0.05086900  0.79523700  0.33318700  1
  O  O18  1  0.43597300  0.78462200  0.32944500  1
  O  O19  1  0.75278700  0.53993100  0.18314900  1
  O  O20  1  0.75021900  0.94884400  0.13989100  1
  O  O21  1  0.26083600  0.30870300  0.05501600  1
