# generated using pymatgen
data_V7(PO4)6
_symmetry_space_group_name_H-M   'P 1'
_cell_length_a   6.45119500
_cell_length_b   8.20985091
_cell_length_c   9.41338013
_cell_angle_alpha   105.21011500
_cell_angle_beta   108.36561254
_cell_angle_gamma   101.88479019
_symmetry_Int_Tables_number   1
_chemical_formula_structural   V7(PO4)6
_chemical_formula_sum   'V7 P6 O24'
_cell_volume   433.32964111
_cell_formula_units_Z   1
loop_
 _symmetry_equiv_pos_site_id
 _symmetry_equiv_pos_as_xyz
  1  'x, y, z'
loop_
 _atom_site_type_symbol
 _atom_site_label
 _atom_site_symmetry_multiplicity
 _atom_site_fract_x
 _atom_site_fract_y
 _atom_site_fract_z
 _atom_site_occupancy
  V  V0  1  0.95738100  0.28562600  0.47994000  1
  V  V1  1  0.71995000  0.19284900  0.71712200  1
  V  V2  1  0.39098100  0.45768000  0.10983600  1
  V  V3  1  0.60901900  0.54232000  0.89016400  1
  V  V4  1  0.28005000  0.80715100  0.28287800  1
  V  V5  1  0.04261900  0.71437400  0.52006000  1
  V  V6  1  0.00000000  0.00000000  0.00000000  1
  P  P7  1  0.91058800  0.40738600  0.16703500  1
  P  P8  1  0.77589500  0.86083000  0.23164700  1
  P  P9  1  0.39853300  0.23433100  0.37175000  1
  P  P10  1  0.60146700  0.76566900  0.62825000  1
  P  P11  1  0.22410500  0.13917000  0.76835300  1
  P  P12  1  0.08941200  0.59261400  0.83296500  1
  O  O13  1  0.88488100  0.21820600  0.07839600  1
  O  O14  1  0.93846100  0.45242300  0.34605800  1
  O  O15  1  0.79690900  0.05601300  0.29953800  1
  O  O16  1  0.98503200  0.81631800  0.33571900  1
  O  O17  1  0.77525400  0.81289100  0.05943000  1
  O  O18  1  0.69776400  0.46054800  0.08549900  1
  O  O19  1  0.87296900  0.46396200  0.83387600  1
  O  O20  1  0.63216700  0.23658300  0.49762300  1
  O  O21  1  0.75147800  0.72305300  0.53403500  1
  O  O22  1  0.54876300  0.74452400  0.22786000  1
  O  O23  1  0.45282300  0.36569700  0.29251400  1
  O  O24  1  0.27649900  0.04143000  0.24287800  1
  O  O25  1  0.72350100  0.95857000  0.75712200  1
  O  O26  1  0.54717700  0.63430300  0.70748600  1
  O  O27  1  0.45123700  0.25547600  0.77214000  1
  O  O28  1  0.24852200  0.27694700  0.46596500  1
  O  O29  1  0.36783300  0.76341700  0.50237700  1
  O  O30  1  0.12703100  0.53603800  0.16612400  1
  O  O31  1  0.30223600  0.53945200  0.91450100  1
  O  O32  1  0.22474600  0.18710900  0.94057000  1
  O  O33  1  0.01496800  0.18368200  0.66428100  1
  O  O34  1  0.20309100  0.94398700  0.70046200  1
  O  O35  1  0.06153900  0.54757700  0.65394200  1
  O  O36  1  0.11511900  0.78179400  0.92160400  1
