# generated using pymatgen
data_Mn9(FeO6)4
_symmetry_space_group_name_H-M   'P 1'
_cell_length_a   13.14380786
_cell_length_b   13.14380786
_cell_length_c   5.89657598
_cell_angle_alpha   77.28685747
_cell_angle_beta   77.28685747
_cell_angle_gamma   25.98693274
_symmetry_Int_Tables_number   1
_chemical_formula_structural   Mn9(FeO6)4
_chemical_formula_sum   'Mn9 Fe4 O24'
_cell_volume   434.82255720
_cell_formula_units_Z   1
loop_
 _symmetry_equiv_pos_site_id
 _symmetry_equiv_pos_as_xyz
  1  'x, y, z'
loop_
 _atom_site_type_symbol
 _atom_site_label
 _atom_site_symmetry_multiplicity
 _atom_site_fract_x
 _atom_site_fract_y
 _atom_site_fract_z
 _atom_site_occupancy
  Mn  Mn0  1  0.66563100  0.66563100  0.33534300  1
  Mn  Mn1  1  0.66556800  0.66556800  0.83354600  1
  Mn  Mn2  1  0.33157500  0.83677300  0.16571000  1
  Mn  Mn3  1  0.83677300  0.33157500  0.16571000  1
  Mn  Mn4  1  0.00085400  0.00085400  0.00117900  1
  Mn  Mn5  1  0.00099800  0.00099800  0.49940900  1
  Mn  Mn6  1  0.16854200  0.66918200  0.83041600  1
  Mn  Mn7  1  0.66918200  0.16854200  0.83041600  1
  Mn  Mn8  1  0.33446500  0.33446500  0.65467100  1
  Fe  Fe9  1  0.48799500  0.01274800  0.49930100  1
  Fe  Fe10  1  0.01274800  0.48799500  0.49930100  1
  Fe  Fe11  1  0.33438500  0.33438500  0.17654400  1
  Fe  Fe12  1  0.79195900  0.79195900  0.95492100  1
  O  O13  1  0.74644300  0.74644300  0.26132400  1
  O  O14  1  0.74561800  0.74561800  0.74561600  1
  O  O15  1  0.45875000  0.88279100  0.58114800  1
  O  O16  1  0.88279100  0.45875000  0.58114800  1
  O  O17  1  0.44100300  0.88146500  0.08954600  1
  O  O18  1  0.88146500  0.44100300  0.08954600  1
  O  O19  1  0.58900800  0.58900800  0.37814700  1
  O  O20  1  0.58894500  0.58894500  0.94371500  1
  O  O21  1  0.07845400  0.07845400  0.95456700  1
  O  O22  1  0.07873500  0.07873500  0.38789400  1
  O  O23  1  0.78981100  0.22277400  0.24497000  1
  O  O24  1  0.22277400  0.78981100  0.24497000  1
  O  O25  1  0.21243500  0.77870500  0.75453500  1
  O  O26  1  0.77870500  0.21243500  0.75453500  1
  O  O27  1  0.92340700  0.92340700  0.04395100  1
  O  O28  1  0.92371600  0.92371600  0.61010700  1
  O  O29  1  0.41217300  0.41217300  0.62473600  1
  O  O30  1  0.41427800  0.41427800  0.04277600  1
  O  O31  1  0.57556500  0.10137000  0.90402800  1
  O  O32  1  0.10137000  0.57556500  0.90402800  1
  O  O33  1  0.10800900  0.55668400  0.43355400  1
  O  O34  1  0.55668400  0.10800900  0.43355400  1
  O  O35  1  0.25506900  0.25506900  0.26479700  1
  O  O36  1  0.25896200  0.25896200  0.72762500  1
