# generated using pymatgen
data_NaMnPCO7
_symmetry_space_group_name_H-M   'P 1'
_cell_length_a   8.18021399
_cell_length_b   8.18021399
_cell_length_c   10.30199817
_cell_angle_alpha   72.15870900
_cell_angle_beta   72.15870900
_cell_angle_gamma   100.20906116
_symmetry_Int_Tables_number   1
_chemical_formula_structural   NaMnPCO7
_chemical_formula_sum   'Na4 Mn4 P4 C4 O28'
_cell_volume   596.04252670
_cell_formula_units_Z   4
loop_
 _symmetry_equiv_pos_site_id
 _symmetry_equiv_pos_as_xyz
  1  'x, y, z'
loop_
 _atom_site_type_symbol
 _atom_site_label
 _atom_site_symmetry_multiplicity
 _atom_site_fract_x
 _atom_site_fract_y
 _atom_site_fract_z
 _atom_site_occupancy
  Na  Na0  1  0.76105000  0.47107200  0.75650400  1
  Na  Na1  1  0.47107200  0.76105000  0.75650400  1
  Na  Na2  1  0.50821100  0.75848500  0.23386500  1
  Na  Na3  1  0.75848500  0.50821100  0.23386500  1
  Mn  Mn4  1  0.94395900  0.94395900  0.65460900  1
  Mn  Mn5  1  0.42806900  0.42806900  0.66090300  1
  Mn  Mn6  1  0.56233900  0.06276800  0.34319300  1
  Mn  Mn7  1  0.06276800  0.56233900  0.34319300  1
  P  P8  1  0.20002500  0.70229600  0.56829100  1
  P  P9  1  0.70229600  0.20002500  0.56829100  1
  P  P10  1  0.30135300  0.30135300  0.42804400  1
  P  P11  1  0.79594700  0.79594700  0.43606500  1
  C  C12  1  0.78045800  0.78045800  0.91859400  1
  C  C13  1  0.27551200  0.27551200  0.92790300  1
  C  C14  1  0.72947400  0.21649100  0.07796600  1
  C  C15  1  0.21649100  0.72947400  0.07796600  1
  O  O16  1  0.29964500  0.81273600  0.94448400  1
  O  O17  1  0.81273600  0.29964500  0.94448400  1
  O  O18  1  0.42076800  0.42076800  0.85969700  1
  O  O19  1  0.92101200  0.92101200  0.85789900  1
  O  O20  1  0.73683700  0.73683700  0.81639700  1
  O  O21  1  0.22974500  0.22974500  0.82869300  1
  O  O22  1  0.28086200  0.58957400  0.66889900  1
  O  O23  1  0.08261300  0.77698900  0.67075100  1
  O  O24  1  0.77698900  0.08261300  0.67075100  1
  O  O25  1  0.58957400  0.28086200  0.66889900  1
  O  O26  1  0.15307600  0.15307600  0.56620000  1
  O  O27  1  0.57948700  0.07587100  0.52492600  1
  O  O28  1  0.07587100  0.57948700  0.52492600  1
  O  O29  1  0.64909300  0.64909300  0.58045000  1
  O  O30  1  0.34843100  0.84915900  0.42675700  1
  O  O31  1  0.42491500  0.42491500  0.47313200  1
  O  O32  1  0.91842100  0.91842100  0.47853500  1
  O  O33  1  0.84915900  0.34843100  0.42675700  1
  O  O34  1  0.23247800  0.42736000  0.32512400  1
  O  O35  1  0.42736000  0.23247800  0.32512400  1
  O  O36  1  0.70968600  0.90159500  0.33598000  1
  O  O37  1  0.90159500  0.70968600  0.33598000  1
  O  O38  1  0.77077000  0.25879700  0.18095000  1
  O  O39  1  0.25879700  0.77077000  0.18095000  1
  O  O40  1  0.58533300  0.07506400  0.14104700  1
  O  O41  1  0.07506400  0.58533300  0.14104700  1
  O  O42  1  0.69488500  0.69488500  0.05384800  1
  O  O43  1  0.19728500  0.19728500  0.06155700  1
