# generated using pymatgen
data_Na3Fe2P(CO4)4
_symmetry_space_group_name_H-M   'P 1'
_cell_length_a   9.84270639
_cell_length_b   9.92614183
_cell_length_c   9.84270639
_cell_angle_alpha   60.30074236
_cell_angle_beta   89.95957923
_cell_angle_gamma   119.69925764
_symmetry_Int_Tables_number   1
_chemical_formula_structural   Na3Fe2P(CO4)4
_chemical_formula_sum   'Na6 Fe4 P2 C8 O32'
_cell_volume   685.87916511
_cell_formula_units_Z   2
loop_
 _symmetry_equiv_pos_site_id
 _symmetry_equiv_pos_as_xyz
  1  'x, y, z'
loop_
 _atom_site_type_symbol
 _atom_site_label
 _atom_site_symmetry_multiplicity
 _atom_site_fract_x
 _atom_site_fract_y
 _atom_site_fract_z
 _atom_site_occupancy
  Na  Na0  1  0.34848000  0.26382400  0.33199100  1
  Na  Na1  1  0.90418500  0.23617600  0.91534400  1
  Na  Na2  1  0.08465600  0.73617600  0.09581500  1
  Na  Na3  1  0.66800900  0.76382400  0.65152000  1
  Na  Na4  1  0.34002900  0.25000000  0.90997100  1
  Na  Na5  1  0.09002900  0.75000000  0.65997100  1
  Fe  Fe6  1  0.50035800  0.99324800  0.00212400  1
  Fe  Fe7  1  0.50710900  0.00675200  0.49537200  1
  Fe  Fe8  1  0.50462800  0.50675200  0.49289100  1
  Fe  Fe9  1  0.99787600  0.49324800  0.49964200  1
  P  P10  1  0.12522900  0.25000000  0.12477100  1
  P  P11  1  0.87522900  0.75000000  0.87477100  1
  C  C12  1  0.71517600  0.07575800  0.71118000  1
  C  C13  1  0.71306200  0.42424200  0.36058300  1
  C  C14  1  0.35821700  0.07553800  0.71360000  1
  C  C15  1  0.71086200  0.42446200  0.71732200  1
  C  C16  1  0.63941700  0.92424200  0.28693800  1
  C  C17  1  0.28882000  0.57575800  0.28482400  1
  C  C18  1  0.28640000  0.57553800  0.64178300  1
  C  C19  1  0.28267800  0.92446200  0.28913800  1
  O  O20  1  0.64650200  0.04237700  0.14139200  1
  O  O21  1  0.85606300  0.21877400  0.59773300  1
  O  O22  1  0.68349300  0.28122600  0.36271100  1
  O  O23  1  0.39290300  0.04329600  0.31674300  1
  O  O24  1  0.85860800  0.54237700  0.35349800  1
  O  O25  1  0.31645600  0.37380600  0.06453200  1
  O  O26  1  0.06166200  0.12619400  0.05734900  1
  O  O27  1  0.59761700  0.45230200  0.36082900  1
  O  O28  1  0.68686900  0.04769800  0.85468600  1
  O  O29  1  0.35259800  0.04204600  0.60016100  1
  O  O30  1  0.85779200  0.45795400  0.68944800  1
  O  O31  1  0.06499500  0.38015200  0.05735200  1
  O  O32  1  0.06249600  0.11984800  0.31515600  1
  O  O33  1  0.63728900  0.78122600  0.31650700  1
  O  O34  1  0.40226700  0.71877400  0.14393700  1
  O  O35  1  0.68325700  0.54329500  0.60709700  1
  O  O36  1  0.31623000  0.45762300  0.39587500  1
  O  O37  1  0.36557400  0.22210800  0.68255500  1
  O  O38  1  0.59533700  0.27789200  0.85653400  1
  O  O39  1  0.93546800  0.87380600  0.68354400  1
  O  O40  1  0.94265100  0.62619400  0.93833800  1
  O  O41  1  0.14531400  0.54769800  0.31313100  1
  O  O42  1  0.63917100  0.95230200  0.40238300  1
  O  O43  1  0.31055200  0.95795400  0.14220800  1
  O  O44  1  0.39983900  0.54204600  0.64740200  1
  O  O45  1  0.94264800  0.88015200  0.93500500  1
  O  O46  1  0.68484400  0.61984800  0.93750400  1
  O  O47  1  0.13996100  0.45670500  0.65039300  1
  O  O48  1  0.60412500  0.95762300  0.68377000  1
  O  O49  1  0.31744500  0.72210800  0.63442600  1
  O  O50  1  0.14346600  0.77789200  0.40466300  1
  O  O51  1  0.34960700  0.95670500  0.86003900  1
