# generated using pymatgen
data_Ti6Fe8O21
_symmetry_space_group_name_H-M   'P 1'
_cell_length_a   7.60095600
_cell_length_b   8.94514740
_cell_length_c   12.36968799
_cell_angle_alpha   82.84697023
_cell_angle_beta   84.50095885
_cell_angle_gamma   66.56972349
_symmetry_Int_Tables_number   1
_chemical_formula_structural   Ti6Fe8O21
_chemical_formula_sum   'Ti12 Fe16 O42'
_cell_volume   764.69039739
_cell_formula_units_Z   2
loop_
 _symmetry_equiv_pos_site_id
 _symmetry_equiv_pos_as_xyz
  1  'x, y, z'
loop_
 _atom_site_type_symbol
 _atom_site_label
 _atom_site_symmetry_multiplicity
 _atom_site_fract_x
 _atom_site_fract_y
 _atom_site_fract_z
 _atom_site_occupancy
  Ti  Ti0  1  0.09401300  0.50600600  0.23505400  1
  Ti  Ti1  1  0.47391700  0.34331900  0.48096200  1
  Ti  Ti2  1  0.18011100  0.91088200  0.62986100  1
  Ti  Ti3  1  0.67763800  0.36565700  0.94578300  1
  Ti  Ti4  1  0.81988900  0.08911800  0.37013900  1
  Ti  Ti5  1  0.90598700  0.49399400  0.76494600  1
  Ti  Ti6  1  0.38007000  0.94367800  0.09289800  1
  Ti  Ti7  1  0.61993000  0.05632200  0.90710200  1
  Ti  Ti8  1  0.24028000  0.22373800  0.65987200  1
  Ti  Ti9  1  0.52608300  0.65668100  0.51903800  1
  Ti  Ti10  1  0.75972000  0.77626200  0.34012800  1
  Ti  Ti11  1  0.32236200  0.63434300  0.05421700  1
  Fe  Fe12  1  0.60294600  0.50818600  0.23238300  1
  Fe  Fe13  1  0.97164200  0.34551600  0.48554700  1
  Fe  Fe14  1  0.04515900  0.20506700  0.19581300  1
  Fe  Fe15  1  0.69222500  0.91543800  0.62237600  1
  Fe  Fe16  1  0.54185500  0.20822400  0.19781700  1
  Fe  Fe17  1  0.17044900  0.37246000  0.94700000  1
  Fe  Fe18  1  0.39705400  0.49181400  0.76761700  1
  Fe  Fe19  1  0.30777500  0.08456200  0.37762400  1
  Fe  Fe20  1  0.11757900  0.05239900  0.91199300  1
  Fe  Fe21  1  0.02835800  0.65448400  0.51445300  1
  Fe  Fe22  1  0.25828600  0.76956700  0.33991800  1
  Fe  Fe23  1  0.74171400  0.23043300  0.66008200  1
  Fe  Fe24  1  0.88242100  0.94760100  0.08800700  1
  Fe  Fe25  1  0.45814500  0.79177600  0.80218300  1
  Fe  Fe26  1  0.82955100  0.62754000  0.05300000  1
  Fe  Fe27  1  0.95484100  0.79493300  0.80418700  1
  O  O28  1  0.52920500  0.46613400  0.60555800  1
  O  O29  1  0.47079500  0.53386600  0.39444200  1
  O  O30  1  0.21207700  0.40814300  0.52959400  1
  O  O31  1  0.49973800  0.16790500  0.61868600  1
  O  O32  1  0.35237800  0.46095000  0.18291600  1
  O  O33  1  0.63854000  0.52305400  0.04694600  1
  O  O34  1  0.77463200  0.23101000  0.47770600  1
  O  O35  1  0.09750300  0.32997100  0.32604100  1
  O  O36  1  0.05029000  0.41112700  0.09578800  1
  O  O37  1  0.19309400  0.10538500  0.54459100  1
  O  O38  1  0.49971900  0.19556800  0.37821800  1
  O  O39  1  0.36146000  0.47694600  0.95305400  1
  O  O40  1  0.64762200  0.53905000  0.81708400  1
  O  O41  1  0.76632100  0.26645800  0.24855700  1
  O  O42  1  0.94343100  0.29005600  0.90931500  1
  O  O43  1  0.08307500  0.01282100  0.33894200  1
  O  O44  1  0.50028100  0.80443200  0.62178200  1
  O  O45  1  0.36066900  0.08328500  0.19099500  1
  O  O46  1  0.20083000  0.37333600  0.77384500  1
  O  O47  1  0.80690600  0.89461500  0.45540900  1
  O  O48  1  0.66896000  0.18073700  0.04087100  1
  O  O49  1  0.77404100  0.95680800  0.24195400  1
  O  O50  1  0.61487300  0.25130900  0.82640000  1
  O  O51  1  0.93824200  0.34156100  0.66481500  1
  O  O52  1  0.22536800  0.76899000  0.52229400  1
  O  O53  1  0.08788800  0.03386400  0.08130700  1
  O  O54  1  0.50026200  0.83209500  0.38131400  1
  O  O55  1  0.34468700  0.12733500  0.95746600  1
  O  O56  1  0.65531300  0.87266500  0.04253400  1
  O  O57  1  0.78792300  0.59185700  0.47040600  1
  O  O58  1  0.06175800  0.65843900  0.33518500  1
  O  O59  1  0.91211200  0.96613600  0.91869300  1
  O  O60  1  0.22595900  0.04319200  0.75804600  1
  O  O61  1  0.38512700  0.74869100  0.17360000  1
  O  O62  1  0.33104000  0.81926300  0.95912900  1
  O  O63  1  0.63933100  0.91671500  0.80900500  1
  O  O64  1  0.79917000  0.62666400  0.22615500  1
  O  O65  1  0.91692500  0.98717900  0.66105800  1
  O  O66  1  0.05656900  0.70994400  0.09068500  1
  O  O67  1  0.23367900  0.73354200  0.75144300  1
  O  O68  1  0.94971000  0.58887300  0.90421200  1
  O  O69  1  0.90249700  0.67002900  0.67395900  1
