# generated using pymatgen
data_RbFe3O5
_symmetry_space_group_name_H-M   'P 1'
_cell_length_a   3.11323700
_cell_length_b   9.57926300
_cell_length_c   15.53296057
_cell_angle_alpha   89.88266002
_cell_angle_beta   90.00000000
_cell_angle_gamma   90.00000000
_symmetry_Int_Tables_number   1
_chemical_formula_structural   RbFe3O5
_chemical_formula_sum   'Rb4 Fe12 O20'
_cell_volume   463.23099387
_cell_formula_units_Z   4
loop_
 _symmetry_equiv_pos_site_id
 _symmetry_equiv_pos_as_xyz
  1  'x, y, z'
loop_
 _atom_site_type_symbol
 _atom_site_label
 _atom_site_symmetry_multiplicity
 _atom_site_fract_x
 _atom_site_fract_y
 _atom_site_fract_z
 _atom_site_occupancy
  Rb  Rb0  1  0.00000000  0.02908800  0.62205700  1
  Rb  Rb1  1  0.50000000  0.47112000  0.12118900  1
  Rb  Rb2  1  0.00000000  0.53086300  0.87950600  1
  Rb  Rb3  1  0.50000000  0.97108400  0.37787900  1
  Fe  Fe4  1  0.00000000  0.10873700  0.16443900  1
  Fe  Fe5  1  0.50000000  0.14300700  0.98972400  1
  Fe  Fe6  1  0.00000000  0.17784200  0.82008300  1
  Fe  Fe7  1  0.50000000  0.32168300  0.32033700  1
  Fe  Fe8  1  0.00000000  0.35506700  0.48957500  1
  Fe  Fe9  1  0.50000000  0.39099100  0.66378300  1
  Fe  Fe10  1  0.00000000  0.60988800  0.33578200  1
  Fe  Fe11  1  0.50000000  0.64552900  0.51044200  1
  Fe  Fe12  1  0.00000000  0.67897400  0.68012700  1
  Fe  Fe13  1  0.50000000  0.82052100  0.17646800  1
  Fe  Fe14  1  0.00000000  0.86301500  0.01080400  1
  Fe  Fe15  1  0.50000000  0.88863400  0.83873600  1
  O  O16  1  0.00000000  0.01798200  0.92470300  1
  O  O17  1  0.50000000  0.06352600  0.77305500  1
  O  O18  1  0.50000000  0.19355900  0.21965200  1
  O  O19  1  0.00000000  0.22152900  0.05560300  1
  O  O20  1  0.00000000  0.23072000  0.38934600  1
  O  O21  1  0.50000000  0.26780600  0.88990400  1
  O  O22  1  0.50000000  0.27590600  0.55518000  1
  O  O23  1  0.00000000  0.30614500  0.71996100  1
  O  O24  1  0.00000000  0.43561300  0.27150700  1
  O  O25  1  0.50000000  0.47828700  0.42293500  1
  O  O26  1  0.00000000  0.52224400  0.57707400  1
  O  O27  1  0.50000000  0.56472400  0.72853200  1
  O  O28  1  0.50000000  0.69314100  0.27892200  1
  O  O29  1  0.00000000  0.72458800  0.44454700  1
  O  O30  1  0.00000000  0.73417900  0.10684700  1
  O  O31  1  0.50000000  0.76979100  0.61070000  1
  O  O32  1  0.50000000  0.78135600  0.94872500  1
  O  O33  1  0.00000000  0.80592700  0.78123100  1
  O  O34  1  0.00000000  0.93483500  0.22710800  1
  O  O35  1  0.50000000  0.97209900  0.07353800  1
