# generated using pymatgen
data_Rb5FeO4
_symmetry_space_group_name_H-M   'P 1'
_cell_length_a   10.97063200
_cell_length_b   7.62264800
_cell_length_c   13.66228064
_cell_angle_alpha   58.45670719
_cell_angle_beta   90.00000000
_cell_angle_gamma   90.00000000
_symmetry_Int_Tables_number   1
_chemical_formula_structural   Rb5FeO4
_chemical_formula_sum   'Rb20 Fe4 O16'
_cell_volume   973.70015156
_cell_formula_units_Z   4
loop_
 _symmetry_equiv_pos_site_id
 _symmetry_equiv_pos_as_xyz
  1  'x, y, z'
loop_
 _atom_site_type_symbol
 _atom_site_label
 _atom_site_symmetry_multiplicity
 _atom_site_fract_x
 _atom_site_fract_y
 _atom_site_fract_z
 _atom_site_occupancy
  Rb  Rb0  1  0.33626900  0.63627400  0.26225800  1
  Rb  Rb1  1  0.35317300  0.90082000  0.88603000  1
  Rb  Rb2  1  0.60115700  0.25271500  0.44460000  1
  Rb  Rb3  1  0.09203100  0.35458300  0.44577300  1
  Rb  Rb4  1  0.33819000  0.15357000  0.60660000  1
  Rb  Rb5  1  0.59203100  0.64541700  0.05422700  1
  Rb  Rb6  1  0.10115700  0.74728500  0.05540000  1
  Rb  Rb7  1  0.83819000  0.84643000  0.89340000  1
  Rb  Rb8  1  0.85317300  0.09918000  0.61397000  1
  Rb  Rb9  1  0.83626900  0.36372600  0.23774200  1
  Rb  Rb10  1  0.16373100  0.63627400  0.76225800  1
  Rb  Rb11  1  0.14682700  0.90082000  0.38603000  1
  Rb  Rb12  1  0.16181000  0.15357000  0.10660000  1
  Rb  Rb13  1  0.89884300  0.25271500  0.94460000  1
  Rb  Rb14  1  0.40796900  0.35458300  0.94577300  1
  Rb  Rb15  1  0.66181000  0.84643000  0.39340000  1
  Rb  Rb16  1  0.90796900  0.64541700  0.55422700  1
  Rb  Rb17  1  0.39884300  0.74728500  0.55540000  1
  Rb  Rb18  1  0.64682700  0.09918000  0.11397000  1
  Rb  Rb19  1  0.66373100  0.36372600  0.73774200  1
  Fe  Fe20  1  0.08910600  0.23852200  0.73985700  1
  Fe  Fe21  1  0.41089400  0.23852200  0.23985700  1
  Fe  Fe22  1  0.58910600  0.76147800  0.76014300  1
  Fe  Fe23  1  0.91089400  0.76147800  0.26014300  1
  O  O24  1  0.08570900  0.73263300  0.25235500  1
  O  O25  1  0.15725700  0.18200500  0.88699400  1
  O  O26  1  0.84407900  0.50312100  0.39223700  1
  O  O27  1  0.11080300  0.02657300  0.70700100  1
  O  O28  1  0.34407900  0.49687900  0.10776300  1
  O  O29  1  0.61080300  0.97342700  0.79299900  1
  O  O30  1  0.58570900  0.26736700  0.24764500  1
  O  O31  1  0.65725700  0.81799500  0.61300600  1
  O  O32  1  0.34274300  0.18200500  0.38699400  1
  O  O33  1  0.41429100  0.73263300  0.75235500  1
  O  O34  1  0.38919700  0.02657300  0.20700100  1
  O  O35  1  0.65592100  0.50312100  0.89223700  1
  O  O36  1  0.88919700  0.97342700  0.29299900  1
  O  O37  1  0.15592100  0.49687900  0.60776300  1
  O  O38  1  0.84274300  0.81799500  0.11300600  1
  O  O39  1  0.91429100  0.26736700  0.74764500  1
