# generated using pymatgen
data_WS2
_symmetry_space_group_name_H-M   'P 1'
_cell_length_a   3.19073066
_cell_length_b   3.19073066
_cell_length_c   31.30360300
_cell_angle_alpha   90.00000000
_cell_angle_beta   90.00000000
_cell_angle_gamma   120.00001371
_symmetry_Int_Tables_number   1
_chemical_formula_structural   WS2
_chemical_formula_sum   'W3 S6'
_cell_volume   275.99752665
_cell_formula_units_Z   3
loop_
 _symmetry_equiv_pos_site_id
 _symmetry_equiv_pos_as_xyz
  1  'x, y, z'
loop_
 _atom_site_type_symbol
 _atom_site_label
 _atom_site_symmetry_multiplicity
 _atom_site_fract_x
 _atom_site_fract_y
 _atom_site_fract_z
 _atom_site_occupancy
  W  W0  1  0.00000000  0.00000000  0.50000000  1
  W  W1  1  0.66666700  0.33333300  0.27315100  1
  W  W2  1  0.66666700  0.33333300  0.72684900  1
  S  S3  1  0.00000000  0.00000000  0.22290000  1
  S  S4  1  0.00000000  0.00000000  0.67659800  1
  S  S5  1  0.66666700  0.33333300  0.44974900  1
  S  S6  1  0.00000000  0.00000000  0.32340200  1
  S  S7  1  0.00000000  0.00000000  0.77710000  1
  S  S8  1  0.66666700  0.33333300  0.55025100  1
