# generated using pymatgen
data_Gd2TiO5
_symmetry_space_group_name_H-M   'P 1'
_cell_length_a   3.67862700
_cell_length_b   7.55168100
_cell_length_c   15.73896700
_cell_angle_alpha   90.00000000
_cell_angle_beta   90.00000000
_cell_angle_gamma   90.00000000
_symmetry_Int_Tables_number   1
_chemical_formula_structural   Gd2TiO5
_chemical_formula_sum   'Gd8 Ti4 O20'
_cell_volume   437.22563282
_cell_formula_units_Z   4
loop_
 _symmetry_equiv_pos_site_id
 _symmetry_equiv_pos_as_xyz
  1  'x, y, z'
loop_
 _atom_site_type_symbol
 _atom_site_label
 _atom_site_symmetry_multiplicity
 _atom_site_fract_x
 _atom_site_fract_y
 _atom_site_fract_z
 _atom_site_occupancy
  Gd  Gd0  1  0.75000000  0.61077500  0.08166900  1
  Gd  Gd1  1  0.75000000  0.65439400  0.73888600  1
  Gd  Gd2  1  0.25000000  0.84560600  0.23888600  1
  Gd  Gd3  1  0.25000000  0.88922500  0.58166900  1
  Gd  Gd4  1  0.75000000  0.11077500  0.41833100  1
  Gd  Gd5  1  0.75000000  0.15439400  0.76111400  1
  Gd  Gd6  1  0.25000000  0.34560600  0.26111400  1
  Gd  Gd7  1  0.25000000  0.38922500  0.91833100  1
  Ti  Ti8  1  0.75000000  0.61570000  0.42322400  1
  Ti  Ti9  1  0.25000000  0.88430000  0.92322400  1
  Ti  Ti10  1  0.75000000  0.11570000  0.07677600  1
  Ti  Ti11  1  0.25000000  0.38430000  0.57677600  1
  O  O12  1  0.25000000  0.57699900  0.17305300  1
  O  O13  1  0.25000000  0.57725400  0.45296900  1
  O  O14  1  0.25000000  0.61447800  0.64834000  1
  O  O15  1  0.25000000  0.66006100  0.99316400  1
  O  O16  1  0.75000000  0.74660800  0.32459000  1
  O  O17  1  0.25000000  0.75339200  0.82459000  1
  O  O18  1  0.75000000  0.83993900  0.49316400  1
  O  O19  1  0.75000000  0.88552200  0.14834000  1
  O  O20  1  0.75000000  0.92274600  0.95296900  1
  O  O21  1  0.75000000  0.92300100  0.67305300  1
  O  O22  1  0.25000000  0.07699900  0.32694700  1
  O  O23  1  0.25000000  0.07725400  0.04703100  1
  O  O24  1  0.25000000  0.11447800  0.85166000  1
  O  O25  1  0.25000000  0.16006100  0.50683600  1
  O  O26  1  0.75000000  0.24660800  0.17541000  1
  O  O27  1  0.25000000  0.25339200  0.67541000  1
  O  O28  1  0.75000000  0.33993900  0.00683600  1
  O  O29  1  0.75000000  0.38552200  0.35166000  1
  O  O30  1  0.75000000  0.42274600  0.54703100  1
  O  O31  1  0.75000000  0.42300100  0.82694700  1
