# generated using pymatgen
data_Ho2Zr2O7
_symmetry_space_group_name_H-M   'P 1'
_cell_length_a   5.51541000
_cell_length_b   7.85996700
_cell_length_c   13.78881731
_cell_angle_alpha   81.55131633
_cell_angle_beta   90.00000000
_cell_angle_gamma   90.00000000
_symmetry_Int_Tables_number   1
_chemical_formula_structural   Ho2Zr2O7
_chemical_formula_sum   'Ho8 Zr8 O28'
_cell_volume   591.27123855
_cell_formula_units_Z   4
loop_
 _symmetry_equiv_pos_site_id
 _symmetry_equiv_pos_as_xyz
  1  'x, y, z'
loop_
 _atom_site_type_symbol
 _atom_site_label
 _atom_site_symmetry_multiplicity
 _atom_site_fract_x
 _atom_site_fract_y
 _atom_site_fract_z
 _atom_site_occupancy
  Ho  Ho0  1  0.33021100  0.86260000  0.55902300  1
  Ho  Ho1  1  0.77863800  0.76346100  0.92687600  1
  Ho  Ho2  1  0.24220400  0.71323800  0.13411600  1
  Ho  Ho3  1  0.75815200  0.63803800  0.39907800  1
  Ho  Ho4  1  0.25815200  0.36196200  0.60092200  1
  Ho  Ho5  1  0.74220400  0.28676200  0.86588400  1
  Ho  Ho6  1  0.27863800  0.23653900  0.07312400  1
  Ho  Ho7  1  0.83021100  0.13740000  0.44097700  1
  Zr  Zr8  1  0.26617000  0.92548600  0.31963100  1
  Zr  Zr9  1  0.76289800  0.97258200  0.11810200  1
  Zr  Zr10  1  0.77751000  0.58949900  0.67316900  1
  Zr  Zr11  1  0.26430500  0.53179200  0.87589000  1
  Zr  Zr12  1  0.76430500  0.46820800  0.12411000  1
  Zr  Zr13  1  0.27751000  0.41050100  0.32683100  1
  Zr  Zr14  1  0.26289800  0.02741800  0.88189800  1
  Zr  Zr15  1  0.76617000  0.07451400  0.68036900  1
  O  O16  1  0.55466000  0.92194100  0.41756100  1
  O  O17  1  0.41754600  0.00324400  0.17350800  1
  O  O18  1  0.63317500  0.83001800  0.67554600  1
  O  O19  1  0.38563200  0.77815900  0.88369200  1
  O  O20  1  0.04470000  0.84772400  0.43527500  1
  O  O21  1  0.05129200  0.92333700  0.02193000  1
  O  O22  1  0.96659700  0.86001100  0.22996100  1
  O  O23  1  0.11209400  0.63459000  0.62054100  1
  O  O24  1  0.91292700  0.58449900  0.82729200  1
  O  O25  1  0.63148500  0.72887000  0.08278500  1
  O  O26  1  0.40626800  0.67623600  0.29843300  1
  O  O27  1  0.57518500  0.57984200  0.54663200  1
  O  O28  1  0.54686400  0.43737200  0.97694700  1
  O  O29  1  0.47397800  0.47335200  0.76649600  1
  O  O30  1  0.97397800  0.52664800  0.23350400  1
  O  O31  1  0.04686400  0.56262800  0.02305300  1
  O  O32  1  0.07518500  0.42015800  0.45336800  1
  O  O33  1  0.90626800  0.32376400  0.70156700  1
  O  O34  1  0.13148500  0.27113000  0.91721500  1
  O  O35  1  0.41292700  0.41550100  0.17270800  1
  O  O36  1  0.61209400  0.36541000  0.37945900  1
  O  O37  1  0.46659700  0.13998900  0.77003900  1
  O  O38  1  0.55129200  0.07666300  0.97807000  1
  O  O39  1  0.54470000  0.15227600  0.56472500  1
  O  O40  1  0.88563200  0.22184100  0.11630800  1
  O  O41  1  0.13317500  0.16998200  0.32445400  1
  O  O42  1  0.91754600  0.99675600  0.82649200  1
  O  O43  1  0.05466000  0.07805900  0.58243900  1
