# generated using pymatgen
data_Tm3TaO7
_symmetry_space_group_name_H-M   'P 1'
_cell_length_a   6.40425944
_cell_length_b   6.40425944
_cell_length_c   7.41193200
_cell_angle_alpha   90.00000000
_cell_angle_beta   90.00000000
_cell_angle_gamma   109.13386767
_symmetry_Int_Tables_number   1
_chemical_formula_structural   Tm3TaO7
_chemical_formula_sum   'Tm6 Ta2 O14'
_cell_volume   287.20276103
_cell_formula_units_Z   2
loop_
 _symmetry_equiv_pos_site_id
 _symmetry_equiv_pos_as_xyz
  1  'x, y, z'
loop_
 _atom_site_type_symbol
 _atom_site_label
 _atom_site_symmetry_multiplicity
 _atom_site_fract_x
 _atom_site_fract_y
 _atom_site_fract_z
 _atom_site_occupancy
  Tm  Tm0  1  0.46588000  0.99887500  0.25441700  1
  Tm  Tm1  1  0.00112500  0.53412000  0.24558300  1
  Tm  Tm2  1  0.47269600  0.47269600  0.00000000  1
  Tm  Tm3  1  0.52730400  0.52730400  0.50000000  1
  Tm  Tm4  1  0.53412000  0.00112500  0.75441700  1
  Tm  Tm5  1  0.99887500  0.46588000  0.74558300  1
  Ta  Ta6  1  0.00309200  0.00309200  0.50000000  1
  Ta  Ta7  1  0.99690800  0.99690800  0.00000000  1
  O  O8  1  0.92822000  0.07178000  0.75000000  1
  O  O9  1  0.63934600  0.36065400  0.75000000  1
  O  O10  1  0.31762500  0.06049700  0.53914000  1
  O  O11  1  0.93950300  0.68237500  0.96086000  1
  O  O12  1  0.62933600  0.37066400  0.25000000  1
  O  O13  1  0.91713300  0.67062700  0.52911000  1
  O  O14  1  0.32937300  0.08286700  0.97089000  1
  O  O15  1  0.08286700  0.32937300  0.02911000  1
  O  O16  1  0.67062700  0.91713300  0.47089000  1
  O  O17  1  0.37066400  0.62933600  0.75000000  1
  O  O18  1  0.68237500  0.93950300  0.03914000  1
  O  O19  1  0.06049700  0.31762500  0.46086000  1
  O  O20  1  0.36065400  0.63934600  0.25000000  1
  O  O21  1  0.07178000  0.92822000  0.25000000  1
