# generated using pymatgen
data_SrCrO3
_symmetry_space_group_name_H-M   'P 1'
_cell_length_a   5.53731143
_cell_length_b   5.53731143
_cell_length_c   9.28272600
_cell_angle_alpha   90.00000000
_cell_angle_beta   90.00000000
_cell_angle_gamma   119.38117357
_symmetry_Int_Tables_number   1
_chemical_formula_structural   SrCrO3
_chemical_formula_sum   'Sr4 Cr4 O12'
_cell_volume   248.01534962
_cell_formula_units_Z   4
loop_
 _symmetry_equiv_pos_site_id
 _symmetry_equiv_pos_as_xyz
  1  'x, y, z'
loop_
 _atom_site_type_symbol
 _atom_site_label
 _atom_site_symmetry_multiplicity
 _atom_site_fract_x
 _atom_site_fract_y
 _atom_site_fract_z
 _atom_site_occupancy
  Sr  Sr0  1  0.66910000  0.33154600  0.25000000  1
  Sr  Sr1  1  0.99999700  0.99999700  0.50000000  1
  Sr  Sr2  1  0.99999700  0.99999700  0.00000000  1
  Sr  Sr3  1  0.33154600  0.66910000  0.75000000  1
  Cr  Cr4  1  0.65877800  0.33013100  0.88770700  1
  Cr  Cr5  1  0.65877800  0.33013100  0.61229300  1
  Cr  Cr6  1  0.33013100  0.65877800  0.38770700  1
  Cr  Cr7  1  0.33013100  0.65877800  0.11229300  1
  O  O8  1  0.50815300  0.00784500  0.50231300  1
  O  O9  1  0.50815300  0.00784500  0.99768700  1
  O  O10  1  0.35068900  0.17931400  0.75000000  1
  O  O11  1  0.81951700  0.18435700  0.75000000  1
  O  O12  1  0.81724300  0.63778800  0.75000000  1
  O  O13  1  0.00784500  0.50815300  0.49768700  1
  O  O14  1  0.00784500  0.50815300  0.00231300  1
  O  O15  1  0.17931400  0.35068900  0.25000000  1
  O  O16  1  0.50734900  0.50734900  0.50000000  1
  O  O17  1  0.50734900  0.50734900  0.00000000  1
  O  O18  1  0.18435700  0.81951700  0.25000000  1
  O  O19  1  0.63778800  0.81724300  0.25000000  1
