# generated using pymatgen
data_Be3Co
_symmetry_space_group_name_H-M   'P 1'
_cell_length_a   4.10549432
_cell_length_b   4.10549432
_cell_length_c   4.10549432
_cell_angle_alpha   135.79950517
_cell_angle_beta   135.79950517
_cell_angle_gamma   64.29045610
_symmetry_Int_Tables_number   1
_chemical_formula_structural   Be3Co
_chemical_formula_sum   'Be3 Co1'
_cell_volume   33.17339150
_cell_formula_units_Z   1
loop_
 _symmetry_equiv_pos_site_id
 _symmetry_equiv_pos_as_xyz
  1  'x, y, z'
loop_
 _atom_site_type_symbol
 _atom_site_label
 _atom_site_symmetry_multiplicity
 _atom_site_fract_x
 _atom_site_fract_y
 _atom_site_fract_z
 _atom_site_occupancy
  Be  Be0  1  0.75000000  0.25000000  0.50000000  1
  Be  Be1  1  0.25000000  0.75000000  0.50000000  1
  Be  Be2  1  0.50000000  0.50000000  0.00000000  1
  Co  Co3  1  0.00000000  0.00000000  0.00000000  1
