# generated using pymatgen
data_Li8Mn15CrO32
_symmetry_space_group_name_H-M   'P 1'
_cell_length_a   8.48051453
_cell_length_b   10.34473721
_cell_length_c   8.28059616
_cell_angle_alpha   66.83674544
_cell_angle_beta   89.46207960
_cell_angle_gamma   114.05516053
_symmetry_Int_Tables_number   1
_chemical_formula_structural   Li8Mn15CrO32
_chemical_formula_sum   'Li8 Mn15 Cr1 O32'
_cell_volume   597.28892454
_cell_formula_units_Z   1
loop_
 _symmetry_equiv_pos_site_id
 _symmetry_equiv_pos_as_xyz
  1  'x, y, z'
loop_
 _atom_site_type_symbol
 _atom_site_label
 _atom_site_symmetry_multiplicity
 _atom_site_fract_x
 _atom_site_fract_y
 _atom_site_fract_z
 _atom_site_occupancy
  Li  Li0  1  0.94099100  0.12274900  0.81529500  1
  Li  Li1  1  0.44303100  0.12253200  0.31518700  1
  Li  Li2  1  0.30921700  0.37734400  0.43578000  1
  Li  Li3  1  0.81071100  0.38130000  0.93552100  1
  Li  Li4  1  0.18794100  0.61373900  0.06646800  1
  Li  Li5  1  0.69002700  0.61979500  0.56348600  1
  Li  Li6  1  0.55873800  0.87730300  0.68586100  1
  Li  Li7  1  0.06188700  0.88330000  0.18112000  1
  Mn  Mn8  1  0.24990700  0.99945600  0.75356300  1
  Mn  Mn9  1  0.49618900  0.99805600  0.00086700  1
  Mn  Mn10  1  0.74986600  0.00293800  0.24814500  1
  Mn  Mn11  1  0.38813500  0.25940400  0.86873500  1
  Mn  Mn12  1  0.87861500  0.25243200  0.37460700  1
  Mn  Mn13  1  0.62744200  0.25529600  0.62464800  1
  Mn  Mn14  1  0.12514300  0.25056400  0.12613200  1
  Mn  Mn15  1  0.24936600  0.49724700  0.75102300  1
  Mn  Mn16  1  0.00134100  0.50211500  0.49567400  1
  Mn  Mn17  1  0.75590300  0.50292400  0.24776600  1
  Mn  Mn18  1  0.50191400  0.49742600  0.00043100  1
  Mn  Mn19  1  0.87257700  0.74738500  0.87476000  1
  Mn  Mn20  1  0.37245700  0.74259200  0.37602100  1
  Mn  Mn21  1  0.11768500  0.74514300  0.62665000  1
  Mn  Mn22  1  0.61596700  0.74261700  0.12879200  1
  Cr  Cr23  1  0.99818800  0.99935600  0.50171700  1
  O  O24  1  0.99287000  0.02162300  0.24749800  1
  O  O25  1  0.76864300  0.02037700  0.47813700  1
  O  O26  1  0.47972600  0.99895900  0.76917100  1
  O  O27  1  0.27303500  0.02753700  0.97744900  1
  O  O28  1  0.09888300  0.23502700  0.37780600  1
  O  O29  1  0.87877400  0.25516800  0.14625300  1
  O  O30  1  0.60990000  0.25071800  0.86037700  1
  O  O31  1  0.39525300  0.25685000  0.63828100  1
  O  O32  1  0.15874100  0.26761600  0.87303100  1
  O  O33  1  0.39168600  0.27168500  0.09893500  1
  O  O34  1  0.65340700  0.26594900  0.38241100  1
  O  O35  1  0.87465800  0.27204900  0.60564800  1
  O  O36  1  0.49915300  0.48653400  0.77498200  1
  O  O37  1  0.99749500  0.48009200  0.27643300  1
  O  O38  1  0.26510200  0.48303200  0.99564300  1
  O  O39  1  0.78243000  0.51098000  0.47275200  1
  O  O40  1  0.23798000  0.51323900  0.50580900  1
  O  O41  1  0.74059900  0.51697000  0.00469700  1
  O  O42  1  0.00458900  0.51984200  0.71884400  1
  O  O43  1  0.50750000  0.51643100  0.22289200  1
  O  O44  1  0.84912600  0.73966100  0.11326800  1
  O  O45  1  0.34528100  0.73248900  0.61979400  1
  O  O46  1  0.63055600  0.73371500  0.89450900  1
  O  O47  1  0.13552000  0.73629600  0.39119800  1
  O  O48  1  0.09535800  0.73824500  0.86210500  1
  O  O49  1  0.89464200  0.76036200  0.63262000  1
  O  O50  1  0.38949700  0.74472500  0.14382700  1
  O  O51  1  0.59841800  0.74013500  0.36222500  1
  O  O52  1  0.72480000  0.97362300  0.02538800  1
  O  O53  1  0.00279000  0.97526100  0.75567000  1
  O  O54  1  0.22702400  0.97510100  0.52592800  1
  O  O55  1  0.49922500  0.97293100  0.25092300  1
