# generated using pymatgen
data_La2MgI8
_symmetry_space_group_name_H-M   'P 1'
_cell_length_a   9.46298139
_cell_length_b   9.46298139
_cell_length_c   13.54212782
_cell_angle_alpha   69.02008467
_cell_angle_beta   69.02008467
_cell_angle_gamma   61.56952152
_symmetry_Int_Tables_number   1
_chemical_formula_structural   La2MgI8
_chemical_formula_sum   'La4 Mg2 I16'
_cell_volume   969.38861934
_cell_formula_units_Z   2
loop_
 _symmetry_equiv_pos_site_id
 _symmetry_equiv_pos_as_xyz
  1  'x, y, z'
loop_
 _atom_site_type_symbol
 _atom_site_label
 _atom_site_symmetry_multiplicity
 _atom_site_fract_x
 _atom_site_fract_y
 _atom_site_fract_z
 _atom_site_occupancy
  La  La0  1  0.56263200  0.98273900  0.18951600  1
  La  La1  1  0.98273900  0.56263200  0.68951600  1
  La  La2  1  0.01726100  0.43736800  0.31048400  1
  La  La3  1  0.43736800  0.01726100  0.81048400  1
  Mg  Mg4  1  0.00915400  0.99084600  0.25000000  1
  Mg  Mg5  1  0.99084600  0.00915400  0.75000000  1
  I  I6  1  0.62609200  0.63431000  0.36221000  1
  I  I7  1  0.19851700  0.03850400  0.37483300  1
  I  I8  1  0.92906700  0.33421500  0.14872200  1
  I  I9  1  0.34399000  0.89607700  0.09430400  1
  I  I10  1  0.63431000  0.62609200  0.86221000  1
  I  I11  1  0.03850400  0.19851700  0.87483300  1
  I  I12  1  0.33421500  0.92906700  0.64872200  1
  I  I13  1  0.89607700  0.34399000  0.59430400  1
  I  I14  1  0.10392300  0.65601000  0.40569600  1
  I  I15  1  0.66578500  0.07093300  0.35127800  1
  I  I16  1  0.96149600  0.80148300  0.12516700  1
  I  I17  1  0.36569000  0.37390800  0.13779000  1
  I  I18  1  0.65601000  0.10392300  0.90569600  1
  I  I19  1  0.07093300  0.66578500  0.85127800  1
  I  I20  1  0.80148300  0.96149600  0.62516700  1
  I  I21  1  0.37390800  0.36569000  0.63779000  1
