# generated using pymatgen
data_Te2W
_symmetry_space_group_name_H-M   'P 1'
_cell_length_a   3.55672731
_cell_length_b   3.55672731
_cell_length_c   32.58847800
_cell_angle_alpha   90.00000000
_cell_angle_beta   90.00000000
_cell_angle_gamma   119.99998707
_symmetry_Int_Tables_number   1
_chemical_formula_structural   Te2W
_chemical_formula_sum   'Te6 W3'
_cell_volume   357.02276092
_cell_formula_units_Z   3
loop_
 _symmetry_equiv_pos_site_id
 _symmetry_equiv_pos_as_xyz
  1  'x, y, z'
loop_
 _atom_site_type_symbol
 _atom_site_label
 _atom_site_symmetry_multiplicity
 _atom_site_fract_x
 _atom_site_fract_y
 _atom_site_fract_z
 _atom_site_occupancy
  Te  Te0  1  0.00000000  0.00000000  0.05573600  1
  Te  Te1  1  0.33333300  0.66666700  0.71295400  1
  Te  Te2  1  0.33333300  0.66666700  0.17557900  1
  Te  Te3  1  0.33333300  0.66666700  0.82442100  1
  Te  Te4  1  0.33333300  0.66666700  0.28704600  1
  Te  Te5  1  0.00000000  0.00000000  0.94426400  1
  W  W6  1  0.00000000  0.00000000  0.76865600  1
  W  W7  1  0.00000000  0.00000000  0.23134400  1
  W  W8  1  0.33333300  0.66666700  0.00000000  1
