# generated using pymatgen
data_Na2FeCSO7
_symmetry_space_group_name_H-M   'P 1'
_cell_length_a   5.27609377
_cell_length_b   18.30290504
_cell_length_c   6.81522006
_cell_angle_alpha   89.89858952
_cell_angle_beta   89.80347433
_cell_angle_gamma   88.30105227
_symmetry_Int_Tables_number   1
_chemical_formula_structural   Na2FeCSO7
_chemical_formula_sum   'Na8 Fe4 C4 S4 O28'
_cell_volume   657.83700475
_cell_formula_units_Z   4
loop_
 _symmetry_equiv_pos_site_id
 _symmetry_equiv_pos_as_xyz
  1  'x, y, z'
loop_
 _atom_site_type_symbol
 _atom_site_label
 _atom_site_symmetry_multiplicity
 _atom_site_fract_x
 _atom_site_fract_y
 _atom_site_fract_z
 _atom_site_occupancy
  Na  Na0  1  0.22848300  0.10391500  0.99513500  1
  Na  Na1  1  0.22971000  0.60380400  0.99557000  1
  Na  Na2  1  0.23089000  0.10469900  0.50348400  1
  Na  Na3  1  0.23221900  0.60408300  0.50459000  1
  Na  Na4  1  0.77115900  0.39662500  0.49509500  1
  Na  Na5  1  0.76850000  0.89574600  0.49494900  1
  Na  Na6  1  0.76700900  0.39674100  0.00587700  1
  Na  Na7  1  0.77027400  0.89573400  0.00455200  1
  Fe  Fe8  1  0.77389100  0.67930000  0.75018600  1
  Fe  Fe9  1  0.22282200  0.32104500  0.24920000  1
  Fe  Fe10  1  0.77055700  0.17927100  0.74925600  1
  Fe  Fe11  1  0.22713500  0.82054200  0.24977800  1
  C  C12  1  0.72692100  0.04083700  0.74954100  1
  C  C13  1  0.72784100  0.54076600  0.75017200  1
  C  C14  1  0.27344300  0.45910400  0.25077300  1
  C  C15  1  0.27194400  0.95914500  0.24969500  1
  S  S16  1  0.72543000  0.21129500  0.24975900  1
  S  S17  1  0.72642700  0.71144400  0.25017100  1
  S  S18  1  0.27414500  0.28855300  0.75022700  1
  S  S19  1  0.27438800  0.78829600  0.74967500  1
  O  O20  1  0.30712700  0.02721700  0.24996500  1
  O  O21  1  0.31222200  0.52701500  0.25040900  1
  O  O22  1  0.69144800  0.47274400  0.75009000  1
  O  O23  1  0.69438500  0.97264600  0.74972200  1
  O  O24  1  0.95035400  0.07015200  0.74957800  1
  O  O25  1  0.95256500  0.56906000  0.75000500  1
  O  O26  1  0.04778200  0.43151000  0.24877900  1
  O  O27  1  0.04772400  0.93049400  0.24945800  1
  O  O28  1  0.53432400  0.08911300  0.74931400  1
  O  O29  1  0.53726300  0.58975800  0.75047700  1
  O  O30  1  0.46305400  0.40958800  0.25338200  1
  O  O31  1  0.46318400  0.91032400  0.24960000  1
  O  O32  1  0.16626700  0.21368900  0.75003000  1
  O  O33  1  0.16721300  0.71317100  0.74974800  1
  O  O34  1  0.83432800  0.28637400  0.24705700  1
  O  O35  1  0.83338400  0.78656300  0.25003600  1
  O  O36  1  0.44099400  0.21919900  0.25424200  1
  O  O37  1  0.44112400  0.71887600  0.25069500  1
  O  O38  1  0.55959500  0.28091700  0.75040400  1
  O  O39  1  0.55960900  0.78083900  0.74931300  1
  O  O40  1  0.80976700  0.17027200  0.07244400  1
  O  O41  1  0.81395600  0.67092400  0.07288300  1
  O  O42  1  0.81534000  0.17103800  0.42680200  1
  O  O43  1  0.81365100  0.67066200  0.42705700  1
  O  O44  1  0.18888400  0.32981800  0.57339600  1
  O  O45  1  0.18734900  0.82905500  0.57271700  1
  O  O46  1  0.18713800  0.32924200  0.92773200  1
  O  O47  1  0.18678100  0.82879500  0.92697900  1
