# generated using pymatgen
data_Fe2Ni3P6WO24
_symmetry_space_group_name_H-M   'P 1'
_cell_length_a   8.44917874
_cell_length_b   8.44917874
_cell_length_c   8.44917936
_cell_angle_alpha   61.88912212
_cell_angle_beta   61.88912212
_cell_angle_gamma   61.88912108
_symmetry_Int_Tables_number   1
_chemical_formula_structural   Fe2Ni3P6WO24
_chemical_formula_sum   'Fe2 Ni3 P6 W1 O24'
_cell_volume   444.54593672
_cell_formula_units_Z   1
loop_
 _symmetry_equiv_pos_site_id
 _symmetry_equiv_pos_as_xyz
  1  'x, y, z'
loop_
 _atom_site_type_symbol
 _atom_site_label
 _atom_site_symmetry_multiplicity
 _atom_site_fract_x
 _atom_site_fract_y
 _atom_site_fract_z
 _atom_site_occupancy
  Fe  Fe0  1  0.01171800  0.01171800  0.01171800  1
  Fe  Fe1  1  0.50329100  0.50329100  0.50329100  1
  Ni  Ni2  1  0.35658600  0.35658600  0.35658600  1
  Ni  Ni3  1  0.14799400  0.14799400  0.14799400  1
  Ni  Ni4  1  0.64256700  0.64256700  0.64256700  1
  P  P5  1  0.74168500  0.04910100  0.44969900  1
  P  P6  1  0.04910100  0.44969900  0.74168500  1
  P  P7  1  0.44969900  0.74168500  0.04910100  1
  P  P8  1  0.53823700  0.25523400  0.95368200  1
  P  P9  1  0.95368200  0.53823700  0.25523400  1
  P  P10  1  0.25523400  0.95368200  0.53823700  1
  W  W11  1  0.85806000  0.85806000  0.85806000  1
  O  O12  1  0.89570400  0.49564700  0.67278300  1
  O  O13  1  0.49564700  0.67278300  0.89570400  1
  O  O14  1  0.67278300  0.89570400  0.49564700  1
  O  O15  1  0.90085100  0.06401800  0.25375000  1
  O  O16  1  0.82349800  0.98720400  0.61721000  1
  O  O17  1  0.59855000  0.24723800  0.45288700  1
  O  O18  1  0.06401800  0.25375000  0.90085100  1
  O  O19  1  0.24723800  0.45288700  0.59855000  1
  O  O20  1  0.39787000  0.17103100  0.99136100  1
  O  O21  1  0.45288700  0.59855000  0.24723800  1
  O  O22  1  0.75208700  0.09132800  0.92790000  1
  O  O23  1  0.99136100  0.39787000  0.17103100  1
  O  O24  1  0.98720400  0.61721000  0.82349800  1
  O  O25  1  0.25375000  0.90085100  0.06401800  1
  O  O26  1  0.56213100  0.40207000  0.74983600  1
  O  O27  1  0.61721000  0.82349800  0.98720400  1
  O  O28  1  0.74983600  0.56213100  0.40207000  1
  O  O29  1  0.92790000  0.75208700  0.09132800  1
  O  O30  1  0.40207000  0.74983600  0.56213100  1
  O  O31  1  0.17103100  0.99136100  0.39787000  1
  O  O32  1  0.09132800  0.92790000  0.75208700  1
  O  O33  1  0.31108400  0.10720900  0.51890900  1
  O  O34  1  0.51890900  0.31108400  0.10720900  1
  O  O35  1  0.10720900  0.51890900  0.31108400  1
