# generated using pymatgen
data_Na2MnSiCO7
_symmetry_space_group_name_H-M   'P 1'
_cell_length_a   8.29998013
_cell_length_b   8.29998013
_cell_length_c   10.27603205
_cell_angle_alpha   107.45781579
_cell_angle_beta   107.45781579
_cell_angle_gamma   101.97308464
_symmetry_Int_Tables_number   1
_chemical_formula_structural   Na2MnSiCO7
_chemical_formula_sum   'Na8 Mn4 Si4 C4 O28'
_cell_volume   608.81174277
_cell_formula_units_Z   4
loop_
 _symmetry_equiv_pos_site_id
 _symmetry_equiv_pos_as_xyz
  1  'x, y, z'
loop_
 _atom_site_type_symbol
 _atom_site_label
 _atom_site_symmetry_multiplicity
 _atom_site_fract_x
 _atom_site_fract_y
 _atom_site_fract_z
 _atom_site_occupancy
  Na  Na0  1  0.24859600  0.23486100  0.24161900  1
  Na  Na1  1  0.74859600  0.73486100  0.24161900  1
  Na  Na2  1  0.48486100  0.99859600  0.24161900  1
  Na  Na3  1  0.98486100  0.49859600  0.24161900  1
  Na  Na4  1  0.01513900  0.50140400  0.75838100  1
  Na  Na5  1  0.51513900  0.00140400  0.75838100  1
  Na  Na6  1  0.25140400  0.26513900  0.75838100  1
  Na  Na7  1  0.75140400  0.76513900  0.75838100  1
  Mn  Mn8  1  0.44520800  0.69520800  0.34921200  1
  Mn  Mn9  1  0.05479200  0.80479200  0.65078800  1
  Mn  Mn10  1  0.94520800  0.19520800  0.34921200  1
  Mn  Mn11  1  0.55479200  0.30479200  0.65078800  1
  Si  Si12  1  0.69756600  0.44756600  0.42956200  1
  Si  Si13  1  0.19756600  0.94756600  0.42956200  1
  Si  Si14  1  0.80243400  0.05243400  0.57043800  1
  Si  Si15  1  0.30243400  0.55243400  0.57043800  1
  C  C16  1  0.77762500  0.02762500  0.08064300  1
  C  C17  1  0.27762500  0.52762500  0.08064300  1
  C  C18  1  0.72237500  0.47237500  0.91935700  1
  C  C19  1  0.22237500  0.97237500  0.91935700  1
  O  O20  1  0.30770700  0.05770700  0.05495000  1
  O  O21  1  0.80770700  0.55770700  0.05495000  1
  O  O22  1  0.19229300  0.44229300  0.94505000  1
  O  O23  1  0.69229300  0.94229300  0.94505000  1
  O  O24  1  0.92012000  0.17012000  0.14027800  1
  O  O25  1  0.42012000  0.67012000  0.14027800  1
  O  O26  1  0.57988000  0.32988000  0.85972200  1
  O  O27  1  0.07988000  0.82988000  0.85972200  1
  O  O28  1  0.73497000  0.98497000  0.18314000  1
  O  O29  1  0.23497000  0.48497000  0.18314000  1
  O  O30  1  0.76503000  0.51503000  0.81686000  1
  O  O31  1  0.26503000  0.01503000  0.81686000  1
  O  O32  1  0.64921500  0.89921500  0.41398000  1
  O  O33  1  0.14921500  0.39921500  0.41398000  1
  O  O34  1  0.85078500  0.60078500  0.58602000  1
  O  O35  1  0.35078500  0.10078500  0.58602000  1
  O  O36  1  0.55893900  0.30893900  0.46669200  1
  O  O37  1  0.05893900  0.80893900  0.46669200  1
  O  O38  1  0.94106100  0.19106100  0.53330800  1
  O  O39  1  0.44106100  0.69106100  0.53330800  1
  O  O40  1  0.58385200  0.53694400  0.32816500  1
  O  O41  1  0.08385200  0.03694400  0.32816500  1
  O  O42  1  0.78694400  0.33385200  0.32816500  1
  O  O43  1  0.28694400  0.83385200  0.32816500  1
  O  O44  1  0.71305600  0.16614800  0.67183500  1
  O  O45  1  0.21305600  0.66614800  0.67183500  1
  O  O46  1  0.91614800  0.96305600  0.67183500  1
  O  O47  1  0.41614800  0.46305600  0.67183500  1
