# generated using pymatgen
data_Na3CrAsCO7
_symmetry_space_group_name_H-M   'P 1'
_cell_length_a   9.32350495
_cell_length_b   6.86716100
_cell_length_c   5.35308104
_cell_angle_alpha   90.00156066
_cell_angle_beta   88.09251303
_cell_angle_gamma   90.00374810
_symmetry_Int_Tables_number   1
_chemical_formula_structural   Na3CrAsCO7
_chemical_formula_sum   'Na6 Cr2 As2 C2 O14'
_cell_volume   342.54649838
_cell_formula_units_Z   2
loop_
 _symmetry_equiv_pos_site_id
 _symmetry_equiv_pos_as_xyz
  1  'x, y, z'
loop_
 _atom_site_type_symbol
 _atom_site_label
 _atom_site_symmetry_multiplicity
 _atom_site_fract_x
 _atom_site_fract_y
 _atom_site_fract_z
 _atom_site_occupancy
  Na  Na0  1  0.08441000  0.24995900  0.79266400  1
  Na  Na1  1  0.25637700  0.00228500  0.25077700  1
  Na  Na2  1  0.25638500  0.49765100  0.25075800  1
  Na  Na3  1  0.74364400  0.50227400  0.74930400  1
  Na  Na4  1  0.74362900  0.99764300  0.74934400  1
  Na  Na5  1  0.91560300  0.74995300  0.20734100  1
  Cr  Cr6  1  0.34700900  0.75021700  0.77128000  1
  Cr  Cr7  1  0.65289800  0.24997900  0.22808300  1
  As  As8  1  0.41936100  0.25008300  0.68695200  1
  As  As9  1  0.58064000  0.74998600  0.31313800  1
  C  C10  1  0.04921900  0.74998700  0.70975100  1
  C  C11  1  0.95079900  0.24997200  0.29023700  1
  O  O12  1  0.08908600  0.24996100  0.25269700  1
  O  O13  1  0.13083800  0.75003900  0.90579300  1
  O  O14  1  0.10688900  0.74998300  0.48687100  1
  O  O15  1  0.31193500  0.05338700  0.77052100  1
  O  O16  1  0.31197300  0.44681800  0.77050300  1
  O  O17  1  0.44032200  0.24998000  0.36283900  1
  O  O18  1  0.41531000  0.74999800  0.18627400  1
  O  O19  1  0.58467200  0.24997800  0.81390300  1
  O  O20  1  0.55967800  0.75003700  0.63727600  1
  O  O21  1  0.68803500  0.55324000  0.22962100  1
  O  O22  1  0.68806000  0.94668200  0.22954600  1
  O  O23  1  0.89311100  0.24997000  0.51309300  1
  O  O24  1  0.86919400  0.24999300  0.09411800  1
  O  O25  1  0.91092400  0.74994700  0.74731600  1
