# generated using pymatgen
data_V(SbO3)4
_symmetry_space_group_name_H-M   'P 1'
_cell_length_a   5.49979710
_cell_length_b   17.12036120
_cell_length_c   9.17506394
_cell_angle_alpha   96.86232795
_cell_angle_beta   85.50768490
_cell_angle_gamma   88.81542613
_symmetry_Int_Tables_number   1
_chemical_formula_structural   V(SbO3)4
_chemical_formula_sum   'V4 Sb16 O48'
_cell_volume   854.69267626
_cell_formula_units_Z   4
loop_
 _symmetry_equiv_pos_site_id
 _symmetry_equiv_pos_as_xyz
  1  'x, y, z'
loop_
 _atom_site_type_symbol
 _atom_site_label
 _atom_site_symmetry_multiplicity
 _atom_site_fract_x
 _atom_site_fract_y
 _atom_site_fract_z
 _atom_site_occupancy
  V  V0  1  0.59671800  0.56727200  0.71007500  1
  V  V1  1  0.59657200  0.81773200  0.45933200  1
  V  V2  1  0.59702900  0.31743900  0.96098600  1
  V  V3  1  0.59601100  0.06736800  0.21143400  1
  Sb  Sb4  1  0.99181600  0.99400500  0.97608800  1
  Sb  Sb5  1  0.99346000  0.24345400  0.72657500  1
  Sb  Sb6  1  0.99385600  0.49338900  0.47629100  1
  Sb  Sb7  1  0.99304100  0.74349600  0.22529600  1
  Sb  Sb8  1  0.46066400  0.50062100  0.01107500  1
  Sb  Sb9  1  0.46044400  0.75049800  0.75973700  1
  Sb  Sb10  1  0.46035000  0.00091200  0.51210600  1
  Sb  Sb11  1  0.46109300  0.25064600  0.26185200  1
  Sb  Sb12  1  0.99094000  0.87274800  0.62950000  1
  Sb  Sb13  1  0.99135000  0.12258400  0.38010200  1
  Sb  Sb14  1  0.99174900  0.37236900  0.13017400  1
  Sb  Sb15  1  0.99150500  0.62239400  0.87923800  1
  Sb  Sb16  1  0.46731000  0.62107600  0.35496500  1
  Sb  Sb17  1  0.46650300  0.87108300  0.10410500  1
  Sb  Sb18  1  0.46688400  0.12122500  0.85594600  1
  Sb  Sb19  1  0.46769000  0.37093100  0.60574400  1
  O  O20  1  0.75200600  0.42203200  0.99140900  1
  O  O21  1  0.75185500  0.67188900  0.74004400  1
  O  O22  1  0.75156100  0.92235000  0.49057100  1
  O  O23  1  0.75204700  0.17211700  0.24163200  1
  O  O24  1  0.98336900  0.46956300  0.26068700  1
  O  O25  1  0.98239000  0.71960100  0.00965700  1
  O  O26  1  0.98214300  0.96983600  0.76023200  1
  O  O27  1  0.98449600  0.21971400  0.51078600  1
  O  O28  1  0.16251400  0.59381300  0.46290800  1
  O  O29  1  0.16208400  0.84380900  0.21212800  1
  O  O30  1  0.16060900  0.09435000  0.96295300  1
  O  O31  1  0.16255600  0.34383900  0.71346600  1
  O  O32  1  0.29777300  0.39504700  0.00832500  1
  O  O33  1  0.29753000  0.64491600  0.75718100  1
  O  O34  1  0.29715300  0.89533000  0.50788400  1
  O  O35  1  0.29772500  0.14511000  0.25834500  1
  O  O36  1  0.30076400  0.68697600  0.23237500  1
  O  O37  1  0.29922000  0.93726100  0.98259000  1
  O  O38  1  0.30124500  0.18693300  0.73295900  1
  O  O39  1  0.30157700  0.43681000  0.48299400  1
  O  O40  1  0.48773600  0.52321300  0.21865900  1
  O  O41  1  0.48699900  0.77335500  0.96733600  1
  O  O42  1  0.48687200  0.02311600  0.71984100  1
  O  O43  1  0.48844000  0.27301600  0.46949700  1
  O  O44  1  0.46297500  0.72751900  0.52034500  1
  O  O45  1  0.46313000  0.97740100  0.27163900  1
  O  O46  1  0.46369500  0.22732300  0.02182300  1
  O  O47  1  0.46346300  0.47722600  0.77146600  1
  O  O48  1  0.65592600  0.56229000  0.50146100  1
  O  O49  1  0.65544300  0.81248800  0.25064200  1
  O  O50  1  0.65420200  0.06260300  0.00251100  1
  O  O51  1  0.65598700  0.31231800  0.75229600  1
  O  O52  1  0.64720100  0.83750600  0.68502700  1
  O  O53  1  0.64747400  0.08759300  0.43689800  1
  O  O54  1  0.64789600  0.33746000  0.18662400  1
  O  O55  1  0.64752000  0.58744800  0.93557400  1
  O  O56  1  0.78755000  0.65439100  0.27310200  1
  O  O57  1  0.78613900  0.90468600  0.02266700  1
  O  O58  1  0.78730600  0.15430800  0.77368500  1
  O  O59  1  0.78789500  0.40429900  0.52382000  1
  O  O60  1  0.93247800  0.78506400  0.45380600  1
  O  O61  1  0.93263800  0.03476000  0.20517800  1
  O  O62  1  0.93337200  0.28462700  0.95535900  1
  O  O63  1  0.93313300  0.53444500  0.70481000  1
  O  O64  1  0.14034800  0.80194100  0.75003900  1
  O  O65  1  0.14072600  0.05217500  0.50150100  1
  O  O66  1  0.14134400  0.30200300  0.25154400  1
  O  O67  1  0.14090300  0.55217500  0.00099200  1
