# generated using pymatgen
data_La2WO6
_symmetry_space_group_name_H-M   'P 1'
_cell_length_a   10.34536126
_cell_length_b   10.34536126
_cell_length_c   5.68092462
_cell_angle_alpha   75.90151791
_cell_angle_beta   75.90151791
_cell_angle_gamma   68.90038048
_symmetry_Int_Tables_number   1
_chemical_formula_structural   La2WO6
_chemical_formula_sum   'La8 W4 O24'
_cell_volume   541.93255354
_cell_formula_units_Z   4
loop_
 _symmetry_equiv_pos_site_id
 _symmetry_equiv_pos_as_xyz
  1  'x, y, z'
loop_
 _atom_site_type_symbol
 _atom_site_label
 _atom_site_symmetry_multiplicity
 _atom_site_fract_x
 _atom_site_fract_y
 _atom_site_fract_z
 _atom_site_occupancy
  La  La0  1  0.94043700  0.71011300  0.38839000  1
  La  La1  1  0.71011300  0.94043700  0.88839000  1
  La  La2  1  0.36903700  0.63096300  0.25000000  1
  La  La3  1  0.88926900  0.11073100  0.25000000  1
  La  La4  1  0.11073100  0.88926900  0.75000000  1
  La  La5  1  0.63096300  0.36903700  0.75000000  1
  La  La6  1  0.28988700  0.05956300  0.11161000  1
  La  La7  1  0.05956300  0.28988700  0.61161000  1
  W  W8  1  0.80033900  0.50381900  0.06401500  1
  W  W9  1  0.50381900  0.80033900  0.56401500  1
  W  W10  1  0.49618100  0.19966100  0.43598500  1
  W  W11  1  0.19966100  0.49618100  0.93598500  1
  O  O12  1  0.89344300  0.92087600  0.07771700  1
  O  O13  1  0.92087600  0.89344300  0.57771700  1
  O  O14  1  0.52738300  0.93327100  0.27738500  1
  O  O15  1  0.78215300  0.67412500  0.14585500  1
  O  O16  1  0.93327100  0.52738300  0.77738500  1
  O  O17  1  0.67412500  0.78215300  0.64585500  1
  O  O18  1  0.82708500  0.38394300  0.36692000  1
  O  O19  1  0.38394300  0.82708500  0.86692000  1
  O  O20  1  0.61794100  0.54273200  0.02326000  1
  O  O21  1  0.32003600  0.83707400  0.42021300  1
  O  O22  1  0.54273200  0.61794100  0.52326000  1
  O  O23  1  0.83707400  0.32003600  0.92021300  1
  O  O24  1  0.16292600  0.67996400  0.07978700  1
  O  O25  1  0.45726800  0.38205900  0.47674000  1
  O  O26  1  0.67996400  0.16292600  0.57978700  1
  O  O27  1  0.38205900  0.45726800  0.97674000  1
  O  O28  1  0.61605700  0.17291500  0.13308000  1
  O  O29  1  0.17291500  0.61605700  0.63308000  1
  O  O30  1  0.32587500  0.21784700  0.35414500  1
  O  O31  1  0.06672900  0.47261700  0.22261500  1
  O  O32  1  0.21784700  0.32587500  0.85414500  1
  O  O33  1  0.47261700  0.06672900  0.72261500  1
  O  O34  1  0.07912400  0.10655700  0.42228300  1
  O  O35  1  0.10655700  0.07912400  0.92228300  1
