# generated using pymatgen
data_ZnF2
_symmetry_space_group_name_H-M   'P 1'
_cell_length_a   4.76176700
_cell_length_b   5.24874900
_cell_length_c   5.78271800
_cell_angle_alpha   90.00000000
_cell_angle_beta   90.00000000
_cell_angle_gamma   90.00000000
_symmetry_Int_Tables_number   1
_chemical_formula_structural   ZnF2
_chemical_formula_sum   'Zn4 F8'
_cell_volume   144.52932017
_cell_formula_units_Z   4
loop_
 _symmetry_equiv_pos_site_id
 _symmetry_equiv_pos_as_xyz
  1  'x, y, z'
loop_
 _atom_site_type_symbol
 _atom_site_label
 _atom_site_symmetry_multiplicity
 _atom_site_fract_x
 _atom_site_fract_y
 _atom_site_fract_z
 _atom_site_occupancy
  Zn  Zn0  1  0.50000000  0.75000000  0.66112700  1
  Zn  Zn1  1  0.00000000  0.25000000  0.83887300  1
  Zn  Zn2  1  0.50000000  0.25000000  0.33887300  1
  Zn  Zn3  1  0.00000000  0.75000000  0.16112700  1
  F  F4  1  0.72974600  0.08063200  0.61373400  1
  F  F5  1  0.22974600  0.91936800  0.88626600  1
  F  F6  1  0.77025400  0.58063200  0.88626600  1
  F  F7  1  0.27025400  0.41936800  0.61373400  1
  F  F8  1  0.72974600  0.58063200  0.38626600  1
  F  F9  1  0.22974600  0.41936800  0.11373400  1
  F  F10  1  0.77025400  0.08063200  0.11373400  1
  F  F11  1  0.27025400  0.91936800  0.38626600  1
