# generated using pymatgen
data_VCrO3
_symmetry_space_group_name_H-M   'P 1'
_cell_length_a   5.11809930
_cell_length_b   5.50588307
_cell_length_c   9.06972429
_cell_angle_alpha   85.10584633
_cell_angle_beta   73.71138013
_cell_angle_gamma   117.76525991
_symmetry_Int_Tables_number   1
_chemical_formula_structural   VCrO3
_chemical_formula_sum   'V4 Cr4 O12'
_cell_volume   209.94190620
_cell_formula_units_Z   4
loop_
 _symmetry_equiv_pos_site_id
 _symmetry_equiv_pos_as_xyz
  1  'x, y, z'
loop_
 _atom_site_type_symbol
 _atom_site_label
 _atom_site_symmetry_multiplicity
 _atom_site_fract_x
 _atom_site_fract_y
 _atom_site_fract_z
 _atom_site_occupancy
  V  V0  1  0.14701300  0.87310900  0.57447800  1
  V  V1  1  0.15150800  0.37074800  0.07525400  1
  V  V2  1  0.35494000  0.87725500  0.17356800  1
  V  V3  1  0.85074600  0.12813400  0.42639500  1
  Cr  Cr4  1  0.34676600  0.37090100  0.67547400  1
  Cr  Cr5  1  0.65339700  0.62946600  0.32457300  1
  Cr  Cr6  1  0.65018900  0.12741900  0.82612300  1
  Cr  Cr7  1  0.85065300  0.62369700  0.92427200  1
  O  O8  1  0.05145900  0.52440800  0.72342300  1
  O  O9  1  0.05152400  0.02570200  0.22387500  1
  O  O10  1  0.44711500  0.87436100  0.37381600  1
  O  O11  1  0.55791600  0.62480200  0.12433400  1
  O  O12  1  0.24887200  0.77334600  0.97389500  1
  O  O13  1  0.25121900  0.28029100  0.47312900  1
  O  O14  1  0.74691700  0.72144200  0.52719600  1
  O  O15  1  0.74884200  0.22475300  0.02540800  1
  O  O16  1  0.44751300  0.37448900  0.87476600  1
  O  O17  1  0.55088000  0.12602900  0.62681600  1
  O  O18  1  0.94603100  0.97454000  0.77612700  1
  O  O19  1  0.94649900  0.47510700  0.27707800  1
