# generated using pymatgen
data_Ti3Ni3(TeO8)2
_symmetry_space_group_name_H-M   'P 1'
_cell_length_a   5.97604477
_cell_length_b   5.97604477
_cell_length_c   9.23429384
_cell_angle_alpha   88.86574587
_cell_angle_beta   88.86574587
_cell_angle_gamma   59.26075015
_symmetry_Int_Tables_number   1
_chemical_formula_structural   Ti3Ni3(TeO8)2
_chemical_formula_sum   'Ti3 Ni3 Te2 O16'
_cell_volume   283.37777498
_cell_formula_units_Z   1
loop_
 _symmetry_equiv_pos_site_id
 _symmetry_equiv_pos_as_xyz
  1  'x, y, z'
loop_
 _atom_site_type_symbol
 _atom_site_label
 _atom_site_symmetry_multiplicity
 _atom_site_fract_x
 _atom_site_fract_y
 _atom_site_fract_z
 _atom_site_occupancy
  Ti  Ti0  1  0.33760400  0.83535300  0.79080200  1
  Ti  Ti1  1  0.83535300  0.33760400  0.79080200  1
  Ti  Ti2  1  0.15786200  0.15786200  0.28314200  1
  Ni  Ni3  1  0.82825100  0.82825100  0.79433500  1
  Ni  Ni4  1  0.16466100  0.65810100  0.29180800  1
  Ni  Ni5  1  0.65810100  0.16466100  0.29180800  1
  Te  Te6  1  0.67349600  0.67349600  0.51186900  1
  Te  Te7  1  0.33815700  0.33815700  0.01690200  1
  O  O8  1  0.35640800  0.83681100  0.39860000  1
  O  O9  1  0.52573500  0.52573500  0.65376200  1
  O  O10  1  0.64991500  0.64991500  0.89879500  1
  O  O11  1  0.00576200  0.00576200  0.70360500  1
  O  O12  1  0.99365800  0.99365800  0.19930400  1
  O  O13  1  0.83681100  0.35640800  0.39860000  1
  O  O14  1  0.51091100  0.95815300  0.65170600  1
  O  O15  1  0.95815300  0.51091100  0.65170600  1
  O  O16  1  0.18173200  0.18173200  0.89433900  1
  O  O17  1  0.83677600  0.83677600  0.40756300  1
  O  O18  1  0.03890700  0.46674400  0.15115000  1
  O  O19  1  0.46674400  0.03890700  0.15115000  1
  O  O20  1  0.33383900  0.33383900  0.38647600  1
  O  O21  1  0.18058100  0.65334700  0.90242700  1
  O  O22  1  0.47731000  0.47731000  0.16115900  1
  O  O23  1  0.65334700  0.18058100  0.90242700  1
