# generated using pymatgen
data_Ba5(Ga3O7)2
_symmetry_space_group_name_H-M   'P 1'
_cell_length_a   8.54774320
_cell_length_b   8.54774320
_cell_length_c   11.53987600
_cell_angle_alpha   90.00000000
_cell_angle_beta   90.00000000
_cell_angle_gamma   91.69369095
_symmetry_Int_Tables_number   1
_chemical_formula_structural   Ba5(Ga3O7)2
_chemical_formula_sum   'Ba10 Ga12 O28'
_cell_volume   842.78015090
_cell_formula_units_Z   2
loop_
 _symmetry_equiv_pos_site_id
 _symmetry_equiv_pos_as_xyz
  1  'x, y, z'
loop_
 _atom_site_type_symbol
 _atom_site_label
 _atom_site_symmetry_multiplicity
 _atom_site_fract_x
 _atom_site_fract_y
 _atom_site_fract_z
 _atom_site_occupancy
  Ba  Ba0  1  0.97615400  0.28367900  0.93508000  1
  Ba  Ba1  1  0.71632100  0.02384600  0.43508000  1
  Ba  Ba2  1  0.97495900  0.68732800  0.86816700  1
  Ba  Ba3  1  0.31267200  0.02504100  0.36816700  1
  Ba  Ba4  1  0.48758500  0.48758500  0.40971800  1
  Ba  Ba5  1  0.51241500  0.51241500  0.90971800  1
  Ba  Ba6  1  0.02504100  0.31267200  0.36816700  1
  Ba  Ba7  1  0.68732800  0.97495900  0.86816700  1
  Ba  Ba8  1  0.28367900  0.97615400  0.93508000  1
  Ba  Ba9  1  0.02384600  0.71632100  0.43508000  1
  Ga  Ga10  1  0.84150400  0.35558000  0.65075100  1
  Ga  Ga11  1  0.64442000  0.15849600  0.15075100  1
  Ga  Ga12  1  0.78642200  0.51164700  0.17144400  1
  Ga  Ga13  1  0.48835300  0.21357800  0.67144400  1
  Ga  Ga14  1  0.69943900  0.69943900  0.62678400  1
  Ga  Ga15  1  0.30056100  0.30056100  0.12678400  1
  Ga  Ga16  1  0.00590400  0.00590400  0.64933300  1
  Ga  Ga17  1  0.99409600  0.99409600  0.14933300  1
  Ga  Ga18  1  0.51164700  0.78642200  0.17144400  1
  Ga  Ga19  1  0.21357800  0.48835300  0.67144400  1
  Ga  Ga20  1  0.35558000  0.84150400  0.65075100  1
  Ga  Ga21  1  0.15849600  0.64442000  0.15075100  1
  O  O22  1  0.93168000  0.18541100  0.57047400  1
  O  O23  1  0.81458900  0.06832000  0.07047400  1
  O  O24  1  0.73323000  0.31329300  0.24848300  1
  O  O25  1  0.68670700  0.26677000  0.74848300  1
  O  O26  1  0.98869100  0.55935400  0.23752400  1
  O  O27  1  0.44064600  0.01130900  0.73752400  1
  O  O28  1  0.79897300  0.49503300  0.01385800  1
  O  O29  1  0.50496700  0.20102700  0.51385800  1
  O  O30  1  0.77247600  0.51624800  0.55023600  1
  O  O31  1  0.48375200  0.22752400  0.05023600  1
  O  O32  1  0.00050700  0.00050700  0.80864700  1
  O  O33  1  0.14525000  0.14525000  0.08955200  1
  O  O34  1  0.64866900  0.64866900  0.24024600  1
  O  O35  1  0.99949300  0.99949300  0.30864700  1
  O  O36  1  0.35133100  0.35133100  0.74024600  1
  O  O37  1  0.69419100  0.69419100  0.78337000  1
  O  O38  1  0.30580900  0.30580900  0.28337000  1
  O  O39  1  0.85475000  0.85475000  0.58955200  1
  O  O40  1  0.51624800  0.77247600  0.55023600  1
  O  O41  1  0.22752400  0.48375200  0.05023600  1
  O  O42  1  0.20102700  0.50496700  0.51385800  1
  O  O43  1  0.49503300  0.79897300  0.01385800  1
  O  O44  1  0.01130900  0.44064600  0.73752400  1
  O  O45  1  0.55935400  0.98869100  0.23752400  1
  O  O46  1  0.26677000  0.68670700  0.74848300  1
  O  O47  1  0.31329300  0.73323000  0.24848300  1
  O  O48  1  0.18541100  0.93168000  0.57047400  1
  O  O49  1  0.06832000  0.81458900  0.07047400  1
