# generated using pymatgen
data_Na6Co2As(CO4)4
_symmetry_space_group_name_H-M   'P 1'
_cell_length_a   9.92093441
_cell_length_b   9.92093441
_cell_length_c   9.92093441
_cell_angle_alpha   60.00000000
_cell_angle_beta   60.00000000
_cell_angle_gamma   60.00000000
_symmetry_Int_Tables_number   1
_chemical_formula_structural   Na6Co2As(CO4)4
_chemical_formula_sum   'Na12 Co4 As2 C8 O32'
_cell_volume   690.46669964
_cell_formula_units_Z   2
loop_
 _symmetry_equiv_pos_site_id
 _symmetry_equiv_pos_as_xyz
  1  'x, y, z'
loop_
 _atom_site_type_symbol
 _atom_site_label
 _atom_site_symmetry_multiplicity
 _atom_site_fract_x
 _atom_site_fract_y
 _atom_site_fract_z
 _atom_site_occupancy
  Na  Na0  1  0.03929000  0.46071000  0.03929000  1
  Na  Na1  1  0.03929000  0.03929000  0.46071000  1
  Na  Na2  1  0.46071000  0.03929000  0.03929000  1
  Na  Na3  1  0.78929000  0.21071000  0.78929000  1
  Na  Na4  1  0.03929000  0.46071000  0.46071000  1
  Na  Na5  1  0.46071000  0.46071000  0.03929000  1
  Na  Na6  1  0.21071000  0.78929000  0.78929000  1
  Na  Na7  1  0.78929000  0.78929000  0.21071000  1
  Na  Na8  1  0.46071000  0.03929000  0.46071000  1
  Na  Na9  1  0.21071000  0.21071000  0.78929000  1
  Na  Na10  1  0.78929000  0.21071000  0.21071000  1
  Na  Na11  1  0.21071000  0.78929000  0.21071000  1
  Co  Co12  1  0.62500000  0.62500000  0.12500000  1
  Co  Co13  1  0.12500000  0.62500000  0.62500000  1
  Co  Co14  1  0.62500000  0.12500000  0.62500000  1
  Co  Co15  1  0.62500000  0.62500000  0.62500000  1
  As  As16  1  0.00000000  0.00000000  0.00000000  1
  As  As17  1  0.25000000  0.25000000  0.25000000  1
  C  C18  1  0.83963300  0.83963300  0.83963300  1
  C  C19  1  0.76889800  0.41036700  0.41036700  1
  C  C20  1  0.41036700  0.41036700  0.76889800  1
  C  C21  1  0.41036700  0.76889800  0.41036700  1
  C  C22  1  0.83963300  0.48110200  0.83963300  1
  C  C23  1  0.83963300  0.83963300  0.48110200  1
  C  C24  1  0.48110200  0.83963300  0.83963300  1
  C  C25  1  0.41036700  0.41036700  0.41036700  1
  O  O26  1  0.98313300  0.72619200  0.81252800  1
  O  O27  1  0.72619200  0.81252800  0.98313300  1
  O  O28  1  0.81252800  0.98313300  0.72619200  1
  O  O29  1  0.77185400  0.26686700  0.43747200  1
  O  O30  1  0.07086900  0.78739300  0.07086900  1
  O  O31  1  0.52380800  0.26686700  0.77185400  1
  O  O32  1  0.26686700  0.43747200  0.77185400  1
  O  O33  1  0.78739300  0.07086900  0.07086900  1
  O  O34  1  0.07086900  0.07086900  0.78739300  1
  O  O35  1  0.77185400  0.52380800  0.26686700  1
  O  O36  1  0.77185400  0.43747200  0.52380800  1
  O  O37  1  0.07086900  0.07086900  0.07086900  1
  O  O38  1  0.43747200  0.77185400  0.26686700  1
  O  O39  1  0.43747200  0.52380800  0.77185400  1
  O  O40  1  0.26686700  0.77185400  0.52380800  1
  O  O41  1  0.72619200  0.47814600  0.81252800  1
  O  O42  1  0.52380800  0.77185400  0.43747200  1
  O  O43  1  0.98313300  0.47814600  0.72619200  1
  O  O44  1  0.81252800  0.72619200  0.47814600  1
  O  O45  1  0.81252800  0.47814600  0.98313300  1
  O  O46  1  0.17913100  0.17913100  0.17913100  1
  O  O47  1  0.47814600  0.81252800  0.72619200  1
  O  O48  1  0.47814600  0.72619200  0.98313300  1
  O  O49  1  0.46260700  0.17913100  0.17913100  1
  O  O50  1  0.17913100  0.17913100  0.46260700  1
  O  O51  1  0.98313300  0.81252800  0.47814600  1
  O  O52  1  0.72619200  0.98313300  0.47814600  1
  O  O53  1  0.17913100  0.46260700  0.17913100  1
  O  O54  1  0.47814600  0.98313300  0.81252800  1
  O  O55  1  0.43747200  0.26686700  0.52380800  1
  O  O56  1  0.52380800  0.43747200  0.26686700  1
  O  O57  1  0.26686700  0.52380800  0.43747200  1
