# generated using pymatgen
data_Mn(IO3)2
_symmetry_space_group_name_H-M   'P 1'
_cell_length_a   11.30133000
_cell_length_b   6.86257600
_cell_length_c   8.37963749
_cell_angle_alpha   57.90441867
_cell_angle_beta   90.00000000
_cell_angle_gamma   90.00000000
_symmetry_Int_Tables_number   1
_chemical_formula_structural   Mn(IO3)2
_chemical_formula_sum   'Mn4 I8 O24'
_cell_volume   550.56535994
_cell_formula_units_Z   4
loop_
 _symmetry_equiv_pos_site_id
 _symmetry_equiv_pos_as_xyz
  1  'x, y, z'
loop_
 _atom_site_type_symbol
 _atom_site_label
 _atom_site_symmetry_multiplicity
 _atom_site_fract_x
 _atom_site_fract_y
 _atom_site_fract_z
 _atom_site_occupancy
  Mn  Mn0  1  0.89888000  0.18524000  0.01885300  1
  Mn  Mn1  1  0.39888000  0.81476000  0.48114700  1
  Mn  Mn2  1  0.60112000  0.18524000  0.51885300  1
  Mn  Mn3  1  0.10112000  0.81476000  0.98114700  1
  I  I4  1  0.21173000  0.33708700  0.93796300  1
  I  I5  1  0.71173000  0.66291300  0.56203700  1
  I  I6  1  0.07827200  0.77272100  0.46527800  1
  I  I7  1  0.57827200  0.22727900  0.03472200  1
  I  I8  1  0.42172800  0.77272100  0.96527800  1
  I  I9  1  0.92172800  0.22727900  0.53472200  1
  I  I10  1  0.28827000  0.33708700  0.43796300  1
  I  I11  1  0.78827000  0.66291300  0.06203700  1
  O  O12  1  0.08949400  0.13521300  0.97882000  1
  O  O13  1  0.90413800  0.37367800  0.66724000  1
  O  O14  1  0.61313200  0.43338100  0.59670000  1
  O  O15  1  0.23685600  0.45836500  0.68540800  1
  O  O16  1  0.73685600  0.54163500  0.81459200  1
  O  O17  1  0.71299000  0.04796100  0.11651800  1
  O  O18  1  0.46174800  0.01671400  0.17216100  1
  O  O19  1  0.11313200  0.56661900  0.90330000  1
  O  O20  1  0.96174800  0.98328600  0.32783900  1
  O  O21  1  0.21299000  0.95203900  0.38348200  1
  O  O22  1  0.40413800  0.62632200  0.83276000  1
  O  O23  1  0.58949400  0.86478700  0.52118000  1
  O  O24  1  0.41050600  0.13521300  0.47882000  1
  O  O25  1  0.59586200  0.37367800  0.16724000  1
  O  O26  1  0.78701000  0.04796100  0.61651800  1
  O  O27  1  0.03825200  0.01671400  0.67216100  1
  O  O28  1  0.88686800  0.43338100  0.09670000  1
  O  O29  1  0.53825200  0.98328600  0.82783900  1
  O  O30  1  0.28701000  0.95203900  0.88348200  1
  O  O31  1  0.26314400  0.45836500  0.18540800  1
  O  O32  1  0.76314400  0.54163500  0.31459200  1
  O  O33  1  0.38686800  0.56661900  0.40330000  1
  O  O34  1  0.09586200  0.62632200  0.33276000  1
  O  O35  1  0.91050600  0.86478700  0.02118000  1
