# generated using pymatgen
data_VCoO4
_symmetry_space_group_name_H-M   'P 1'
_cell_length_a   4.62652700
_cell_length_b   5.56178700
_cell_length_c   10.44688000
_cell_angle_alpha   90.00000000
_cell_angle_beta   90.00000000
_cell_angle_gamma   90.00000000
_symmetry_Int_Tables_number   1
_chemical_formula_structural   VCoO4
_chemical_formula_sum   'V4 Co4 O16'
_cell_volume   268.81658513
_cell_formula_units_Z   4
loop_
 _symmetry_equiv_pos_site_id
 _symmetry_equiv_pos_as_xyz
  1  'x, y, z'
loop_
 _atom_site_type_symbol
 _atom_site_label
 _atom_site_symmetry_multiplicity
 _atom_site_fract_x
 _atom_site_fract_y
 _atom_site_fract_z
 _atom_site_occupancy
  V  V0  1  0.41424000  0.25000000  0.41269200  1
  V  V1  1  0.08576000  0.25000000  0.91269200  1
  V  V2  1  0.91424000  0.75000000  0.08730800  1
  V  V3  1  0.58576000  0.75000000  0.58730800  1
  Co  Co4  1  0.98244400  0.25000000  0.23859900  1
  Co  Co5  1  0.51755600  0.25000000  0.73859900  1
  Co  Co6  1  0.48244400  0.75000000  0.26140100  1
  Co  Co7  1  0.01755600  0.75000000  0.76140100  1
  O  O8  1  0.24720500  0.01132500  0.32205400  1
  O  O9  1  0.25279500  0.01132500  0.82205400  1
  O  O10  1  0.16180600  0.25000000  0.07406700  1
  O  O11  1  0.77827700  0.25000000  0.39298200  1
  O  O12  1  0.72172300  0.25000000  0.89298200  1
  O  O13  1  0.33819400  0.25000000  0.57406700  1
  O  O14  1  0.24720500  0.48867500  0.32205400  1
  O  O15  1  0.25279500  0.48867500  0.82205400  1
  O  O16  1  0.75279500  0.51132500  0.67794600  1
  O  O17  1  0.74720500  0.51132500  0.17794600  1
  O  O18  1  0.83819400  0.75000000  0.92593300  1
  O  O19  1  0.66180600  0.75000000  0.42593300  1
  O  O20  1  0.27827700  0.75000000  0.10701800  1
  O  O21  1  0.22172300  0.75000000  0.60701800  1
  O  O22  1  0.74720500  0.98867500  0.17794600  1
  O  O23  1  0.75279500  0.98867500  0.67794600  1
