# generated using pymatgen
data_Na3VPCO7
_symmetry_space_group_name_H-M   'P 1'
_cell_length_a   5.38806805
_cell_length_b   13.54409608
_cell_length_c   8.92130330
_cell_angle_alpha   90.00269088
_cell_angle_beta   88.51804243
_cell_angle_gamma   90.01245817
_symmetry_Int_Tables_number   1
_chemical_formula_structural   Na3VPCO7
_chemical_formula_sum   'Na12 V4 P4 C4 O28'
_cell_volume   650.82781264
_cell_formula_units_Z   4
loop_
 _symmetry_equiv_pos_site_id
 _symmetry_equiv_pos_as_xyz
  1  'x, y, z'
loop_
 _atom_site_type_symbol
 _atom_site_label
 _atom_site_symmetry_multiplicity
 _atom_site_fract_x
 _atom_site_fract_y
 _atom_site_fract_z
 _atom_site_occupancy
  Na  Na0  1  0.00064700  0.24366800  0.00050100  1
  Na  Na1  1  0.00065300  0.74367100  0.00050900  1
  Na  Na2  1  0.99937500  0.49366400  0.99946400  1
  Na  Na3  1  0.99933500  0.99367500  0.99951700  1
  Na  Na4  1  0.44500100  0.11483000  0.16190800  1
  Na  Na5  1  0.44505800  0.61481700  0.16190700  1
  Na  Na6  1  0.55499700  0.36481600  0.83809400  1
  Na  Na7  1  0.55496100  0.86480800  0.83809000  1
  Na  Na8  1  0.49813400  0.24282200  0.49811900  1
  Na  Na9  1  0.49812100  0.74281900  0.49810900  1
  Na  Na10  1  0.50191500  0.49280700  0.50189300  1
  Na  Na11  1  0.50186900  0.99283000  0.50187300  1
  V  V12  1  0.04775400  0.86860500  0.28018700  1
  V  V13  1  0.95219900  0.61865600  0.71981800  1
  V  V14  1  0.04788300  0.36866000  0.28015000  1
  V  V15  1  0.95213000  0.11859500  0.71983900  1
  P  P16  1  0.98489700  0.11844100  0.34364200  1
  P  P17  1  0.98492200  0.61844900  0.34364800  1
  P  P18  1  0.01510700  0.36841500  0.65635300  1
  P  P19  1  0.01509300  0.86840400  0.65635400  1
  C  C20  1  0.49830700  0.36885100  0.16331300  1
  C  C21  1  0.49823300  0.86883200  0.16331500  1
  C  C22  1  0.50167100  0.11880200  0.83669400  1
  C  C23  1  0.50176100  0.61882300  0.83668800  1
  O  O24  1  0.31261400  0.36894700  0.06985900  1
  O  O25  1  0.31255200  0.86890900  0.06986500  1
  O  O26  1  0.68737200  0.11886800  0.93014000  1
  O  O27  1  0.68745300  0.61890200  0.93013100  1
  O  O28  1  0.72659400  0.36900500  0.11199800  1
  O  O29  1  0.72651200  0.86898100  0.11199900  1
  O  O30  1  0.27339200  0.11897200  0.88801800  1
  O  O31  1  0.27348400  0.61900200  0.88800300  1
  O  O32  1  0.07940700  0.02700900  0.24958800  1
  O  O33  1  0.07949100  0.52702700  0.24953400  1
  O  O34  1  0.92053900  0.27700500  0.75048100  1
  O  O35  1  0.92055100  0.77700800  0.75052100  1
  O  O36  1  0.07863900  0.21001800  0.24974700  1
  O  O37  1  0.07861100  0.71002000  0.24972400  1
  O  O38  1  0.92142200  0.46001800  0.75017700  1
  O  O39  1  0.92136400  0.95999800  0.75022500  1
  O  O40  1  0.44693000  0.36877300  0.30512600  1
  O  O41  1  0.44686800  0.86875100  0.30512800  1
  O  O42  1  0.55303400  0.11870700  0.69487900  1
  O  O43  1  0.55312500  0.61873600  0.69487200  1
  O  O44  1  0.69920800  0.11783900  0.35893300  1
  O  O45  1  0.69921800  0.61781400  0.35896300  1
  O  O46  1  0.30079600  0.36783500  0.64106500  1
  O  O47  1  0.30079500  0.86784700  0.64104000  1
  O  O48  1  0.11199400  0.11867300  0.49790300  1
  O  O49  1  0.11210100  0.61869700  0.49790100  1
  O  O50  1  0.88802300  0.36855200  0.50208700  1
  O  O51  1  0.88789000  0.86852500  0.50211200  1
