# generated using pymatgen
data_YTa7O19
_symmetry_space_group_name_H-M   'P 1'
_cell_length_a   6.26644203
_cell_length_b   6.26644203
_cell_length_c   20.11357100
_cell_angle_alpha   90.00000000
_cell_angle_beta   90.00000000
_cell_angle_gamma   120.00000034
_symmetry_Int_Tables_number   1
_chemical_formula_structural   YTa7O19
_chemical_formula_sum   'Y2 Ta14 O38'
_cell_volume   684.00907893
_cell_formula_units_Z   2
loop_
 _symmetry_equiv_pos_site_id
 _symmetry_equiv_pos_as_xyz
  1  'x, y, z'
loop_
 _atom_site_type_symbol
 _atom_site_label
 _atom_site_symmetry_multiplicity
 _atom_site_fract_x
 _atom_site_fract_y
 _atom_site_fract_z
 _atom_site_occupancy
  Y  Y0  1  0.66666700  0.33333300  0.50000000  1
  Y  Y1  1  0.66666700  0.33333300  0.00000000  1
  Ta  Ta2  1  0.69375400  0.02693200  0.65544600  1
  Ta  Ta3  1  0.69375400  0.02693200  0.84455400  1
  Ta  Ta4  1  0.97306800  0.30624600  0.15544600  1
  Ta  Ta5  1  0.97306800  0.30624600  0.34455400  1
  Ta  Ta6  1  0.69375400  0.66682300  0.34455400  1
  Ta  Ta7  1  0.69375400  0.66682300  0.15544600  1
  Ta  Ta8  1  0.00000000  0.00000000  0.00000000  1
  Ta  Ta9  1  0.00000000  0.00000000  0.50000000  1
  Ta  Ta10  1  0.97306800  0.66682300  0.65544600  1
  Ta  Ta11  1  0.97306800  0.66682300  0.84455400  1
  Ta  Ta12  1  0.33317700  0.30624600  0.65544600  1
  Ta  Ta13  1  0.33317700  0.30624600  0.84455400  1
  Ta  Ta14  1  0.33317700  0.02693200  0.34455400  1
  Ta  Ta15  1  0.33317700  0.02693200  0.15544600  1
  O  O16  1  0.33318600  0.41938900  0.15328200  1
  O  O17  1  0.33318600  0.41938900  0.34671800  1
  O  O18  1  0.37583900  0.29319300  0.75000000  1
  O  O19  1  0.58061100  0.66681400  0.84671800  1
  O  O20  1  0.58061100  0.66681400  0.65328200  1
  O  O21  1  0.37583900  0.08264700  0.25000000  1
  O  O22  1  0.33318600  0.91379700  0.65328200  1
  O  O23  1  0.33318600  0.91379700  0.84671800  1
  O  O24  1  0.70680700  0.62416100  0.25000000  1
  O  O25  1  0.66666700  0.33333300  0.63101900  1
  O  O26  1  0.66666700  0.33333300  0.36898100  1
  O  O27  1  0.66666700  0.33333300  0.13101900  1
  O  O28  1  0.66666700  0.33333300  0.86898100  1
  O  O29  1  0.91735300  0.62416100  0.75000000  1
  O  O30  1  0.58061100  0.91379700  0.15328200  1
  O  O31  1  0.58061100  0.91379700  0.34671800  1
  O  O32  1  0.70680700  0.08264700  0.75000000  1
  O  O33  1  0.76143300  0.04972000  0.55569900  1
  O  O34  1  0.76143300  0.04972000  0.94430100  1
  O  O35  1  0.08620300  0.66681400  0.34671800  1
  O  O36  1  0.08620300  0.66681400  0.15328200  1
  O  O37  1  0.91735300  0.29319300  0.25000000  1
  O  O38  1  0.95028000  0.23856700  0.44430100  1
  O  O39  1  0.95028000  0.23856700  0.05569900  1
  O  O40  1  0.08620300  0.41938900  0.65328200  1
  O  O41  1  0.08620300  0.41938900  0.84671800  1
  O  O42  1  0.76143300  0.71171300  0.05569900  1
  O  O43  1  0.76143300  0.71171300  0.44430100  1
  O  O44  1  0.00000000  0.00000000  0.83352800  1
  O  O45  1  0.00000000  0.00000000  0.33352800  1
  O  O46  1  0.00000000  0.00000000  0.16647200  1
  O  O47  1  0.00000000  0.00000000  0.66647200  1
  O  O48  1  0.95028000  0.71171300  0.55569900  1
  O  O49  1  0.95028000  0.71171300  0.94430100  1
  O  O50  1  0.28828700  0.23856700  0.55569900  1
  O  O51  1  0.28828700  0.23856700  0.94430100  1
  O  O52  1  0.28828700  0.04972000  0.05569900  1
  O  O53  1  0.28828700  0.04972000  0.44430100  1
