# generated using pymatgen
data_V5(BO5)2
_symmetry_space_group_name_H-M   'P 1'
_cell_length_a   3.12255800
_cell_length_b   9.44161100
_cell_length_c   12.40402200
_cell_angle_alpha   90.00000000
_cell_angle_beta   90.00000000
_cell_angle_gamma   90.00000000
_symmetry_Int_Tables_number   1
_chemical_formula_structural   V5(BO5)2
_chemical_formula_sum   'V10 B4 O20'
_cell_volume   365.69510323
_cell_formula_units_Z   2
loop_
 _symmetry_equiv_pos_site_id
 _symmetry_equiv_pos_as_xyz
  1  'x, y, z'
loop_
 _atom_site_type_symbol
 _atom_site_label
 _atom_site_symmetry_multiplicity
 _atom_site_fract_x
 _atom_site_fract_y
 _atom_site_fract_z
 _atom_site_occupancy
  V  V0  1  0.50000000  0.00000000  0.50000000  1
  V  V1  1  0.50000000  0.01586300  0.79117700  1
  V  V2  1  0.00000000  0.25463200  0.61108500  1
  V  V3  1  0.00000000  0.24536800  0.11108500  1
  V  V4  1  0.50000000  0.48413700  0.29117700  1
  V  V5  1  0.50000000  0.50000000  0.00000000  1
  V  V6  1  0.50000000  0.51586300  0.70882300  1
  V  V7  1  0.00000000  0.75463200  0.88891500  1
  V  V8  1  0.00000000  0.74536800  0.38891500  1
  V  V9  1  0.50000000  0.98413700  0.20882300  1
  B  B10  1  0.00000000  0.21463100  0.35618700  1
  B  B11  1  0.00000000  0.28536900  0.85618700  1
  B  B12  1  0.00000000  0.71463100  0.14381300  1
  B  B13  1  0.00000000  0.78536900  0.64381300  1
  O  O14  1  0.50000000  0.11284300  0.64827100  1
  O  O15  1  0.50000000  0.12080600  0.09117100  1
  O  O16  1  0.00000000  0.13974100  0.84499700  1
  O  O17  1  0.00000000  0.15183600  0.45702100  1
  O  O18  1  0.00000000  0.13038400  0.26353800  1
  O  O19  1  0.00000000  0.36961600  0.76353800  1
  O  O20  1  0.00000000  0.34816400  0.95702100  1
  O  O21  1  0.00000000  0.36025900  0.34499700  1
  O  O22  1  0.50000000  0.37919400  0.59117100  1
  O  O23  1  0.50000000  0.38715700  0.14827100  1
  O  O24  1  0.50000000  0.61284300  0.85172900  1
  O  O25  1  0.50000000  0.62080600  0.40882900  1
  O  O26  1  0.00000000  0.63974100  0.65500300  1
  O  O27  1  0.00000000  0.65183600  0.04297900  1
  O  O28  1  0.00000000  0.63038400  0.23646200  1
  O  O29  1  0.00000000  0.86961600  0.73646200  1
  O  O30  1  0.00000000  0.84816400  0.54297900  1
  O  O31  1  0.00000000  0.86025900  0.15500300  1
  O  O32  1  0.50000000  0.87919400  0.90882900  1
  O  O33  1  0.50000000  0.88715700  0.35172900  1
