# generated using pymatgen
data_Sr2LaI7
_symmetry_space_group_name_H-M   'P 1'
_cell_length_a   17.59756000
_cell_length_b   7.90115100
_cell_length_c   11.95629570
_cell_angle_alpha   89.73832161
_cell_angle_beta   90.00000000
_cell_angle_gamma   90.00000000
_symmetry_Int_Tables_number   1
_chemical_formula_structural   Sr2LaI7
_chemical_formula_sum   'Sr8 La4 I28'
_cell_volume   1662.39771844
_cell_formula_units_Z   4
loop_
 _symmetry_equiv_pos_site_id
 _symmetry_equiv_pos_as_xyz
  1  'x, y, z'
loop_
 _atom_site_type_symbol
 _atom_site_label
 _atom_site_symmetry_multiplicity
 _atom_site_fract_x
 _atom_site_fract_y
 _atom_site_fract_z
 _atom_site_occupancy
  Sr  Sr0  1  0.56020900  0.28383000  0.67689300  1
  Sr  Sr1  1  0.21772000  0.29381600  0.55261400  1
  Sr  Sr2  1  0.93979100  0.28383000  0.17689300  1
  Sr  Sr3  1  0.28228000  0.29381600  0.05261400  1
  Sr  Sr4  1  0.71772000  0.70618400  0.94738600  1
  Sr  Sr5  1  0.06020900  0.71617000  0.82310700  1
  Sr  Sr6  1  0.78228000  0.70618400  0.44738600  1
  Sr  Sr7  1  0.43979100  0.71617000  0.32310700  1
  La  La8  1  0.86948700  0.21559000  0.72390200  1
  La  La9  1  0.63051300  0.21559000  0.22390200  1
  La  La10  1  0.36948700  0.78441000  0.77609800  1
  La  La11  1  0.13051300  0.78441000  0.27609800  1
  I  I12  1  0.21360700  0.00023500  0.77653500  1
  I  I13  1  0.39733000  0.00245000  0.55586300  1
  I  I14  1  0.28639300  0.00023500  0.27653500  1
  I  I15  1  0.10267000  0.00245000  0.05586300  1
  I  I16  1  0.42635600  0.14778800  0.87709000  1
  I  I17  1  0.07364400  0.14778800  0.37709000  1
  I  I18  1  0.64205700  0.30735100  0.96331800  1
  I  I19  1  0.85794300  0.30735100  0.46331800  1
  I  I20  1  0.04298400  0.31974100  0.70904600  1
  I  I21  1  0.45701600  0.31974100  0.20904600  1
  I  I22  1  0.89505300  0.50167800  0.92776700  1
  I  I23  1  0.73878200  0.50640800  0.69575400  1
  I  I24  1  0.60494700  0.50167800  0.42776700  1
  I  I25  1  0.76121800  0.50640800  0.19575400  1
  I  I26  1  0.23878200  0.49359200  0.80424600  1
  I  I27  1  0.39505300  0.49832200  0.57223300  1
  I  I28  1  0.26121800  0.49359200  0.30424600  1
  I  I29  1  0.10494700  0.49832200  0.07223300  1
  I  I30  1  0.54298400  0.68025900  0.79095400  1
  I  I31  1  0.95701600  0.68025900  0.29095400  1
  I  I32  1  0.14205700  0.69264900  0.53668200  1
  I  I33  1  0.35794300  0.69264900  0.03668200  1
  I  I34  1  0.92635600  0.85221200  0.62291000  1
  I  I35  1  0.57364400  0.85221200  0.12291000  1
  I  I36  1  0.89733000  0.99755000  0.94413700  1
  I  I37  1  0.71360700  0.99976500  0.72346500  1
  I  I38  1  0.60267000  0.99755000  0.44413700  1
  I  I39  1  0.78639300  0.99976500  0.22346500  1
