# generated using pymatgen
data_Ca3V
_symmetry_space_group_name_H-M   'P 1'
_cell_length_a   6.25208731
_cell_length_b   6.25208731
_cell_length_c   6.25208731
_cell_angle_alpha   132.06944911
_cell_angle_beta   132.06944911
_cell_angle_gamma   70.11936166
_symmetry_Int_Tables_number   1
_chemical_formula_structural   Ca3V
_chemical_formula_sum   'Ca3 V1'
_cell_volume   132.01576454
_cell_formula_units_Z   1
loop_
 _symmetry_equiv_pos_site_id
 _symmetry_equiv_pos_as_xyz
  1  'x, y, z'
loop_
 _atom_site_type_symbol
 _atom_site_label
 _atom_site_symmetry_multiplicity
 _atom_site_fract_x
 _atom_site_fract_y
 _atom_site_fract_z
 _atom_site_occupancy
  Ca  Ca0  1  0.75000000  0.25000000  0.50000000  1
  Ca  Ca1  1  0.25000000  0.75000000  0.50000000  1
  Ca  Ca2  1  0.50000000  0.50000000  0.00000000  1
  V  V3  1  0.00000000  0.00000000  0.00000000  1
