# generated using pymatgen
data_Lu2WO6
_symmetry_space_group_name_H-M   'P 1'
_cell_length_a   9.72634689
_cell_length_b   9.72634689
_cell_length_c   5.30146903
_cell_angle_alpha   75.72127858
_cell_angle_beta   75.72127858
_cell_angle_gamma   68.18518457
_symmetry_Int_Tables_number   1
_chemical_formula_structural   Lu2WO6
_chemical_formula_sum   'Lu8 W4 O24'
_cell_volume   444.48463452
_cell_formula_units_Z   4
loop_
 _symmetry_equiv_pos_site_id
 _symmetry_equiv_pos_as_xyz
  1  'x, y, z'
loop_
 _atom_site_type_symbol
 _atom_site_label
 _atom_site_symmetry_multiplicity
 _atom_site_fract_x
 _atom_site_fract_y
 _atom_site_fract_z
 _atom_site_occupancy
  Lu  Lu0  1  0.94509900  0.71716200  0.38125800  1
  Lu  Lu1  1  0.71716200  0.94509900  0.88125800  1
  Lu  Lu2  1  0.36456900  0.63543100  0.25000000  1
  Lu  Lu3  1  0.89628500  0.10371500  0.25000000  1
  Lu  Lu4  1  0.10371500  0.89628500  0.75000000  1
  Lu  Lu5  1  0.63543100  0.36456900  0.75000000  1
  Lu  Lu6  1  0.28283800  0.05490100  0.11874200  1
  Lu  Lu7  1  0.05490100  0.28283800  0.61874200  1
  W  W8  1  0.80087900  0.50663200  0.06781800  1
  W  W9  1  0.50663200  0.80087900  0.56781800  1
  W  W10  1  0.49336800  0.19912100  0.43218200  1
  W  W11  1  0.19912100  0.49336800  0.93218200  1
  O  O12  1  0.89188400  0.92636900  0.07808300  1
  O  O13  1  0.92636900  0.89188400  0.57808300  1
  O  O14  1  0.52613400  0.94172900  0.25624000  1
  O  O15  1  0.78438300  0.68769300  0.14988800  1
  O  O16  1  0.94172900  0.52613400  0.75624000  1
  O  O17  1  0.68769300  0.78438300  0.64988800  1
  O  O18  1  0.82343500  0.37823800  0.39150400  1
  O  O19  1  0.37823800  0.82343500  0.89150400  1
  O  O20  1  0.60876900  0.54479100  0.01893100  1
  O  O21  1  0.30853600  0.84169900  0.42135400  1
  O  O22  1  0.54479100  0.60876900  0.51893100  1
  O  O23  1  0.84169900  0.30853600  0.92135400  1
  O  O24  1  0.15830100  0.69146400  0.07864600  1
  O  O25  1  0.45520900  0.39123100  0.48106900  1
  O  O26  1  0.69146400  0.15830100  0.57864600  1
  O  O27  1  0.39123100  0.45520900  0.98106900  1
  O  O28  1  0.62176200  0.17656500  0.10849600  1
  O  O29  1  0.17656500  0.62176200  0.60849600  1
  O  O30  1  0.31230700  0.21561700  0.35011200  1
  O  O31  1  0.05827100  0.47386600  0.24376000  1
  O  O32  1  0.21561700  0.31230700  0.85011200  1
  O  O33  1  0.47386600  0.05827100  0.74376000  1
  O  O34  1  0.07363100  0.10811600  0.42191700  1
  O  O35  1  0.10811600  0.07363100  0.92191700  1
