# generated using pymatgen
data_Na4Co2C4SO16
_symmetry_space_group_name_H-M   'P 1'
_cell_length_a   9.95457645
_cell_length_b   9.92532434
_cell_length_c   9.89686639
_cell_angle_alpha   60.29025849
_cell_angle_beta   59.99651458
_cell_angle_gamma   59.71322693
_symmetry_Int_Tables_number   1
_chemical_formula_structural   Na4Co2C4SO16
_chemical_formula_sum   'Na8 Co4 C8 S2 O32'
_cell_volume   691.39808633
_cell_formula_units_Z   2
loop_
 _symmetry_equiv_pos_site_id
 _symmetry_equiv_pos_as_xyz
  1  'x, y, z'
loop_
 _atom_site_type_symbol
 _atom_site_label
 _atom_site_symmetry_multiplicity
 _atom_site_fract_x
 _atom_site_fract_y
 _atom_site_fract_z
 _atom_site_occupancy
  Na  Na0  1  0.21492100  0.78507900  0.21492100  1
  Na  Na1  1  0.78499600  0.78499600  0.21500400  1
  Na  Na2  1  0.78507200  0.21492800  0.21492800  1
  Na  Na3  1  0.21492800  0.78507200  0.78507200  1
  Na  Na4  1  0.03619600  0.46380400  0.46380400  1
  Na  Na5  1  0.21500400  0.21500400  0.78499600  1
  Na  Na6  1  0.78507900  0.21492100  0.78507900  1
  Na  Na7  1  0.46380400  0.03619600  0.03619600  1
  Co  Co8  1  0.62028900  0.62819300  0.62745000  1
  Co  Co9  1  0.12406700  0.62745000  0.62819300  1
  Co  Co10  1  0.62745000  0.12406700  0.62028900  1
  Co  Co11  1  0.62819300  0.62028900  0.12406700  1
  C  C12  1  0.40992500  0.76796900  0.41112200  1
  C  C13  1  0.84132100  0.83744400  0.47901600  1
  C  C14  1  0.83744400  0.84132100  0.84221900  1
  C  C15  1  0.47901600  0.84221900  0.84132100  1
  C  C16  1  0.76796900  0.40992500  0.41098400  1
  C  C17  1  0.41112200  0.41098400  0.40992500  1
  C  C18  1  0.41098400  0.41112200  0.76796900  1
  C  C19  1  0.84221900  0.47901600  0.83744400  1
  S  S20  1  0.25000000  0.25000000  0.25000000  1
  S  S21  1  0.00000000  0.00000000  0.00000000  1
  O  O22  1  0.52155100  0.77980400  0.26447900  1
  O  O23  1  0.98790900  0.72524200  0.47581100  1
  O  O24  1  0.26993900  0.76688300  0.43763200  1
  O  O25  1  0.73374500  0.80381300  0.47557800  1
  O  O26  1  0.43903500  0.76329300  0.52754600  1
  O  O27  1  0.43411900  0.18732200  0.18756400  1
  O  O28  1  0.19099400  0.18756400  0.18732200  1
  O  O29  1  0.81098900  0.98149900  0.47518200  1
  O  O30  1  0.98149900  0.81098900  0.73233000  1
  O  O31  1  0.47518200  0.73233000  0.81098900  1
  O  O32  1  0.18732200  0.43411900  0.19099400  1
  O  O33  1  0.18756400  0.19099400  0.43411900  1
  O  O34  1  0.52754600  0.27012600  0.43903500  1
  O  O35  1  0.76329300  0.43903500  0.27012600  1
  O  O36  1  0.47557800  0.98686500  0.73374500  1
  O  O37  1  0.80381300  0.73374500  0.98686400  1
  O  O38  1  0.76688300  0.26993900  0.52554600  1
  O  O39  1  0.43763200  0.52554600  0.26993900  1
  O  O40  1  0.72524200  0.98790900  0.81103900  1
  O  O41  1  0.47581100  0.81103900  0.98790900  1
  O  O42  1  0.06133000  0.06140800  0.81530400  1
  O  O43  1  0.06195800  0.81530400  0.06140800  1
  O  O44  1  0.77980400  0.52155100  0.43416600  1
  O  O45  1  0.26447900  0.43416600  0.52155100  1
  O  O46  1  0.43416600  0.26447900  0.77980400  1
  O  O47  1  0.81530400  0.06195800  0.06133000  1
  O  O48  1  0.06140800  0.06133000  0.06195800  1
  O  O49  1  0.81103900  0.47581100  0.72524200  1
  O  O50  1  0.52554600  0.43763200  0.76688300  1
  O  O51  1  0.98686500  0.47557800  0.80381300  1
  O  O52  1  0.27012600  0.52754600  0.76329300  1
  O  O53  1  0.73233000  0.47518200  0.98149900  1
