# generated using pymatgen
data_Ca(CuAs)2
_symmetry_space_group_name_H-M   'P 1'
_cell_length_a   6.12585330
_cell_length_b   6.12585330
_cell_length_c   6.12585330
_cell_angle_alpha   140.84944167
_cell_angle_beta   140.84944167
_cell_angle_gamma   56.56578512
_symmetry_Int_Tables_number   1
_chemical_formula_structural   Ca(CuAs)2
_chemical_formula_sum   'Ca1 Cu2 As2'
_cell_volume   90.89798175
_cell_formula_units_Z   1
loop_
 _symmetry_equiv_pos_site_id
 _symmetry_equiv_pos_as_xyz
  1  'x, y, z'
loop_
 _atom_site_type_symbol
 _atom_site_label
 _atom_site_symmetry_multiplicity
 _atom_site_fract_x
 _atom_site_fract_y
 _atom_site_fract_z
 _atom_site_occupancy
  Ca  Ca0  1  0.00000000  0.00000000  0.00000000  1
  Cu  Cu1  1  0.25000000  0.75000000  0.50000000  1
  Cu  Cu2  1  0.75000000  0.25000000  0.50000000  1
  As  As3  1  0.62246900  0.62246900  0.00000000  1
  As  As4  1  0.37753100  0.37753100  0.00000000  1
