# generated using pymatgen
data_Na2CoBAsO7
_symmetry_space_group_name_H-M   'P 1'
_cell_length_a   6.41568300
_cell_length_b   5.40222100
_cell_length_c   9.21835208
_cell_angle_alpha   87.11259936
_cell_angle_beta   90.00000000
_cell_angle_gamma   90.00000000
_symmetry_Int_Tables_number   1
_chemical_formula_structural   Na2CoBAsO7
_chemical_formula_sum   'Na4 Co2 B2 As2 O14'
_cell_volume   319.09267165
_cell_formula_units_Z   2
loop_
 _symmetry_equiv_pos_site_id
 _symmetry_equiv_pos_as_xyz
  1  'x, y, z'
loop_
 _atom_site_type_symbol
 _atom_site_label
 _atom_site_symmetry_multiplicity
 _atom_site_fract_x
 _atom_site_fract_y
 _atom_site_fract_z
 _atom_site_occupancy
  Na  Na0  1  0.00029700  0.76491800  0.77895500  1
  Na  Na1  1  0.49970300  0.76491800  0.77895500  1
  Na  Na2  1  0.50029700  0.23508200  0.22104500  1
  Na  Na3  1  0.99970300  0.23508200  0.22104500  1
  Co  Co4  1  0.25000000  0.21789900  0.66603500  1
  Co  Co5  1  0.75000000  0.78210100  0.33396500  1
  B  B6  1  0.25000000  0.27019100  0.92068500  1
  B  B7  1  0.75000000  0.72980900  0.07931500  1
  As  As8  1  0.75000000  0.28638300  0.56579400  1
  As  As9  1  0.25000000  0.71361700  0.43420600  1
  O  O10  1  0.75000000  0.69521600  0.93885100  1
  O  O11  1  0.25000000  0.04701100  0.85139200  1
  O  O12  1  0.25000000  0.45694700  0.80731000  1
  O  O13  1  0.95384200  0.20342500  0.68254400  1
  O  O14  1  0.54615800  0.20342500  0.68254400  1
  O  O15  1  0.25000000  0.87410800  0.58920800  1
  O  O16  1  0.75000000  0.60364900  0.52859700  1
  O  O17  1  0.25000000  0.39635100  0.47140300  1
  O  O18  1  0.75000000  0.12589200  0.41079200  1
  O  O19  1  0.45384200  0.79657500  0.31745600  1
  O  O20  1  0.04615800  0.79657500  0.31745600  1
  O  O21  1  0.75000000  0.54305300  0.19269000  1
  O  O22  1  0.75000000  0.95298900  0.14860800  1
  O  O23  1  0.25000000  0.30478400  0.06114900  1
