# generated using pymatgen
data_Na2MnCSO7
_symmetry_space_group_name_H-M   'P 1'
_cell_length_a   5.34550060
_cell_length_b   9.18878824
_cell_length_c   6.86906900
_cell_angle_alpha   90.00123455
_cell_angle_beta   90.00002475
_cell_angle_gamma   88.82889816
_symmetry_Int_Tables_number   1
_chemical_formula_structural   Na2MnCSO7
_chemical_formula_sum   'Na4 Mn2 C2 S2 O14'
_cell_volume   337.32907807
_cell_formula_units_Z   2
loop_
 _symmetry_equiv_pos_site_id
 _symmetry_equiv_pos_as_xyz
  1  'x, y, z'
loop_
 _atom_site_type_symbol
 _atom_site_label
 _atom_site_symmetry_multiplicity
 _atom_site_fract_x
 _atom_site_fract_y
 _atom_site_fract_z
 _atom_site_occupancy
  Na  Na0  1  0.23175900  0.20335800  0.50752500  1
  Na  Na1  1  0.23175400  0.20339600  0.99249900  1
  Na  Na2  1  0.76823000  0.79664800  0.49248000  1
  Na  Na3  1  0.76823300  0.79668000  0.00754600  1
  Mn  Mn4  1  0.22733900  0.63732000  0.24992200  1
  Mn  Mn5  1  0.77268500  0.36273100  0.75001000  1
  C  C6  1  0.72717800  0.08106000  0.75000200  1
  C  C7  1  0.27282100  0.91892400  0.25000200  1
  S  S8  1  0.72500900  0.42330400  0.24999200  1
  S  S9  1  0.27497600  0.57668100  0.75000200  1
  O  O10  1  0.30253700  0.05564500  0.25000000  1
  O  O11  1  0.69748600  0.94435200  0.75000100  1
  O  O12  1  0.94823200  0.14081500  0.75000200  1
  O  O13  1  0.05176800  0.85918200  0.25000100  1
  O  O14  1  0.53540300  0.17411500  0.75000100  1
  O  O15  1  0.46460300  0.82587800  0.25000000  1
  O  O16  1  0.17578300  0.42506800  0.74999900  1
  O  O17  1  0.82419500  0.57491400  0.24999800  1
  O  O18  1  0.44314400  0.43312600  0.25003100  1
  O  O19  1  0.55686300  0.56683400  0.75000100  1
  O  O20  1  0.81347800  0.34404800  0.07393400  1
  O  O21  1  0.81348600  0.34404500  0.42606300  1
  O  O22  1  0.18652000  0.65593900  0.57393900  1
  O  O23  1  0.18651800  0.65593600  0.92605100  1
