# generated using pymatgen
data_La4Al6O15
_symmetry_space_group_name_H-M   'P 1'
_cell_length_a   6.96862345
_cell_length_b   6.96862345
_cell_length_c   21.22022894
_cell_angle_alpha   86.58393268
_cell_angle_beta   86.58393268
_cell_angle_gamma   42.53419141
_symmetry_Int_Tables_number   1
_chemical_formula_structural   La4Al6O15
_chemical_formula_sum   'La8 Al12 O30'
_cell_volume   695.21712563
_cell_formula_units_Z   2
loop_
 _symmetry_equiv_pos_site_id
 _symmetry_equiv_pos_as_xyz
  1  'x, y, z'
loop_
 _atom_site_type_symbol
 _atom_site_label
 _atom_site_symmetry_multiplicity
 _atom_site_fract_x
 _atom_site_fract_y
 _atom_site_fract_z
 _atom_site_occupancy
  La  La0  1  0.66372400  0.05725200  0.04961600  1
  La  La1  1  0.64249800  0.06211400  0.85266400  1
  La  La2  1  0.04009800  0.67483600  0.54893100  1
  La  La3  1  0.06256500  0.64379600  0.35197200  1
  La  La4  1  0.93788600  0.35750200  0.14733600  1
  La  La5  1  0.94274800  0.33627600  0.95038400  1
  La  La6  1  0.35620400  0.93743500  0.64802800  1
  La  La7  1  0.31789200  0.94998700  0.45121700  1
  Al  Al8  1  0.20517400  0.62133000  0.16454400  1
  Al  Al9  1  0.18539000  0.65085300  0.94519200  1
  Al  Al10  1  0.64858900  0.02030600  0.22509200  1
  Al  Al11  1  0.61224900  0.20997800  0.66485300  1
  Al  Al12  1  0.64065700  0.19399400  0.44489300  1
  Al  Al13  1  0.01314100  0.65337100  0.72451100  1
  Al  Al14  1  0.97969400  0.35141100  0.77490800  1
  Al  Al15  1  0.34914700  0.81461000  0.05480800  1
  Al  Al16  1  0.37867000  0.79482600  0.83545600  1
  Al  Al17  1  0.34662900  0.98685900  0.27548900  1
  Al  Al18  1  0.79817800  0.35161700  0.55529800  1
  Al  Al19  1  0.79002200  0.38775100  0.33514700  1
  O  O20  1  0.12557000  0.80860300  0.87004700  1
  O  O21  1  0.56147500  0.27895400  0.17165600  1
  O  O22  1  0.53470800  0.30744900  0.94792600  1
  O  O23  1  0.01867200  0.73837900  0.23817600  1
  O  O24  1  0.79979000  0.13230200  0.36971700  1
  O  O25  1  0.27150500  0.56745900  0.67131500  1
  O  O26  1  0.02260400  0.61223900  0.11190600  1
  O  O27  1  0.29902600  0.54611200  0.44755100  1
  O  O28  1  0.73089900  0.02349800  0.73840300  1
  O  O29  1  0.90842000  0.68698800  0.95789800  1
  O  O30  1  0.08922100  0.49147100  0.80246700  1
  O  O31  1  0.50852900  0.91077900  0.19753300  1
  O  O32  1  0.60614400  0.02233400  0.61317400  1
  O  O33  1  0.67542200  0.91801700  0.45913000  1
  O  O34  1  0.31301200  0.09158000  0.04210200  1
  O  O35  1  0.38776100  0.97739600  0.88809400  1
  O  O36  1  0.48451000  0.09667900  0.30279500  1
  O  O37  1  0.90332100  0.51549000  0.69720500  1
  O  O38  1  0.07519300  0.31515300  0.54140000  1
  O  O39  1  0.26162100  0.98132800  0.76182400  1
  O  O40  1  0.69255100  0.46529200  0.05207400  1
  O  O41  1  0.96595100  0.39013800  0.38800200  1
  O  O42  1  0.72104600  0.43852500  0.82834400  1
  O  O43  1  0.19139700  0.87443000  0.12995300  1
  O  O44  1  0.11759700  0.88240300  0.00000000  1
  O  O45  1  0.97650200  0.26910100  0.26159700  1
  O  O46  1  0.45388800  0.70097400  0.55244900  1
  O  O47  1  0.43254100  0.72849500  0.32868500  1
  O  O48  1  0.86769800  0.20021000  0.63028300  1
  O  O49  1  0.86695300  0.12436200  0.50024700  1
