# generated using pymatgen
data_Sm2WO6
_symmetry_space_group_name_H-M   'P 1'
_cell_length_a   5.50656700
_cell_length_b   7.84558800
_cell_length_c   11.68730119
_cell_angle_alpha   75.90621221
_cell_angle_beta   90.00000000
_cell_angle_gamma   90.00000000
_symmetry_Int_Tables_number   1
_chemical_formula_structural   Sm2WO6
_chemical_formula_sum   'Sm8 W4 O24'
_cell_volume   489.71895661
_cell_formula_units_Z   4
loop_
 _symmetry_equiv_pos_site_id
 _symmetry_equiv_pos_as_xyz
  1  'x, y, z'
loop_
 _atom_site_type_symbol
 _atom_site_label
 _atom_site_symmetry_multiplicity
 _atom_site_fract_x
 _atom_site_fract_y
 _atom_site_fract_z
 _atom_site_occupancy
  Sm  Sm0  1  0.73733400  0.00000000  0.75000000  1
  Sm  Sm1  1  0.26266600  0.00000000  0.25000000  1
  Sm  Sm2  1  0.19019100  0.79660100  0.57686500  1
  Sm  Sm3  1  0.80980900  0.79660100  0.07686500  1
  Sm  Sm4  1  0.68320300  0.50000000  0.75000000  1
  Sm  Sm5  1  0.31679700  0.50000000  0.25000000  1
  Sm  Sm6  1  0.19019100  0.20339900  0.92313500  1
  Sm  Sm7  1  0.80980900  0.20339900  0.42313500  1
  W  W8  1  0.25342500  0.72181100  0.88608500  1
  W  W9  1  0.74657500  0.72181100  0.38608500  1
  W  W10  1  0.25342500  0.27818900  0.61391500  1
  W  W11  1  0.74657500  0.27818900  0.11391500  1
  O  O12  1  0.04095900  0.93545400  0.89606500  1
  O  O13  1  0.51831400  0.85098300  0.93049600  1
  O  O14  1  0.95904100  0.93545400  0.39606500  1
  O  O15  1  0.46128500  0.78371300  0.73106400  1
  O  O16  1  0.48168600  0.85098300  0.43049600  1
  O  O17  1  0.98990200  0.70879200  0.77311500  1
  O  O18  1  0.53871500  0.78371300  0.23106400  1
  O  O19  1  0.84952900  0.63600100  0.54507200  1
  O  O20  1  0.36191800  0.49373100  0.88808900  1
  O  O21  1  0.01009800  0.70879200  0.27311500  1
  O  O22  1  0.36191800  0.50626900  0.61191100  1
  O  O23  1  0.84952900  0.36399900  0.95492800  1
  O  O24  1  0.15047100  0.63600100  0.04507200  1
  O  O25  1  0.63808200  0.49373100  0.38808900  1
  O  O26  1  0.98990200  0.29120800  0.72688500  1
  O  O27  1  0.63808200  0.50626900  0.11191100  1
  O  O28  1  0.15047100  0.36399900  0.45492800  1
  O  O29  1  0.46128500  0.21628700  0.76893600  1
  O  O30  1  0.01009800  0.29120800  0.22688500  1
  O  O31  1  0.51831400  0.14901700  0.56950400  1
  O  O32  1  0.53871500  0.21628700  0.26893600  1
  O  O33  1  0.04095900  0.06454600  0.60393500  1
  O  O34  1  0.48168600  0.14901700  0.06950400  1
  O  O35  1  0.95904100  0.06454600  0.10393500  1
