# generated using pymatgen
data_FeSn3(PO4)6
_symmetry_space_group_name_H-M   'P 1'
_cell_length_a   9.04291275
_cell_length_b   9.04291275
_cell_length_c   9.04291266
_cell_angle_alpha   58.25472029
_cell_angle_beta   58.25472029
_cell_angle_gamma   58.25471963
_symmetry_Int_Tables_number   1
_chemical_formula_structural   FeSn3(PO4)6
_chemical_formula_sum   'Fe1 Sn3 P6 O24'
_cell_volume   501.98489178
_cell_formula_units_Z   1
loop_
 _symmetry_equiv_pos_site_id
 _symmetry_equiv_pos_as_xyz
  1  'x, y, z'
loop_
 _atom_site_type_symbol
 _atom_site_label
 _atom_site_symmetry_multiplicity
 _atom_site_fract_x
 _atom_site_fract_y
 _atom_site_fract_z
 _atom_site_occupancy
  Fe  Fe0  1  0.85569000  0.85569000  0.85569000  1
  Sn  Sn1  1  0.14443600  0.14443600  0.14443600  1
  Sn  Sn2  1  0.35593900  0.35593900  0.35593900  1
  Sn  Sn3  1  0.64305100  0.64305100  0.64305100  1
  P  P4  1  0.46542500  0.74714000  0.03867700  1
  P  P5  1  0.74714000  0.03867700  0.46542500  1
  P  P6  1  0.03867700  0.46542500  0.74714000  1
  P  P7  1  0.96291800  0.54339200  0.24470700  1
  P  P8  1  0.24470700  0.96291800  0.54339200  1
  P  P9  1  0.54339200  0.24470700  0.96291800  1
  O  O10  1  0.51747700  0.27010900  0.13115200  1
  O  O11  1  0.13115200  0.51747700  0.27010900  1
  O  O12  1  0.28978700  0.91985600  0.06116300  1
  O  O13  1  0.27010900  0.13115200  0.51747700  1
  O  O14  1  0.44418000  0.57678600  0.21619200  1
  O  O15  1  0.63379600  0.77815200  0.00525700  1
  O  O16  1  0.91985600  0.06116300  0.28978700  1
  O  O17  1  0.57678600  0.21619200  0.44418000  1
  O  O18  1  0.21619200  0.44418000  0.57678600  1
  O  O19  1  0.98718700  0.37478800  0.21974100  1
  O  O20  1  0.93788100  0.71646900  0.07229400  1
  O  O21  1  0.21974100  0.98718700  0.37478800  1
  O  O22  1  0.77815200  0.00525700  0.63379600  1
  O  O23  1  0.06116300  0.28978700  0.91985600  1
  O  O24  1  0.00525700  0.63379600  0.77815200  1
  O  O25  1  0.78086300  0.57436300  0.40999200  1
  O  O26  1  0.40999200  0.78086300  0.57436300  1
  O  O27  1  0.07229400  0.93788100  0.71646900  1
  O  O28  1  0.37478800  0.21974100  0.98718700  1
  O  O29  1  0.57436300  0.40999200  0.78086300  1
  O  O30  1  0.71871400  0.87284800  0.48957600  1
  O  O31  1  0.71646900  0.07229400  0.93788100  1
  O  O32  1  0.87284800  0.48957600  0.71871400  1
  O  O33  1  0.48957600  0.71871400  0.87284800  1
