# generated using pymatgen
data_CrPO5
_symmetry_space_group_name_H-M   'P 1'
_cell_length_a   5.04246600
_cell_length_b   12.68238400
_cell_length_c   12.80386252
_cell_angle_alpha   60.18992970
_cell_angle_beta   90.00000000
_cell_angle_gamma   90.00000000
_symmetry_Int_Tables_number   1
_chemical_formula_structural   CrPO5
_chemical_formula_sum   'Cr8 P8 O40'
_cell_volume   710.46634749
_cell_formula_units_Z   8
loop_
 _symmetry_equiv_pos_site_id
 _symmetry_equiv_pos_as_xyz
  1  'x, y, z'
loop_
 _atom_site_type_symbol
 _atom_site_label
 _atom_site_symmetry_multiplicity
 _atom_site_fract_x
 _atom_site_fract_y
 _atom_site_fract_z
 _atom_site_occupancy
  Cr  Cr0  1  0.73224100  0.56311500  0.12875000  1
  Cr  Cr1  1  0.23224100  0.43688500  0.37125000  1
  Cr  Cr2  1  0.73647300  0.06397700  0.30718200  1
  Cr  Cr3  1  0.23647300  0.93602300  0.19281800  1
  Cr  Cr4  1  0.76352700  0.06397700  0.80718200  1
  Cr  Cr5  1  0.26352700  0.93602300  0.69281800  1
  Cr  Cr6  1  0.76775900  0.56311500  0.62875000  1
  Cr  Cr7  1  0.26775900  0.43688500  0.87125000  1
  P  P8  1  0.76183700  0.84448600  0.09036700  1
  P  P9  1  0.74708400  0.34396900  0.06338400  1
  P  P10  1  0.75291600  0.34396900  0.56338400  1
  P  P11  1  0.26183700  0.15551400  0.40963300  1
  P  P12  1  0.73816300  0.84448600  0.59036700  1
  P  P13  1  0.24708400  0.65603100  0.43661600  1
  P  P14  1  0.25291600  0.65603100  0.93661600  1
  P  P15  1  0.23816300  0.15551400  0.90963300  1
  O  O16  1  0.05133600  0.86252900  0.12108200  1
  O  O17  1  0.06085600  0.62408900  0.04181800  1
  O  O18  1  0.71640800  0.70887100  0.14072100  1
  O  O19  1  0.45817900  0.37330100  0.01416900  1
  O  O20  1  0.81042100  0.41412200  0.12973700  1
  O  O21  1  0.48343300  0.50278800  0.22488900  1
  O  O22  1  0.98343300  0.49721200  0.27511100  1
  O  O23  1  0.31042100  0.58587800  0.37026300  1
  O  O24  1  0.77017000  0.20765800  0.15126800  1
  O  O25  1  0.27655500  0.08924300  0.04668900  1
  O  O26  1  0.21640800  0.29112900  0.35927900  1
  O  O27  1  0.56085600  0.37591100  0.45818200  1
  O  O28  1  0.04182100  0.37330100  0.51416900  1
  O  O29  1  0.55133600  0.13747100  0.37891800  1
  O  O30  1  0.07000500  0.10930000  0.34772200  1
  O  O31  1  0.97880900  0.98518700  0.23624900  1
  O  O32  1  0.47880900  0.01481300  0.26375100  1
  O  O33  1  0.57000500  0.89070000  0.15227800  1
  O  O34  1  0.72983000  0.20765800  0.65126800  1
  O  O35  1  0.22344500  0.08924300  0.54668900  1
  O  O36  1  0.77655500  0.91075700  0.45331100  1
  O  O37  1  0.27017000  0.79234200  0.34873200  1
  O  O38  1  0.42999500  0.10930000  0.84772200  1
  O  O39  1  0.52119100  0.98518700  0.73624900  1
  O  O40  1  0.02119100  0.01481300  0.76375100  1
  O  O41  1  0.92999500  0.89070000  0.65227800  1
  O  O42  1  0.44866400  0.86252900  0.62108200  1
  O  O43  1  0.95817900  0.62669900  0.48583100  1
  O  O44  1  0.43914400  0.62408900  0.54181800  1
  O  O45  1  0.78359200  0.70887100  0.64072100  1
  O  O46  1  0.72344500  0.91075700  0.95331100  1
  O  O47  1  0.22983000  0.79234200  0.84873200  1
  O  O48  1  0.68957900  0.41412200  0.62973700  1
  O  O49  1  0.01656700  0.50278800  0.72488900  1
  O  O50  1  0.51656700  0.49721200  0.77511100  1
  O  O51  1  0.18957900  0.58587800  0.87026300  1
  O  O52  1  0.54182100  0.62669900  0.98583100  1
  O  O53  1  0.28359200  0.29112900  0.85927900  1
  O  O54  1  0.93914400  0.37591100  0.95818200  1
  O  O55  1  0.94866400  0.13747100  0.87891800  1
