# generated using pymatgen
data_Ba2LaI7
_symmetry_space_group_name_H-M   'P 1'
_cell_length_a   15.43934900
_cell_length_b   8.43631300
_cell_length_c   14.97362549
_cell_angle_alpha   80.09674867
_cell_angle_beta   90.00000000
_cell_angle_gamma   90.00000000
_symmetry_Int_Tables_number   1
_chemical_formula_structural   Ba2LaI7
_chemical_formula_sum   'Ba8 La4 I28'
_cell_volume   1921.27160364
_cell_formula_units_Z   4
loop_
 _symmetry_equiv_pos_site_id
 _symmetry_equiv_pos_as_xyz
  1  'x, y, z'
loop_
 _atom_site_type_symbol
 _atom_site_label
 _atom_site_symmetry_multiplicity
 _atom_site_fract_x
 _atom_site_fract_y
 _atom_site_fract_z
 _atom_site_occupancy
  Ba  Ba0  1  0.54593300  0.78492000  0.75065100  1
  Ba  Ba1  1  0.13320600  0.74439400  0.63885800  1
  Ba  Ba2  1  0.79068300  0.75797600  0.13781000  1
  Ba  Ba3  1  0.36340300  0.67926500  0.24129200  1
  Ba  Ba4  1  0.86340300  0.32073500  0.75870800  1
  Ba  Ba5  1  0.29068300  0.24202400  0.86219000  1
  Ba  Ba6  1  0.63320600  0.25560600  0.36114200  1
  Ba  Ba7  1  0.04593300  0.21508000  0.24934900  1
  La  La8  1  0.84632000  0.82149300  0.55004100  1
  La  La9  1  0.07397800  0.80644200  0.04824600  1
  La  La10  1  0.57397800  0.19355800  0.95175400  1
  La  La11  1  0.34632000  0.17850700  0.44995900  1
  I  I12  1  0.70918800  0.94973900  0.88755600  1
  I  I13  1  0.42627500  0.92757700  0.98917000  1
  I  I14  1  0.50951300  0.95366500  0.50970000  1
  I  I15  1  0.16049800  0.88280600  0.85791100  1
  I  I16  1  0.23971500  0.88151200  0.39858100  1
  I  I17  1  0.76209800  0.89007800  0.35774600  1
  I  I18  1  0.92297300  0.78550500  0.74833700  1
  I  I19  1  0.00145400  0.79371600  0.25031100  1
  I  I20  1  0.33990600  0.61422300  0.71723900  1
  I  I21  1  0.58623400  0.61800400  0.21144100  1
  I  I22  1  0.69281400  0.58098300  0.62051500  1
  I  I23  1  0.70724900  0.47864500  0.89271500  1
  I  I24  1  0.96017800  0.51179300  0.54252500  1
  I  I25  1  0.44143400  0.46354100  0.97391600  1
  I  I26  1  0.94143400  0.53645900  0.02608400  1
  I  I27  1  0.46017800  0.48820700  0.45747500  1
  I  I28  1  0.20724900  0.52135500  0.10728500  1
  I  I29  1  0.19281400  0.41901700  0.37948500  1
  I  I30  1  0.08623400  0.38199600  0.78855900  1
  I  I31  1  0.83990600  0.38577700  0.28276100  1
  I  I32  1  0.50145400  0.20628400  0.74968900  1
  I  I33  1  0.42297300  0.21449500  0.25166300  1
  I  I34  1  0.26209800  0.10992200  0.64225400  1
  I  I35  1  0.73971500  0.11848800  0.60141900  1
  I  I36  1  0.66049800  0.11719400  0.14208900  1
  I  I37  1  0.00951300  0.04633500  0.49030000  1
  I  I38  1  0.92627500  0.07242300  0.01083000  1
  I  I39  1  0.20918800  0.05026100  0.11244400  1
