# generated using pymatgen
data_Ba4Tm6O13
_symmetry_space_group_name_H-M   'P 1'
_cell_length_a   12.66426976
_cell_length_b   12.66426976
_cell_length_c   12.66426976
_cell_angle_alpha   152.28931568
_cell_angle_beta   121.72011664
_cell_angle_gamma   65.72747492
_symmetry_Int_Tables_number   1
_chemical_formula_structural   Ba4Tm6O13
_chemical_formula_sum   'Ba8 Tm12 O26'
_cell_volume   795.78143514
_cell_formula_units_Z   2
loop_
 _symmetry_equiv_pos_site_id
 _symmetry_equiv_pos_as_xyz
  1  'x, y, z'
loop_
 _atom_site_type_symbol
 _atom_site_label
 _atom_site_symmetry_multiplicity
 _atom_site_fract_x
 _atom_site_fract_y
 _atom_site_fract_z
 _atom_site_occupancy
  Ba  Ba0  1  0.29271800  0.15832000  0.13298000  1
  Ba  Ba1  1  0.45383600  0.33400100  0.11999900  1
  Ba  Ba2  1  0.21400200  0.83400100  0.38016500  1
  Ba  Ba3  1  0.02534000  0.65832000  0.36560100  1
  Ba  Ba4  1  0.97466000  0.34026200  0.63298000  1
  Ba  Ba5  1  0.78599800  0.16616300  0.61999900  1
  Ba  Ba6  1  0.54616400  0.66616300  0.88016500  1
  Ba  Ba7  1  0.70728200  0.84026200  0.86560100  1
  Tm  Tm8  1  0.83635600  0.38972600  0.29900200  1
  Tm  Tm9  1  0.36816800  0.74490000  0.62448100  1
  Tm  Tm10  1  0.55461100  0.93942300  0.59394000  1
  Tm  Tm11  1  0.34548300  0.43942300  0.88481200  1
  Tm  Tm12  1  0.12041900  0.24490000  0.87673200  1
  Tm  Tm13  1  0.90927600  0.96264600  0.79900200  1
  Tm  Tm14  1  0.09072400  0.88972600  0.05337000  1
  Tm  Tm15  1  0.87958100  0.75631400  0.12448100  1
  Tm  Tm16  1  0.65451700  0.53932900  0.09394000  1
  Tm  Tm17  1  0.44538900  0.03932900  0.38481200  1
  Tm  Tm18  1  0.63183200  0.25631400  0.37673200  1
  Tm  Tm19  1  0.16364400  0.46264600  0.55337000  1
  O  O20  1  0.00000000  0.68955900  0.68955900  1
  O  O21  1  0.00000000  0.18955900  0.18955900  1
  O  O22  1  0.73577700  0.35137600  0.35369400  1
  O  O23  1  0.74306600  0.08998400  0.89362300  1
  O  O24  1  0.50362600  0.50387900  0.49818500  1
  O  O25  1  0.47325500  0.87760600  0.64607900  1
  O  O26  1  0.51602500  0.58530500  0.20177700  1
  O  O27  1  0.24256600  0.48581800  0.24773600  1
  O  O28  1  0.23808200  0.98581800  0.74325200  1
  O  O29  1  0.38352800  0.08530500  0.56927900  1
  O  O30  1  0.00231800  0.11791700  0.85369400  1
  O  O31  1  0.23152700  0.37760600  0.90435100  1
  O  O32  1  0.80363900  0.65055700  0.39362300  1
  O  O33  1  0.00569300  0.00387900  0.50025300  1
  O  O34  1  0.99430700  0.49456000  0.99818500  1
  O  O35  1  0.19636100  0.58998400  0.84691800  1
  O  O36  1  0.76847300  0.67282400  0.14607900  1
  O  O37  1  0.99768200  0.85137600  0.11559900  1
  O  O38  1  0.61647200  0.18575200  0.70177700  1
  O  O39  1  0.76191800  0.50517000  0.74773600  1
  O  O40  1  0.75743400  0.00517000  0.24325200  1
  O  O41  1  0.48397500  0.68575200  0.06927900  1
  O  O42  1  0.52674500  0.17282400  0.40435100  1
  O  O43  1  0.49637400  0.99456000  0.00025300  1
  O  O44  1  0.25693400  0.15055700  0.34691800  1
  O  O45  1  0.26422300  0.61791700  0.61559900  1
