# generated using pymatgen
data_Y2Bi2O7
_symmetry_space_group_name_H-M   'P 1'
_cell_length_a   5.76184400
_cell_length_b   8.23469300
_cell_length_c   14.02065145
_cell_angle_alpha   80.69714210
_cell_angle_beta   90.00000000
_cell_angle_gamma   90.00000000
_symmetry_Int_Tables_number   1
_chemical_formula_structural   Y2Bi2O7
_chemical_formula_sum   'Y8 Bi8 O28'
_cell_volume   656.48863907
_cell_formula_units_Z   4
loop_
 _symmetry_equiv_pos_site_id
 _symmetry_equiv_pos_as_xyz
  1  'x, y, z'
loop_
 _atom_site_type_symbol
 _atom_site_label
 _atom_site_symmetry_multiplicity
 _atom_site_fract_x
 _atom_site_fract_y
 _atom_site_fract_z
 _atom_site_occupancy
  Y  Y0  1  0.30987100  0.86641500  0.55742800  1
  Y  Y1  1  0.77654100  0.75219800  0.93212000  1
  Y  Y2  1  0.23952300  0.70608000  0.13161800  1
  Y  Y3  1  0.78573600  0.63620600  0.38820000  1
  Y  Y4  1  0.28573600  0.36379400  0.61180000  1
  Y  Y5  1  0.73952300  0.29392000  0.86838200  1
  Y  Y6  1  0.27654100  0.24780200  0.06788000  1
  Y  Y7  1  0.80987100  0.13358500  0.44257200  1
  Bi  Bi8  1  0.26161300  0.92158400  0.31771600  1
  Bi  Bi9  1  0.76078200  0.97663800  0.11758100  1
  Bi  Bi10  1  0.77921400  0.59286100  0.66923900  1
  Bi  Bi11  1  0.26281100  0.54115900  0.86882800  1
  Bi  Bi12  1  0.76281100  0.45884100  0.13117200  1
  Bi  Bi13  1  0.27921400  0.40713900  0.33076100  1
  Bi  Bi14  1  0.26078200  0.02336200  0.88241900  1
  Bi  Bi15  1  0.76161300  0.07841600  0.68228400  1
  O  O16  1  0.54795400  0.93245900  0.41697000  1
  O  O17  1  0.38513600  0.01091100  0.17572800  1
  O  O18  1  0.63556500  0.83960800  0.65289700  1
  O  O19  1  0.42365500  0.78342200  0.87080700  1
  O  O20  1  0.04741500  0.83242000  0.43997800  1
  O  O21  1  0.04937100  0.90199700  0.02206100  1
  O  O22  1  0.96732200  0.83887100  0.24495900  1
  O  O23  1  0.12713700  0.63626700  0.62742400  1
  O  O24  1  0.86985700  0.58594600  0.82201200  1
  O  O25  1  0.60021800  0.72965200  0.07790000  1
  O  O26  1  0.42956700  0.67614000  0.30167800  1
  O  O27  1  0.58607800  0.57891200  0.53899000  1
  O  O28  1  0.55753900  0.43341700  0.97766400  1
  O  O29  1  0.48958800  0.46729800  0.74115400  1
  O  O30  1  0.98958800  0.53270200  0.25884600  1
  O  O31  1  0.05753900  0.56658300  0.02233600  1
  O  O32  1  0.08607800  0.42108800  0.46101000  1
  O  O33  1  0.92956700  0.32386000  0.69832200  1
  O  O34  1  0.10021800  0.27034800  0.92210000  1
  O  O35  1  0.36985700  0.41405400  0.17798800  1
  O  O36  1  0.62713700  0.36373300  0.37257600  1
  O  O37  1  0.46732200  0.16112900  0.75504100  1
  O  O38  1  0.54937100  0.09800300  0.97793900  1
  O  O39  1  0.54741500  0.16758000  0.56002200  1
  O  O40  1  0.92365500  0.21657800  0.12919300  1
  O  O41  1  0.13556500  0.16039200  0.34710300  1
  O  O42  1  0.88513600  0.98908900  0.82427200  1
  O  O43  1  0.04795400  0.06754100  0.58303000  1
