# generated using pymatgen
data_BaLaI5
_symmetry_space_group_name_H-M   'P 1'
_cell_length_a   27.08204100
_cell_length_b   8.55165500
_cell_length_c   11.99812440
_cell_angle_alpha   89.89696125
_cell_angle_beta   90.00000000
_cell_angle_gamma   90.00000000
_symmetry_Int_Tables_number   1
_chemical_formula_structural   BaLaI5
_chemical_formula_sum   'Ba8 La8 I40'
_cell_volume   2778.71638100
_cell_formula_units_Z   8
loop_
 _symmetry_equiv_pos_site_id
 _symmetry_equiv_pos_as_xyz
  1  'x, y, z'
loop_
 _atom_site_type_symbol
 _atom_site_label
 _atom_site_symmetry_multiplicity
 _atom_site_fract_x
 _atom_site_fract_y
 _atom_site_fract_z
 _atom_site_occupancy
  Ba  Ba0  1  0.47553600  0.12249400  0.73965800  1
  Ba  Ba1  1  0.74197900  0.33960200  0.50079000  1
  Ba  Ba2  1  0.97553600  0.37750600  0.76034200  1
  Ba  Ba3  1  0.24197900  0.16039800  0.99921000  1
  Ba  Ba4  1  0.75802100  0.83960200  0.00079000  1
  Ba  Ba5  1  0.02446400  0.62249400  0.23965800  1
  Ba  Ba6  1  0.25802100  0.66039800  0.49921000  1
  Ba  Ba7  1  0.52446400  0.87750600  0.26034200  1
  La  La8  1  0.62578800  0.26619800  0.94995900  1
  La  La9  1  0.12578800  0.23380200  0.55004100  1
  La  La10  1  0.88549300  0.23985600  0.10924400  1
  La  La11  1  0.38549300  0.26014400  0.39075600  1
  La  La12  1  0.61450700  0.73985600  0.60924400  1
  La  La13  1  0.11450700  0.76014400  0.89075600  1
  La  La14  1  0.87421200  0.76619800  0.44995900  1
  La  La15  1  0.37421200  0.73380200  0.05004100  1
  I  I16  1  0.88254100  0.06436800  0.88297100  1
  I  I17  1  0.65078700  0.05243400  0.50039900  1
  I  I18  1  0.83719400  0.07946700  0.55202200  1
  I  I19  1  0.07682600  0.08873300  0.77642400  1
  I  I20  1  0.40878500  0.05596300  0.17513000  1
  I  I21  1  0.63823100  0.03876900  0.15580800  1
  I  I22  1  0.72861600  0.16766300  0.84315000  1
  I  I23  1  0.78264400  0.13287600  0.20707500  1
  I  I24  1  0.01287100  0.24123300  0.49155300  1
  I  I25  1  0.50006700  0.21353000  0.43514900  1
  I  I26  1  0.22861600  0.33233700  0.65685000  1
  I  I27  1  0.00006700  0.28647000  0.06485100  1
  I  I28  1  0.51287100  0.25876700  0.00844700  1
  I  I29  1  0.28264400  0.36712400  0.29292500  1
  I  I30  1  0.57682600  0.41126700  0.72357600  1
  I  I31  1  0.33719400  0.42053300  0.94797800  1
  I  I32  1  0.13823100  0.46123100  0.34419200  1
  I  I33  1  0.90878500  0.44403700  0.32487000  1
  I  I34  1  0.15078700  0.44756600  0.99960100  1
  I  I35  1  0.38254100  0.43563200  0.61702900  1
  I  I36  1  0.61745900  0.56436800  0.38297100  1
  I  I37  1  0.84921300  0.55243400  0.00039900  1
  I  I38  1  0.09121500  0.55596300  0.67513000  1
  I  I39  1  0.86176900  0.53876900  0.65580800  1
  I  I40  1  0.66280600  0.57946700  0.05202200  1
  I  I41  1  0.42317400  0.58873300  0.27642400  1
  I  I42  1  0.71735600  0.63287600  0.70707500  1
  I  I43  1  0.48712900  0.74123300  0.99155300  1
  I  I44  1  0.99993300  0.71353000  0.93514900  1
  I  I45  1  0.77138400  0.66766300  0.34315000  1
  I  I46  1  0.49993300  0.78647000  0.56485100  1
  I  I47  1  0.98712900  0.75876700  0.50844700  1
  I  I48  1  0.21735600  0.86712400  0.79292500  1
  I  I49  1  0.27138400  0.83233700  0.15685000  1
  I  I50  1  0.36176900  0.96123100  0.84419200  1
  I  I51  1  0.59121500  0.94403700  0.82487000  1
  I  I52  1  0.92317400  0.91126700  0.22357600  1
  I  I53  1  0.16280600  0.92053300  0.44797800  1
  I  I54  1  0.34921300  0.94756600  0.49960100  1
  I  I55  1  0.11745900  0.93563200  0.11702900  1
