# generated using pymatgen
data_FePO4
_symmetry_space_group_name_H-M   'P 1'
_cell_length_a   8.42728559
_cell_length_b   8.42728559
_cell_length_c   8.42728538
_cell_angle_alpha   61.85860287
_cell_angle_beta   61.85860287
_cell_angle_gamma   61.85859829
_symmetry_Int_Tables_number   1
_chemical_formula_structural   FePO4
_chemical_formula_sum   'Fe6 P6 O24'
_cell_volume   440.81390073
_cell_formula_units_Z   6
loop_
 _symmetry_equiv_pos_site_id
 _symmetry_equiv_pos_as_xyz
  1  'x, y, z'
loop_
 _atom_site_type_symbol
 _atom_site_label
 _atom_site_symmetry_multiplicity
 _atom_site_fract_x
 _atom_site_fract_y
 _atom_site_fract_z
 _atom_site_occupancy
  Fe  Fe0  1  0.00000000  0.00000000  0.00000000  1
  Fe  Fe1  1  0.35359600  0.35359600  0.35359600  1
  Fe  Fe2  1  0.85359600  0.85359600  0.85359600  1
  Fe  Fe3  1  0.50000000  0.50000000  0.50000000  1
  Fe  Fe4  1  0.14640400  0.14640400  0.14640400  1
  Fe  Fe5  1  0.64640400  0.64640400  0.64640400  1
  P  P6  1  0.75000000  0.04813400  0.45186600  1
  P  P7  1  0.04813400  0.45186600  0.75000000  1
  P  P8  1  0.45186600  0.75000000  0.04813400  1
  P  P9  1  0.54813400  0.25000000  0.95186600  1
  P  P10  1  0.95186600  0.54813400  0.25000000  1
  P  P11  1  0.25000000  0.95186600  0.54813400  1
  O  O12  1  0.89290800  0.49521600  0.67657200  1
  O  O13  1  0.49521600  0.67657200  0.89290800  1
  O  O14  1  0.67657200  0.89290800  0.49521600  1
  O  O15  1  0.90465000  0.06173800  0.24947800  1
  O  O16  1  0.82342800  0.00478400  0.60709200  1
  O  O17  1  0.59535000  0.25052200  0.43826200  1
  O  O18  1  0.06173800  0.24947800  0.90465000  1
  O  O19  1  0.25052200  0.43826200  0.59535000  1
  O  O20  1  0.39290800  0.17657200  0.99521600  1
  O  O21  1  0.43826200  0.59535000  0.25052200  1
  O  O22  1  0.75052200  0.09535000  0.93826200  1
  O  O23  1  0.99521600  0.39290800  0.17657200  1
  O  O24  1  0.00478400  0.60709200  0.82342800  1
  O  O25  1  0.24947800  0.90465000  0.06173800  1
  O  O26  1  0.56173800  0.40465000  0.74947800  1
  O  O27  1  0.60709200  0.82342800  0.00478400  1
  O  O28  1  0.74947800  0.56173800  0.40465000  1
  O  O29  1  0.93826200  0.75052200  0.09535000  1
  O  O30  1  0.40465000  0.74947800  0.56173800  1
  O  O31  1  0.17657200  0.99521600  0.39290800  1
  O  O32  1  0.09535000  0.93826200  0.75052200  1
  O  O33  1  0.32342800  0.10709200  0.50478400  1
  O  O34  1  0.50478400  0.32342800  0.10709200  1
  O  O35  1  0.10709200  0.50478400  0.32342800  1
