# generated using pymatgen
data_Na6Fe2As(CO4)4
_symmetry_space_group_name_H-M   'P 1'
_cell_length_a   10.12557395
_cell_length_b   10.12557395
_cell_length_c   10.12557395
_cell_angle_alpha   60.00000000
_cell_angle_beta   60.00000000
_cell_angle_gamma   60.00000000
_symmetry_Int_Tables_number   1
_chemical_formula_structural   Na6Fe2As(CO4)4
_chemical_formula_sum   'Na12 Fe4 As2 C8 O32'
_cell_volume   734.08094490
_cell_formula_units_Z   2
loop_
 _symmetry_equiv_pos_site_id
 _symmetry_equiv_pos_as_xyz
  1  'x, y, z'
loop_
 _atom_site_type_symbol
 _atom_site_label
 _atom_site_symmetry_multiplicity
 _atom_site_fract_x
 _atom_site_fract_y
 _atom_site_fract_z
 _atom_site_occupancy
  Na  Na0  1  0.53969900  0.96030100  0.96030100  1
  Na  Na1  1  0.28969900  0.28969900  0.71030100  1
  Na  Na2  1  0.96030100  0.53969900  0.96030100  1
  Na  Na3  1  0.53969900  0.96030100  0.53969900  1
  Na  Na4  1  0.71030100  0.71030100  0.28969900  1
  Na  Na5  1  0.28969900  0.71030100  0.71030100  1
  Na  Na6  1  0.53969900  0.53969900  0.96030100  1
  Na  Na7  1  0.96030100  0.53969900  0.53969900  1
  Na  Na8  1  0.71030100  0.28969900  0.71030100  1
  Na  Na9  1  0.28969900  0.71030100  0.28969900  1
  Na  Na10  1  0.96030100  0.96030100  0.53969900  1
  Na  Na11  1  0.71030100  0.28969900  0.28969900  1
  Fe  Fe12  1  0.12500000  0.62500000  0.12500000  1
  Fe  Fe13  1  0.62500000  0.12500000  0.12500000  1
  Fe  Fe14  1  0.12500000  0.12500000  0.12500000  1
  Fe  Fe15  1  0.12500000  0.12500000  0.62500000  1
  As  As16  1  0.75000000  0.75000000  0.75000000  1
  As  As17  1  0.50000000  0.50000000  0.50000000  1
  C  C18  1  0.34028500  0.97914400  0.34028500  1
  C  C19  1  0.34028500  0.34028500  0.97914400  1
  C  C20  1  0.97914400  0.34028500  0.34028500  1
  C  C21  1  0.34028500  0.34028500  0.34028500  1
  C  C22  1  0.90971500  0.90971500  0.90971500  1
  C  C23  1  0.27085600  0.90971500  0.90971500  1
  C  C24  1  0.90971500  0.90971500  0.27085600  1
  C  C25  1  0.90971500  0.27085600  0.90971500  1
  O  O26  1  0.27323600  0.02250700  0.76901300  1
  O  O27  1  0.02250700  0.27323600  0.93524400  1
  O  O28  1  0.48098700  0.97676400  0.22749300  1
  O  O29  1  0.31475600  0.22749300  0.97676400  1
  O  O30  1  0.31475600  0.97676400  0.48098700  1
  O  O31  1  0.68030800  0.68030800  0.68030800  1
  O  O32  1  0.97676400  0.31475600  0.22749300  1
  O  O33  1  0.95907700  0.68030800  0.68030800  1
  O  O34  1  0.68030800  0.68030800  0.95907700  1
  O  O35  1  0.48098700  0.31475600  0.97676400  1
  O  O36  1  0.22749300  0.48098700  0.97676400  1
  O  O37  1  0.68030800  0.95907700  0.68030800  1
  O  O38  1  0.48098700  0.22749300  0.31475600  1
  O  O39  1  0.97676400  0.48098700  0.31475600  1
  O  O40  1  0.22749300  0.31475600  0.48098700  1
  O  O41  1  0.93524400  0.76901300  0.02250700  1
  O  O42  1  0.31475600  0.48098700  0.22749300  1
  O  O43  1  0.02250700  0.93524400  0.76901300  1
  O  O44  1  0.27323600  0.76901300  0.93524400  1
  O  O45  1  0.76901300  0.02250700  0.93524400  1
  O  O46  1  0.56969200  0.29092300  0.56969200  1
  O  O47  1  0.02250700  0.76901300  0.27323600  1
  O  O48  1  0.76901300  0.93524400  0.27323600  1
  O  O49  1  0.56969200  0.56969200  0.29092300  1
  O  O50  1  0.29092300  0.56969200  0.56969200  1
  O  O51  1  0.27323600  0.93524400  0.02250700  1
  O  O52  1  0.56969200  0.56969200  0.56969200  1
  O  O53  1  0.93524400  0.27323600  0.76901300  1
  O  O54  1  0.93524400  0.02250700  0.27323600  1
  O  O55  1  0.76901300  0.27323600  0.02250700  1
  O  O56  1  0.22749300  0.97676400  0.31475600  1
  O  O57  1  0.97676400  0.22749300  0.48098700  1
