# generated using pymatgen
data_LuScO3
_symmetry_space_group_name_H-M   'P 1'
_cell_length_a   6.10901509
_cell_length_b   6.10901509
_cell_length_c   12.11425500
_cell_angle_alpha   90.00000000
_cell_angle_beta   90.00000000
_cell_angle_gamma   119.99999017
_symmetry_Int_Tables_number   1
_chemical_formula_structural   LuScO3
_chemical_formula_sum   'Lu6 Sc6 O18'
_cell_volume   391.53427110
_cell_formula_units_Z   6
loop_
 _symmetry_equiv_pos_site_id
 _symmetry_equiv_pos_as_xyz
  1  'x, y, z'
loop_
 _atom_site_type_symbol
 _atom_site_label
 _atom_site_symmetry_multiplicity
 _atom_site_fract_x
 _atom_site_fract_y
 _atom_site_fract_z
 _atom_site_occupancy
  Lu  Lu0  1  0.33333300  0.66666700  0.23265400  1
  Lu  Lu1  1  0.00000000  0.00000000  0.27083800  1
  Lu  Lu2  1  0.00000000  0.00000000  0.77083800  1
  Lu  Lu3  1  0.33333300  0.66666700  0.73265400  1
  Lu  Lu4  1  0.66666700  0.33333300  0.73265400  1
  Lu  Lu5  1  0.66666700  0.33333300  0.23265400  1
  Sc  Sc6  1  0.00000000  0.66655500  0.49871600  1
  Sc  Sc7  1  0.00000000  0.33344500  0.99871600  1
  Sc  Sc8  1  0.33344500  0.33344500  0.49871600  1
  Sc  Sc9  1  0.66655500  0.66655500  0.99871600  1
  Sc  Sc10  1  0.33344500  0.00000000  0.99871600  1
  Sc  Sc11  1  0.66655500  0.00000000  0.49871600  1
  O  O12  1  0.00000000  0.69372600  0.66904000  1
  O  O13  1  0.00000000  0.63869800  0.33012300  1
  O  O14  1  0.00000000  0.36130200  0.83012300  1
  O  O15  1  0.00000000  0.30627400  0.16904000  1
  O  O16  1  0.33333300  0.66666700  0.02178500  1
  O  O17  1  0.00000000  0.00000000  0.46992000  1
  O  O18  1  0.00000000  0.00000000  0.96992000  1
  O  O19  1  0.33333300  0.66666700  0.52178500  1
  O  O20  1  0.30627400  0.30627400  0.66904000  1
  O  O21  1  0.36130200  0.36130200  0.33012300  1
  O  O22  1  0.30627400  0.00000000  0.16904000  1
  O  O23  1  0.63869800  0.63869800  0.83012300  1
  O  O24  1  0.69372600  0.69372600  0.16904000  1
  O  O25  1  0.36130200  0.00000000  0.83012300  1
  O  O26  1  0.66666700  0.33333300  0.52178500  1
  O  O27  1  0.66666700  0.33333300  0.02178500  1
  O  O28  1  0.63869800  0.00000000  0.33012300  1
  O  O29  1  0.69372600  0.00000000  0.66904000  1
