# generated using pymatgen
data_Ca(GePt)2
_symmetry_space_group_name_H-M   'P 1'
_cell_length_a   4.30163800
_cell_length_b   4.24424000
_cell_length_c   10.41194208
_cell_angle_alpha   89.90248873
_cell_angle_beta   90.00000000
_cell_angle_gamma   90.00000000
_symmetry_Int_Tables_number   1
_chemical_formula_structural   Ca(GePt)2
_chemical_formula_sum   'Ca2 Ge4 Pt4'
_cell_volume   190.09246771
_cell_formula_units_Z   2
loop_
 _symmetry_equiv_pos_site_id
 _symmetry_equiv_pos_as_xyz
  1  'x, y, z'
loop_
 _atom_site_type_symbol
 _atom_site_label
 _atom_site_symmetry_multiplicity
 _atom_site_fract_x
 _atom_site_fract_y
 _atom_site_fract_z
 _atom_site_occupancy
  Ca  Ca0  1  0.25495300  0.24770600  0.75136800  1
  Ca  Ca1  1  0.75495300  0.75229400  0.24863200  1
  Ge  Ge2  1  0.74484800  0.75970300  0.63174200  1
  Ge  Ge3  1  0.76559200  0.25342300  0.00268200  1
  Ge  Ge4  1  0.26559200  0.74657700  0.99731800  1
  Ge  Ge5  1  0.24484800  0.24029700  0.36825800  1
  Pt  Pt6  1  0.24253200  0.73857800  0.50084800  1
  Pt  Pt7  1  0.76407600  0.75258700  0.86617100  1
  Pt  Pt8  1  0.26407600  0.24741300  0.13382900  1
  Pt  Pt9  1  0.74253200  0.26142200  0.49915200  1
