# generated using pymatgen
data_Lu2GeO5
_symmetry_space_group_name_H-M   'P 1'
_cell_length_a   6.86989500
_cell_length_b   6.63448800
_cell_length_c   9.18041199
_cell_angle_alpha   78.21120852
_cell_angle_beta   90.00000000
_cell_angle_gamma   90.00000000
_symmetry_Int_Tables_number   1
_chemical_formula_structural   Lu2GeO5
_chemical_formula_sum   'Lu8 Ge4 O20'
_cell_volume   409.60126012
_cell_formula_units_Z   4
loop_
 _symmetry_equiv_pos_site_id
 _symmetry_equiv_pos_as_xyz
  1  'x, y, z'
loop_
 _atom_site_type_symbol
 _atom_site_label
 _atom_site_symmetry_multiplicity
 _atom_site_fract_x
 _atom_site_fract_y
 _atom_site_fract_z
 _atom_site_occupancy
  Lu  Lu0  1  0.87397400  0.27284700  0.02919300  1
  Lu  Lu1  1  0.62602600  0.77284700  0.02919300  1
  Lu  Lu2  1  0.86015100  0.48782300  0.35365200  1
  Lu  Lu3  1  0.63984900  0.98782300  0.35365200  1
  Lu  Lu4  1  0.36015100  0.01217700  0.64634800  1
  Lu  Lu5  1  0.13984900  0.51217700  0.64634800  1
  Lu  Lu6  1  0.37397400  0.22715300  0.97080700  1
  Lu  Lu7  1  0.12602600  0.72715300  0.97080700  1
  Ge  Ge8  1  0.40222500  0.48957700  0.30145900  1
  Ge  Ge9  1  0.09777500  0.98957700  0.30145900  1
  Ge  Ge10  1  0.90222500  0.01042300  0.69854100  1
  Ge  Ge11  1  0.59777500  0.51042300  0.69854100  1
  O  O12  1  0.14330700  0.01162100  0.10554800  1
  O  O13  1  0.61543500  0.08018800  0.10706600  1
  O  O14  1  0.35669300  0.51162100  0.10554800  1
  O  O15  1  0.88456500  0.58018800  0.10706600  1
  O  O16  1  0.92155500  0.19771200  0.27881100  1
  O  O17  1  0.31167000  0.01213600  0.39775000  1
  O  O18  1  0.57844500  0.69771200  0.27881100  1
  O  O19  1  0.57560700  0.30520300  0.38041300  1
  O  O20  1  0.18833000  0.51213600  0.39775000  1
  O  O21  1  0.92439300  0.80520300  0.38041300  1
  O  O22  1  0.07560700  0.19479700  0.61958700  1
  O  O23  1  0.81167000  0.48786400  0.60225000  1
  O  O24  1  0.42439300  0.69479700  0.61958700  1
  O  O25  1  0.42155500  0.30228800  0.72118900  1
  O  O26  1  0.68833000  0.98786400  0.60225000  1
  O  O27  1  0.07844500  0.80228800  0.72118900  1
  O  O28  1  0.11543500  0.41981200  0.89293400  1
  O  O29  1  0.64330700  0.48837900  0.89445200  1
  O  O30  1  0.38456500  0.91981200  0.89293400  1
  O  O31  1  0.85669300  0.98837900  0.89445200  1
