# generated using pymatgen
data_K2GaPCO7
_symmetry_space_group_name_H-M   'P 1'
_cell_length_a   6.75370500
_cell_length_b   5.48791200
_cell_length_c   9.68115129
_cell_angle_alpha   89.36141603
_cell_angle_beta   90.00000000
_cell_angle_gamma   90.00000000
_symmetry_Int_Tables_number   1
_chemical_formula_structural   K2GaPCO7
_chemical_formula_sum   'K4 Ga2 P2 C2 O14'
_cell_volume   358.79737581
_cell_formula_units_Z   2
loop_
 _symmetry_equiv_pos_site_id
 _symmetry_equiv_pos_as_xyz
  1  'x, y, z'
loop_
 _atom_site_type_symbol
 _atom_site_label
 _atom_site_symmetry_multiplicity
 _atom_site_fract_x
 _atom_site_fract_y
 _atom_site_fract_z
 _atom_site_occupancy
  K  K0  1  0.47429500  0.24343700  0.75907100  1
  K  K1  1  0.02570500  0.24343700  0.75907100  1
  K  K2  1  0.52570500  0.75656300  0.24092900  1
  K  K3  1  0.97429500  0.75656300  0.24092900  1
  Ga  Ga4  1  0.75000000  0.76684700  0.64185100  1
  Ga  Ga5  1  0.25000000  0.23315300  0.35814900  1
  P  P6  1  0.25000000  0.72266600  0.56535800  1
  P  P7  1  0.75000000  0.27733400  0.43464200  1
  C  C8  1  0.75000000  0.72938900  0.89664700  1
  C  C9  1  0.25000000  0.27061100  0.10335300  1
  O  O10  1  0.25000000  0.29309700  0.97516900  1
  O  O11  1  0.75000000  0.93942100  0.82878100  1
  O  O12  1  0.75000000  0.54286800  0.80994300  1
  O  O13  1  0.06223200  0.76060800  0.65465000  1
  O  O14  1  0.43776800  0.76060800  0.65465000  1
  O  O15  1  0.75000000  0.09905300  0.56136200  1
  O  O16  1  0.25000000  0.45084800  0.51390500  1
  O  O17  1  0.75000000  0.54915200  0.48609500  1
  O  O18  1  0.25000000  0.90094700  0.43863800  1
  O  O19  1  0.56223200  0.23939200  0.34535000  1
  O  O20  1  0.93776800  0.23939200  0.34535000  1
  O  O21  1  0.25000000  0.45713200  0.19005700  1
  O  O22  1  0.25000000  0.06057900  0.17121900  1
  O  O23  1  0.75000000  0.70690300  0.02483100  1
