# generated using pymatgen
data_Sr3W2O9
_symmetry_space_group_name_H-M   'P 1'
_cell_length_a   8.11717600
_cell_length_b   9.06940900
_cell_length_c   9.66953929
_cell_angle_alpha   62.84990380
_cell_angle_beta   90.00000000
_cell_angle_gamma   90.00000000
_symmetry_Int_Tables_number   1
_chemical_formula_structural   Sr3W2O9
_chemical_formula_sum   'Sr6 W4 O18'
_cell_volume   633.41602442
_cell_formula_units_Z   2
loop_
 _symmetry_equiv_pos_site_id
 _symmetry_equiv_pos_as_xyz
  1  'x, y, z'
loop_
 _atom_site_type_symbol
 _atom_site_label
 _atom_site_symmetry_multiplicity
 _atom_site_fract_x
 _atom_site_fract_y
 _atom_site_fract_z
 _atom_site_occupancy
  Sr  Sr0  1  0.25000000  0.37220900  0.74525800  1
  Sr  Sr1  1  0.00000000  0.00000000  0.00000000  1
  Sr  Sr2  1  0.50000000  0.00000000  0.00000000  1
  Sr  Sr3  1  0.25000000  0.16587800  0.22214000  1
  Sr  Sr4  1  0.75000000  0.83412200  0.77786000  1
  Sr  Sr5  1  0.75000000  0.62779100  0.25474200  1
  W  W6  1  0.75000000  0.42922300  0.73040900  1
  W  W7  1  0.25000000  0.85073500  0.71036500  1
  W  W8  1  0.75000000  0.14926500  0.28963500  1
  W  W9  1  0.25000000  0.57077700  0.26959100  1
  O  O10  1  0.25000000  0.13958500  0.99145200  1
  O  O11  1  0.56484600  0.30013300  0.77550800  1
  O  O12  1  0.93515400  0.30013300  0.77550800  1
  O  O13  1  0.75000000  0.58042700  0.52732400  1
  O  O14  1  0.25000000  0.63756200  0.74606100  1
  O  O15  1  0.75000000  0.54251100  0.84229100  1
  O  O16  1  0.93517900  0.10533400  0.20609700  1
  O  O17  1  0.56482100  0.10533400  0.20609700  1
  O  O18  1  0.25000000  0.97928000  0.50284800  1
  O  O19  1  0.75000000  0.02072000  0.49715200  1
  O  O20  1  0.06482100  0.89466600  0.79390300  1
  O  O21  1  0.43517900  0.89466600  0.79390300  1
  O  O22  1  0.25000000  0.45748900  0.15770900  1
  O  O23  1  0.75000000  0.36243800  0.25393900  1
  O  O24  1  0.25000000  0.41957300  0.47267600  1
  O  O25  1  0.06484600  0.69986700  0.22449200  1
  O  O26  1  0.43515400  0.69986700  0.22449200  1
  O  O27  1  0.75000000  0.86041500  0.00854800  1
