# generated using pymatgen
data_Na3CuCSO7
_symmetry_space_group_name_H-M   'P 1'
_cell_length_a   6.96921500
_cell_length_b   5.14909200
_cell_length_c   8.99811921
_cell_angle_alpha   89.88161483
_cell_angle_beta   90.00000000
_cell_angle_gamma   90.00000000
_symmetry_Int_Tables_number   1
_chemical_formula_structural   Na3CuCSO7
_chemical_formula_sum   'Na6 Cu2 C2 S2 O14'
_cell_volume   322.89798108
_cell_formula_units_Z   2
loop_
 _symmetry_equiv_pos_site_id
 _symmetry_equiv_pos_as_xyz
  1  'x, y, z'
loop_
 _atom_site_type_symbol
 _atom_site_label
 _atom_site_symmetry_multiplicity
 _atom_site_fract_x
 _atom_site_fract_y
 _atom_site_fract_z
 _atom_site_occupancy
  Na  Na0  1  0.75000000  0.75724900  0.07864600  1
  Na  Na1  1  0.00836000  0.24688800  0.25760800  1
  Na  Na2  1  0.49164000  0.24688800  0.25760800  1
  Na  Na3  1  0.50836000  0.75311200  0.74239200  1
  Na  Na4  1  0.99164000  0.75311200  0.74239200  1
  Na  Na5  1  0.25000000  0.24275100  0.92135400  1
  Cu  Cu6  1  0.25000000  0.76359600  0.36417700  1
  Cu  Cu7  1  0.75000000  0.23640400  0.63582300  1
  C  C8  1  0.25000000  0.73600000  0.05910700  1
  C  C9  1  0.75000000  0.26400000  0.94089300  1
  S  S10  1  0.75000000  0.70196500  0.40890200  1
  S  S11  1  0.25000000  0.29803500  0.59109800  1
  O  O12  1  0.75000000  0.28326300  0.08577400  1
  O  O13  1  0.25000000  0.96329600  0.12159000  1
  O  O14  1  0.25000000  0.52758500  0.14078300  1
  O  O15  1  0.92287400  0.78456000  0.32205200  1
  O  O16  1  0.57712600  0.78456000  0.32205200  1
  O  O17  1  0.75000000  0.40949100  0.42357800  1
  O  O18  1  0.25000000  0.18353700  0.43923000  1
  O  O19  1  0.75000000  0.81646300  0.56077000  1
  O  O20  1  0.25000000  0.59050900  0.57642200  1
  O  O21  1  0.42287400  0.21544000  0.67794800  1
  O  O22  1  0.07712600  0.21544000  0.67794800  1
  O  O23  1  0.75000000  0.47241500  0.85921700  1
  O  O24  1  0.75000000  0.03670400  0.87841000  1
  O  O25  1  0.25000000  0.71673700  0.91422600  1
