# generated using pymatgen
data_VFe(PO4)2
_symmetry_space_group_name_H-M   'P 1'
_cell_length_a   8.49849453
_cell_length_b   8.49849453
_cell_length_c   8.49849522
_cell_angle_alpha   61.12677982
_cell_angle_beta   61.12677982
_cell_angle_gamma   61.12678360
_symmetry_Int_Tables_number   1
_chemical_formula_structural   VFe(PO4)2
_chemical_formula_sum   'V3 Fe3 P6 O24'
_cell_volume   445.02752331
_cell_formula_units_Z   3
loop_
 _symmetry_equiv_pos_site_id
 _symmetry_equiv_pos_as_xyz
  1  'x, y, z'
loop_
 _atom_site_type_symbol
 _atom_site_label
 _atom_site_symmetry_multiplicity
 _atom_site_fract_x
 _atom_site_fract_y
 _atom_site_fract_z
 _atom_site_occupancy
  V  V0  1  0.00133700  0.00133700  0.00133700  1
  V  V1  1  0.85543100  0.85543100  0.85543100  1
  V  V2  1  0.50078100  0.50078100  0.50078100  1
  Fe  Fe3  1  0.35440100  0.35440100  0.35440100  1
  Fe  Fe4  1  0.14614400  0.14614400  0.14614400  1
  Fe  Fe5  1  0.64557000  0.64557000  0.64557000  1
  P  P6  1  0.74872400  0.04517000  0.45488300  1
  P  P7  1  0.04517000  0.45488300  0.74872400  1
  P  P8  1  0.45488300  0.74872400  0.04517000  1
  P  P9  1  0.54606800  0.24897400  0.95357000  1
  P  P10  1  0.95357000  0.54606800  0.24897400  1
  P  P11  1  0.24897400  0.95357000  0.54606800  1
  O  O12  1  0.89384200  0.49969100  0.67300800  1
  O  O13  1  0.49969100  0.67300800  0.89384200  1
  O  O14  1  0.67300800  0.89384200  0.49969100  1
  O  O15  1  0.90630900  0.06050600  0.25691400  1
  O  O16  1  0.82332500  0.99609600  0.61297500  1
  O  O17  1  0.59305000  0.24532600  0.44443000  1
  O  O18  1  0.06050600  0.25691400  0.90630900  1
  O  O19  1  0.24532600  0.44443000  0.59305000  1
  O  O20  1  0.39277300  0.17600900  0.99731900  1
  O  O21  1  0.44443000  0.59305000  0.24532600  1
  O  O22  1  0.74785600  0.09004800  0.93356800  1
  O  O23  1  0.99731900  0.39277300  0.17600900  1
  O  O24  1  0.99609600  0.61297500  0.82332500  1
  O  O25  1  0.25691400  0.90630900  0.06050600  1
  O  O26  1  0.56337000  0.40600600  0.75341200  1
  O  O27  1  0.61297500  0.82332500  0.99609600  1
  O  O28  1  0.75341200  0.56337000  0.40600600  1
  O  O29  1  0.93356800  0.74785600  0.09004800  1
  O  O30  1  0.40600600  0.75341200  0.56337000  1
  O  O31  1  0.17600900  0.99731900  0.39277300  1
  O  O32  1  0.09004800  0.93356800  0.74785600  1
  O  O33  1  0.31558700  0.10995000  0.50757900  1
  O  O34  1  0.50757900  0.31558700  0.10995000  1
  O  O35  1  0.10995000  0.50757900  0.31558700  1
