# generated using pymatgen
data_MnH4(SO5)2
_symmetry_space_group_name_H-M   'P 1'
_cell_length_a   12.98616000
_cell_length_b   5.15059200
_cell_length_c   5.80430207
_cell_angle_alpha   76.61555399
_cell_angle_beta   90.00000000
_cell_angle_gamma   90.00000000
_symmetry_Int_Tables_number   1
_chemical_formula_structural   MnH4(SO5)2
_chemical_formula_sum   'Mn2 H8 S4 O20'
_cell_volume   377.68415723
_cell_formula_units_Z   2
loop_
 _symmetry_equiv_pos_site_id
 _symmetry_equiv_pos_as_xyz
  1  'x, y, z'
loop_
 _atom_site_type_symbol
 _atom_site_label
 _atom_site_symmetry_multiplicity
 _atom_site_fract_x
 _atom_site_fract_y
 _atom_site_fract_z
 _atom_site_occupancy
  Mn  Mn0  1  0.50000000  0.50000000  0.00000000  1
  Mn  Mn1  1  0.00000000  0.00000000  0.00000000  1
  H  H2  1  0.30348000  0.49788100  0.08378500  1
  H  H3  1  0.19652000  0.99788100  0.08378500  1
  H  H4  1  0.36046200  0.31839100  0.31741700  1
  H  H5  1  0.13953800  0.81839100  0.31741700  1
  H  H6  1  0.86046200  0.18160900  0.68258300  1
  H  H7  1  0.63953800  0.68160900  0.68258300  1
  H  H8  1  0.80348000  0.00211900  0.91621500  1
  H  H9  1  0.69652000  0.50211900  0.91621500  1
  S  S10  1  0.88199400  0.43573200  0.21874300  1
  S  S11  1  0.61800600  0.93573200  0.21874300  1
  S  S12  1  0.38199400  0.06426800  0.78125700  1
  S  S13  1  0.11800600  0.56426800  0.78125700  1
  O  O14  1  0.31786000  0.00674900  0.99239900  1
  O  O15  1  0.18214000  0.50674900  0.99239900  1
  O  O16  1  0.53978500  0.15966600  0.21090800  1
  O  O17  1  0.36988100  0.47254600  0.17462000  1
  O  O18  1  0.94421100  0.18030300  0.23641700  1
  O  O19  1  0.96021500  0.65966600  0.21090800  1
  O  O20  1  0.13011900  0.97254600  0.17462000  1
  O  O21  1  0.55578900  0.68030300  0.23641700  1
  O  O22  1  0.82691000  0.39839600  0.44335200  1
  O  O23  1  0.32691000  0.10160400  0.55664800  1
  O  O24  1  0.67309000  0.89839600  0.44335200  1
  O  O25  1  0.17309000  0.60160400  0.55664800  1
  O  O26  1  0.44421100  0.31969700  0.76358300  1
  O  O27  1  0.86988100  0.02745400  0.82538000  1
  O  O28  1  0.03978500  0.34033400  0.78909200  1
  O  O29  1  0.05578900  0.81969700  0.76358300  1
  O  O30  1  0.63011900  0.52745400  0.82538000  1
  O  O31  1  0.46021500  0.84033400  0.78909200  1
  O  O32  1  0.81786000  0.49325100  0.00760100  1
  O  O33  1  0.68214000  0.99325100  0.00760100  1
