# generated using pymatgen
data_Tm4(B2O5)3
_symmetry_space_group_name_H-M   'P 1'
_cell_length_a   6.21190611
_cell_length_b   6.21190611
_cell_length_c   18.77793937
_cell_angle_alpha   84.07908676
_cell_angle_beta   84.07908676
_cell_angle_gamma   41.30739766
_symmetry_Int_Tables_number   1
_chemical_formula_structural   Tm4(B2O5)3
_chemical_formula_sum   'Tm8 B12 O30'
_cell_volume   475.39146819
_cell_formula_units_Z   2
loop_
 _symmetry_equiv_pos_site_id
 _symmetry_equiv_pos_as_xyz
  1  'x, y, z'
loop_
 _atom_site_type_symbol
 _atom_site_label
 _atom_site_symmetry_multiplicity
 _atom_site_fract_x
 _atom_site_fract_y
 _atom_site_fract_z
 _atom_site_occupancy
  Tm  Tm0  1  0.65536100  0.07025200  0.30228400  1
  Tm  Tm1  1  0.66815800  0.06460600  0.09933600  1
  Tm  Tm2  1  0.07025200  0.65536100  0.80228400  1
  Tm  Tm3  1  0.06460600  0.66815800  0.59933600  1
  Tm  Tm4  1  0.93539400  0.33184200  0.40066400  1
  Tm  Tm5  1  0.92974800  0.34463900  0.19771600  1
  Tm  Tm6  1  0.33184200  0.93539400  0.90066400  1
  Tm  Tm7  1  0.34463900  0.92974800  0.69771600  1
  B  B8  1  0.19739000  0.60868200  0.41284500  1
  B  B9  1  0.20433300  0.65924400  0.19419000  1
  B  B10  1  0.64113400  0.02110500  0.47445600  1
  B  B11  1  0.60868200  0.19739000  0.91284500  1
  B  B12  1  0.65924400  0.20433300  0.69419000  1
  B  B13  1  0.02110500  0.64113400  0.97445600  1
  B  B14  1  0.97889500  0.35886600  0.02554400  1
  B  B15  1  0.34075600  0.79566700  0.30581000  1
  B  B16  1  0.39131800  0.80261000  0.08715500  1
  B  B17  1  0.35886600  0.97889500  0.52554400  1
  B  B18  1  0.79566700  0.34075600  0.80581000  1
  B  B19  1  0.80261000  0.39131800  0.58715500  1
  O  O20  1  0.15908100  0.81176500  0.12127600  1
  O  O21  1  0.54416600  0.28754200  0.42920600  1
  O  O22  1  0.53459200  0.33452700  0.19668500  1
  O  O23  1  0.99523800  0.75065100  0.48002200  1
  O  O24  1  0.81176500  0.15908100  0.62127600  1
  O  O25  1  0.28754200  0.54416600  0.92920600  1
  O  O26  1  0.07444200  0.56230400  0.36139500  1
  O  O27  1  0.33452700  0.53459200  0.69668500  1
  O  O28  1  0.75065100  0.99523800  0.98002200  1
  O  O29  1  0.94966900  0.68473700  0.20392300  1
  O  O30  1  0.08978600  0.49368700  0.04968100  1
  O  O31  1  0.50631300  0.91021400  0.45031900  1
  O  O32  1  0.56230400  0.07444200  0.86139500  1
  O  O33  1  0.68473700  0.94966900  0.70392300  1
  O  O34  1  0.31526300  0.05033100  0.29607700  1
  O  O35  1  0.43769600  0.92555800  0.13860500  1
  O  O36  1  0.49368700  0.08978600  0.54968100  1
  O  O37  1  0.91021400  0.50631300  0.95031900  1
  O  O38  1  0.05033100  0.31526300  0.79607700  1
  O  O39  1  0.24934900  0.00476200  0.01997800  1
  O  O40  1  0.66547300  0.46540800  0.30331500  1
  O  O41  1  0.92555800  0.43769600  0.63860500  1
  O  O42  1  0.71245800  0.45583400  0.07079400  1
  O  O43  1  0.18823500  0.84091900  0.37872400  1
  O  O44  1  0.13108900  0.86891100  0.25000000  1
  O  O45  1  0.00476200  0.24934900  0.51997800  1
  O  O46  1  0.46540800  0.66547300  0.80331500  1
  O  O47  1  0.45583400  0.71245800  0.57079400  1
  O  O48  1  0.84091900  0.18823500  0.87872400  1
  O  O49  1  0.86891100  0.13108900  0.75000000  1
