# generated using pymatgen
data_Ho2(SeO4)3
_symmetry_space_group_name_H-M   'P 1'
_cell_length_a   6.79596147
_cell_length_b   6.79596147
_cell_length_c   11.30544647
_cell_angle_alpha   80.62931330
_cell_angle_beta   80.62931330
_cell_angle_gamma   117.07430523
_symmetry_Int_Tables_number   1
_chemical_formula_structural   Ho2(SeO4)3
_chemical_formula_sum   'Ho4 Se6 O24'
_cell_volume   441.72455584
_cell_formula_units_Z   2
loop_
 _symmetry_equiv_pos_site_id
 _symmetry_equiv_pos_as_xyz
  1  'x, y, z'
loop_
 _atom_site_type_symbol
 _atom_site_label
 _atom_site_symmetry_multiplicity
 _atom_site_fract_x
 _atom_site_fract_y
 _atom_site_fract_z
 _atom_site_occupancy
  Ho  Ho0  1  0.70812200  0.95761500  0.59453200  1
  Ho  Ho1  1  0.95761500  0.70812200  0.09453200  1
  Ho  Ho2  1  0.04238500  0.29187800  0.90546800  1
  Ho  Ho3  1  0.29187800  0.04238500  0.40546800  1
  Se  Se4  1  0.52841600  0.78597800  0.92454700  1
  Se  Se5  1  0.78597800  0.52841600  0.42454700  1
  Se  Se6  1  0.11977500  0.88022500  0.75000000  1
  Se  Se7  1  0.88022500  0.11977500  0.25000000  1
  Se  Se8  1  0.21402200  0.47158400  0.57545300  1
  Se  Se9  1  0.47158400  0.21402200  0.07545300  1
  O  O10  1  0.58702400  0.97207800  0.78943200  1
  O  O11  1  0.87383900  0.78637100  0.71165200  1
  O  O12  1  0.07981700  0.67889600  0.87750600  1
  O  O13  1  0.76737100  0.33709500  0.54364500  1
  O  O14  1  0.78941500  0.88860000  0.95778700  1
  O  O15  1  0.46989300  0.57598300  0.60553000  1
  O  O16  1  0.97207800  0.58702400  0.28943200  1
  O  O17  1  0.42401700  0.53010700  0.89447000  1
  O  O18  1  0.11140000  0.21058500  0.54221300  1
  O  O19  1  0.66290500  0.23262900  0.95635500  1
  O  O20  1  0.32110400  0.92018300  0.62249400  1
  O  O21  1  0.78637100  0.87383900  0.21165200  1
  O  O22  1  0.21362900  0.12616100  0.78834800  1
  O  O23  1  0.67889600  0.07981700  0.37750600  1
  O  O24  1  0.33709500  0.76737100  0.04364500  1
  O  O25  1  0.88860000  0.78941500  0.45778700  1
  O  O26  1  0.57598300  0.46989300  0.10553000  1
  O  O27  1  0.02792200  0.41297600  0.71056800  1
  O  O28  1  0.53010700  0.42401700  0.39447000  1
  O  O29  1  0.21058500  0.11140000  0.04221300  1
  O  O30  1  0.23262900  0.66290500  0.45635500  1
  O  O31  1  0.92018300  0.32110400  0.12249400  1
  O  O32  1  0.12616100  0.21362900  0.28834800  1
  O  O33  1  0.41297600  0.02792200  0.21056800  1
