# generated using pymatgen
data_Np(SeO3)2
_symmetry_space_group_name_H-M   'P 1'
_cell_length_a   10.92797400
_cell_length_b   7.07502100
_cell_length_c   8.66714094
_cell_angle_alpha   54.69644785
_cell_angle_beta   90.00000000
_cell_angle_gamma   90.00000000
_symmetry_Int_Tables_number   1
_chemical_formula_structural   Np(SeO3)2
_chemical_formula_sum   'Np4 Se8 O24'
_cell_volume   546.87435880
_cell_formula_units_Z   4
loop_
 _symmetry_equiv_pos_site_id
 _symmetry_equiv_pos_as_xyz
  1  'x, y, z'
loop_
 _atom_site_type_symbol
 _atom_site_label
 _atom_site_symmetry_multiplicity
 _atom_site_fract_x
 _atom_site_fract_y
 _atom_site_fract_z
 _atom_site_occupancy
  Np  Np0  1  0.59651400  0.74760100  0.49463300  1
  Np  Np1  1  0.09651400  0.25239900  0.00536700  1
  Np  Np2  1  0.90348600  0.74760100  0.99463300  1
  Np  Np3  1  0.40348600  0.25239900  0.50536700  1
  Se  Se4  1  0.42263300  0.28526800  0.93063000  1
  Se  Se5  1  0.92263300  0.71473200  0.56937000  1
  Se  Se6  1  0.28625500  0.81249900  0.42534900  1
  Se  Se7  1  0.78625500  0.18750100  0.07465100  1
  Se  Se8  1  0.21374500  0.81249900  0.92534900  1
  Se  Se9  1  0.71374500  0.18750100  0.57465100  1
  Se  Se10  1  0.07736700  0.28526800  0.43063000  1
  Se  Se11  1  0.57736700  0.71473200  0.06937000  1
  O  O12  1  0.39880200  0.61846000  0.45045900  1
  O  O13  1  0.01538100  0.47439400  0.71253000  1
  O  O14  1  0.59263500  0.84435500  0.18749400  1
  O  O15  1  0.77961400  0.58114400  0.61863400  1
  O  O16  1  0.27961400  0.41885600  0.88136600  1
  O  O17  1  0.90189200  0.00499200  0.08595200  1
  O  O18  1  0.51538100  0.52560600  0.78747000  1
  O  O19  1  0.24605300  0.95681800  0.19227900  1
  O  O20  1  0.74605300  0.04318200  0.30772100  1
  O  O21  1  0.10119800  0.61846000  0.95045900  1
  O  O22  1  0.40189200  0.99500800  0.41404800  1
  O  O23  1  0.90736500  0.84435500  0.68749400  1
  O  O24  1  0.09263500  0.15564500  0.31250600  1
  O  O25  1  0.59810800  0.00499200  0.58595200  1
  O  O26  1  0.89880200  0.38154000  0.04954100  1
  O  O27  1  0.25394700  0.95681800  0.69227900  1
  O  O28  1  0.75394700  0.04318200  0.80772100  1
  O  O29  1  0.48461900  0.47439400  0.21253000  1
  O  O30  1  0.09810800  0.99500800  0.91404800  1
  O  O31  1  0.72038600  0.58114400  0.11863400  1
  O  O32  1  0.22038600  0.41885600  0.38136600  1
  O  O33  1  0.40736500  0.15564500  0.81250600  1
  O  O34  1  0.98461900  0.52560600  0.28747000  1
  O  O35  1  0.60119800  0.38154000  0.54954100  1
