# generated using pymatgen
data_Ta2Co4O9
_symmetry_space_group_name_H-M   'P 1'
_cell_length_a   5.19834900
_cell_length_b   8.94225206
_cell_length_c   14.56418926
_cell_angle_alpha   89.99536070
_cell_angle_beta   89.99029478
_cell_angle_gamma   89.99356065
_symmetry_Int_Tables_number   1
_chemical_formula_structural   Ta2Co4O9
_chemical_formula_sum   'Ta8 Co16 O36'
_cell_volume   677.01555000
_cell_formula_units_Z   4
loop_
 _symmetry_equiv_pos_site_id
 _symmetry_equiv_pos_as_xyz
  1  'x, y, z'
loop_
 _atom_site_type_symbol
 _atom_site_label
 _atom_site_symmetry_multiplicity
 _atom_site_fract_x
 _atom_site_fract_y
 _atom_site_fract_z
 _atom_site_occupancy
  Ta  Ta0  1  0.99986400  0.02353800  0.85536000  1
  Ta  Ta1  1  0.99849300  0.97655700  0.64484800  1
  Ta  Ta2  1  0.50054000  0.47452800  0.35433800  1
  Ta  Ta3  1  0.49893300  0.52542100  0.14551900  1
  Ta  Ta4  1  0.49894000  0.52360500  0.64467300  1
  Ta  Ta5  1  0.49971000  0.47644400  0.85525500  1
  Ta  Ta6  1  0.99923200  0.02514000  0.35458400  1
  Ta  Ta7  1  0.99932000  0.97430300  0.14592400  1
  Co  Co8  1  0.99993100  0.33622300  0.69179900  1
  Co  Co9  1  0.99996400  0.66417800  0.80780600  1
  Co  Co10  1  0.99624000  0.66270400  0.50129100  1
  Co  Co11  1  0.99638300  0.33760000  0.99825000  1
  Co  Co12  1  0.50285200  0.16310100  0.49841400  1
  Co  Co13  1  0.50291100  0.83719600  0.00174500  1
  Co  Co14  1  0.50106300  0.83484800  0.31196900  1
  Co  Co15  1  0.50404000  0.16502200  0.18676800  1
  Co  Co16  1  0.50002100  0.83576900  0.80788800  1
  Co  Co17  1  0.49981500  0.16360500  0.69144800  1
  Co  Co18  1  0.49658600  0.16245800  0.99854500  1
  Co  Co19  1  0.49603800  0.83819400  0.50186500  1
  Co  Co20  1  0.00332000  0.33724900  0.49824400  1
  Co  Co21  1  0.00301900  0.66301000  0.00167100  1
  Co  Co22  1  0.00353000  0.66327300  0.31335900  1
  Co  Co23  1  0.00283300  0.33465100  0.18715600  1
  O  O24  1  0.85380400  0.14583000  0.25071100  1
  O  O25  1  0.85488600  0.85390500  0.24957800  1
  O  O26  1  0.83645700  0.16827200  0.92678700  1
  O  O27  1  0.83645200  0.83152300  0.57330900  1
  O  O28  1  0.82888000  0.49303800  0.58689300  1
  O  O29  1  0.82870000  0.50653200  0.91345000  1
  O  O30  1  0.82652100  0.15947500  0.59599100  1
  O  O31  1  0.82703400  0.83985700  0.90381100  1
  O  O32  1  0.78499700  0.50047900  0.24965300  1
  O  O33  1  0.71665300  0.99994500  0.75012100  1
  O  O34  1  0.66993500  0.33828800  0.09754400  1
  O  O35  1  0.66953700  0.66153600  0.40251000  1
  O  O36  1  0.67313500  0.99339200  0.41397900  1
  O  O37  1  0.67345400  0.00632500  0.08629300  1
  O  O38  1  0.66476000  0.33177800  0.42699800  1
  O  O39  1  0.66446400  0.66825800  0.07308700  1
  O  O40  1  0.64404900  0.35347900  0.74990100  1
  O  O41  1  0.64479100  0.64593400  0.74990700  1
  O  O42  1  0.35384800  0.64617300  0.24914800  1
  O  O43  1  0.35359800  0.35448600  0.25088500  1
  O  O44  1  0.33637100  0.66859800  0.57315200  1
  O  O45  1  0.33652400  0.33175600  0.92681100  1
  O  O46  1  0.32906300  0.00734300  0.58717800  1
  O  O47  1  0.32883800  0.99350900  0.91348500  1
  O  O48  1  0.32611200  0.34066400  0.59593900  1
  O  O49  1  0.32701500  0.66007100  0.90377800  1
  O  O50  1  0.28648500  0.00053700  0.25021800  1
  O  O51  1  0.21654600  0.50008600  0.75007900  1
  O  O52  1  0.17018300  0.16152800  0.09773500  1
  O  O53  1  0.16951200  0.83853500  0.40255400  1
  O  O54  1  0.17292700  0.49335000  0.08620500  1
  O  O55  1  0.17250800  0.50671700  0.41345400  1
  O  O56  1  0.16456900  0.16818200  0.42688700  1
  O  O57  1  0.16471000  0.83168700  0.07324300  1
  O  O58  1  0.14418500  0.14628300  0.75002400  1
  O  O59  1  0.14492100  0.85402900  0.74998500  1
