# generated using pymatgen
data_Li4Cr2(PO4)3
_symmetry_space_group_name_H-M   'P 1'
_cell_length_a   9.18343156
_cell_length_b   8.51184052
_cell_length_c   8.31361831
_cell_angle_alpha   61.20454693
_cell_angle_beta   63.79114418
_cell_angle_gamma   61.81239623
_symmetry_Int_Tables_number   1
_chemical_formula_structural   Li4Cr2(PO4)3
_chemical_formula_sum   'Li8 Cr4 P6 O24'
_cell_volume   482.28920708
_cell_formula_units_Z   2
loop_
 _symmetry_equiv_pos_site_id
 _symmetry_equiv_pos_as_xyz
  1  'x, y, z'
loop_
 _atom_site_type_symbol
 _atom_site_label
 _atom_site_symmetry_multiplicity
 _atom_site_fract_x
 _atom_site_fract_y
 _atom_site_fract_z
 _atom_site_occupancy
  Li  Li0  1  0.15339600  0.66492900  0.27339200  1
  Li  Li1  1  0.13597500  0.27494000  0.92039900  1
  Li  Li2  1  0.10341400  0.93479300  0.68621000  1
  Li  Li3  1  0.58188200  0.21828800  0.46267700  1
  Li  Li4  1  0.41811800  0.78171200  0.53732300  1
  Li  Li5  1  0.89658600  0.06520700  0.31379000  1
  Li  Li6  1  0.86402500  0.72506000  0.07960100  1
  Li  Li7  1  0.84660400  0.33507100  0.72660800  1
  Cr  Cr8  1  0.03736400  0.64775900  0.66071200  1
  Cr  Cr9  1  0.56002100  0.15031200  0.14406300  1
  Cr  Cr10  1  0.43997900  0.84968800  0.85593700  1
  Cr  Cr11  1  0.96263600  0.35224100  0.33928800  1
  P  P12  1  0.24291700  0.24292400  0.54969800  1
  P  P13  1  0.26006000  0.96258600  0.24318600  1
  P  P14  1  0.25348200  0.54947000  0.95244000  1
  P  P15  1  0.74651800  0.45053000  0.04756000  1
  P  P16  1  0.73994000  0.03741400  0.75681400  1
  P  P17  1  0.75708300  0.75707600  0.45030200  1
  O  O18  1  0.10220400  0.14875500  0.20109700  1
  O  O19  1  0.10084600  0.58651000  0.12794300  1
  O  O20  1  0.09472500  0.20255300  0.54675600  1
  O  O21  1  0.19299900  0.45493200  0.51345700  1
  O  O22  1  0.27070100  0.11824300  0.75218200  1
  O  O23  1  0.41464800  0.18498100  0.40154200  1
  O  O24  1  0.28122500  0.85261800  0.12400600  1
  O  O25  1  0.21773800  0.84322000  0.45912800  1
  O  O26  1  0.19941700  0.50125800  0.83398900  1
  O  O27  1  0.58586300  0.60559600  0.99183300  1
  O  O28  1  0.70670200  0.25632400  0.17826100  1
  O  O29  1  0.57574200  0.99828300  0.80953600  1
  O  O30  1  0.42425800  0.00171700  0.19046400  1
  O  O31  1  0.29329800  0.74367600  0.82173900  1
  O  O32  1  0.41413700  0.39440400  0.00816700  1
  O  O33  1  0.80058300  0.49874200  0.16601100  1
  O  O34  1  0.78226200  0.15678000  0.54087200  1
  O  O35  1  0.71877500  0.14738200  0.87599400  1
  O  O36  1  0.58535200  0.81501900  0.59845800  1
  O  O37  1  0.72929900  0.88175700  0.24781800  1
  O  O38  1  0.80700100  0.54506800  0.48654300  1
  O  O39  1  0.90527500  0.79744700  0.45324400  1
  O  O40  1  0.89915400  0.41349000  0.87205700  1
  O  O41  1  0.89779600  0.85124500  0.79890300  1
