# generated using pymatgen
data_Co3NiO8
_symmetry_space_group_name_H-M   'P 1'
_cell_length_a   5.59453901
_cell_length_b   5.59464058
_cell_length_c   8.52457304
_cell_angle_alpha   89.98848272
_cell_angle_beta   90.00575744
_cell_angle_gamma   120.00060113
_symmetry_Int_Tables_number   1
_chemical_formula_structural   Co3NiO8
_chemical_formula_sum   'Co6 Ni2 O16'
_cell_volume   231.06657440
_cell_formula_units_Z   2
loop_
 _symmetry_equiv_pos_site_id
 _symmetry_equiv_pos_as_xyz
  1  'x, y, z'
loop_
 _atom_site_type_symbol
 _atom_site_label
 _atom_site_symmetry_multiplicity
 _atom_site_fract_x
 _atom_site_fract_y
 _atom_site_fract_z
 _atom_site_occupancy
  Co  Co0  1  0.16806000  0.83191200  0.20769100  1
  Co  Co1  1  0.16801600  0.33604100  0.20771200  1
  Co  Co2  1  0.66386600  0.83190900  0.20770800  1
  Co  Co3  1  0.33613400  0.16804400  0.70770800  1
  Co  Co4  1  0.83194000  0.66385200  0.70769100  1
  Co  Co5  1  0.83198400  0.16802600  0.70771200  1
  Ni  Ni6  1  0.33331300  0.66670100  0.48340500  1
  Ni  Ni7  1  0.66668700  0.33339000  0.98340500  1
  O  O8  1  0.16566200  0.83441200  0.60397400  1
  O  O9  1  0.03996300  0.51993100  0.34078300  1
  O  O10  1  0.33332200  0.66668100  0.09418800  1
  O  O11  1  0.99997500  0.99984300  0.32251900  1
  O  O12  1  0.00002500  0.99986800  0.82251900  1
  O  O13  1  0.16567300  0.33145900  0.60418000  1
  O  O14  1  0.48006900  0.96007200  0.34078100  1
  O  O15  1  0.47996100  0.51998000  0.34081200  1
  O  O16  1  0.33140000  0.16579700  0.10410700  1
  O  O17  1  0.66860000  0.83439700  0.60410700  1
  O  O18  1  0.51993100  0.48000300  0.84078100  1
  O  O19  1  0.52003900  0.04001900  0.84081200  1
  O  O20  1  0.66667800  0.33335900  0.59418800  1
  O  O21  1  0.83433800  0.66875000  0.10397400  1
  O  O22  1  0.96003700  0.47996900  0.84078300  1
  O  O23  1  0.83432700  0.16578600  0.10418000  1
