# generated using pymatgen
data_Na3MnSiBO7
_symmetry_space_group_name_H-M   'P 1'
_cell_length_a   5.28999063
_cell_length_b   8.95227850
_cell_length_c   12.94534105
_cell_angle_alpha   89.98989797
_cell_angle_beta   89.99927060
_cell_angle_gamma   87.42457841
_symmetry_Int_Tables_number   1
_chemical_formula_structural   Na3MnSiBO7
_chemical_formula_sum   'Na12 Mn4 Si4 B4 O28'
_cell_volume   612.43935539
_cell_formula_units_Z   4
loop_
 _symmetry_equiv_pos_site_id
 _symmetry_equiv_pos_as_xyz
  1  'x, y, z'
loop_
 _atom_site_type_symbol
 _atom_site_label
 _atom_site_symmetry_multiplicity
 _atom_site_fract_x
 _atom_site_fract_y
 _atom_site_fract_z
 _atom_site_occupancy
  Na  Na0  1  0.76776800  0.08315100  0.12505700  1
  Na  Na1  1  0.76776100  0.08320200  0.62504300  1
  Na  Na2  1  0.23226800  0.91682100  0.37493900  1
  Na  Na3  1  0.23226600  0.91681200  0.87497000  1
  Na  Na4  1  0.25431900  0.26305800  0.00538500  1
  Na  Na5  1  0.25434200  0.26310700  0.50538200  1
  Na  Na6  1  0.25426500  0.26314300  0.24462000  1
  Na  Na7  1  0.25426300  0.26319900  0.74462300  1
  Na  Na8  1  0.74575200  0.73682200  0.25540300  1
  Na  Na9  1  0.74565200  0.73679500  0.75539900  1
  Na  Na10  1  0.74557800  0.73689400  0.49459400  1
  Na  Na11  1  0.74568300  0.73688900  0.99462500  1
  Mn  Mn12  1  0.78388600  0.33455300  0.87489700  1
  Mn  Mn13  1  0.21604200  0.66551300  0.62497700  1
  Mn  Mn14  1  0.78390100  0.33452300  0.37490800  1
  Mn  Mn15  1  0.21616500  0.66552400  0.12506200  1
  Si  Si16  1  0.72184800  0.42938900  0.12501900  1
  Si  Si17  1  0.72173800  0.42937900  0.62498000  1
  Si  Si18  1  0.27821500  0.57062400  0.37497400  1
  Si  Si19  1  0.27815000  0.57062100  0.87499600  1
  B  B20  1  0.72339000  0.06837400  0.37498300  1
  B  B21  1  0.72334500  0.06837400  0.87499500  1
  B  B22  1  0.27667100  0.93161100  0.12505000  1
  B  B23  1  0.27663700  0.93161800  0.62501000  1
  O  O24  1  0.31434900  0.07810700  0.12504900  1
  O  O25  1  0.31434600  0.07816900  0.62504900  1
  O  O26  1  0.68579000  0.92185000  0.37496500  1
  O  O27  1  0.68575600  0.92185000  0.87500500  1
  O  O28  1  0.95997600  0.13378900  0.37502800  1
  O  O29  1  0.95994300  0.13378500  0.87502700  1
  O  O30  1  0.04004400  0.86621300  0.12500900  1
  O  O31  1  0.04001500  0.86623800  0.62493700  1
  O  O32  1  0.53103600  0.18255600  0.37493600  1
  O  O33  1  0.53096500  0.18254400  0.87493500  1
  O  O34  1  0.46901600  0.81742000  0.12509800  1
  O  O35  1  0.46893700  0.81742400  0.62503900  1
  O  O36  1  0.41577900  0.47859500  0.12530900  1
  O  O37  1  0.41565400  0.47858300  0.62522400  1
  O  O38  1  0.58429100  0.52145900  0.37474100  1
  O  O39  1  0.58424600  0.52142400  0.87475000  1
  O  O40  1  0.11087000  0.42263000  0.37506300  1
  O  O41  1  0.11077000  0.42260400  0.87506900  1
  O  O42  1  0.88924100  0.57737300  0.12497400  1
  O  O43  1  0.88912400  0.57736500  0.62491900  1
  O  O44  1  0.78643500  0.31784100  0.02578200  1
  O  O45  1  0.78648900  0.31784500  0.52575000  1
  O  O46  1  0.78720700  0.31765100  0.22411100  1
  O  O47  1  0.78710400  0.31766400  0.72409200  1
  O  O48  1  0.21285100  0.68237900  0.27589500  1
  O  O49  1  0.21279400  0.68232800  0.77589600  1
  O  O50  1  0.21351000  0.68215000  0.47421600  1
  O  O51  1  0.21355900  0.68216700  0.97424500  1
