# generated using pymatgen
data_ErTa7O19
_symmetry_space_group_name_H-M   'P 1'
_cell_length_a   6.25786743
_cell_length_b   6.25786743
_cell_length_c   20.06707400
_cell_angle_alpha   90.00000000
_cell_angle_beta   90.00000000
_cell_angle_gamma   119.99999394
_symmetry_Int_Tables_number   1
_chemical_formula_structural   ErTa7O19
_chemical_formula_sum   'Er2 Ta14 O38'
_cell_volume   680.56157858
_cell_formula_units_Z   2
loop_
 _symmetry_equiv_pos_site_id
 _symmetry_equiv_pos_as_xyz
  1  'x, y, z'
loop_
 _atom_site_type_symbol
 _atom_site_label
 _atom_site_symmetry_multiplicity
 _atom_site_fract_x
 _atom_site_fract_y
 _atom_site_fract_z
 _atom_site_occupancy
  Er  Er0  1  0.66666700  0.33333300  0.50000000  1
  Er  Er1  1  0.66666700  0.33333300  0.00000000  1
  Ta  Ta2  1  0.69377500  0.02720400  0.65525100  1
  Ta  Ta3  1  0.69377500  0.02720400  0.84474900  1
  Ta  Ta4  1  0.97279600  0.30622500  0.34474900  1
  Ta  Ta5  1  0.97279600  0.30622500  0.15525100  1
  Ta  Ta6  1  0.69377500  0.66657100  0.15525100  1
  Ta  Ta7  1  0.69377500  0.66657100  0.34474900  1
  Ta  Ta8  1  0.00000000  0.00000000  0.00000000  1
  Ta  Ta9  1  0.00000000  0.00000000  0.50000000  1
  Ta  Ta10  1  0.97279600  0.66657100  0.65525100  1
  Ta  Ta11  1  0.97279600  0.66657100  0.84474900  1
  Ta  Ta12  1  0.33342900  0.30622500  0.65525100  1
  Ta  Ta13  1  0.33342900  0.30622500  0.84474900  1
  Ta  Ta14  1  0.33342900  0.02720400  0.34474900  1
  Ta  Ta15  1  0.33342900  0.02720400  0.15525100  1
  O  O16  1  0.33302600  0.41918700  0.34697200  1
  O  O17  1  0.33302600  0.41918700  0.15302800  1
  O  O18  1  0.37603300  0.29312900  0.75000000  1
  O  O19  1  0.58081300  0.66697400  0.84697200  1
  O  O20  1  0.58081300  0.66697400  0.65302800  1
  O  O21  1  0.37603300  0.08290400  0.25000000  1
  O  O22  1  0.33302600  0.91383900  0.65302800  1
  O  O23  1  0.33302600  0.91383900  0.84697200  1
  O  O24  1  0.70687100  0.62396700  0.25000000  1
  O  O25  1  0.66666700  0.33333300  0.63059700  1
  O  O26  1  0.66666700  0.33333300  0.36940300  1
  O  O27  1  0.66666700  0.33333300  0.13059700  1
  O  O28  1  0.66666700  0.33333300  0.86940300  1
  O  O29  1  0.91709600  0.62396700  0.75000000  1
  O  O30  1  0.58081300  0.91383900  0.15302800  1
  O  O31  1  0.58081300  0.91383900  0.34697200  1
  O  O32  1  0.70687100  0.08290400  0.75000000  1
  O  O33  1  0.76046100  0.05123300  0.55525600  1
  O  O34  1  0.76046100  0.05123300  0.94474400  1
  O  O35  1  0.08616100  0.66697400  0.34697200  1
  O  O36  1  0.08616100  0.66697400  0.15302800  1
  O  O37  1  0.91709600  0.29312900  0.25000000  1
  O  O38  1  0.94876700  0.23953900  0.05525600  1
  O  O39  1  0.94876700  0.23953900  0.44474400  1
  O  O40  1  0.08616100  0.41918700  0.65302800  1
  O  O41  1  0.08616100  0.41918700  0.84697200  1
  O  O42  1  0.76046100  0.70922800  0.05525600  1
  O  O43  1  0.76046100  0.70922800  0.44474400  1
  O  O44  1  0.00000000  0.00000000  0.83398600  1
  O  O45  1  0.00000000  0.00000000  0.16601400  1
  O  O46  1  0.00000000  0.00000000  0.33398600  1
  O  O47  1  0.00000000  0.00000000  0.66601400  1
  O  O48  1  0.94876700  0.70922800  0.55525600  1
  O  O49  1  0.94876700  0.70922800  0.94474400  1
  O  O50  1  0.29077200  0.23953900  0.55525600  1
  O  O51  1  0.29077200  0.23953900  0.94474400  1
  O  O52  1  0.29077200  0.05123300  0.44474400  1
  O  O53  1  0.29077200  0.05123300  0.05525600  1
