# generated using pymatgen
data_Mn3BiO8
_symmetry_space_group_name_H-M   'P 1'
_cell_length_a   8.60940300
_cell_length_b   8.60940300
_cell_length_c   8.60940300
_cell_angle_alpha   90.00000000
_cell_angle_beta   90.00000000
_cell_angle_gamma   90.00000000
_symmetry_Int_Tables_number   1
_chemical_formula_structural   Mn3BiO8
_chemical_formula_sum   'Mn12 Bi4 O32'
_cell_volume   638.14461961
_cell_formula_units_Z   4
loop_
 _symmetry_equiv_pos_site_id
 _symmetry_equiv_pos_as_xyz
  1  'x, y, z'
loop_
 _atom_site_type_symbol
 _atom_site_label
 _atom_site_symmetry_multiplicity
 _atom_site_fract_x
 _atom_site_fract_y
 _atom_site_fract_z
 _atom_site_occupancy
  Mn  Mn0  1  0.09889800  0.15110200  0.62500000  1
  Mn  Mn1  1  0.12500000  0.40110200  0.84889800  1
  Mn  Mn2  1  0.15110200  0.62500000  0.09889800  1
  Mn  Mn3  1  0.34889800  0.37500000  0.59889800  1
  Mn  Mn4  1  0.37500000  0.59889800  0.34889800  1
  Mn  Mn5  1  0.40110200  0.84889800  0.12500000  1
  Mn  Mn6  1  0.59889800  0.34889800  0.37500000  1
  Mn  Mn7  1  0.62500000  0.09889800  0.15110200  1
  Mn  Mn8  1  0.65110200  0.87500000  0.90110200  1
  Mn  Mn9  1  0.84889800  0.12500000  0.40110200  1
  Mn  Mn10  1  0.87500000  0.90110200  0.65110200  1
  Mn  Mn11  1  0.90110200  0.65110200  0.87500000  1
  Bi  Bi12  1  0.12500000  0.87500000  0.37500000  1
  Bi  Bi13  1  0.37500000  0.12500000  0.87500000  1
  Bi  Bi14  1  0.62500000  0.62500000  0.62500000  1
  Bi  Bi15  1  0.87500000  0.37500000  0.12500000  1
  O  O16  1  0.07158800  0.13839900  0.40261000  1
  O  O17  1  0.09739000  0.92841200  0.63839900  1
  O  O18  1  0.12569800  0.62569800  0.87430200  1
  O  O19  1  0.11160100  0.17841200  0.84739000  1
  O  O20  1  0.13839900  0.40261000  0.07158800  1
  O  O21  1  0.12430200  0.37569800  0.62430200  1
  O  O22  1  0.15261000  0.61160100  0.32158800  1
  O  O23  1  0.17841200  0.84739000  0.11160100  1
  O  O24  1  0.32158800  0.15261000  0.61160100  1
  O  O25  1  0.34739000  0.38839900  0.82158800  1
  O  O26  1  0.37569800  0.62430200  0.12430200  1
  O  O27  1  0.36160100  0.59739000  0.57158800  1
  O  O28  1  0.38839900  0.82158800  0.34739000  1
  O  O29  1  0.37430200  0.37430200  0.37430200  1
  O  O30  1  0.40261000  0.07158800  0.13839900  1
  O  O31  1  0.42841200  0.86160100  0.90261000  1
  O  O32  1  0.57158800  0.36160100  0.59739000  1
  O  O33  1  0.59739000  0.57158800  0.36160100  1
  O  O34  1  0.62569800  0.87430200  0.12569800  1
  O  O35  1  0.61160100  0.32158800  0.15261000  1
  O  O36  1  0.63839900  0.09739000  0.92841200  1
  O  O37  1  0.62430200  0.12430200  0.37569800  1
  O  O38  1  0.65261000  0.88839900  0.67841200  1
  O  O39  1  0.67841200  0.65261000  0.88839900  1
  O  O40  1  0.82158800  0.34739000  0.38839900  1
  O  O41  1  0.84739000  0.11160100  0.17841200  1
  O  O42  1  0.87569800  0.87569800  0.87569800  1
  O  O43  1  0.86160100  0.90261000  0.42841200  1
  O  O44  1  0.88839900  0.67841200  0.65261000  1
  O  O45  1  0.87430200  0.12569800  0.62569800  1
  O  O46  1  0.90261000  0.42841200  0.86160100  1
  O  O47  1  0.92841200  0.63839900  0.09739000  1
