# generated using pymatgen
data_MnZn4O5
_symmetry_space_group_name_H-M   'P 1'
_cell_length_a   6.28958743
_cell_length_b   6.61999108
_cell_length_c   12.67964593
_cell_angle_alpha   90.01630731
_cell_angle_beta   86.81166445
_cell_angle_gamma   105.26397256
_symmetry_Int_Tables_number   1
_chemical_formula_structural   MnZn4O5
_chemical_formula_sum   'Mn4 Zn16 O20'
_cell_volume   508.47356028
_cell_formula_units_Z   4
loop_
 _symmetry_equiv_pos_site_id
 _symmetry_equiv_pos_as_xyz
  1  'x, y, z'
loop_
 _atom_site_type_symbol
 _atom_site_label
 _atom_site_symmetry_multiplicity
 _atom_site_fract_x
 _atom_site_fract_y
 _atom_site_fract_z
 _atom_site_occupancy
  Mn  Mn0  1  0.26799700  0.57013800  0.76900700  1
  Mn  Mn1  1  0.86871800  0.96246300  0.36553000  1
  Mn  Mn2  1  0.26803300  0.07011800  0.76894000  1
  Mn  Mn3  1  0.86874900  0.46250000  0.36547200  1
  Zn  Zn4  1  0.13904000  0.03330300  0.13092500  1
  Zn  Zn5  1  0.13903600  0.53330100  0.13092600  1
  Zn  Zn6  1  0.53460200  0.13013700  0.53388700  1
  Zn  Zn7  1  0.53460300  0.63013300  0.53388600  1
  Zn  Zn8  1  0.93175200  0.23435300  0.93497600  1
  Zn  Zn9  1  0.93175300  0.73435700  0.93497500  1
  Zn  Zn10  1  0.66898800  0.16822700  0.16510300  1
  Zn  Zn11  1  0.66899000  0.66822900  0.16510400  1
  Zn  Zn12  1  0.33702500  0.33526300  0.33155200  1
  Zn  Zn13  1  0.33702400  0.83526200  0.33155100  1
  Zn  Zn14  1  0.73793700  0.43607000  0.73195000  1
  Zn  Zn15  1  0.73793700  0.93607100  0.73195100  1
  Zn  Zn16  1  0.47124800  0.36715100  0.96818700  1
  Zn  Zn17  1  0.47124800  0.86715600  0.96818700  1
  Zn  Zn18  1  0.06878300  0.26340700  0.56618000  1
  Zn  Zn19  1  0.06878200  0.76340200  0.56618000  1
  O  O20  1  0.44187600  0.11002000  0.05659300  1
  O  O21  1  0.44187700  0.61002100  0.05659700  1
  O  O22  1  0.03633500  0.00561000  0.65464600  1
  O  O23  1  0.03629700  0.50559500  0.65462800  1
  O  O24  1  0.83647000  0.20463400  0.46163700  1
  O  O25  1  0.83647100  0.70454200  0.46163500  1
  O  O26  1  0.97310300  0.24202300  0.09121200  1
  O  O27  1  0.97310400  0.74201800  0.09121300  1
  O  O28  1  0.57881900  0.14597700  0.68953700  1
  O  O29  1  0.57886300  0.64599300  0.68952500  1
  O  O30  1  0.18072300  0.04586100  0.28719500  1
  O  O31  1  0.18067900  0.54584400  0.28720800  1
  O  O32  1  0.63368000  0.40938300  0.25283800  1
  O  O33  1  0.63364300  0.90937300  0.25282300  1
  O  O34  1  0.23589100  0.31191400  0.86505800  1
  O  O35  1  0.23589100  0.81199700  0.86505800  1
  O  O36  1  0.37209900  0.33972800  0.48954400  1
  O  O37  1  0.37209100  0.83972500  0.48954700  1
  O  O38  1  0.77199900  0.44421600  0.88974600  1
  O  O39  1  0.77200700  0.94422500  0.88974300  1
