# generated using pymatgen
data_Er2(WO4)3
_symmetry_space_group_name_H-M   'P 1'
_cell_length_a   10.20388100
_cell_length_b   10.09129100
_cell_length_c   17.26663181
_cell_angle_alpha   54.52783852
_cell_angle_beta   90.00000000
_cell_angle_gamma   90.00000000
_symmetry_Int_Tables_number   1
_chemical_formula_structural   Er2(WO4)3
_chemical_formula_sum   'Er8 W12 O48'
_cell_volume   1447.95882750
_cell_formula_units_Z   4
loop_
 _symmetry_equiv_pos_site_id
 _symmetry_equiv_pos_as_xyz
  1  'x, y, z'
loop_
 _atom_site_type_symbol
 _atom_site_label
 _atom_site_symmetry_multiplicity
 _atom_site_fract_x
 _atom_site_fract_y
 _atom_site_fract_z
 _atom_site_occupancy
  Er  Er0  1  0.97064000  0.63424900  0.11821900  1
  Er  Er1  1  0.03357000  0.13768300  0.61807100  1
  Er  Er2  1  0.53357000  0.86231700  0.88192900  1
  Er  Er3  1  0.47064000  0.36575100  0.38178100  1
  Er  Er4  1  0.52936000  0.63424900  0.61821900  1
  Er  Er5  1  0.46643000  0.13768300  0.11807100  1
  Er  Er6  1  0.96643000  0.86231700  0.38192900  1
  Er  Er7  1  0.02936000  0.36575100  0.88178100  1
  W  W8  1  0.74866300  0.47421700  0.49983400  1
  W  W9  1  0.61942000  0.75281500  0.14357800  1
  W  W10  1  0.87990400  0.03561500  0.85708700  1
  W  W11  1  0.37990400  0.96438500  0.64291300  1
  W  W12  1  0.11942000  0.24718500  0.35642200  1
  W  W13  1  0.24866300  0.52578300  0.00016600  1
  W  W14  1  0.75133700  0.47421700  0.99983400  1
  W  W15  1  0.88058000  0.75281500  0.64357800  1
  W  W16  1  0.62009600  0.03561500  0.35708700  1
  W  W17  1  0.12009600  0.96438500  0.14291300  1
  W  W18  1  0.38058000  0.24718500  0.85642200  1
  W  W19  1  0.25133700  0.52578300  0.50016600  1
  O  O20  1  0.10001400  0.79746800  0.13166200  1
  O  O21  1  0.34438100  0.50349600  0.41867000  1
  O  O22  1  0.17529100  0.33299000  0.59038800  1
  O  O23  1  0.40974900  0.06315400  0.86303900  1
  O  O24  1  0.87400500  0.32053800  0.56621900  1
  O  O25  1  0.79262500  0.70163000  0.16622900  1
  O  O26  1  0.70863100  0.02458100  0.83286200  1
  O  O27  1  0.64159200  0.41159800  0.44291800  1
  O  O28  1  0.98287700  0.06818700  0.76172200  1
  O  O29  1  0.51919300  0.58653100  0.23671600  1
  O  O30  1  0.57781200  0.78843600  0.03080600  1
  O  O31  1  0.92775100  0.84699600  0.96721200  1
  O  O32  1  0.42775100  0.15300400  0.53278800  1
  O  O33  1  0.07781200  0.21156400  0.46919400  1
  O  O34  1  0.01919300  0.41346900  0.26328400  1
  O  O35  1  0.48287700  0.93181300  0.73827800  1
  O  O36  1  0.14159200  0.58840200  0.05708200  1
  O  O37  1  0.20863100  0.97541900  0.66713800  1
  O  O38  1  0.29262500  0.29837000  0.33377100  1
  O  O39  1  0.37400500  0.67946200  0.93378100  1
  O  O40  1  0.84438100  0.49650400  0.08133000  1
  O  O41  1  0.90974900  0.93684600  0.63696100  1
  O  O42  1  0.67529100  0.66701000  0.90961200  1
  O  O43  1  0.60001400  0.20253200  0.36833800  1
  O  O44  1  0.39998600  0.79746800  0.63166200  1
  O  O45  1  0.32470900  0.33299000  0.09038800  1
  O  O46  1  0.09025100  0.06315400  0.36303900  1
  O  O47  1  0.15561900  0.50349600  0.91867000  1
  O  O48  1  0.62599500  0.32053800  0.06621900  1
  O  O49  1  0.70737500  0.70163000  0.66622900  1
  O  O50  1  0.79136900  0.02458100  0.33286200  1
  O  O51  1  0.85840800  0.41159800  0.94291800  1
  O  O52  1  0.51712300  0.06818700  0.26172200  1
  O  O53  1  0.98080700  0.58653100  0.73671600  1
  O  O54  1  0.92218800  0.78843600  0.53080600  1
  O  O55  1  0.57224900  0.84699600  0.46721200  1
  O  O56  1  0.07224900  0.15300400  0.03278800  1
  O  O57  1  0.42218800  0.21156400  0.96919400  1
  O  O58  1  0.48080700  0.41346900  0.76328400  1
  O  O59  1  0.01712300  0.93181300  0.23827800  1
  O  O60  1  0.35840800  0.58840200  0.55708200  1
  O  O61  1  0.29136900  0.97541900  0.16713800  1
  O  O62  1  0.20737500  0.29837000  0.83377100  1
  O  O63  1  0.12599500  0.67946200  0.43378100  1
  O  O64  1  0.59025100  0.93684600  0.13696100  1
  O  O65  1  0.82470900  0.66701000  0.40961200  1
  O  O66  1  0.65561900  0.49650400  0.58133000  1
  O  O67  1  0.89998600  0.20253200  0.86833800  1
