# generated using pymatgen
data_Er2P4O13
_symmetry_space_group_name_H-M   'P 1'
_cell_length_a   6.86152977
_cell_length_b   6.86152977
_cell_length_c   12.94670522
_cell_angle_alpha   76.01252330
_cell_angle_beta   76.01252330
_cell_angle_gamma   59.00422301
_symmetry_Int_Tables_number   1
_chemical_formula_structural   Er2P4O13
_chemical_formula_sum   'Er4 P8 O26'
_cell_volume   501.94563570
_cell_formula_units_Z   2
loop_
 _symmetry_equiv_pos_site_id
 _symmetry_equiv_pos_as_xyz
  1  'x, y, z'
loop_
 _atom_site_type_symbol
 _atom_site_label
 _atom_site_symmetry_multiplicity
 _atom_site_fract_x
 _atom_site_fract_y
 _atom_site_fract_z
 _atom_site_occupancy
  Er  Er0  1  0.69163700  0.69620600  0.44887800  1
  Er  Er1  1  0.69620600  0.69163700  0.94887800  1
  Er  Er2  1  0.30379400  0.30836300  0.05112200  1
  Er  Er3  1  0.30836300  0.30379400  0.55112200  1
  P  P4  1  0.83872100  0.13765500  0.36652700  1
  P  P5  1  0.76005100  0.77309700  0.15955100  1
  P  P6  1  0.86234500  0.16127900  0.13347300  1
  P  P7  1  0.22690300  0.23994900  0.34044900  1
  P  P8  1  0.77309700  0.76005100  0.65955100  1
  P  P9  1  0.13765500  0.83872100  0.86652700  1
  P  P10  1  0.23994900  0.22690300  0.84044900  1
  P  P11  1  0.16127900  0.86234500  0.63347300  1
  O  O12  1  0.67293500  0.31702700  0.44089100  1
  O  O13  1  0.87687200  0.89712600  0.39694000  1
  O  O14  1  0.89894800  0.90746100  0.15304400  1
  O  O15  1  0.89712600  0.87687200  0.89694000  1
  O  O16  1  0.92454900  0.57377100  0.09452600  1
  O  O17  1  0.90746100  0.89894800  0.65304400  1
  O  O18  1  0.69331000  0.70478900  0.27662900  1
  O  O19  1  0.42622900  0.07545100  0.40547400  1
  O  O20  1  0.31702700  0.67293500  0.94089100  1
  O  O21  1  0.56156500  0.92597900  0.09306600  1
  O  O22  1  0.29521100  0.30669000  0.22337100  1
  O  O23  1  0.92597900  0.56156500  0.59306600  1
  O  O24  1  0.75356100  0.24643900  0.25000000  1
  O  O25  1  0.07402100  0.43843500  0.40693400  1
  O  O26  1  0.70478900  0.69331000  0.77662900  1
  O  O27  1  0.43843500  0.07402100  0.90693400  1
  O  O28  1  0.68297300  0.32706500  0.05910900  1
  O  O29  1  0.57377100  0.92454900  0.59452600  1
  O  O30  1  0.30669000  0.29521100  0.72337100  1
  O  O31  1  0.09253900  0.10105200  0.34695600  1
  O  O32  1  0.07545100  0.42622900  0.90547400  1
  O  O33  1  0.10287400  0.12312800  0.10306000  1
  O  O34  1  0.10105200  0.09253900  0.84695600  1
  O  O35  1  0.24643900  0.75356100  0.75000000  1
  O  O36  1  0.12312800  0.10287400  0.60306000  1
  O  O37  1  0.32706500  0.68297300  0.55910900  1
