# generated using pymatgen
data_V12Cu2O29
_symmetry_space_group_name_H-M   'P 1'
_cell_length_a   7.40004700
_cell_length_b   10.97105924
_cell_length_c   14.36525980
_cell_angle_alpha   96.90197165
_cell_angle_beta   97.48417149
_cell_angle_gamma   109.69485764
_symmetry_Int_Tables_number   1
_chemical_formula_structural   V12Cu2O29
_chemical_formula_sum   'V24 Cu4 O58'
_cell_volume   1071.73602572
_cell_formula_units_Z   2
loop_
 _symmetry_equiv_pos_site_id
 _symmetry_equiv_pos_as_xyz
  1  'x, y, z'
loop_
 _atom_site_type_symbol
 _atom_site_label
 _atom_site_symmetry_multiplicity
 _atom_site_fract_x
 _atom_site_fract_y
 _atom_site_fract_z
 _atom_site_occupancy
  V  V0  1  0.76897500  0.12327900  0.82746900  1
  V  V1  1  0.26546400  0.11957100  0.82331400  1
  V  V2  1  0.41644300  0.89704200  0.87505600  1
  V  V3  1  0.92365700  0.90606000  0.88166200  1
  V  V4  1  0.41721600  0.44540600  0.77544800  1
  V  V5  1  0.91571200  0.44610300  0.77604800  1
  V  V6  1  0.25134600  0.64871400  0.70760900  1
  V  V7  1  0.74854800  0.64696300  0.70214200  1
  V  V8  1  0.25385500  0.20715700  0.60430200  1
  V  V9  1  0.75191300  0.19921200  0.60117300  1
  V  V10  1  0.89245600  0.96621000  0.64713200  1
  V  V11  1  0.39574300  0.96942400  0.64447300  1
  V  V12  1  0.60412000  0.02933900  0.35482600  1
  V  V13  1  0.10383300  0.03085200  0.35585900  1
  V  V14  1  0.74713300  0.79664700  0.39273800  1
  V  V15  1  0.24609700  0.79470100  0.39598600  1
  V  V16  1  0.75446000  0.35009100  0.29387200  1
  V  V17  1  0.24353300  0.35106800  0.29385700  1
  V  V18  1  0.58242600  0.55199400  0.22489300  1
  V  V19  1  0.07972900  0.55171400  0.21666400  1
  V  V20  1  0.08118400  0.09858900  0.12027100  1
  V  V21  1  0.57582100  0.09719200  0.11676900  1
  V  V22  1  0.73729000  0.88523700  0.17815500  1
  V  V23  1  0.23550700  0.88165800  0.18062400  1
  Cu  Cu24  1  0.56496000  0.64969100  0.97018800  1
  Cu  Cu25  1  0.06734800  0.63729500  0.98356400  1
  Cu  Cu26  1  0.10843100  0.47161900  0.48313500  1
  Cu  Cu27  1  0.43591000  0.34407900  0.03729400  1
  O  O28  1  0.34105100  0.21587600  0.92992700  1
  O  O29  1  0.83850600  0.21522400  0.93047300  1
  O  O30  1  0.00340000  0.00217600  0.00166900  1
  O  O31  1  0.50145100  0.00558500  0.00247000  1
  O  O32  1  0.96145700  0.48339200  0.89433600  1
  O  O33  1  0.46937700  0.48404400  0.89541500  1
  O  O34  1  0.34698000  0.74086800  0.89563300  1
  O  O35  1  0.84664000  0.74919300  0.89714200  1
  O  O36  1  0.49399300  0.07394500  0.79644100  1
  O  O37  1  0.98236700  0.08053300  0.79877800  1
  O  O38  1  0.17819500  0.94201700  0.85977400  1
  O  O39  1  0.69509400  0.94531100  0.86251300  1
  O  O40  1  0.32391400  0.26932300  0.75072600  1
  O  O41  1  0.81935700  0.26454100  0.75010300  1
  O  O42  1  0.67351700  0.47149300  0.74640900  1
  O  O43  1  0.17325300  0.47402800  0.75165700  1
  O  O44  1  0.16742700  0.01572300  0.66968500  1
  O  O45  1  0.67483000  0.00408700  0.66404600  1
  O  O46  1  0.49677200  0.62252300  0.73678200  1
  O  O47  1  0.99385800  0.62248400  0.73702400  1
  O  O48  1  0.34331700  0.82509000  0.72664300  1
  O  O49  1  0.84547400  0.82878800  0.72346400  1
  O  O50  1  0.48682300  0.15011800  0.61171800  1
  O  O51  1  0.96903800  0.14722600  0.61207200  1
  O  O52  1  0.31736800  0.36476300  0.59782100  1
  O  O53  1  0.83697400  0.35574100  0.59487300  1
  O  O54  1  0.70198700  0.60999900  0.58842200  1
  O  O55  1  0.19946000  0.60537500  0.59087300  1
  O  O56  1  0.17683500  0.12250300  0.46796300  1
  O  O57  1  0.68109100  0.12354900  0.46851700  1
  O  O58  1  0.82558300  0.87690400  0.53626800  1
  O  O59  1  0.31838400  0.87575400  0.53371000  1
  O  O60  1  0.84320100  0.39107700  0.40958300  1
  O  O61  1  0.25416300  0.39059900  0.40945200  1
  O  O62  1  0.16812700  0.63456400  0.40154200  1
  O  O63  1  0.67241500  0.64218500  0.40433900  1
  O  O64  1  0.01326900  0.84871900  0.39061200  1
  O  O65  1  0.53134600  0.84957700  0.39113000  1
  O  O66  1  0.15845300  0.17496800  0.27362200  1
  O  O67  1  0.65384800  0.17503700  0.27525700  1
  O  O68  1  0.99913400  0.37209700  0.25201100  1
  O  O69  1  0.51112000  0.38455600  0.27466400  1
  O  O70  1  0.32177900  0.97583900  0.33371000  1
  O  O71  1  0.82121500  0.98077300  0.32505800  1
  O  O72  1  0.32225800  0.52466700  0.24720200  1
  O  O73  1  0.82608700  0.52492500  0.24702600  1
  O  O74  1  0.17832400  0.73240500  0.24690900  1
  O  O75  1  0.67745700  0.73062500  0.25073000  1
  O  O76  1  0.82007000  0.06485000  0.14101200  1
  O  O77  1  0.31242300  0.05729300  0.14250000  1
  O  O78  1  0.50696600  0.92604800  0.20325300  1
  O  O79  1  0.01949900  0.92389100  0.20297600  1
  O  O80  1  0.17799500  0.25346900  0.10465800  1
  O  O81  1  0.62678900  0.25426700  0.10458100  1
  O  O82  1  0.04066100  0.53114100  0.10006100  1
  O  O83  1  0.53363100  0.51589100  0.10503500  1
  O  O84  1  0.66103300  0.78712000  0.07050100  1
  O  O85  1  0.16379200  0.79096100  0.07121200  1
