# generated using pymatgen
data_Mn3CoO8
_symmetry_space_group_name_H-M   'P 1'
_cell_length_a   5.76862200
_cell_length_b   5.76871361
_cell_length_c   8.64031600
_cell_angle_alpha   90.00216353
_cell_angle_beta   89.99892655
_cell_angle_gamma   120.00050724
_symmetry_Int_Tables_number   1
_chemical_formula_structural   Mn3CoO8
_chemical_formula_sum   'Mn6 Co2 O16'
_cell_volume   249.00559106
_cell_formula_units_Z   2
loop_
 _symmetry_equiv_pos_site_id
 _symmetry_equiv_pos_as_xyz
  1  'x, y, z'
loop_
 _atom_site_type_symbol
 _atom_site_label
 _atom_site_symmetry_multiplicity
 _atom_site_fract_x
 _atom_site_fract_y
 _atom_site_fract_z
 _atom_site_occupancy
  Mn  Mn0  1  0.16785200  0.83216000  0.20936900  1
  Mn  Mn1  1  0.16785200  0.33572500  0.20936700  1
  Mn  Mn2  1  0.66429300  0.83216400  0.20937600  1
  Mn  Mn3  1  0.33570500  0.16787100  0.70937500  1
  Mn  Mn4  1  0.83214700  0.66430600  0.70937000  1
  Mn  Mn5  1  0.83214700  0.16787400  0.70936800  1
  Co  Co6  1  0.33333900  0.66666800  0.48686600  1
  Co  Co7  1  0.66666200  0.33332900  0.98686600  1
  O  O8  1  0.17015100  0.82982500  0.59932100  1
  O  O9  1  0.04614900  0.52308500  0.34345500  1
  O  O10  1  0.33333800  0.66667200  0.09838600  1
  O  O11  1  0.00001400  0.00002200  0.31616200  1
  O  O12  1  0.99998700  0.00000800  0.81616200  1
  O  O13  1  0.17016500  0.34034200  0.59932200  1
  O  O14  1  0.47695300  0.95388100  0.34346000  1
  O  O15  1  0.47695000  0.52308900  0.34344700  1
  O  O16  1  0.34034300  0.17016800  0.09932800  1
  O  O17  1  0.65965700  0.82982400  0.59932800  1
  O  O18  1  0.52304700  0.47692900  0.84346000  1
  O  O19  1  0.52305000  0.04613900  0.84344800  1
  O  O20  1  0.66666200  0.33333300  0.59838600  1
  O  O21  1  0.82985000  0.65967400  0.09932100  1
  O  O22  1  0.95385300  0.47693700  0.84345500  1
  O  O23  1  0.82983500  0.17017700  0.09932200  1
