# generated using pymatgen
data_Fe4O3F5
_symmetry_space_group_name_H-M   'P 1'
_cell_length_a   5.69814001
_cell_length_b   5.69814001
_cell_length_c   10.40445081
_cell_angle_alpha   70.64098034
_cell_angle_beta   70.64098034
_cell_angle_gamma   65.70009993
_symmetry_Int_Tables_number   1
_chemical_formula_structural   Fe4O3F5
_chemical_formula_sum   'Fe8 O6 F10'
_cell_volume   282.90838483
_cell_formula_units_Z   2
loop_
 _symmetry_equiv_pos_site_id
 _symmetry_equiv_pos_as_xyz
  1  'x, y, z'
loop_
 _atom_site_type_symbol
 _atom_site_label
 _atom_site_symmetry_multiplicity
 _atom_site_fract_x
 _atom_site_fract_y
 _atom_site_fract_z
 _atom_site_occupancy
  Fe  Fe0  1  0.11538800  0.64057900  0.75616800  1
  Fe  Fe1  1  0.37108400  0.88898500  0.25542600  1
  Fe  Fe2  1  0.24822700  0.24822700  0.49515700  1
  Fe  Fe3  1  0.75197700  0.75197700  0.50073300  1
  Fe  Fe4  1  0.49433600  0.49433600  0.98862400  1
  Fe  Fe5  1  0.88898500  0.37108400  0.25542600  1
  Fe  Fe6  1  0.64057900  0.11538800  0.75616800  1
  Fe  Fe7  1  0.00650500  0.00650500  0.00422700  1
  O  O8  1  0.93082000  0.93082000  0.85263200  1
  O  O9  1  0.82788800  0.82788800  0.65235000  1
  O  O10  1  0.67312100  0.67312100  0.34993300  1
  O  O11  1  0.17716400  0.17716400  0.34497200  1
  O  O12  1  0.41937600  0.41937600  0.83870200  1
  O  O13  1  0.08132600  0.08132600  0.14968600  1
  F  F14  1  0.36280000  0.83778700  0.60140600  1
  F  F15  1  0.57479200  0.57479200  0.15014200  1
  F  F16  1  0.32419700  0.32419700  0.64804200  1
  F  F17  1  0.39225600  0.91437500  0.90144100  1
  F  F18  1  0.13821500  0.66503300  0.39893700  1
  F  F19  1  0.91437500  0.39225600  0.90144100  1
  F  F20  1  0.61338400  0.09187000  0.10178600  1
  F  F21  1  0.83778700  0.36280000  0.60140600  1
  F  F22  1  0.09187000  0.61338400  0.10178600  1
  F  F23  1  0.66503300  0.13821500  0.39893700  1
