# generated using pymatgen
data_Ge2N2O
_symmetry_space_group_name_H-M   'P 1'
_cell_length_a   13.14723533
_cell_length_b   13.14723533
_cell_length_c   13.14723533
_cell_angle_alpha   154.23159728
_cell_angle_beta   154.23159728
_cell_angle_gamma   36.76306969
_symmetry_Int_Tables_number   1
_chemical_formula_structural   Ge2N2O
_chemical_formula_sum   'Ge16 N16 O8'
_cell_volume   428.90025127
_cell_formula_units_Z   8
loop_
 _symmetry_equiv_pos_site_id
 _symmetry_equiv_pos_as_xyz
  1  'x, y, z'
loop_
 _atom_site_type_symbol
 _atom_site_label
 _atom_site_symmetry_multiplicity
 _atom_site_fract_x
 _atom_site_fract_y
 _atom_site_fract_z
 _atom_site_occupancy
  Ge  Ge0  1  0.87500000  0.62500000  0.25000000  1
  Ge  Ge1  1  0.37500000  0.62500000  0.75000000  1
  Ge  Ge2  1  0.37500000  0.12500000  0.75000000  1
  Ge  Ge3  1  0.70675100  0.95800400  0.25125400  1
  Ge  Ge4  1  0.91909300  0.41909300  0.50000000  1
  Ge  Ge5  1  0.04199600  0.29324900  0.74874600  1
  Ge  Ge6  1  0.16909300  0.16909300  0.00000000  1
  Ge  Ge7  1  0.54450300  0.29324900  0.25125400  1
  Ge  Ge8  1  0.70675100  0.45549700  0.74874600  1
  Ge  Ge9  1  0.37500000  0.62500000  0.25000000  1
  Ge  Ge10  1  0.04324900  0.79450300  0.75125400  1
  Ge  Ge11  1  0.58090700  0.08090700  0.50000000  1
  Ge  Ge12  1  0.83090700  0.83090700  0.00000000  1
  Ge  Ge13  1  0.70800400  0.95675100  0.75125400  1
  Ge  Ge14  1  0.20549700  0.95675100  0.24874600  1
  Ge  Ge15  1  0.04324900  0.29199600  0.24874600  1
  N  N16  1  0.62580400  0.86152600  0.23572200  1
  N  N17  1  0.78738400  0.05221600  0.26483200  1
  N  N18  1  0.47744800  0.21261600  0.26483200  1
  N  N19  1  0.94778400  0.21261600  0.73516800  1
  N  N20  1  0.13847400  0.37419600  0.76427800  1
  N  N21  1  0.60991800  0.37419600  0.23572200  1
  N  N22  1  0.78738400  0.52255200  0.73516800  1
  N  N23  1  0.12419600  0.85991800  0.73572200  1
  N  N24  1  0.62580400  0.39008200  0.76427800  1
  N  N25  1  0.96261600  0.72744800  0.76483200  1
  N  N26  1  0.61152600  0.87580400  0.73572200  1
  N  N27  1  0.80221600  0.03738400  0.76483200  1
  N  N28  1  0.27255200  0.03738400  0.23516800  1
  N  N29  1  0.14008200  0.87580400  0.26427800  1
  N  N30  1  0.96261600  0.19778400  0.23516800  1
  N  N31  1  0.12419600  0.38847400  0.26427800  1
  O  O32  1  0.29829300  0.08234200  0.78404900  1
  O  O33  1  0.83234200  0.54829300  0.28404900  1
  O  O34  1  0.26424400  0.54829300  0.71595100  1
  O  O35  1  0.29829300  0.51424400  0.21595100  1
  O  O36  1  0.45170700  0.73575600  0.28404900  1
  O  O37  1  0.48575600  0.70170700  0.78404900  1
  O  O38  1  0.91765800  0.70170700  0.21595100  1
  O  O39  1  0.45170700  0.16765800  0.71595100  1
