# generated using pymatgen
data_Ba2LaCl7
_symmetry_space_group_name_H-M   'P 1'
_cell_length_a   11.69939922
_cell_length_b   11.69939922
_cell_length_c   11.56658687
_cell_angle_alpha   66.84274997
_cell_angle_beta   66.84274997
_cell_angle_gamma   68.69923027
_symmetry_Int_Tables_number   1
_chemical_formula_structural   Ba2LaCl7
_chemical_formula_sum   'Ba8 La4 Cl28'
_cell_volume   1296.95483317
_cell_formula_units_Z   4
loop_
 _symmetry_equiv_pos_site_id
 _symmetry_equiv_pos_as_xyz
  1  'x, y, z'
loop_
 _atom_site_type_symbol
 _atom_site_label
 _atom_site_symmetry_multiplicity
 _atom_site_fract_x
 _atom_site_fract_y
 _atom_site_fract_z
 _atom_site_occupancy
  Ba  Ba0  1  0.33085700  0.43137900  0.46389800  1
  Ba  Ba1  1  0.10199300  0.73947100  0.04425500  1
  Ba  Ba2  1  0.56862100  0.66914300  0.03610200  1
  Ba  Ba3  1  0.73947100  0.10199300  0.54425500  1
  Ba  Ba4  1  0.26052900  0.89800700  0.45574500  1
  Ba  Ba5  1  0.43137900  0.33085700  0.96389800  1
  Ba  Ba6  1  0.89800700  0.26052900  0.95574500  1
  Ba  Ba7  1  0.66914300  0.56862100  0.53610200  1
  La  La8  1  0.01378600  0.33735400  0.32196200  1
  La  La9  1  0.66264600  0.98621400  0.17803800  1
  La  La10  1  0.33735400  0.01378600  0.82196200  1
  La  La11  1  0.98621400  0.66264600  0.67803800  1
  Cl  Cl12  1  0.13245600  0.45396400  0.06028500  1
  Cl  Cl13  1  0.77625800  0.37613000  0.28999300  1
  Cl  Cl14  1  0.62387000  0.22374200  0.21000700  1
  Cl  Cl15  1  0.23775100  0.23465500  0.39012300  1
  Cl  Cl16  1  0.41340100  0.05107400  0.15955200  1
  Cl  Cl17  1  0.28351800  0.85914800  0.08118100  1
  Cl  Cl18  1  0.03206200  0.08877600  0.33216100  1
  Cl  Cl19  1  0.05107400  0.41340100  0.65955200  1
  Cl  Cl20  1  0.52310500  0.35307000  0.64634700  1
  Cl  Cl21  1  0.85914800  0.28351800  0.58118100  1
  Cl  Cl22  1  0.91122400  0.96793800  0.16783900  1
  Cl  Cl23  1  0.64693000  0.47689500  0.85365300  1
  Cl  Cl24  1  0.76534500  0.76224900  0.10987700  1
  Cl  Cl25  1  0.45396400  0.13245600  0.56028500  1
  Cl  Cl26  1  0.54603600  0.86754400  0.43971500  1
  Cl  Cl27  1  0.23465500  0.23775100  0.89012300  1
  Cl  Cl28  1  0.35307000  0.52310500  0.14634700  1
  Cl  Cl29  1  0.08877600  0.03206200  0.83216100  1
  Cl  Cl30  1  0.14085200  0.71648200  0.41881900  1
  Cl  Cl31  1  0.47689500  0.64693000  0.35365300  1
  Cl  Cl32  1  0.94892600  0.58659900  0.34044800  1
  Cl  Cl33  1  0.96793800  0.91122400  0.66783900  1
  Cl  Cl34  1  0.71648200  0.14085200  0.91881900  1
  Cl  Cl35  1  0.58659900  0.94892600  0.84044800  1
  Cl  Cl36  1  0.76224900  0.76534500  0.60987700  1
  Cl  Cl37  1  0.37613000  0.77625800  0.78999300  1
  Cl  Cl38  1  0.22374200  0.62387000  0.71000700  1
  Cl  Cl39  1  0.86754400  0.54603600  0.93971500  1
