# generated using pymatgen
data_Cr12Fe7O48
_symmetry_space_group_name_H-M   'P 1'
_cell_length_a   4.97697193
_cell_length_b   10.38222797
_cell_length_c   17.26563016
_cell_angle_alpha   89.89751750
_cell_angle_beta   90.15856741
_cell_angle_gamma   89.92003281
_symmetry_Int_Tables_number   1
_chemical_formula_structural   Cr12Fe7O48
_chemical_formula_sum   'Cr12 Fe7 O48'
_cell_volume   892.14491070
_cell_formula_units_Z   1
loop_
 _symmetry_equiv_pos_site_id
 _symmetry_equiv_pos_as_xyz
  1  'x, y, z'
loop_
 _atom_site_type_symbol
 _atom_site_label
 _atom_site_symmetry_multiplicity
 _atom_site_fract_x
 _atom_site_fract_y
 _atom_site_fract_z
 _atom_site_occupancy
  Cr  Cr0  1  0.22218200  0.75085600  0.94739200  1
  Cr  Cr1  1  0.20231500  0.01616700  0.65540400  1
  Cr  Cr2  1  0.20266300  0.47660200  0.65054300  1
  Cr  Cr3  1  0.27153200  0.52522100  0.15109600  1
  Cr  Cr4  1  0.27740700  0.97402800  0.15558700  1
  Cr  Cr5  1  0.27161800  0.25307000  0.44690800  1
  Cr  Cr6  1  0.72805000  0.75275300  0.55256000  1
  Cr  Cr7  1  0.72507000  0.02310000  0.84458800  1
  Cr  Cr8  1  0.73275300  0.48520500  0.84441400  1
  Cr  Cr9  1  0.79062500  0.52411900  0.34507100  1
  Cr  Cr10  1  0.79223900  0.97582700  0.34946500  1
  Cr  Cr11  1  0.78092800  0.24399300  0.05588700  1
  Fe  Fe12  1  0.09526000  0.25496400  0.25707100  1
  Fe  Fe13  1  0.24720200  0.08379300  0.96800400  1
  Fe  Fe14  1  0.25688300  0.93782700  0.47743700  1
  Fe  Fe15  1  0.73960900  0.43739500  0.52097700  1
  Fe  Fe16  1  0.73760000  0.55694000  0.02571600  1
  Fe  Fe17  1  0.75207200  0.91468400  0.03243700  1
  Fe  Fe18  1  0.90114700  0.74652900  0.74107500  1
  O  O19  1  0.05043300  0.23446000  0.99581300  1
  O  O20  1  0.04868500  0.60626200  0.37001200  1
  O  O21  1  0.07822700  0.89758000  0.38775900  1
  O  O22  1  0.12920800  0.62606200  0.20641900  1
  O  O23  1  0.10792600  0.88028400  0.20922800  1
  O  O24  1  0.11395300  0.11533300  0.46820300  1
  O  O25  1  0.05580400  0.37093400  0.46561000  1
  O  O26  1  0.08278800  0.00012900  0.07199700  1
  O  O27  1  0.05928100  0.50258700  0.07508400  1
  O  O28  1  0.14081700  0.74840300  0.85609600  1
  O  O29  1  0.11752100  0.61678000  0.69898400  1
  O  O30  1  0.11485200  0.87445600  0.70574700  1
  O  O31  1  0.32328100  0.11276200  0.20095700  1
  O  O32  1  0.31354700  0.38427700  0.19752800  1
  O  O33  1  0.33359700  0.25414700  0.35173000  1
  O  O34  1  0.38996000  0.98358900  0.57136500  1
  O  O35  1  0.41826000  0.50612600  0.57880400  1
  O  O36  1  0.40842200  0.88642100  0.96862300  1
  O  O37  1  0.42882300  0.63017900  0.96922500  1
  O  O38  1  0.40480200  0.09841000  0.70781600  1
  O  O39  1  0.35099800  0.37865100  0.70708400  1
  O  O40  1  0.43574000  0.09859900  0.87535900  1
  O  O41  1  0.45141200  0.41741400  0.86238400  1
  O  O42  1  0.45355100  0.77170200  0.49629000  1
  O  O43  1  0.54757900  0.27285100  0.50371700  1
  O  O44  1  0.56952900  0.59564000  0.11603000  1
  O  O45  1  0.56490300  0.89655900  0.12444700  1
  O  O46  1  0.59322900  0.60999400  0.29269600  1
  O  O47  1  0.64405200  0.87982900  0.29153900  1
  O  O48  1  0.57712800  0.11369400  0.03396100  1
  O  O49  1  0.60364200  0.37423300  0.03457000  1
  O  O50  1  0.57587200  0.00481300  0.42207100  1
  O  O51  1  0.60252900  0.48850500  0.42994300  1
  O  O52  1  0.66095000  0.75503300  0.64771600  1
  O  O53  1  0.69156000  0.62867300  0.79053000  1
  O  O54  1  0.68910100  0.88122200  0.79926000  1
  O  O55  1  0.87890600  0.11190200  0.30241500  1
  O  O56  1  0.87589000  0.38537300  0.29632900  1
  O  O57  1  0.87217900  0.24255400  0.14717900  1
  O  O58  1  0.89254600  0.52060700  0.93301700  1
  O  O59  1  0.91063900  0.99398600  0.92939100  1
  O  O60  1  0.88518300  0.61415900  0.53301000  1
  O  O61  1  0.94437800  0.87084800  0.53413200  1
  O  O62  1  0.90476700  0.11830100  0.79478800  1
  O  O63  1  0.92301000  0.38730300  0.79891000  1
  O  O64  1  0.94851200  0.10169000  0.63115200  1
  O  O65  1  0.92110900  0.39873000  0.61241900  1
  O  O66  1  0.93857700  0.75349600  0.00757500  1
