# generated using pymatgen
data_InP2H9(NO4)2
_symmetry_space_group_name_H-M   'P 1'
_cell_length_a   10.00690900
_cell_length_b   10.00690900
_cell_length_c   6.75537996
_cell_angle_alpha   71.25334375
_cell_angle_beta   71.25334375
_cell_angle_gamma   124.39044178
_symmetry_Int_Tables_number   1
_chemical_formula_structural   InP2H9(NO4)2
_chemical_formula_sum   'In2 P4 H18 N4 O16'
_cell_volume   404.59133294
_cell_formula_units_Z   2
loop_
 _symmetry_equiv_pos_site_id
 _symmetry_equiv_pos_as_xyz
  1  'x, y, z'
loop_
 _atom_site_type_symbol
 _atom_site_label
 _atom_site_symmetry_multiplicity
 _atom_site_fract_x
 _atom_site_fract_y
 _atom_site_fract_z
 _atom_site_occupancy
  In  In0  1  0.64756900  0.89711000  0.70771200  1
  In  In1  1  0.89711000  0.64756900  0.20771200  1
  P  P2  1  0.45484300  0.11343200  0.75359200  1
  P  P3  1  0.11343200  0.45484300  0.25359200  1
  P  P4  1  0.63206300  0.79018300  0.25696500  1
  P  P5  1  0.79018300  0.63206300  0.75696500  1
  H  H6  1  0.12868300  0.74391700  0.63807800  1
  H  H7  1  0.36432700  0.90182800  0.56983700  1
  H  H8  1  0.73019600  0.29740800  0.02079700  1
  H  H9  1  0.35716900  0.93227200  0.30682300  1
  H  H10  1  0.93227200  0.35716900  0.80682300  1
  H  H11  1  0.29740800  0.73019600  0.52079700  1
  H  H12  1  0.90182800  0.36432700  0.06983700  1
  H  H13  1  0.74391700  0.12868300  0.13807800  1
  H  H14  1  0.27079400  0.52686300  0.44615700  1
  H  H15  1  0.11563800  0.23197200  0.13652900  1
  H  H16  1  0.03277300  0.06809800  0.06198500  1
  H  H17  1  0.17603100  0.24421300  0.53376100  1
  H  H18  1  0.26596900  0.33957800  0.80322000  1
  H  H19  1  0.33957800  0.26596900  0.30322000  1
  H  H20  1  0.24421300  0.17603100  0.03376100  1
  H  H21  1  0.06809800  0.03277300  0.56198500  1
  H  H22  1  0.23197200  0.11563800  0.63652900  1
  H  H23  1  0.52686300  0.27079400  0.94615700  1
  N  N24  1  0.28624300  0.82679900  0.50911000  1
  N  N25  1  0.82679900  0.28624300  0.00911000  1
  N  N26  1  0.16565700  0.20597400  0.00638900  1
  N  N27  1  0.20597400  0.16565700  0.50638900  1
  O  O28  1  0.58070000  0.33047100  0.50241000  1
  O  O29  1  0.21920900  0.97073500  0.88427600  1
  O  O30  1  0.48395700  0.13475500  0.96309300  1
  O  O31  1  0.01665400  0.52082500  0.17763600  1
  O  O32  1  0.52082500  0.01665400  0.67763600  1
  O  O33  1  0.13475500  0.48395700  0.46309300  1
  O  O34  1  0.33047100  0.58070000  0.00241000  1
  O  O35  1  0.97073500  0.21920900  0.38427600  1
  O  O36  1  0.66629500  0.91647500  0.00425000  1
  O  O37  1  0.64914000  0.90078100  0.38187900  1
  O  O38  1  0.40472700  0.55524500  0.46545400  1
  O  O39  1  0.80727400  0.81023400  0.67252200  1
  O  O40  1  0.81023400  0.80727400  0.17252200  1
  O  O41  1  0.55524500  0.40472700  0.96545400  1
  O  O42  1  0.91647500  0.66629500  0.50425000  1
  O  O43  1  0.90078100  0.64914000  0.88187900  1
