# generated using pymatgen
data_Bi19O30
_symmetry_space_group_name_H-M   'P 1'
_cell_length_a   14.72580816
_cell_length_b   14.72580816
_cell_length_c   9.00257400
_cell_angle_alpha   90.00000000
_cell_angle_beta   90.00000000
_cell_angle_gamma   120.00000070
_symmetry_Int_Tables_number   1
_chemical_formula_structural   Bi19O30
_chemical_formula_sum   'Bi38 O60'
_cell_volume   1690.65738213
_cell_formula_units_Z   2
loop_
 _symmetry_equiv_pos_site_id
 _symmetry_equiv_pos_as_xyz
  1  'x, y, z'
loop_
 _atom_site_type_symbol
 _atom_site_label
 _atom_site_symmetry_multiplicity
 _atom_site_fract_x
 _atom_site_fract_y
 _atom_site_fract_z
 _atom_site_occupancy
  Bi  Bi0  1  0.14522300  0.98873600  0.31921400  1
  Bi  Bi1  1  0.36956900  0.93365000  0.22306100  1
  Bi  Bi2  1  0.51219000  0.82988400  0.01691500  1
  Bi  Bi3  1  0.84351300  0.85477700  0.31921400  1
  Bi  Bi4  1  0.95400900  0.73821000  0.08301900  1
  Bi  Bi5  1  0.61786600  0.88887500  0.42710600  1
  Bi  Bi6  1  0.17011600  0.68230700  0.01691500  1
  Bi  Bi7  1  0.56408000  0.63043100  0.22306100  1
  Bi  Bi8  1  0.21866900  0.95954300  0.90721200  1
  Bi  Bi9  1  0.11112500  0.72899000  0.42710600  1
  Bi  Bi10  1  0.33333300  0.66666700  0.33910100  1
  Bi  Bi11  1  0.98243400  0.83749100  0.67336900  1
  Bi  Bi12  1  0.33604500  0.82261900  0.68577100  1
  Bi  Bi13  1  0.67771200  0.49242700  0.01441600  1
  Bi  Bi14  1  0.31769300  0.48781000  0.01691500  1
  Bi  Bi15  1  0.48657400  0.66395500  0.68577100  1
  Bi  Bi16  1  0.06635000  0.43592000  0.22306100  1
  Bi  Bi17  1  0.74087400  0.78133100  0.90721200  1
  Bi  Bi18  1  0.81471500  0.32228800  0.01441600  1
  Bi  Bi19  1  0.70464100  0.61016300  0.56109500  1
  Bi  Bi20  1  0.84859200  0.49957700  0.34062000  1
  Bi  Bi21  1  0.17738100  0.51342600  0.68577100  1
  Bi  Bi22  1  0.50757300  0.18528500  0.01441600  1
  Bi  Bi23  1  0.27101000  0.38213400  0.42710600  1
  Bi  Bi24  1  0.94782800  0.55625000  0.74686700  1
  Bi  Bi25  1  0.50042300  0.34901400  0.34062000  1
  Bi  Bi26  1  0.26179000  0.21579900  0.08301900  1
  Bi  Bi27  1  0.78420100  0.04599100  0.08301900  1
  Bi  Bi28  1  0.90552300  0.29535900  0.56109500  1
  Bi  Bi29  1  0.44375000  0.39157800  0.74686700  1
  Bi  Bi30  1  0.66666700  0.33333300  0.66191600  1
  Bi  Bi31  1  0.01126400  0.15648700  0.31921400  1
  Bi  Bi32  1  0.65098600  0.15140800  0.34062000  1
  Bi  Bi33  1  0.38983700  0.09447700  0.56109500  1
  Bi  Bi34  1  0.04045700  0.25912600  0.90721200  1
  Bi  Bi35  1  0.16250900  0.14494300  0.67336900  1
  Bi  Bi36  1  0.60842200  0.05217200  0.74686700  1
  Bi  Bi37  1  0.85505700  0.01756600  0.67336900  1
  O  O38  1  0.81249900  0.90513100  0.09343100  1
  O  O39  1  0.09486900  0.90736800  0.09343100  1
  O  O40  1  0.79012000  0.95371900  0.40487000  1
  O  O41  1  0.29926900  0.95792500  0.41181600  1
  O  O42  1  0.57461900  0.78745700  0.21464900  1
  O  O43  1  0.21254300  0.78716200  0.21464900  1
  O  O44  1  0.70681900  0.67464800  0.08498300  1
  O  O45  1  0.04628100  0.83640100  0.40487000  1
  O  O46  1  0.40886200  0.81890700  0.41075800  1
  O  O47  1  0.33333300  0.66666700  0.11106800  1
  O  O48  1  0.49495000  0.87940500  0.74311800  1
  O  O49  1  0.83327400  0.55015800  0.08336400  1
  O  O50  1  0.83846700  0.79938900  0.57515000  1
  O  O51  1  0.00507000  0.62638000  0.26550000  1
  O  O52  1  0.65865600  0.70073100  0.41181600  1
  O  O53  1  0.66683300  0.95157300  0.92865900  1
  O  O54  1  0.41004500  0.59113800  0.41075800  1
  O  O55  1  0.18109300  0.58995500  0.41075800  1
  O  O56  1  0.28927100  0.82245900  0.92053100  1
  O  O57  1  0.96023500  0.66887500  0.59151900  1
  O  O58  1  0.61990600  0.48978000  0.24459200  1
  O  O59  1  0.88037100  0.75926800  0.87677900  1
  O  O60  1  0.21283800  0.42538100  0.21464900  1
  O  O61  1  0.66666700  0.33333300  0.03715600  1
  O  O62  1  0.33333300  0.66666700  0.70424600  1
  O  O63  1  0.37362000  0.37869000  0.26550000  1
  O  O64  1  0.04842700  0.71526000  0.92865900  1
  O  O65  1  0.12059500  0.61554600  0.74311800  1
  O  O66  1  0.44984200  0.28311700  0.08336400  1
  O  O67  1  0.63447000  0.63395600  0.74922300  1
  O  O68  1  0.96782900  0.29318100  0.08498300  1
  O  O69  1  0.86987500  0.38009400  0.24459200  1
  O  O70  1  0.53318800  0.71072900  0.92053100  1
  O  O71  1  0.91424000  0.45592300  0.54394100  1
  O  O72  1  0.54407700  0.45831700  0.54394100  1
  O  O73  1  0.71688300  0.16672600  0.08336400  1
  O  O74  1  0.04207500  0.34134400  0.41181600  1
  O  O75  1  0.38445400  0.50505000  0.74311800  1
  O  O76  1  0.66666700  0.33333300  0.43521300  1
  O  O77  1  0.09263200  0.18750100  0.09343100  1
  O  O78  1  0.74377300  0.48414300  0.74062700  1
  O  O79  1  0.16359900  0.20988000  0.40487000  1
  O  O80  1  0.51022000  0.13012500  0.24459200  1
  O  O81  1  0.17754100  0.46681200  0.92053100  1
  O  O82  1  0.99948600  0.36553000  0.74922300  1
  O  O83  1  0.32535200  0.03217100  0.08498300  1
  O  O84  1  0.33112500  0.29136000  0.59151900  1
  O  O85  1  0.74037000  0.25622700  0.74062700  1
  O  O86  1  0.51585700  0.25963000  0.74062700  1
  O  O87  1  0.96092300  0.16153300  0.57515000  1
  O  O88  1  0.28474000  0.33316700  0.92865900  1
  O  O89  1  0.62131000  0.99493000  0.26550000  1
  O  O90  1  0.00000000  0.00000000  0.35073300  1
  O  O91  1  0.54168300  0.08576000  0.54394100  1
  O  O92  1  0.70864000  0.03976500  0.59151900  1
  O  O93  1  0.20061100  0.03907700  0.57515000  1
  O  O94  1  0.24073200  0.12110200  0.87677900  1
  O  O95  1  0.87889800  0.11962900  0.87677900  1
  O  O96  1  0.36604400  0.00051400  0.74922300  1
  O  O97  1  0.00000000  0.00000000  0.71404500  1
