# generated using pymatgen
data_Ti5Nb(PO4)6
_symmetry_space_group_name_H-M   'P 1'
_cell_length_a   8.43919984
_cell_length_b   8.43920020
_cell_length_c   8.43920113
_cell_angle_alpha   63.42341131
_cell_angle_beta   63.42341016
_cell_angle_gamma   63.42341036
_symmetry_Int_Tables_number   1
_chemical_formula_structural   Ti5Nb(PO4)6
_chemical_formula_sum   'Ti5 Nb1 P6 O24'
_cell_volume   457.19341955
_cell_formula_units_Z   1
loop_
 _symmetry_equiv_pos_site_id
 _symmetry_equiv_pos_as_xyz
  1  'x, y, z'
loop_
 _atom_site_type_symbol
 _atom_site_label
 _atom_site_symmetry_multiplicity
 _atom_site_fract_x
 _atom_site_fract_y
 _atom_site_fract_z
 _atom_site_occupancy
  Ti  Ti0  1  0.99368400  0.99368400  0.99368400  1
  Ti  Ti1  1  0.49814000  0.49814000  0.49814000  1
  Ti  Ti2  1  0.14059300  0.14059300  0.14059300  1
  Ti  Ti3  1  0.36177300  0.36177300  0.36177300  1
  Ti  Ti4  1  0.64091300  0.64091300  0.64091300  1
  Nb  Nb5  1  0.86339300  0.86339300  0.86339300  1
  P  P6  1  0.04271000  0.75259300  0.45337100  1
  P  P7  1  0.45337100  0.04271000  0.75259300  1
  P  P8  1  0.25955300  0.53308600  0.95813800  1
  P  P9  1  0.53308600  0.95813800  0.25955300  1
  P  P10  1  0.95813800  0.25955300  0.53308600  1
  P  P11  1  0.75259300  0.45337100  0.04271000  1
  O  O12  1  0.11293700  0.32995400  0.49472100  1
  O  O13  1  0.32995400  0.49472100  0.11293700  1
  O  O14  1  0.05668700  0.90261300  0.25625000  1
  O  O15  1  0.49472100  0.11293700  0.32995400  1
  O  O16  1  0.00791600  0.82488800  0.60686200  1
  O  O17  1  0.23970400  0.59973500  0.44015900  1
  O  O18  1  0.25625000  0.05668700  0.90261300  1
  O  O19  1  0.44015900  0.23970400  0.59973500  1
  O  O20  1  0.18201000  0.38349000  0.99588200  1
  O  O21  1  0.59973500  0.44015900  0.23970400  1
  O  O22  1  0.10797900  0.73138600  0.94331100  1
  O  O23  1  0.38349000  0.99588200  0.18201000  1
  O  O24  1  0.60686200  0.00791600  0.82488800  1
  O  O25  1  0.90261300  0.25625000  0.05668700  1
  O  O26  1  0.40873900  0.55066100  0.76008900  1
  O  O27  1  0.82488800  0.60686200  0.00791600  1
  O  O28  1  0.55066100  0.76008900  0.40873900  1
  O  O29  1  0.73138600  0.94331100  0.10797900  1
  O  O30  1  0.76008900  0.40873900  0.55066100  1
  O  O31  1  0.99588200  0.18201000  0.38349000  1
  O  O32  1  0.50016300  0.88526100  0.68065400  1
  O  O33  1  0.94331100  0.10797900  0.73138600  1
  O  O34  1  0.68065400  0.50016300  0.88526100  1
  O  O35  1  0.88526100  0.68065400  0.50016300  1
