# generated using pymatgen
data_K3CrPCO7
_symmetry_space_group_name_H-M   'P 1'
_cell_length_a   9.94343236
_cell_length_b   6.80709900
_cell_length_c   5.73324512
_cell_angle_alpha   89.99848373
_cell_angle_beta   88.62955287
_cell_angle_gamma   90.00328154
_symmetry_Int_Tables_number   1
_chemical_formula_structural   K3CrPCO7
_chemical_formula_sum   'K6 Cr2 P2 C2 O14'
_cell_volume   387.94901725
_cell_formula_units_Z   2
loop_
 _symmetry_equiv_pos_site_id
 _symmetry_equiv_pos_as_xyz
  1  'x, y, z'
loop_
 _atom_site_type_symbol
 _atom_site_label
 _atom_site_symmetry_multiplicity
 _atom_site_fract_x
 _atom_site_fract_y
 _atom_site_fract_z
 _atom_site_occupancy
  K  K0  1  0.07829500  0.24999500  0.75935000  1
  K  K1  1  0.27168200  0.01024700  0.24613900  1
  K  K2  1  0.27168000  0.48974400  0.24615500  1
  K  K3  1  0.72833700  0.51024300  0.75382200  1
  K  K4  1  0.72833100  0.98975000  0.75382900  1
  K  K5  1  0.92172300  0.74998400  0.24061200  1
  Cr  Cr6  1  0.35845700  0.75010500  0.75677900  1
  Cr  Cr7  1  0.64157900  0.25002800  0.24336800  1
  P  P8  1  0.42324400  0.24999800  0.70451500  1
  P  P9  1  0.57673300  0.75000500  0.29549800  1
  C  C10  1  0.07996100  0.74999300  0.73047500  1
  C  C11  1  0.92006000  0.25000200  0.26952600  1
  O  O12  1  0.04955200  0.24999800  0.23869100  1
  O  O13  1  0.15877200  0.74998100  0.91261900  1
  O  O14  1  0.13519600  0.74999600  0.52346100  1
  O  O15  1  0.33222300  0.06493400  0.75201400  1
  O  O16  1  0.33220200  0.43500000  0.75202700  1
  O  O17  1  0.46472600  0.24998800  0.43862400  1
  O  O18  1  0.45306000  0.74999700  0.13945100  1
  O  O19  1  0.54695000  0.24998600  0.86053000  1
  O  O20  1  0.53521700  0.74998800  0.56137000  1
  O  O21  1  0.66777300  0.56498400  0.24800600  1
  O  O22  1  0.66777100  0.93503500  0.24802300  1
  O  O23  1  0.86483200  0.25000100  0.47652500  1
  O  O24  1  0.84120200  0.25001000  0.08736000  1
  O  O25  1  0.95044200  0.75000700  0.76123000  1
