# generated using pymatgen
data_Na6CoO4
_symmetry_space_group_name_H-M   'P 1'
_cell_length_a   9.32449899
_cell_length_b   9.32449899
_cell_length_c   9.32449899
_cell_angle_alpha   109.47122063
_cell_angle_beta   109.47122063
_cell_angle_gamma   109.47122063
_symmetry_Int_Tables_number   1
_chemical_formula_structural   Na6CoO4
_chemical_formula_sum   'Na24 Co4 O16'
_cell_volume   624.10063940
_cell_formula_units_Z   4
loop_
 _symmetry_equiv_pos_site_id
 _symmetry_equiv_pos_as_xyz
  1  'x, y, z'
loop_
 _atom_site_type_symbol
 _atom_site_label
 _atom_site_symmetry_multiplicity
 _atom_site_fract_x
 _atom_site_fract_y
 _atom_site_fract_z
 _atom_site_occupancy
  Na  Na0  1  0.73347000  0.46247700  0.00000000  1
  Na  Na1  1  0.73347000  0.00000000  0.46247700  1
  Na  Na2  1  0.43069900  0.21594000  0.00000000  1
  Na  Na3  1  0.43069900  0.00000000  0.21594000  1
  Na  Na4  1  0.72900800  0.26653000  0.26653000  1
  Na  Na5  1  0.78406000  0.78406000  0.21475900  1
  Na  Na6  1  0.78406000  0.21475900  0.78406000  1
  Na  Na7  1  0.21594000  0.43069900  0.00000000  1
  Na  Na8  1  0.21594000  0.00000000  0.43069900  1
  Na  Na9  1  0.53752300  0.27099200  0.53752300  1
  Na  Na10  1  0.53752300  0.53752300  0.27099200  1
  Na  Na11  1  0.46247700  0.73347000  0.00000000  1
  Na  Na12  1  0.46247700  0.00000000  0.73347000  1
  Na  Na13  1  0.78524100  0.56930100  0.56930100  1
  Na  Na14  1  0.00000000  0.43069900  0.21594000  1
  Na  Na15  1  0.00000000  0.21594000  0.43069900  1
  Na  Na16  1  0.26653000  0.72900800  0.26653000  1
  Na  Na17  1  0.26653000  0.26653000  0.72900800  1
  Na  Na18  1  0.56930100  0.78524100  0.56930100  1
  Na  Na19  1  0.56930100  0.56930100  0.78524100  1
  Na  Na20  1  0.27099200  0.53752300  0.53752300  1
  Na  Na21  1  0.00000000  0.73347000  0.46247700  1
  Na  Na22  1  0.00000000  0.46247700  0.73347000  1
  Na  Na23  1  0.21475900  0.78406000  0.78406000  1
  Co  Co24  1  0.74723800  0.00000000  0.00000000  1
  Co  Co25  1  0.25276200  0.25276200  0.25276200  1
  Co  Co26  1  0.00000000  0.74723800  0.00000000  1
  Co  Co27  1  0.00000000  0.00000000  0.74723800  1
  O  O28  1  0.72210200  0.20984900  0.00000000  1
  O  O29  1  0.72210200  0.00000000  0.20984900  1
  O  O30  1  0.00000000  0.00000000  0.00000000  1
  O  O31  1  0.50000000  0.50000000  0.00000000  1
  O  O32  1  0.50000000  0.00000000  0.50000000  1
  O  O33  1  0.48774700  0.27789800  0.27789800  1
  O  O34  1  0.79015100  0.51225300  0.79015100  1
  O  O35  1  0.79015100  0.79015100  0.51225300  1
  O  O36  1  0.20984900  0.72210200  0.00000000  1
  O  O37  1  0.20984900  0.00000000  0.72210200  1
  O  O38  1  0.27789800  0.48774700  0.27789800  1
  O  O39  1  0.27789800  0.27789800  0.48774700  1
  O  O40  1  0.00000000  0.72210200  0.20984900  1
  O  O41  1  0.00000000  0.20984900  0.72210200  1
  O  O42  1  0.00000000  0.50000000  0.50000000  1
  O  O43  1  0.51225300  0.79015100  0.79015100  1
