# generated using pymatgen
data_Na5CoHO4
_symmetry_space_group_name_H-M   'P 1'
_cell_length_a   9.98408000
_cell_length_b   10.12983200
_cell_length_c   11.91627800
_cell_angle_alpha   90.00000000
_cell_angle_beta   90.00000000
_cell_angle_gamma   90.00000000
_symmetry_Int_Tables_number   1
_chemical_formula_structural   Na5CoHO4
_chemical_formula_sum   'Na40 Co8 H8 O32'
_cell_volume   1205.17724054
_cell_formula_units_Z   8
loop_
 _symmetry_equiv_pos_site_id
 _symmetry_equiv_pos_as_xyz
  1  'x, y, z'
loop_
 _atom_site_type_symbol
 _atom_site_label
 _atom_site_symmetry_multiplicity
 _atom_site_fract_x
 _atom_site_fract_y
 _atom_site_fract_z
 _atom_site_occupancy
  Na  Na0  1  0.98649100  0.58889500  0.21240200  1
  Na  Na1  1  0.48649100  0.91110500  0.28759800  1
  Na  Na2  1  0.01350900  0.08889500  0.78759800  1
  Na  Na3  1  0.51350900  0.41110500  0.71240200  1
  Na  Na4  1  0.01350900  0.41110500  0.78759800  1
  Na  Na5  1  0.51350900  0.08889500  0.71240200  1
  Na  Na6  1  0.98649100  0.91110500  0.21240200  1
  Na  Na7  1  0.48649100  0.58889500  0.28759800  1
  Na  Na8  1  0.07324700  0.43510400  0.41174200  1
  Na  Na9  1  0.57324700  0.06489600  0.08825800  1
  Na  Na10  1  0.92675300  0.93510400  0.58825800  1
  Na  Na11  1  0.42675300  0.56489600  0.91174200  1
  Na  Na12  1  0.92675300  0.56489600  0.58825800  1
  Na  Na13  1  0.42675300  0.93510400  0.91174200  1
  Na  Na14  1  0.07324700  0.06489600  0.41174200  1
  Na  Na15  1  0.57324700  0.43510400  0.08825800  1
  Na  Na16  1  0.07901700  0.75000000  0.44191200  1
  Na  Na17  1  0.57901700  0.75000000  0.05808800  1
  Na  Na18  1  0.92098300  0.25000000  0.55808800  1
  Na  Na19  1  0.42098300  0.25000000  0.94191200  1
  Na  Na20  1  0.63109500  0.56503500  0.51105300  1
  Na  Na21  1  0.13109500  0.93496500  0.98894700  1
  Na  Na22  1  0.36890500  0.06503500  0.48894700  1
  Na  Na23  1  0.86890500  0.43496500  0.01105300  1
  Na  Na24  1  0.36890500  0.43496500  0.48894700  1
  Na  Na25  1  0.86890500  0.06503500  0.01105300  1
  Na  Na26  1  0.63109500  0.93496500  0.51105300  1
  Na  Na27  1  0.13109500  0.56503500  0.98894700  1
  Na  Na28  1  0.78061200  0.41938600  0.32326300  1
  Na  Na29  1  0.28061200  0.08061400  0.17673700  1
  Na  Na30  1  0.21938800  0.91938600  0.67673700  1
  Na  Na31  1  0.71938800  0.58061400  0.82326300  1
  Na  Na32  1  0.21938800  0.58061400  0.67673700  1
  Na  Na33  1  0.71938800  0.91938600  0.82326300  1
  Na  Na34  1  0.78061200  0.08061400  0.32326300  1
  Na  Na35  1  0.28061200  0.41938600  0.17673700  1
  Na  Na36  1  0.11653000  0.25000000  0.98195600  1
  Na  Na37  1  0.61653000  0.25000000  0.51804400  1
  Na  Na38  1  0.88347000  0.75000000  0.01804400  1
  Na  Na39  1  0.38347000  0.75000000  0.48195600  1
  Co  Co40  1  0.01187900  0.25000000  0.21055000  1
  Co  Co41  1  0.51187900  0.25000000  0.28945000  1
  Co  Co42  1  0.98812100  0.75000000  0.78945000  1
  Co  Co43  1  0.48812100  0.75000000  0.71055000  1
  Co  Co44  1  0.78910100  0.75000000  0.38222500  1
  Co  Co45  1  0.28910100  0.75000000  0.11777500  1
  Co  Co46  1  0.21089900  0.25000000  0.61777500  1
  Co  Co47  1  0.71089900  0.25000000  0.88222500  1
  H  H48  1  0.75703400  0.36782700  0.69694900  1
  H  H49  1  0.25703400  0.13217300  0.80305100  1
  H  H50  1  0.24296600  0.86782700  0.30305100  1
  H  H51  1  0.74296600  0.63217300  0.19694900  1
  H  H52  1  0.24296600  0.63217300  0.30305100  1
  H  H53  1  0.74296600  0.86782700  0.19694900  1
  H  H54  1  0.75703400  0.13217300  0.69694900  1
  H  H55  1  0.25703400  0.36782700  0.80305100  1
  O  O56  1  0.89998400  0.59856100  0.39517200  1
  O  O57  1  0.39998400  0.90143900  0.10482800  1
  O  O58  1  0.10001600  0.09856100  0.60482800  1
  O  O59  1  0.60001600  0.40143900  0.89517200  1
  O  O60  1  0.10001600  0.40143900  0.60482800  1
  O  O61  1  0.60001600  0.09856100  0.89517200  1
  O  O62  1  0.89998400  0.90143900  0.39517200  1
  O  O63  1  0.39998400  0.59856100  0.10482800  1
  O  O64  1  0.05985200  0.09945900  0.12452600  1
  O  O65  1  0.55985200  0.40054100  0.37547400  1
  O  O66  1  0.94014800  0.59945900  0.87547400  1
  O  O67  1  0.44014800  0.90054100  0.62452600  1
  O  O68  1  0.94014800  0.90054100  0.87547400  1
  O  O69  1  0.44014800  0.59945900  0.62452600  1
  O  O70  1  0.05985200  0.40054100  0.12452600  1
  O  O71  1  0.55985200  0.09945900  0.37547400  1
  O  O72  1  0.60625000  0.75000000  0.38108600  1
  O  O73  1  0.10625000  0.75000000  0.11891400  1
  O  O74  1  0.39375000  0.25000000  0.61891400  1
  O  O75  1  0.89375000  0.25000000  0.88108600  1
  O  O76  1  0.94045500  0.25000000  0.35209500  1
  O  O77  1  0.44045500  0.25000000  0.14790500  1
  O  O78  1  0.05954500  0.75000000  0.64790500  1
  O  O79  1  0.55954500  0.75000000  0.85209500  1
  O  O80  1  0.74709400  0.41735500  0.62702600  1
  O  O81  1  0.24709400  0.08264500  0.87297400  1
  O  O82  1  0.25290600  0.91735500  0.37297400  1
  O  O83  1  0.75290600  0.58264500  0.12702600  1
  O  O84  1  0.25290600  0.58264500  0.37297400  1
  O  O85  1  0.75290600  0.91735500  0.12702600  1
  O  O86  1  0.74709400  0.08264500  0.62702600  1
  O  O87  1  0.24709400  0.41735500  0.87297400  1
