# generated using pymatgen
data_Hg2W2O7
_symmetry_space_group_name_H-M   'P 1'
_cell_length_a   7.35538643
_cell_length_b   7.35538643
_cell_length_c   14.94653890
_cell_angle_alpha   76.65228349
_cell_angle_beta   76.65228349
_cell_angle_gamma   62.58662069
_symmetry_Int_Tables_number   1
_chemical_formula_structural   Hg2W2O7
_chemical_formula_sum   'Hg8 W8 O28'
_cell_volume   691.13723283
_cell_formula_units_Z   4
loop_
 _symmetry_equiv_pos_site_id
 _symmetry_equiv_pos_as_xyz
  1  'x, y, z'
loop_
 _atom_site_type_symbol
 _atom_site_label
 _atom_site_symmetry_multiplicity
 _atom_site_fract_x
 _atom_site_fract_y
 _atom_site_fract_z
 _atom_site_occupancy
  Hg  Hg0  1  0.92807700  0.23891600  0.43644900  1
  Hg  Hg1  1  0.39062200  0.74173600  0.43949300  1
  Hg  Hg2  1  0.74173600  0.39062200  0.93949300  1
  Hg  Hg3  1  0.76108400  0.07192300  0.06355100  1
  Hg  Hg4  1  0.23891600  0.92807700  0.93644900  1
  Hg  Hg5  1  0.25826400  0.60937800  0.06050700  1
  Hg  Hg6  1  0.60937800  0.25826400  0.56050700  1
  Hg  Hg7  1  0.07192300  0.76108400  0.56355100  1
  W  W8  1  0.84752400  0.84023900  0.31198800  1
  W  W9  1  0.84023900  0.84752400  0.81198800  1
  W  W10  1  0.66387300  0.64261100  0.19041800  1
  W  W11  1  0.64261100  0.66387300  0.69041800  1
  W  W12  1  0.35738900  0.33612700  0.30958200  1
  W  W13  1  0.33612700  0.35738900  0.80958200  1
  W  W14  1  0.15976100  0.15247600  0.18801200  1
  W  W15  1  0.15247600  0.15976100  0.68801200  1
  O  O16  1  0.81228600  0.89092800  0.42623800  1
  O  O17  1  0.83876600  0.79393000  0.16929800  1
  O  O18  1  0.89092800  0.81228600  0.92623800  1
  O  O19  1  0.88358600  0.38568700  0.22534700  1
  O  O20  1  0.64908600  0.71778900  0.32959000  1
  O  O21  1  0.79393000  0.83876600  0.66929800  1
  O  O22  1  0.68105200  0.61146300  0.07453400  1
  O  O23  1  0.92510200  0.42351100  0.67815400  1
  O  O24  1  0.71778900  0.64908700  0.82959000  1
  O  O25  1  0.42351100  0.92510200  0.17815400  1
  O  O26  1  0.97109700  0.02890300  0.75000000  1
  O  O27  1  0.61431300  0.11641400  0.27465300  1
  O  O28  1  0.45610800  0.54389200  0.25000000  1
  O  O29  1  0.38853700  0.31894800  0.42546600  1
  O  O30  1  0.61146300  0.68105200  0.57453400  1
  O  O31  1  0.54389200  0.45610800  0.75000000  1
  O  O32  1  0.38568700  0.88358600  0.72534700  1
  O  O33  1  0.02890300  0.97109700  0.25000000  1
  O  O34  1  0.57648900  0.07489800  0.82184600  1
  O  O35  1  0.28221100  0.35091400  0.17041000  1
  O  O36  1  0.07489800  0.57648900  0.32184600  1
  O  O37  1  0.31894800  0.38853700  0.92546600  1
  O  O38  1  0.20607000  0.16123400  0.33070200  1
  O  O39  1  0.35091400  0.28221100  0.67041000  1
  O  O40  1  0.11641400  0.61431300  0.77465300  1
  O  O41  1  0.10907200  0.18771400  0.07376200  1
  O  O42  1  0.16123400  0.20607000  0.83070200  1
  O  O43  1  0.18771400  0.10907200  0.57376200  1
