# generated using pymatgen
data_Ti3Cr(PO4)6
_symmetry_space_group_name_H-M   'P 1'
_cell_length_a   8.79486444
_cell_length_b   8.79486444
_cell_length_c   8.79486427
_cell_angle_alpha   58.45588310
_cell_angle_beta   58.45588310
_cell_angle_gamma   58.45588270
_symmetry_Int_Tables_number   1
_chemical_formula_structural   Ti3Cr(PO4)6
_chemical_formula_sum   'Ti3 Cr1 P6 O24'
_cell_volume   464.03467525
_cell_formula_units_Z   1
loop_
 _symmetry_equiv_pos_site_id
 _symmetry_equiv_pos_as_xyz
  1  'x, y, z'
loop_
 _atom_site_type_symbol
 _atom_site_label
 _atom_site_symmetry_multiplicity
 _atom_site_fract_x
 _atom_site_fract_y
 _atom_site_fract_z
 _atom_site_occupancy
  Ti  Ti0  1  0.86052200  0.86052200  0.86052200  1
  Ti  Ti1  1  0.63950300  0.63950300  0.63950300  1
  Ti  Ti2  1  0.35972700  0.35972700  0.35972700  1
  Cr  Cr3  1  0.14117500  0.14117500  0.14117500  1
  P  P4  1  0.53060600  0.96816400  0.25089900  1
  P  P5  1  0.25089900  0.53060600  0.96816400  1
  P  P6  1  0.96816400  0.25089900  0.53060600  1
  P  P7  1  0.03271100  0.75353900  0.46499700  1
  P  P8  1  0.75353900  0.46499700  0.03271100  1
  P  P9  1  0.46499700  0.03271100  0.75353900  1
  O  O10  1  0.48852600  0.86014500  0.73023000  1
  O  O11  1  0.86014500  0.73023000  0.48852600  1
  O  O12  1  0.70958400  0.93937300  0.07710500  1
  O  O13  1  0.73023000  0.48852600  0.86014500  1
  O  O14  1  0.55292000  0.78787700  0.42592400  1
  O  O15  1  0.35486300  0.00083400  0.21799000  1
  O  O16  1  0.07710500  0.70958400  0.93937300  1
  O  O17  1  0.42592400  0.55292000  0.78787700  1
  O  O18  1  0.78787700  0.42592400  0.55292000  1
  O  O19  1  0.00358100  0.78542400  0.63408800  1
  O  O20  1  0.06510000  0.93347100  0.28042500  1
  O  O21  1  0.78542400  0.63408800  0.00358100  1
  O  O22  1  0.21799000  0.35486300  0.00083400  1
  O  O23  1  0.93937300  0.07710500  0.70958400  1
  O  O24  1  0.00083400  0.21799000  0.35486300  1
  O  O25  1  0.21521000  0.58474600  0.42996600  1
  O  O26  1  0.58474600  0.42996600  0.21521000  1
  O  O27  1  0.93347100  0.28042500  0.06510000  1
  O  O28  1  0.63408800  0.00358100  0.78542400  1
  O  O29  1  0.42996600  0.21521000  0.58474600  1
  O  O30  1  0.28070900  0.50102800  0.13904000  1
  O  O31  1  0.28042500  0.06510000  0.93347100  1
  O  O32  1  0.13904000  0.28070900  0.50102800  1
  O  O33  1  0.50102800  0.13904000  0.28070900  1
