# generated using pymatgen
data_Na5Mn2P2(CO7)2
_symmetry_space_group_name_H-M   'P 1'
_cell_length_a   9.03279141
_cell_length_b   6.60355800
_cell_length_c   10.55702079
_cell_angle_alpha   90.00000000
_cell_angle_beta   88.80260163
_cell_angle_gamma   90.00000000
_symmetry_Int_Tables_number   1
_chemical_formula_structural   Na5Mn2P2(CO7)2
_chemical_formula_sum   'Na10 Mn4 P4 C4 O28'
_cell_volume   629.57360070
_cell_formula_units_Z   2
loop_
 _symmetry_equiv_pos_site_id
 _symmetry_equiv_pos_as_xyz
  1  'x, y, z'
loop_
 _atom_site_type_symbol
 _atom_site_label
 _atom_site_symmetry_multiplicity
 _atom_site_fract_x
 _atom_site_fract_y
 _atom_site_fract_z
 _atom_site_occupancy
  Na  Na0  1  0.07738700  0.25000000  0.88545000  1
  Na  Na1  1  0.25393100  0.00722200  0.61505600  1
  Na  Na2  1  0.25393100  0.49277800  0.61505600  1
  Na  Na3  1  0.24247600  0.99971100  0.13234600  1
  Na  Na4  1  0.24247600  0.50028900  0.13234600  1
  Na  Na5  1  0.74606900  0.50722200  0.88494400  1
  Na  Na6  1  0.74606900  0.99277800  0.88494400  1
  Na  Na7  1  0.75752400  0.49971100  0.36765400  1
  Na  Na8  1  0.75752400  0.00028900  0.36765400  1
  Na  Na9  1  0.92261300  0.75000000  0.61455000  1
  Mn  Mn10  1  0.35388000  0.75000000  0.89017600  1
  Mn  Mn11  1  0.35737900  0.75000000  0.38774000  1
  Mn  Mn12  1  0.64612000  0.25000000  0.60982400  1
  Mn  Mn13  1  0.64262100  0.25000000  0.11226000  1
  P  P14  1  0.41939200  0.25000000  0.85019900  1
  P  P15  1  0.42391400  0.25000000  0.35148600  1
  P  P16  1  0.58060800  0.75000000  0.64980100  1
  P  P17  1  0.57608600  0.75000000  0.14851400  1
  C  C18  1  0.06607800  0.75000000  0.85987600  1
  C  C19  1  0.06967800  0.75000000  0.36923100  1
  C  C20  1  0.93392200  0.25000000  0.64012400  1
  C  C21  1  0.93032200  0.25000000  0.13076900  1
  O  O22  1  0.07546200  0.25000000  0.64774400  1
  O  O23  1  0.07143500  0.25000000  0.12374000  1
  O  O24  1  0.13404400  0.75000000  0.96766300  1
  O  O25  1  0.14500500  0.75000000  0.47608600  1
  O  O26  1  0.14943100  0.75000000  0.75669600  1
  O  O27  1  0.14812500  0.75000000  0.26606200  1
  O  O28  1  0.32274100  0.06277800  0.88759500  1
  O  O29  1  0.32274100  0.43722200  0.88759500  1
  O  O30  1  0.33306500  0.05923800  0.38953200  1
  O  O31  1  0.33306500  0.44076200  0.38953200  1
  O  O32  1  0.44494800  0.25000000  0.70230800  1
  O  O33  1  0.43024700  0.75000000  0.58447800  1
  O  O34  1  0.44557800  0.25000000  0.20294200  1
  O  O35  1  0.42273300  0.75000000  0.08562000  1
  O  O36  1  0.56975300  0.25000000  0.91552200  1
  O  O37  1  0.55505200  0.75000000  0.79769200  1
  O  O38  1  0.57726700  0.25000000  0.41438000  1
  O  O39  1  0.55442200  0.75000000  0.29705800  1
  O  O40  1  0.67725900  0.56277800  0.61240500  1
  O  O41  1  0.67725900  0.93722200  0.61240500  1
  O  O42  1  0.66693500  0.55923800  0.11046800  1
  O  O43  1  0.66693500  0.94076200  0.11046800  1
  O  O44  1  0.85056900  0.25000000  0.74330400  1
  O  O45  1  0.85187500  0.25000000  0.23393800  1
  O  O46  1  0.86595600  0.25000000  0.53233700  1
  O  O47  1  0.85499500  0.25000000  0.02391400  1
  O  O48  1  0.92453800  0.75000000  0.85225600  1
  O  O49  1  0.92856500  0.75000000  0.37626000  1
