# generated using pymatgen
data_Na6MnO4
_symmetry_space_group_name_H-M   'P 1'
_cell_length_a   7.58982500
_cell_length_b   9.38492481
_cell_length_c   9.38501142
_cell_angle_alpha   107.94273382
_cell_angle_beta   89.99951548
_cell_angle_gamma   90.00037019
_symmetry_Int_Tables_number   1
_chemical_formula_structural   Na6MnO4
_chemical_formula_sum   'Na24 Mn4 O16'
_cell_volume   635.98150917
_cell_formula_units_Z   4
loop_
 _symmetry_equiv_pos_site_id
 _symmetry_equiv_pos_as_xyz
  1  'x, y, z'
loop_
 _atom_site_type_symbol
 _atom_site_label
 _atom_site_symmetry_multiplicity
 _atom_site_fract_x
 _atom_site_fract_y
 _atom_site_fract_z
 _atom_site_occupancy
  Na  Na0  1  0.25001100  0.45860900  0.20859200  1
  Na  Na1  1  0.25001100  0.95860900  0.70859200  1
  Na  Na2  1  0.25000600  0.20861100  0.95859000  1
  Na  Na3  1  0.25000600  0.70861100  0.45859000  1
  Na  Na4  1  0.75002000  0.54138900  0.79138600  1
  Na  Na5  1  0.75002000  0.04138900  0.29138600  1
  Na  Na6  1  0.75001200  0.79139400  0.04138000  1
  Na  Na7  1  0.75001200  0.29139400  0.54138000  1
  Na  Na8  1  0.03700700  0.64350100  0.10650800  1
  Na  Na9  1  0.03700700  0.14350100  0.60650800  1
  Na  Na10  1  0.03700600  0.85649500  0.89348500  1
  Na  Na11  1  0.03700600  0.35649500  0.39348500  1
  Na  Na12  1  0.46302200  0.64350500  0.10648800  1
  Na  Na13  1  0.46302200  0.14350500  0.60648800  1
  Na  Na14  1  0.46300400  0.85649800  0.89349700  1
  Na  Na15  1  0.46300400  0.35649800  0.39349700  1
  Na  Na16  1  0.53702100  0.14350100  0.10649300  1
  Na  Na17  1  0.53702000  0.64350100  0.60649300  1
  Na  Na18  1  0.53700900  0.35650100  0.89349000  1
  Na  Na19  1  0.53700900  0.85650100  0.39349000  1
  Na  Na20  1  0.96301500  0.14349800  0.10647800  1
  Na  Na21  1  0.96301500  0.64349800  0.60647800  1
  Na  Na22  1  0.96300100  0.35649800  0.89349800  1
  Na  Na23  1  0.96300100  0.85649800  0.39349800  1
  Mn  Mn24  1  0.25000200  0.00002600  0.25001800  1
  Mn  Mn25  1  0.74999600  0.00000700  0.75001200  1
  Mn  Mn26  1  0.25000200  0.50002600  0.75001800  1
  Mn  Mn27  1  0.74999600  0.50000700  0.25001200  1
  O  O28  1  0.99840300  0.59323000  0.34322500  1
  O  O29  1  0.99840300  0.09323000  0.84322500  1
  O  O30  1  0.25001200  0.71743900  0.71901800  1
  O  O31  1  0.25001200  0.21743900  0.21901800  1
  O  O32  1  0.25000400  0.46904000  0.96743300  1
  O  O33  1  0.25000400  0.96904000  0.46743300  1
  O  O34  1  0.50159400  0.59323300  0.34322400  1
  O  O35  1  0.50159400  0.09323300  0.84322400  1
  O  O36  1  0.49840200  0.40678000  0.65677800  1
  O  O37  1  0.49840200  0.90678000  0.15677800  1
  O  O38  1  0.75001000  0.28257800  0.28096700  1
  O  O39  1  0.75001000  0.78257800  0.78096700  1
  O  O40  1  0.75000600  0.53097600  0.03258000  1
  O  O41  1  0.75000600  0.03097600  0.53258000  1
  O  O42  1  0.00161700  0.40678100  0.65677200  1
  O  O43  1  0.00161700  0.90678100  0.15677200  1
