# generated using pymatgen
data_Ti3MnV2(PO4)6
_symmetry_space_group_name_H-M   'P 1'
_cell_length_a   8.59099428
_cell_length_b   8.59099428
_cell_length_c   8.59099501
_cell_angle_alpha   60.88869350
_cell_angle_beta   60.88869350
_cell_angle_gamma   60.88869240
_symmetry_Int_Tables_number   1
_chemical_formula_structural   Ti3MnV2(PO4)6
_chemical_formula_sum   'Ti3 Mn1 V2 P6 O24'
_cell_volume   457.32973052
_cell_formula_units_Z   1
loop_
 _symmetry_equiv_pos_site_id
 _symmetry_equiv_pos_as_xyz
  1  'x, y, z'
loop_
 _atom_site_type_symbol
 _atom_site_label
 _atom_site_symmetry_multiplicity
 _atom_site_fract_x
 _atom_site_fract_y
 _atom_site_fract_z
 _atom_site_occupancy
  Ti  Ti0  1  0.64584600  0.64584600  0.64584600  1
  Ti  Ti1  1  0.85670400  0.85670400  0.85670400  1
  Ti  Ti2  1  0.35413300  0.35413300  0.35413300  1
  Mn  Mn3  1  0.14474700  0.14474700  0.14474700  1
  V  V4  1  0.00079400  0.00079400  0.00079400  1
  V  V5  1  0.50157200  0.50157200  0.50157200  1
  P  P6  1  0.54711300  0.95211400  0.24855600  1
  P  P7  1  0.24855600  0.54711300  0.95211400  1
  P  P8  1  0.95211400  0.24855600  0.54711300  1
  P  P9  1  0.04462200  0.74624300  0.45815200  1
  P  P10  1  0.74624300  0.45815200  0.04462200  1
  P  P11  1  0.45815200  0.04462200  0.74624300  1
  O  O12  1  0.31088500  0.49687800  0.11979000  1
  O  O13  1  0.11979000  0.31088500  0.49687800  1
  O  O14  1  0.49687800  0.11979000  0.31088500  1
  O  O15  1  0.74461800  0.94041600  0.09016300  1
  O  O16  1  0.40025800  0.97827900  0.18496600  1
  O  O17  1  0.57190500  0.75835900  0.41217200  1
  O  O18  1  0.09016300  0.74461800  0.94041600  1
  O  O19  1  0.41217200  0.57190500  0.75835900  1
  O  O20  1  0.99890400  0.81341200  0.61929100  1
  O  O21  1  0.75835900  0.41217200  0.57190500  1
  O  O22  1  0.04971300  0.89825300  0.26612000  1
  O  O23  1  0.81341200  0.61929100  0.99890400  1
  O  O24  1  0.18496600  0.40025800  0.97827900  1
  O  O25  1  0.94041600  0.09016300  0.74461800  1
  O  O26  1  0.23942400  0.58512800  0.44674800  1
  O  O27  1  0.97827900  0.18496600  0.40025800  1
  O  O28  1  0.58512800  0.44674800  0.23942400  1
  O  O29  1  0.89825300  0.26612000  0.04971300  1
  O  O30  1  0.44674800  0.23942400  0.58512800  1
  O  O31  1  0.61929100  0.99890400  0.81341200  1
  O  O32  1  0.26612000  0.04971300  0.89825300  1
  O  O33  1  0.51785400  0.88842700  0.66745100  1
  O  O34  1  0.88842700  0.66745100  0.51785400  1
  O  O35  1  0.66745100  0.51785400  0.88842700  1
