# generated using pymatgen
data_Mn6OF11
_symmetry_space_group_name_H-M   'P 1'
_cell_length_a   5.89718400
_cell_length_b   4.96321100
_cell_length_c   16.22683032
_cell_angle_alpha   89.22947519
_cell_angle_beta   90.00000000
_cell_angle_gamma   90.00000000
_symmetry_Int_Tables_number   1
_chemical_formula_structural   Mn6OF11
_chemical_formula_sum   'Mn12 O2 F22'
_cell_volume   474.89963851
_cell_formula_units_Z   2
loop_
 _symmetry_equiv_pos_site_id
 _symmetry_equiv_pos_as_xyz
  1  'x, y, z'
loop_
 _atom_site_type_symbol
 _atom_site_label
 _atom_site_symmetry_multiplicity
 _atom_site_fract_x
 _atom_site_fract_y
 _atom_site_fract_z
 _atom_site_occupancy
  Mn  Mn0  1  0.83277700  0.99670900  0.41616400  1
  Mn  Mn1  1  0.16658900  0.98486800  0.24526800  1
  Mn  Mn2  1  0.85542200  0.99252700  0.08609000  1
  Mn  Mn3  1  0.83341100  0.98486800  0.74526800  1
  Mn  Mn4  1  0.14457800  0.99252700  0.58609000  1
  Mn  Mn5  1  0.16722300  0.99670900  0.91616400  1
  Mn  Mn6  1  0.68943400  0.52538500  0.58760700  1
  Mn  Mn7  1  0.67002300  0.48542100  0.91920600  1
  Mn  Mn8  1  0.66575500  0.50441600  0.24915200  1
  Mn  Mn9  1  0.31056600  0.52538500  0.08760700  1
  Mn  Mn10  1  0.32997700  0.48542100  0.41920600  1
  Mn  Mn11  1  0.33424500  0.50441600  0.74915200  1
  O  O12  1  0.91248700  0.79497400  0.63541300  1
  O  O13  1  0.08751300  0.79497400  0.13541300  1
  F  F14  1  0.89139800  0.76413500  0.30926700  1
  F  F15  1  0.88555800  0.77587200  0.97637900  1
  F  F16  1  0.11444200  0.77587200  0.47637900  1
  F  F17  1  0.10860200  0.76413500  0.80926700  1
  F  F18  1  0.60572800  0.74235000  0.13773400  1
  F  F19  1  0.39231400  0.72640000  0.30844900  1
  F  F20  1  0.60783000  0.71489400  0.47274000  1
  F  F21  1  0.39427200  0.74235000  0.63773400  1
  F  F22  1  0.60768600  0.72640000  0.80844900  1
  F  F23  1  0.39217000  0.71489400  0.97274000  1
  F  F24  1  0.62797100  0.24786600  0.03257800  1
  F  F25  1  0.38365800  0.28775300  0.19369100  1
  F  F26  1  0.60622500  0.26931400  0.36072300  1
  F  F27  1  0.37202900  0.24786600  0.53257800  1
  F  F28  1  0.39377500  0.26931400  0.86072300  1
  F  F29  1  0.61634200  0.28775300  0.69369100  1
  F  F30  1  0.87925800  0.22962200  0.18986500  1
  F  F31  1  0.89444200  0.23687900  0.52377300  1
  F  F32  1  0.11061800  0.22061500  0.35590200  1
  F  F33  1  0.10555800  0.23687900  0.02377300  1
  F  F34  1  0.88938200  0.22061500  0.85590200  1
  F  F35  1  0.12074200  0.22962200  0.68986500  1
