# generated using pymatgen
data_Na5VO4
_symmetry_space_group_name_H-M   'P 1'
_cell_length_a   10.44382800
_cell_length_b   10.69326900
_cell_length_c   10.82132300
_cell_angle_alpha   90.00000000
_cell_angle_beta   90.00000000
_cell_angle_gamma   90.00000000
_symmetry_Int_Tables_number   1
_chemical_formula_structural   Na5VO4
_chemical_formula_sum   'Na40 V8 O32'
_cell_volume   1208.51087581
_cell_formula_units_Z   8
loop_
 _symmetry_equiv_pos_site_id
 _symmetry_equiv_pos_as_xyz
  1  'x, y, z'
loop_
 _atom_site_type_symbol
 _atom_site_label
 _atom_site_symmetry_multiplicity
 _atom_site_fract_x
 _atom_site_fract_y
 _atom_site_fract_z
 _atom_site_occupancy
  Na  Na0  1  0.16771000  0.89323000  0.11450400  1
  Na  Na1  1  0.33229000  0.89323000  0.61450400  1
  Na  Na2  1  0.85534800  0.88529200  0.39888700  1
  Na  Na3  1  0.64465200  0.88529200  0.89888700  1
  Na  Na4  1  0.60087100  0.88092300  0.16187700  1
  Na  Na5  1  0.89912900  0.88092300  0.66187700  1
  Na  Na6  1  0.41204600  0.87758600  0.35466800  1
  Na  Na7  1  0.08795400  0.87758600  0.85466800  1
  Na  Na8  1  0.13595400  0.84591800  0.38138400  1
  Na  Na9  1  0.36404600  0.84591800  0.88138400  1
  Na  Na10  1  0.86404600  0.65408200  0.88138400  1
  Na  Na11  1  0.63595400  0.65408200  0.38138400  1
  Na  Na12  1  0.91204600  0.62241400  0.35466800  1
  Na  Na13  1  0.58795400  0.62241400  0.85466800  1
  Na  Na14  1  0.39912900  0.61907700  0.66187700  1
  Na  Na15  1  0.10087100  0.61907700  0.16187700  1
  Na  Na16  1  0.35534800  0.61470800  0.39888700  1
  Na  Na17  1  0.14465200  0.61470800  0.89888700  1
  Na  Na18  1  0.83229000  0.60677000  0.61450400  1
  Na  Na19  1  0.66771000  0.60677000  0.11450400  1
  Na  Na20  1  0.33229000  0.39323000  0.88549600  1
  Na  Na21  1  0.16771000  0.39323000  0.38549600  1
  Na  Na22  1  0.85534800  0.38529200  0.10111300  1
  Na  Na23  1  0.64465200  0.38529200  0.60111300  1
  Na  Na24  1  0.60087100  0.38092300  0.33812300  1
  Na  Na25  1  0.89912900  0.38092300  0.83812300  1
  Na  Na26  1  0.41204600  0.37758600  0.14533200  1
  Na  Na27  1  0.08795400  0.37758600  0.64533200  1
  Na  Na28  1  0.36404600  0.34591800  0.61861600  1
  Na  Na29  1  0.13595400  0.34591800  0.11861600  1
  Na  Na30  1  0.86404600  0.15408200  0.61861600  1
  Na  Na31  1  0.63595400  0.15408200  0.11861600  1
  Na  Na32  1  0.91204600  0.12241400  0.14533200  1
  Na  Na33  1  0.58795400  0.12241400  0.64533200  1
  Na  Na34  1  0.39912900  0.11907700  0.83812300  1
  Na  Na35  1  0.10087100  0.11907700  0.33812300  1
  Na  Na36  1  0.35534800  0.11470800  0.10111300  1
  Na  Na37  1  0.14465200  0.11470800  0.60111300  1
  Na  Na38  1  0.83229000  0.10677000  0.88549600  1
  Na  Na39  1  0.66771000  0.10677000  0.38549600  1
  V  V40  1  0.88513500  0.85394500  0.12702400  1
  V  V41  1  0.61486500  0.85394500  0.62702400  1
  V  V42  1  0.11486500  0.64605500  0.62702400  1
  V  V43  1  0.38513500  0.64605500  0.12702400  1
  V  V44  1  0.88513500  0.35394500  0.37297600  1
  V  V45  1  0.61486500  0.35394500  0.87297600  1
  V  V46  1  0.38513500  0.14605500  0.37297600  1
  V  V47  1  0.11486500  0.14605500  0.87297600  1
  O  O48  1  0.77016100  0.97709200  0.05054800  1
  O  O49  1  0.72983900  0.97709200  0.55054800  1
  O  O50  1  0.99678000  0.94856300  0.24226800  1
  O  O51  1  0.50322000  0.94856300  0.74226800  1
  O  O52  1  0.99888600  0.75990800  0.01989800  1
  O  O53  1  0.50111400  0.75990800  0.51989800  1
  O  O54  1  0.77698400  0.75533400  0.23815000  1
  O  O55  1  0.72301600  0.75533400  0.73815000  1
  O  O56  1  0.27698400  0.74466600  0.23815000  1
  O  O57  1  0.22301600  0.74466600  0.73815000  1
  O  O58  1  0.00111400  0.74009200  0.51989800  1
  O  O59  1  0.49888600  0.74009200  0.01989800  1
  O  O60  1  0.49678000  0.55143700  0.24226800  1
  O  O61  1  0.00322000  0.55143700  0.74226800  1
  O  O62  1  0.22983900  0.52290800  0.55054800  1
  O  O63  1  0.27016100  0.52290800  0.05054800  1
  O  O64  1  0.72983900  0.47709200  0.94945200  1
  O  O65  1  0.77016100  0.47709200  0.44945200  1
  O  O66  1  0.99678000  0.44856300  0.25773200  1
  O  O67  1  0.50322000  0.44856300  0.75773200  1
  O  O68  1  0.50111400  0.25990800  0.98010200  1
  O  O69  1  0.99888600  0.25990800  0.48010200  1
  O  O70  1  0.77698400  0.25533400  0.26185000  1
  O  O71  1  0.72301600  0.25533400  0.76185000  1
  O  O72  1  0.27698400  0.24466600  0.26185000  1
  O  O73  1  0.22301600  0.24466600  0.76185000  1
  O  O74  1  0.00111400  0.24009200  0.98010200  1
  O  O75  1  0.49888600  0.24009200  0.48010200  1
  O  O76  1  0.00322000  0.05143700  0.75773200  1
  O  O77  1  0.49678000  0.05143700  0.25773200  1
  O  O78  1  0.22983900  0.02290800  0.94945200  1
  O  O79  1  0.27016100  0.02290800  0.44945200  1
