# generated using pymatgen
data_Na5Bi2P(CO4)4
_symmetry_space_group_name_H-M   'P 1'
_cell_length_a   10.43549055
_cell_length_b   10.43549055
_cell_length_c   10.25688866
_cell_angle_alpha   60.70188694
_cell_angle_beta   60.70188694
_cell_angle_gamma   91.40245656
_symmetry_Int_Tables_number   1
_chemical_formula_structural   Na5Bi2P(CO4)4
_chemical_formula_sum   'Na10 Bi4 P2 C8 O32'
_cell_volume   796.69374942
_cell_formula_units_Z   2
loop_
 _symmetry_equiv_pos_site_id
 _symmetry_equiv_pos_as_xyz
  1  'x, y, z'
loop_
 _atom_site_type_symbol
 _atom_site_label
 _atom_site_symmetry_multiplicity
 _atom_site_fract_x
 _atom_site_fract_y
 _atom_site_fract_z
 _atom_site_occupancy
  Na  Na0  1  0.07112900  0.32309900  0.36473600  1
  Na  Na1  1  0.32347000  0.07113600  0.24108000  1
  Na  Na2  1  0.32309900  0.07112900  0.86473600  1
  Na  Na3  1  0.06605900  0.93394100  0.75000000  1
  Na  Na4  1  0.07113600  0.32347000  0.74108000  1
  Na  Na5  1  0.93394100  0.06605900  0.25000000  1
  Na  Na6  1  0.92886400  0.67653000  0.25892000  1
  Na  Na7  1  0.67690100  0.92887100  0.13526400  1
  Na  Na8  1  0.67653000  0.92886400  0.75892000  1
  Na  Na9  1  0.92887100  0.67690100  0.63526400  1
  Bi  Bi10  1  0.50000000  0.00000000  0.50000000  1
  Bi  Bi11  1  0.50000000  0.50000000  0.00000000  1
  Bi  Bi12  1  0.50000000  0.50000000  0.50000000  1
  Bi  Bi13  1  0.00000000  0.50000000  0.00000000  1
  P  P14  1  0.87612800  0.12387200  0.75000000  1
  P  P15  1  0.12387200  0.87612800  0.25000000  1
  C  C16  1  0.27984700  0.72268600  0.94052900  1
  C  C17  1  0.27025000  0.33284100  0.94791500  1
  C  C18  1  0.27731400  0.72015300  0.55947100  1
  C  C19  1  0.66715900  0.72975000  0.55208500  1
  C  C20  1  0.33284100  0.27025000  0.44791500  1
  C  C21  1  0.72268600  0.27984700  0.44052900  1
  C  C22  1  0.72015300  0.27731400  0.05947100  1
  C  C23  1  0.72975000  0.66715900  0.05208500  1
  O  O24  1  0.32975500  0.13861700  0.46207300  1
  O  O25  1  0.14878100  0.60327300  0.06554300  1
  O  O26  1  0.28226400  0.33327300  0.06858000  1
  O  O27  1  0.59456500  0.28697900  0.06488100  1
  O  O28  1  0.13861700  0.32975500  0.96207300  1
  O  O29  1  0.69475600  0.05587700  0.87502800  1
  O  O30  1  0.93894600  0.06220500  0.87406400  1
  O  O31  1  0.28459700  0.85368200  0.81727000  1
  O  O32  1  0.38623700  0.33268700  0.81774800  1
  O  O33  1  0.66731300  0.61376300  0.68225200  1
  O  O34  1  0.14631800  0.71540300  0.68273000  1
  O  O35  1  0.93779500  0.06105400  0.62593600  1
  O  O36  1  0.94412300  0.30524400  0.62497200  1
  O  O37  1  0.33327300  0.28226400  0.56858000  1
  O  O38  1  0.60327300  0.14878100  0.56554300  1
  O  O39  1  0.28697900  0.59456500  0.56488100  1
  O  O40  1  0.71302100  0.40543500  0.43511900  1
  O  O41  1  0.66672700  0.71773600  0.43142000  1
  O  O42  1  0.39672700  0.85121900  0.43445700  1
  O  O43  1  0.05587700  0.69475600  0.37502800  1
  O  O44  1  0.06220500  0.93894600  0.37406400  1
  O  O45  1  0.85368200  0.28459700  0.31727000  1
  O  O46  1  0.33268700  0.38623700  0.31774800  1
  O  O47  1  0.71540300  0.14631800  0.18273000  1
  O  O48  1  0.61376300  0.66731300  0.18225200  1
  O  O49  1  0.06105400  0.93779500  0.12593600  1
  O  O50  1  0.30524400  0.94412300  0.12497200  1
  O  O51  1  0.86138300  0.67024500  0.03792700  1
  O  O52  1  0.40543500  0.71302100  0.93511900  1
  O  O53  1  0.71773600  0.66672700  0.93142000  1
  O  O54  1  0.85121900  0.39672700  0.93445700  1
  O  O55  1  0.67024500  0.86138300  0.53792700  1
