# generated using pymatgen
data_Ti3Mn2Fe(PO4)6
_symmetry_space_group_name_H-M   'P 1'
_cell_length_a   8.65999350
_cell_length_b   8.65999350
_cell_length_c   8.65999375
_cell_angle_alpha   60.19751275
_cell_angle_beta   60.19751275
_cell_angle_gamma   60.19751122
_symmetry_Int_Tables_number   1
_chemical_formula_structural   Ti3Mn2Fe(PO4)6
_chemical_formula_sum   'Ti3 Mn2 Fe1 P6 O24'
_cell_volume   461.29182529
_cell_formula_units_Z   1
loop_
 _symmetry_equiv_pos_site_id
 _symmetry_equiv_pos_as_xyz
  1  'x, y, z'
loop_
 _atom_site_type_symbol
 _atom_site_label
 _atom_site_symmetry_multiplicity
 _atom_site_fract_x
 _atom_site_fract_y
 _atom_site_fract_z
 _atom_site_occupancy
  Ti  Ti0  1  0.85588900  0.85588900  0.85588900  1
  Ti  Ti1  1  0.64602900  0.64602900  0.64602900  1
  Ti  Ti2  1  0.35264700  0.35264700  0.35264700  1
  Mn  Mn3  1  0.00401000  0.00401000  0.00401000  1
  Mn  Mn4  1  0.50050400  0.50050400  0.50050400  1
  Fe  Fe5  1  0.14520100  0.14520100  0.14520100  1
  P  P6  1  0.74709600  0.45817600  0.04410700  1
  P  P7  1  0.45817600  0.04410700  0.74709600  1
  P  P8  1  0.04410700  0.74709600  0.45817600  1
  P  P9  1  0.95315500  0.24807000  0.54498500  1
  P  P10  1  0.54498500  0.95315500  0.24807000  1
  P  P11  1  0.24807000  0.54498500  0.95315500  1
  O  O12  1  0.88507700  0.67600300  0.51301500  1
  O  O13  1  0.67600300  0.51301500  0.88507700  1
  O  O14  1  0.93931200  0.08763500  0.74132300  1
  O  O15  1  0.51301500  0.88507700  0.67600300  1
  O  O16  1  0.98284900  0.19011100  0.39322000  1
  O  O17  1  0.76142900  0.41446700  0.56947600  1
  O  O18  1  0.74132300  0.93931200  0.08763500  1
  O  O19  1  0.56947600  0.76142900  0.41446700  1
  O  O20  1  0.80972200  0.62105900  0.99816000  1
  O  O21  1  0.41446700  0.56947600  0.76142900  1
  O  O22  1  0.90447300  0.26823800  0.05278900  1
  O  O23  1  0.62105900  0.99816000  0.80972200  1
  O  O24  1  0.39322000  0.98284900  0.19011100  1
  O  O25  1  0.08763500  0.74132300  0.93931200  1
  O  O26  1  0.58157000  0.44761700  0.23607500  1
  O  O27  1  0.19011100  0.39322000  0.98284900  1
  O  O28  1  0.44761700  0.23607500  0.58157000  1
  O  O29  1  0.26823800  0.05278900  0.90447300  1
  O  O30  1  0.23607500  0.58157000  0.44761700  1
  O  O31  1  0.99816000  0.80972200  0.62105900  1
  O  O32  1  0.49799400  0.11934100  0.30917800  1
  O  O33  1  0.05278900  0.90447300  0.26823800  1
  O  O34  1  0.30917800  0.49799400  0.11934100  1
  O  O35  1  0.11934100  0.30917800  0.49799400  1
