# generated using pymatgen
data_NaV5O8
_symmetry_space_group_name_H-M   'P 1'
_cell_length_a   8.64831900
_cell_length_b   8.64831900
_cell_length_c   8.64831900
_cell_angle_alpha   90.00000000
_cell_angle_beta   90.00000000
_cell_angle_gamma   90.00000000
_symmetry_Int_Tables_number   1
_chemical_formula_structural   NaV5O8
_chemical_formula_sum   'Na4 V20 O32'
_cell_volume   646.83736846
_cell_formula_units_Z   4
loop_
 _symmetry_equiv_pos_site_id
 _symmetry_equiv_pos_as_xyz
  1  'x, y, z'
loop_
 _atom_site_type_symbol
 _atom_site_label
 _atom_site_symmetry_multiplicity
 _atom_site_fract_x
 _atom_site_fract_y
 _atom_site_fract_z
 _atom_site_occupancy
  Na  Na0  1  0.12500000  0.87500000  0.37500000  1
  Na  Na1  1  0.37500000  0.12500000  0.87500000  1
  Na  Na2  1  0.62500000  0.62500000  0.62500000  1
  Na  Na3  1  0.87500000  0.37500000  0.12500000  1
  V  V4  1  0.99978900  0.99978900  0.99978900  1
  V  V5  1  0.00021100  0.49978900  0.50021100  1
  V  V6  1  0.12566200  0.12433800  0.62500000  1
  V  V7  1  0.12433800  0.62500000  0.12566200  1
  V  V8  1  0.12500000  0.37433800  0.87566200  1
  V  V9  1  0.25021100  0.25021100  0.25021100  1
  V  V10  1  0.24978900  0.74978900  0.75021100  1
  V  V11  1  0.37566200  0.37500000  0.62566200  1
  V  V12  1  0.37500000  0.62566200  0.37566200  1
  V  V13  1  0.37433800  0.87566200  0.12500000  1
  V  V14  1  0.50021100  0.00021100  0.49978900  1
  V  V15  1  0.49978900  0.50021100  0.00021100  1
  V  V16  1  0.62500000  0.12566200  0.12433800  1
  V  V17  1  0.62566200  0.37566200  0.37500000  1
  V  V18  1  0.62433800  0.87500000  0.87433800  1
  V  V19  1  0.75021100  0.24978900  0.74978900  1
  V  V20  1  0.74978900  0.75021100  0.24978900  1
  V  V21  1  0.87566200  0.12500000  0.37433800  1
  V  V22  1  0.87433800  0.62433800  0.87500000  1
  V  V23  1  0.87500000  0.87433800  0.62433800  1
  O  O24  1  0.14119900  0.38560600  0.10803000  1
  O  O25  1  0.14197000  0.86439400  0.10880100  1
  O  O26  1  0.13473300  0.36526700  0.63473300  1
  O  O27  1  0.10803000  0.14119900  0.38560600  1
  O  O28  1  0.11439400  0.89197000  0.64119900  1
  O  O29  1  0.10880100  0.14197000  0.86439400  1
  O  O30  1  0.13560600  0.60880100  0.35803000  1
  O  O31  1  0.11526700  0.61526700  0.88473300  1
  O  O32  1  0.38560600  0.10803000  0.14119900  1
  O  O33  1  0.38473300  0.38473300  0.38473300  1
  O  O34  1  0.35803000  0.13560600  0.60880100  1
  O  O35  1  0.36439400  0.39119900  0.85803000  1
  O  O36  1  0.36526700  0.63473300  0.13473300  1
  O  O37  1  0.39119900  0.85803000  0.36439400  1
  O  O38  1  0.35880100  0.61439400  0.60803000  1
  O  O39  1  0.39197000  0.85880100  0.88560600  1
  O  O40  1  0.63473300  0.13473300  0.36526700  1
  O  O41  1  0.60880100  0.35803000  0.13560600  1
  O  O42  1  0.60803000  0.35880100  0.61439400  1
  O  O43  1  0.61439400  0.60803000  0.35880100  1
  O  O44  1  0.64119900  0.11439400  0.89197000  1
  O  O45  1  0.64197000  0.63560600  0.89119900  1
  O  O46  1  0.61526700  0.88473300  0.11526700  1
  O  O47  1  0.63560600  0.89119900  0.64197000  1
  O  O48  1  0.86439400  0.10880100  0.14197000  1
  O  O49  1  0.88473300  0.11526700  0.61526700  1
  O  O50  1  0.85803000  0.36439400  0.39119900  1
  O  O51  1  0.89197000  0.64119900  0.11439400  1
  O  O52  1  0.89119900  0.64197000  0.63560600  1
  O  O53  1  0.88560600  0.39197000  0.85880100  1
  O  O54  1  0.85880100  0.88560600  0.39197000  1
  O  O55  1  0.86526700  0.86526700  0.86526700  1
