# generated using pymatgen
data_Li2V3FeO8
_symmetry_space_group_name_H-M   'P 1'
_cell_length_a   5.76938443
_cell_length_b   5.77979076
_cell_length_c   9.76102354
_cell_angle_alpha   89.86786050
_cell_angle_beta   90.06618759
_cell_angle_gamma   120.05968042
_symmetry_Int_Tables_number   1
_chemical_formula_structural   Li2V3FeO8
_chemical_formula_sum   'Li4 V6 Fe2 O16'
_cell_volume   281.71173720
_cell_formula_units_Z   2
loop_
 _symmetry_equiv_pos_site_id
 _symmetry_equiv_pos_as_xyz
  1  'x, y, z'
loop_
 _atom_site_type_symbol
 _atom_site_label
 _atom_site_symmetry_multiplicity
 _atom_site_fract_x
 _atom_site_fract_y
 _atom_site_fract_z
 _atom_site_occupancy
  Li  Li0  1  0.33449500  0.66671800  0.89322300  1
  Li  Li1  1  0.99737000  0.99766300  0.99422100  1
  Li  Li2  1  0.00263000  0.00029200  0.49422100  1
  Li  Li3  1  0.66550500  0.33222300  0.39322300  1
  V  V4  1  0.17295900  0.82148500  0.21522600  1
  V  V5  1  0.17462900  0.35099500  0.21190900  1
  V  V6  1  0.64627000  0.82247700  0.21537900  1
  V  V7  1  0.35373000  0.17620700  0.71537900  1
  V  V8  1  0.82704100  0.64852600  0.71522600  1
  V  V9  1  0.82537100  0.17636500  0.71190900  1
  Fe  Fe10  1  0.33576900  0.66773300  0.49714000  1
  Fe  Fe11  1  0.66423100  0.33196300  0.99714000  1
  O  O12  1  0.16377800  0.83899400  0.60730300  1
  O  O13  1  0.03291600  0.51576100  0.33493300  1
  O  O14  1  0.33329600  0.66972600  0.09330200  1
  O  O15  1  0.99883400  0.99911100  0.30779400  1
  O  O16  1  0.00116600  0.00027600  0.80779400  1
  O  O17  1  0.16186500  0.32501500  0.60626300  1
  O  O18  1  0.48330200  0.96597400  0.33550700  1
  O  O19  1  0.48211600  0.51589000  0.33464600  1
  O  O20  1  0.32359900  0.16320800  0.10707500  1
  O  O21  1  0.67640100  0.83960900  0.60707500  1
  O  O22  1  0.51669800  0.48267100  0.83550700  1
  O  O23  1  0.51788400  0.03377500  0.83464600  1
  O  O24  1  0.66670400  0.33642900  0.59330200  1
  O  O25  1  0.83622200  0.67521500  0.10730300  1
  O  O26  1  0.96708400  0.48284500  0.83493300  1
  O  O27  1  0.83813500  0.16315100  0.10626300  1
