# generated using pymatgen
data_Li4Cr3Co2Sn3O16
_symmetry_space_group_name_H-M   'P 1'
_cell_length_a   6.10234957
_cell_length_b   6.07523811
_cell_length_c   9.67817175
_cell_angle_alpha   89.85244870
_cell_angle_beta   90.02720338
_cell_angle_gamma   119.90758263
_symmetry_Int_Tables_number   1
_chemical_formula_structural   Li4Cr3Co2Sn3O16
_chemical_formula_sum   'Li4 Cr3 Co2 Sn3 O16'
_cell_volume   311.01862823
_cell_formula_units_Z   1
loop_
 _symmetry_equiv_pos_site_id
 _symmetry_equiv_pos_as_xyz
  1  'x, y, z'
loop_
 _atom_site_type_symbol
 _atom_site_label
 _atom_site_symmetry_multiplicity
 _atom_site_fract_x
 _atom_site_fract_y
 _atom_site_fract_z
 _atom_site_occupancy
  Li  Li0  1  0.34772500  0.67436900  0.88987800  1
  Li  Li1  1  0.96631400  0.98343900  0.99214900  1
  Li  Li2  1  0.97407200  0.98946400  0.50118700  1
  Li  Li3  1  0.67607000  0.33718800  0.39842000  1
  Cr  Cr4  1  0.66132000  0.83062300  0.21593600  1
  Cr  Cr5  1  0.83285100  0.66302700  0.71112200  1
  Cr  Cr6  1  0.83319200  0.17615400  0.71437400  1
  Co  Co7  1  0.33404600  0.66379900  0.49515600  1
  Co  Co8  1  0.67213200  0.33735700  0.98766000  1
  Sn  Sn9  1  0.17125800  0.83184800  0.21416000  1
  Sn  Sn10  1  0.17172400  0.33866600  0.21334400  1
  Sn  Sn11  1  0.33901900  0.17062700  0.71418200  1
  O  O12  1  0.14616700  0.82694700  0.60007600  1
  O  O13  1  0.03995700  0.51835800  0.34624500  1
  O  O14  1  0.34813100  0.67467300  0.09764300  1
  O  O15  1  0.98799500  0.99343800  0.31761100  1
  O  O16  1  0.98793800  0.99479700  0.80989000  1
  O  O17  1  0.14766800  0.32106100  0.59913900  1
  O  O18  1  0.49763300  0.96325900  0.33745000  1
  O  O19  1  0.49832300  0.53020200  0.33585400  1
  O  O20  1  0.31795700  0.15856700  0.09032900  1
  O  O21  1  0.67476300  0.83433200  0.61558700  1
  O  O22  1  0.54102000  0.49448400  0.83920800  1
  O  O23  1  0.53861400  0.04450500  0.83808800  1
  O  O24  1  0.67798800  0.33999600  0.60283500  1
  O  O25  1  0.82613400  0.67396400  0.10268800  1
  O  O26  1  0.96422300  0.48220000  0.82514800  1
  O  O27  1  0.82576800  0.15295500  0.10248100  1
