# generated using pymatgen
data_CaV5H19O23
_symmetry_space_group_name_H-M   'P 1'
_cell_length_a   9.75342500
_cell_length_b   10.11192719
_cell_length_c   10.88458878
_cell_angle_alpha   89.48775768
_cell_angle_beta   103.99160565
_cell_angle_gamma   109.94795462
_symmetry_Int_Tables_number   1
_chemical_formula_structural   CaV5H19O23
_chemical_formula_sum   'Ca2 V10 H38 O46'
_cell_volume   975.96858109
_cell_formula_units_Z   2
loop_
 _symmetry_equiv_pos_site_id
 _symmetry_equiv_pos_as_xyz
  1  'x, y, z'
loop_
 _atom_site_type_symbol
 _atom_site_label
 _atom_site_symmetry_multiplicity
 _atom_site_fract_x
 _atom_site_fract_y
 _atom_site_fract_z
 _atom_site_occupancy
  Ca  Ca0  1  0.16133700  0.26941800  0.40844500  1
  Ca  Ca1  1  0.83866300  0.73058200  0.59155500  1
  V  V2  1  0.34921600  0.04025000  0.94559800  1
  V  V3  1  0.65078400  0.95975000  0.05440200  1
  V  V4  1  0.65881300  0.28004800  0.09345800  1
  V  V5  1  0.34118700  0.71995200  0.90654200  1
  V  V6  1  0.48186600  0.04357400  0.24421700  1
  V  V7  1  0.51813400  0.95642600  0.75578300  1
  V  V8  1  0.17576400  0.80199600  0.09719900  1
  V  V9  1  0.82423600  0.19800400  0.90280100  1
  V  V10  1  0.52701100  0.26768800  0.79367800  1
  V  V11  1  0.47298900  0.73231200  0.20632200  1
  H  H12  1  0.25656600  0.02251600  0.39571600  1
  H  H13  1  0.74343400  0.97748400  0.60428400  1
  H  H14  1  0.33967200  0.08700700  0.53786700  1
  H  H15  1  0.66032800  0.91299300  0.46213300  1
  H  H16  1  0.16744800  0.07292500  0.19488500  1
  H  H17  1  0.83255200  0.92707500  0.80511500  1
  H  H18  1  0.01250800  0.09469000  0.14122700  1
  H  H19  1  0.98749200  0.90531000  0.85877300  1
  H  H20  1  0.87015300  0.06079700  0.43223500  1
  H  H21  1  0.12984700  0.93920300  0.56776500  1
  H  H22  1  0.81816600  0.12761100  0.30390600  1
  H  H23  1  0.18183400  0.87238900  0.69609400  1
  H  H24  1  0.18422300  0.76775300  0.50139100  1
  H  H25  1  0.81577700  0.23224700  0.49860900  1
  H  H26  1  0.23495300  0.74360200  0.37768000  1
  H  H27  1  0.76504700  0.25639800  0.62232000  1
  H  H28  1  0.00492300  0.37813000  0.17094000  1
  H  H29  1  0.99507700  0.62187000  0.82906000  1
  H  H30  1  0.14545300  0.51166500  0.23475600  1
  H  H31  1  0.85454700  0.48833500  0.76524400  1
  H  H32  1  0.47447400  0.30674000  0.38332300  1
  H  H33  1  0.52552600  0.69326000  0.61667700  1
  H  H34  1  0.46182300  0.45812900  0.36756100  1
  H  H35  1  0.53817700  0.54187100  0.63243900  1
  H  H36  1  0.03410900  0.24705700  0.63951700  1
  H  H37  1  0.96589100  0.75294300  0.36048300  1
  H  H38  1  0.17542100  0.20548500  0.70516800  1
  H  H39  1  0.82457900  0.79451500  0.29483200  1
  H  H40  1  0.23526400  0.50119900  0.61565800  1
  H  H41  1  0.76473600  0.49880100  0.38434200  1
  H  H42  1  0.18715400  0.56261900  0.48480100  1
  H  H43  1  0.81284600  0.43738100  0.51519900  1
  H  H44  1  0.64711100  0.52011100  0.96160100  1
  H  H45  1  0.35288900  0.47988900  0.03839900  1
  H  H46  1  0.64676300  0.69975900  0.93793100  1
  H  H47  1  0.35323700  0.30024100  0.06206900  1
  H  H48  1  0.80667800  0.67821700  0.01747200  1
  H  H49  1  0.19332200  0.32178300  0.98252800  1
  O  O50  1  0.57185000  0.09783200  0.93434800  1
  O  O51  1  0.42815000  0.90216800  0.06565200  1
  O  O52  1  0.44152700  0.17001300  0.09647700  1
  O  O53  1  0.55847300  0.82998700  0.90352300  1
  O  O54  1  0.32817000  0.89372800  0.81923700  1
  O  O55  1  0.67183000  0.10627200  0.18076300  1
  O  O56  1  0.33021600  0.16654700  0.84084400  1
  O  O57  1  0.66978400  0.83345300  0.15915600  1
  O  O58  1  0.27749000  0.95867800  0.22411700  1
  O  O59  1  0.72251000  0.04132200  0.77588300  1
  O  O60  1  0.17552900  0.95740700  0.97825500  1
  O  O61  1  0.82447100  0.04259300  0.02174500  1
  O  O62  1  0.53045300  0.89590500  0.31643100  1
  O  O63  1  0.46954700  0.10409500  0.68356900  1
  O  O64  1  0.72922300  0.30436000  0.79855100  1
  O  O65  1  0.27077700  0.69564000  0.20144900  1
  O  O66  1  0.83481300  0.30217500  0.04832500  1
  O  O67  1  0.16518700  0.69782500  0.95167500  1
  O  O68  1  0.58815200  0.37471500  0.95692200  1
  O  O69  1  0.41184800  0.62528500  0.04307800  1
  O  O70  1  0.53659900  0.15983800  0.36666700  1
  O  O71  1  0.46340100  0.84016200  0.63333300  1
  O  O72  1  0.70989100  0.39557600  0.21411100  1
  O  O73  1  0.29010900  0.60442400  0.78588900  1
  O  O74  1  0.00000300  0.74610200  0.10691200  1
  O  O75  1  0.99999700  0.25389800  0.89308800  1
  O  O76  1  0.47652800  0.37646200  0.69783900  1
  O  O77  1  0.52347200  0.62353800  0.30216100  1
  O  O78  1  0.24485200  0.06834800  0.46971600  1
  O  O79  1  0.75514800  0.93165200  0.53028400  1
  O  O80  1  0.11011400  0.13406900  0.20385400  1
  O  O81  1  0.88988600  0.86593100  0.79614600  1
  O  O82  1  0.89782100  0.14590300  0.38527700  1
  O  O83  1  0.10217900  0.85409700  0.61472300  1
  O  O84  1  0.15523500  0.70712600  0.42236000  1
  O  O85  1  0.84476500  0.29287400  0.57764000  1
  O  O86  1  0.08815200  0.41442300  0.24801800  1
  O  O87  1  0.91184800  0.58557700  0.75198200  1
  O  O88  1  0.40878500  0.36118600  0.38561500  1
  O  O89  1  0.59121500  0.63881400  0.61438500  1
  O  O90  1  0.10975000  0.21048900  0.62307300  1
  O  O91  1  0.89025000  0.78951100  0.37692700  1
  O  O92  1  0.21525300  0.48315800  0.52383000  1
  O  O93  1  0.78474700  0.51684200  0.47617000  1
  O  O94  1  0.70502800  0.63407700  0.95780300  1
  O  O95  1  0.29497200  0.36592300  0.04219700  1
