# generated using pymatgen
data_Na3PH12CO11
_symmetry_space_group_name_H-M   'P 1'
_cell_length_a   12.36572000
_cell_length_b   8.98762500
_cell_length_c   11.98745071
_cell_angle_alpha   57.37177691
_cell_angle_beta   90.00000000
_cell_angle_gamma   90.00000000
_symmetry_Int_Tables_number   1
_chemical_formula_structural   Na3PH12CO11
_chemical_formula_sum   'Na12 P4 H48 C4 O44'
_cell_volume   1122.01760262
_cell_formula_units_Z   4
loop_
 _symmetry_equiv_pos_site_id
 _symmetry_equiv_pos_as_xyz
  1  'x, y, z'
loop_
 _atom_site_type_symbol
 _atom_site_label
 _atom_site_symmetry_multiplicity
 _atom_site_fract_x
 _atom_site_fract_y
 _atom_site_fract_z
 _atom_site_occupancy
  Na  Na0  1  0.06899800  0.34338400  0.75917100  1
  Na  Na1  1  0.75954500  0.35844100  0.77375500  1
  Na  Na2  1  0.33550800  0.99899900  0.23125500  1
  Na  Na3  1  0.25954500  0.64155900  0.72624500  1
  Na  Na4  1  0.56899800  0.65661600  0.74082900  1
  Na  Na5  1  0.83550800  0.00100100  0.26874500  1
  Na  Na6  1  0.16449200  0.99899900  0.73125500  1
  Na  Na7  1  0.43100200  0.34338400  0.25917100  1
  Na  Na8  1  0.74045500  0.35844100  0.27375500  1
  Na  Na9  1  0.66449200  0.00100100  0.76874500  1
  Na  Na10  1  0.24045500  0.64155900  0.22624500  1
  Na  Na11  1  0.93100200  0.65661600  0.24082900  1
  P  P12  1  0.58964500  0.86112500  0.29162900  1
  P  P13  1  0.08964500  0.13887500  0.20837100  1
  P  P14  1  0.91035500  0.86112500  0.79162900  1
  P  P15  1  0.41035500  0.13887500  0.70837100  1
  H  H16  1  0.54289800  0.14027500  0.86636700  1
  H  H17  1  0.88058900  0.09773700  0.96989400  1
  H  H18  1  0.26396400  0.13109700  0.89328500  1
  H  H19  1  0.61363200  0.19251000  0.94512600  1
  H  H20  1  0.24191000  0.40412000  0.60405100  1
  H  H21  1  0.57908800  0.39984900  0.63409100  1
  H  H22  1  0.18926600  0.16000400  0.98725800  1
  H  H23  1  0.18174400  0.58200400  0.50645000  1
  H  H24  1  0.40553800  0.31820300  0.86077700  1
  H  H25  1  0.93830700  0.22906200  0.99718100  1
  H  H26  1  0.63464800  0.58834000  0.54289800  1
  H  H27  1  0.91870100  0.48402700  0.73352900  1
  H  H28  1  0.41870100  0.51597300  0.76647100  1
  H  H29  1  0.13464800  0.41166000  0.95710200  1
  H  H30  1  0.43830700  0.77093800  0.50281900  1
  H  H31  1  0.90553800  0.68179700  0.63922300  1
  H  H32  1  0.68174400  0.41799600  0.99355000  1
  H  H33  1  0.68926600  0.83999600  0.51274200  1
  H  H34  1  0.07908800  0.60015100  0.86590900  1
  H  H35  1  0.74191000  0.59588000  0.89594900  1
  H  H36  1  0.11363200  0.80749000  0.55487400  1
  H  H37  1  0.76396400  0.86890300  0.60671500  1
  H  H38  1  0.38058900  0.90226300  0.53010600  1
  H  H39  1  0.04289800  0.85972500  0.63363300  1
  H  H40  1  0.95710200  0.14027500  0.36636700  1
  H  H41  1  0.61941100  0.09773700  0.46989400  1
  H  H42  1  0.23603600  0.13109700  0.39328500  1
  H  H43  1  0.88636800  0.19251000  0.44512600  1
  H  H44  1  0.25809000  0.40412000  0.10405100  1
  H  H45  1  0.92091200  0.39984900  0.13409100  1
  H  H46  1  0.31073400  0.16000400  0.48725800  1
  H  H47  1  0.31825600  0.58200400  0.00645000  1
  H  H48  1  0.09446200  0.31820300  0.36077700  1
  H  H49  1  0.56169300  0.22906200  0.49718100  1
  H  H50  1  0.86535200  0.58834000  0.04289800  1
  H  H51  1  0.58129900  0.48402700  0.23352900  1
  H  H52  1  0.08129900  0.51597300  0.26647100  1
  H  H53  1  0.36535200  0.41166000  0.45710200  1
  H  H54  1  0.06169300  0.77093800  0.00281900  1
  H  H55  1  0.59446200  0.68179700  0.13922300  1
  H  H56  1  0.81825600  0.41799600  0.49355000  1
  H  H57  1  0.81073400  0.83999600  0.01274200  1
  H  H58  1  0.42091200  0.60015100  0.36590900  1
  H  H59  1  0.75809000  0.59588000  0.39594900  1
  H  H60  1  0.38636800  0.80749000  0.05487400  1
  H  H61  1  0.73603600  0.86890300  0.10671500  1
  H  H62  1  0.11941100  0.90226300  0.03010600  1
  H  H63  1  0.45710200  0.85972500  0.13363300  1
  C  C64  1  0.08662300  0.89194500  0.29121700  1
  C  C65  1  0.58662300  0.10805500  0.20878300  1
  C  C66  1  0.41337700  0.89194500  0.79121700  1
  C  C67  1  0.91337700  0.10805500  0.70878300  1
  O  O68  1  0.61967800  0.14871900  0.88665600  1
  O  O69  1  0.18691100  0.12743300  0.92000300  1
  O  O70  1  0.91063600  0.21914200  0.92276600  1
  O  O71  1  0.20238000  0.50279600  0.60017000  1
  O  O72  1  0.61535100  0.49772000  0.63527800  1
  O  O73  1  0.60359000  0.83995700  0.17295100  1
  O  O74  1  0.90855000  0.57060300  0.63924900  1
  O  O75  1  0.17779900  0.81050600  0.32116900  1
  O  O76  1  0.47970400  0.78854000  0.36090300  1
  O  O77  1  0.40855000  0.42939700  0.86075100  1
  O  O78  1  0.99428900  0.82139900  0.31987200  1
  O  O79  1  0.68789000  0.78676100  0.38778800  1
  O  O80  1  0.11535100  0.50228000  0.86472200  1
  O  O81  1  0.70238000  0.49720400  0.89983000  1
  O  O82  1  0.41063600  0.78085800  0.57723400  1
  O  O83  1  0.68691100  0.87256700  0.57999700  1
  O  O84  1  0.18789000  0.21323900  0.11221200  1
  O  O85  1  0.49428900  0.17860100  0.18012800  1
  O  O86  1  0.11967800  0.85128100  0.61334400  1
  O  O87  1  0.97970400  0.21146000  0.13909700  1
  O  O88  1  0.67779900  0.18949400  0.17883100  1
  O  O89  1  0.89641000  0.83995700  0.67295100  1
  O  O90  1  0.10359000  0.16004300  0.32704900  1
  O  O91  1  0.32220100  0.81050600  0.82116900  1
  O  O92  1  0.02029600  0.78854000  0.86090300  1
  O  O93  1  0.88032200  0.14871900  0.38665600  1
  O  O94  1  0.50571100  0.82139900  0.81987200  1
  O  O95  1  0.81211000  0.78676100  0.88778800  1
  O  O96  1  0.31308900  0.12743300  0.42000300  1
  O  O97  1  0.58936400  0.21914200  0.42276600  1
  O  O98  1  0.29762000  0.50279600  0.10017000  1
  O  O99  1  0.88464900  0.49772000  0.13527800  1
  O  O100  1  0.31211000  0.21323900  0.61221200  1
  O  O101  1  0.00571100  0.17860100  0.68012800  1
  O  O102  1  0.59145000  0.57060300  0.13924900  1
  O  O103  1  0.52029600  0.21146000  0.63909700  1
  O  O104  1  0.82220100  0.18949400  0.67883100  1
  O  O105  1  0.09145000  0.42939700  0.36075100  1
  O  O106  1  0.39641000  0.16004300  0.82704900  1
  O  O107  1  0.38464900  0.50228000  0.36472200  1
  O  O108  1  0.79762000  0.49720400  0.39983000  1
  O  O109  1  0.08936400  0.78085800  0.07723400  1
  O  O110  1  0.81308900  0.87256700  0.07999700  1
  O  O111  1  0.38032200  0.85128100  0.11334400  1
