# generated using pymatgen
data_VNi3Sn2(PO4)6
_symmetry_space_group_name_H-M   'P 1'
_cell_length_a   8.47112535
_cell_length_b   8.47112535
_cell_length_c   8.47112621
_cell_angle_alpha   61.60271836
_cell_angle_beta   61.60271836
_cell_angle_gamma   61.60271990
_symmetry_Int_Tables_number   1
_chemical_formula_structural   VNi3Sn2(PO4)6
_chemical_formula_sum   'V1 Ni3 Sn2 P6 O24'
_cell_volume   445.29473839
_cell_formula_units_Z   1
loop_
 _symmetry_equiv_pos_site_id
 _symmetry_equiv_pos_as_xyz
  1  'x, y, z'
loop_
 _atom_site_type_symbol
 _atom_site_label
 _atom_site_symmetry_multiplicity
 _atom_site_fract_x
 _atom_site_fract_y
 _atom_site_fract_z
 _atom_site_occupancy
  V  V0  1  0.14743800  0.14743800  0.14743800  1
  Ni  Ni1  1  0.64781000  0.64781000  0.64781000  1
  Ni  Ni2  1  0.85151000  0.85151000  0.85151000  1
  Ni  Ni3  1  0.35394800  0.35394800  0.35394800  1
  Sn  Sn4  1  0.99775700  0.99775700  0.99775700  1
  Sn  Sn5  1  0.49852600  0.49852600  0.49852600  1
  P  P6  1  0.95597300  0.25189100  0.54524400  1
  P  P7  1  0.54524400  0.95597300  0.25189100  1
  P  P8  1  0.25189100  0.54524400  0.95597300  1
  P  P9  1  0.74993300  0.45704300  0.04515500  1
  P  P10  1  0.45704300  0.04515500  0.74993300  1
  P  P11  1  0.04515500  0.74993300  0.45704300  1
  O  O12  1  0.50859200  0.10376400  0.32327600  1
  O  O13  1  0.32327700  0.50859200  0.10376400  1
  O  O14  1  0.10376400  0.32327700  0.50859200  1
  O  O15  1  0.93335800  0.09511000  0.74739400  1
  O  O16  1  0.00263500  0.17531300  0.38748500  1
  O  O17  1  0.75319600  0.40331200  0.55375700  1
  O  O18  1  0.74739400  0.93335800  0.09511000  1
  O  O19  1  0.55375700  0.75319600  0.40331200  1
  O  O20  1  0.82416500  0.60185900  0.01359800  1
  O  O21  1  0.40331200  0.55375700  0.75319600  1
  O  O22  1  0.91285900  0.24846300  0.06798500  1
  O  O23  1  0.60185900  0.01359800  0.82416500  1
  O  O24  1  0.38748500  0.00263500  0.17531300  1
  O  O25  1  0.09511000  0.74739400  0.93335800  1
  O  O26  1  0.59783400  0.43025100  0.25117300  1
  O  O27  1  0.17531300  0.38748500  0.00263500  1
  O  O28  1  0.43025100  0.25117300  0.59783400  1
  O  O29  1  0.24846300  0.06798500  0.91285900  1
  O  O30  1  0.25117300  0.59783400  0.43025100  1
  O  O31  1  0.01359800  0.82416500  0.60185900  1
  O  O32  1  0.06798500  0.91285900  0.24846300  1
  O  O33  1  0.89596900  0.68579800  0.48061500  1
  O  O34  1  0.68579800  0.48061500  0.89596900  1
  O  O35  1  0.48061500  0.89596900  0.68579800  1
