# generated using pymatgen
data_Li2Mn3FeO8
_symmetry_space_group_name_H-M   'P 1'
_cell_length_a   8.30662229
_cell_length_b   8.29919718
_cell_length_c   8.30861136
_cell_angle_alpha   89.97981997
_cell_angle_beta   89.91594094
_cell_angle_gamma   89.98695027
_symmetry_Int_Tables_number   1
_chemical_formula_structural   Li2Mn3FeO8
_chemical_formula_sum   'Li8 Mn12 Fe4 O32'
_cell_volume   572.78084526
_cell_formula_units_Z   4
loop_
 _symmetry_equiv_pos_site_id
 _symmetry_equiv_pos_as_xyz
  1  'x, y, z'
loop_
 _atom_site_type_symbol
 _atom_site_label
 _atom_site_symmetry_multiplicity
 _atom_site_fract_x
 _atom_site_fract_y
 _atom_site_fract_z
 _atom_site_occupancy
  Li  Li0  1  0.00427700  0.00403200  0.00429700  1
  Li  Li1  1  0.24529400  0.24519400  0.24524400  1
  Li  Li2  1  0.25457400  0.75456500  0.74559100  1
  Li  Li3  1  0.49550300  0.99574800  0.50454900  1
  Li  Li4  1  0.50499400  0.49538900  0.99565000  1
  Li  Li5  1  0.74595200  0.25442500  0.75480800  1
  Li  Li6  1  0.75428400  0.74596700  0.25452300  1
  Li  Li7  1  0.99521500  0.50476700  0.49548200  1
  Mn  Mn8  1  0.11829300  0.13145400  0.62496800  1
  Mn  Mn9  1  0.12484400  0.38163800  0.86827100  1
  Mn  Mn10  1  0.13170200  0.62528100  0.11833400  1
  Mn  Mn11  1  0.36833300  0.37487700  0.61819500  1
  Mn  Mn12  1  0.37510900  0.61835200  0.36824400  1
  Mn  Mn13  1  0.38151200  0.86851200  0.12482300  1
  Mn  Mn14  1  0.61835400  0.36854200  0.37503300  1
  Mn  Mn15  1  0.62506600  0.11829000  0.13167300  1
  Mn  Mn16  1  0.63164100  0.87487100  0.88150400  1
  Mn  Mn17  1  0.86846700  0.12492800  0.38170700  1
  Mn  Mn18  1  0.87490700  0.88145800  0.63169100  1
  Mn  Mn19  1  0.88142300  0.63168000  0.87500100  1
  Fe  Fe20  1  0.12510800  0.87502600  0.37505200  1
  Fe  Fe21  1  0.37504000  0.12532900  0.87511700  1
  Fe  Fe22  1  0.62483700  0.62473500  0.62515400  1
  Fe  Fe23  1  0.87533800  0.37506100  0.12537400  1
  O  O24  1  0.09930300  0.12367400  0.39247800  1
  O  O25  1  0.10738100  0.90048900  0.62351100  1
  O  O26  1  0.11586700  0.61619600  0.88418100  1
  O  O27  1  0.12626200  0.15051400  0.85742200  1
  O  O28  1  0.12353200  0.39222500  0.09915600  1
  O  O29  1  0.13398700  0.36615600  0.63418500  1
  O  O30  1  0.14230200  0.62625000  0.34919100  1
  O  O31  1  0.15091700  0.85778000  0.12650900  1
  O  O32  1  0.34900800  0.14216800  0.62661500  1
  O  O33  1  0.35750100  0.37400600  0.84910200  1
  O  O34  1  0.36593600  0.63384500  0.13405400  1
  O  O35  1  0.37639900  0.60778400  0.59902500  1
  O  O36  1  0.37361400  0.84955500  0.35727400  1
  O  O37  1  0.38407700  0.38379600  0.38407200  1
  O  O38  1  0.39272200  0.09944300  0.12335600  1
  O  O39  1  0.40087000  0.87625600  0.89243400  1
  O  O40  1  0.59919500  0.37591000  0.60739300  1
  O  O41  1  0.60738300  0.59939100  0.37640500  1
  O  O42  1  0.61596700  0.88387900  0.11575400  1
  O  O43  1  0.62676800  0.34942700  0.14247500  1
  O  O44  1  0.62371700  0.10797600  0.90094200  1
  O  O45  1  0.63418000  0.13376600  0.36578600  1
  O  O46  1  0.64230700  0.87396300  0.65091400  1
  O  O47  1  0.65088000  0.64228800  0.87355700  1
  O  O48  1  0.84918100  0.35766400  0.37352800  1
  O  O49  1  0.85784200  0.12589300  0.15083700  1
  O  O50  1  0.86581000  0.86616800  0.86583400  1
  O  O51  1  0.87645100  0.89212100  0.40097600  1
  O  O52  1  0.87329600  0.65057400  0.64268700  1
  O  O53  1  0.88400600  0.11612500  0.61584800  1
  O  O54  1  0.89252900  0.40065400  0.87665500  1
  O  O55  1  0.90074500  0.62408200  0.10769900  1
