# generated using pymatgen
data_Si6Bi9O26
_symmetry_space_group_name_H-M   'P 1'
_cell_length_a   9.76722167
_cell_length_b   9.76722167
_cell_length_c   14.09803500
_cell_angle_alpha   90.00000000
_cell_angle_beta   90.00000000
_cell_angle_gamma   119.99999779
_symmetry_Int_Tables_number   1
_chemical_formula_structural   Si6Bi9O26
_chemical_formula_sum   'Si12 Bi18 O52'
_cell_volume   1164.74623339
_cell_formula_units_Z   2
loop_
 _symmetry_equiv_pos_site_id
 _symmetry_equiv_pos_as_xyz
  1  'x, y, z'
loop_
 _atom_site_type_symbol
 _atom_site_label
 _atom_site_symmetry_multiplicity
 _atom_site_fract_x
 _atom_site_fract_y
 _atom_site_fract_z
 _atom_site_occupancy
  Si  Si0  1  0.39894500  0.37437300  0.62501800  1
  Si  Si1  1  0.40066400  0.37448300  0.12768200  1
  Si  Si2  1  0.02457200  0.39894500  0.37498200  1
  Si  Si3  1  0.02618200  0.40066400  0.87231800  1
  Si  Si4  1  0.37448300  0.97381800  0.87231800  1
  Si  Si5  1  0.37437300  0.97542800  0.37498200  1
  Si  Si6  1  0.62562700  0.02457200  0.62501800  1
  Si  Si7  1  0.62551700  0.02618200  0.12768200  1
  Si  Si8  1  0.97381800  0.59933600  0.12768200  1
  Si  Si9  1  0.97542800  0.60105500  0.62501800  1
  Si  Si10  1  0.59933600  0.62551700  0.87231800  1
  Si  Si11  1  0.60105500  0.62562700  0.37498200  1
  Bi  Bi12  1  0.01217100  0.76680900  0.37395100  1
  Bi  Bi13  1  0.01530000  0.77317800  0.87332500  1
  Bi  Bi14  1  0.24212200  0.01530000  0.12667500  1
  Bi  Bi15  1  0.24536200  0.01217100  0.62604900  1
  Bi  Bi16  1  0.76680900  0.75463800  0.62604900  1
  Bi  Bi17  1  0.77317800  0.75787800  0.12667500  1
  Bi  Bi18  1  0.33333300  0.66666700  0.24046100  1
  Bi  Bi19  1  0.66666700  0.33333300  0.02102000  1
  Bi  Bi20  1  0.66666700  0.33333300  0.47080900  1
  Bi  Bi21  1  0.33333300  0.66666700  0.97898000  1
  Bi  Bi22  1  0.33333300  0.66666700  0.52919100  1
  Bi  Bi23  1  0.66666700  0.33333300  0.75953900  1
  Bi  Bi24  1  0.22682200  0.24212200  0.87332500  1
  Bi  Bi25  1  0.23319100  0.24536200  0.37395100  1
  Bi  Bi26  1  0.75463800  0.98782900  0.37395100  1
  Bi  Bi27  1  0.75787800  0.98470000  0.87332500  1
  Bi  Bi28  1  0.98470000  0.22682200  0.12667500  1
  Bi  Bi29  1  0.98782900  0.23319100  0.62604900  1
  O  O30  1  0.31639500  0.24230700  0.21385100  1
  O  O31  1  0.33769500  0.24842200  0.71562900  1
  O  O32  1  0.34152700  0.24822000  0.53448300  1
  O  O33  1  0.34341900  0.24979800  0.03575500  1
  O  O34  1  0.24230700  0.92591200  0.78614900  1
  O  O35  1  0.24842200  0.91072700  0.28437100  1
  O  O36  1  0.24822000  0.90669300  0.46551700  1
  O  O37  1  0.24979800  0.90638000  0.96424500  1
  O  O38  1  0.11432500  0.59303200  0.36980100  1
  O  O39  1  0.16396700  0.66485800  0.12736400  1
  O  O40  1  0.16678300  0.68563600  0.62332700  1
  O  O41  1  0.12258100  0.59476300  0.87807100  1
  O  O42  1  0.59303200  0.47870700  0.63019900  1
  O  O43  1  0.59476300  0.47218200  0.12192900  1
  O  O44  1  0.48114700  0.16678300  0.37667300  1
  O  O45  1  0.66485800  0.50089100  0.87263600  1
  O  O46  1  0.49910900  0.16396700  0.87263600  1
  O  O47  1  0.09330700  0.34152700  0.46551700  1
  O  O48  1  0.07408800  0.31639500  0.78614900  1
  O  O49  1  0.08927300  0.33769500  0.28437100  1
  O  O50  1  0.68563600  0.51885300  0.37667300  1
  O  O51  1  0.09362000  0.34341900  0.96424500  1
  O  O52  1  0.52129300  0.11432500  0.63019900  1
  O  O53  1  0.52781800  0.12258100  0.12192900  1
  O  O54  1  0.00000000  0.00000000  0.12108300  1
  O  O55  1  0.00000000  0.00000000  0.37307500  1
  O  O56  1  0.00000000  0.00000000  0.62692500  1
  O  O57  1  0.00000000  0.00000000  0.87891700  1
  O  O58  1  0.47218200  0.87741900  0.87807100  1
  O  O59  1  0.47870700  0.88567500  0.36980100  1
  O  O60  1  0.90638000  0.65658100  0.03575500  1
  O  O61  1  0.31436400  0.48114700  0.62332700  1
  O  O62  1  0.91072700  0.66230500  0.71562900  1
  O  O63  1  0.92591200  0.68360500  0.21385100  1
  O  O64  1  0.90669300  0.65847300  0.53448300  1
  O  O65  1  0.50089100  0.83603300  0.12736400  1
  O  O66  1  0.33514200  0.49910900  0.12736400  1
  O  O67  1  0.51885300  0.83321700  0.62332700  1
  O  O68  1  0.40523700  0.52781800  0.87807100  1
  O  O69  1  0.40696800  0.52129300  0.36980100  1
  O  O70  1  0.87741900  0.40523700  0.12192900  1
  O  O71  1  0.83321700  0.31436400  0.37667300  1
  O  O72  1  0.83603300  0.33514200  0.87263600  1
  O  O73  1  0.88567500  0.40696800  0.63019900  1
  O  O74  1  0.75020200  0.09362000  0.03575500  1
  O  O75  1  0.75178000  0.09330700  0.53448300  1
  O  O76  1  0.75157800  0.08927300  0.71562900  1
  O  O77  1  0.75769300  0.07408800  0.21385100  1
  O  O78  1  0.65658100  0.75020200  0.96424500  1
  O  O79  1  0.65847300  0.75178000  0.46551700  1
  O  O80  1  0.66230500  0.75157800  0.28437100  1
  O  O81  1  0.68360500  0.75769300  0.78614900  1
