# generated using pymatgen
data_Li3MnV(PO4)3
_symmetry_space_group_name_H-M   'P 1'
_cell_length_a   8.95209263
_cell_length_b   8.44602691
_cell_length_c   14.69488519
_cell_angle_alpha   90.43791807
_cell_angle_beta   74.12141838
_cell_angle_gamma   63.21681609
_symmetry_Int_Tables_number   1
_chemical_formula_structural   Li3MnV(PO4)3
_chemical_formula_sum   'Li12 Mn4 V4 P12 O48'
_cell_volume   942.87354528
_cell_formula_units_Z   4
loop_
 _symmetry_equiv_pos_site_id
 _symmetry_equiv_pos_as_xyz
  1  'x, y, z'
loop_
 _atom_site_type_symbol
 _atom_site_label
 _atom_site_symmetry_multiplicity
 _atom_site_fract_x
 _atom_site_fract_y
 _atom_site_fract_z
 _atom_site_occupancy
  Li  Li0  1  0.14794800  0.25535300  0.33190600  1
  Li  Li1  1  0.14952700  0.79602100  0.13267200  1
  Li  Li2  1  0.15120500  0.29517200  0.63237700  1
  Li  Li3  1  0.14952800  0.72477300  0.46032700  1
  Li  Li4  1  0.14995600  0.22540000  0.96101500  1
  Li  Li5  1  0.14862200  0.75747100  0.83297500  1
  Li  Li6  1  0.85039300  0.24265700  0.16778500  1
  Li  Li7  1  0.85330800  0.77369700  0.03833200  1
  Li  Li8  1  0.84949000  0.27511300  0.53913800  1
  Li  Li9  1  0.85061400  0.70302700  0.36782300  1
  Li  Li10  1  0.84949700  0.20436300  0.86847000  1
  Li  Li11  1  0.85121500  0.74348500  0.66808200  1
  Mn  Mn12  1  0.04294200  0.97765900  0.32573500  1
  Mn  Mn13  1  0.56257000  0.22190100  0.07365200  1
  Mn  Mn14  1  0.43765400  0.28113800  0.42409500  1
  Mn  Mn15  1  0.56053200  0.72136100  0.57598600  1
  V  V16  1  0.04574200  0.47857100  0.82588100  1
  V  V17  1  0.43508500  0.78172000  0.92708000  1
  V  V18  1  0.95454700  0.52137800  0.17373200  1
  V  V19  1  0.95244200  0.02471100  0.67534500  1
  P  P20  1  0.25139200  0.08581800  0.12471400  1
  P  P21  1  0.25001000  0.02278900  0.47809400  1
  P  P22  1  0.25210000  0.51918100  0.26830000  1
  P  P23  1  0.24976900  0.02253500  0.77065200  1
  P  P24  1  0.24918000  0.58771700  0.62584200  1
  P  P25  1  0.25053300  0.52106300  0.97849000  1
  P  P26  1  0.74800400  0.48135900  0.02025400  1
  P  P27  1  0.74836800  0.41621500  0.37573600  1
  P  P28  1  0.75396600  0.97179800  0.22947000  1
  P  P29  1  0.74995500  0.47708300  0.73057300  1
  P  P30  1  0.74585800  0.97946800  0.52119900  1
  P  P31  1  0.74915200  0.91617800  0.87580600  1
  O  O32  1  0.09953900  0.25867100  0.10376100  1
  O  O33  1  0.19611700  0.06786100  0.23175000  1
  O  O34  1  0.09772600  0.61499100  0.07710800  1
  O  O35  1  0.09721900  0.11755100  0.57640700  1
  O  O36  1  0.09933200  0.47302100  0.26667800  1
  O  O37  1  0.42627400  0.09159700  0.09676300  1
  O  O38  1  0.26697800  0.18304000  0.43174800  1
  O  O39  1  0.19905100  0.71374400  0.24995400  1
  O  O40  1  0.19320700  0.22048500  0.75444900  1
  O  O41  1  0.26359900  0.49991800  0.37145500  1
  O  O42  1  0.42528500  0.38709800  0.19411500  1
  O  O43  1  0.09882100  0.76212200  0.60527800  1
  O  O44  1  0.26639600  0.92799000  0.06148000  1
  O  O45  1  0.26149100  0.43048300  0.56522800  1
  O  O46  1  0.58384500  0.10001300  0.30377300  1
  O  O47  1  0.19372700  0.57202900  0.73421700  1
  O  O48  1  0.18936000  0.92999000  0.41346000  1
  O  O49  1  0.18895300  0.42703500  0.91609000  1
  O  O50  1  0.74916300  0.99197700  0.12618600  1
  O  O51  1  0.57915400  0.61548200  0.00279500  1
  O  O52  1  0.57783900  0.11490400  0.50522200  1
  O  O53  1  0.09586200  0.97903900  0.76887300  1
  O  O54  1  0.73210000  0.32300700  0.06819800  1
  O  O55  1  0.57441400  0.40741500  0.40235200  1
  O  O56  1  0.42396600  0.59422300  0.59834600  1
  O  O57  1  0.26206400  0.68127700  0.93182900  1
  O  O58  1  0.91088400  0.01563000  0.23223800  1
  O  O59  1  0.41725700  0.88563100  0.49309600  1
  O  O60  1  0.41957000  0.38723900  0.99290300  1
  O  O61  1  0.26369400  0.99919700  0.87327300  1
  O  O62  1  0.80660700  0.57565500  0.08318800  1
  O  O63  1  0.80734900  0.07140700  0.58437900  1
  O  O64  1  0.80449100  0.43096600  0.26736500  1
  O  O65  1  0.42052900  0.89537600  0.69544400  1
  O  O66  1  0.72972600  0.57824600  0.43687500  1
  O  O67  1  0.73302700  0.07498000  0.93908300  1
  O  O68  1  0.89970600  0.24707500  0.39719700  1
  O  O69  1  0.58005000  0.60689400  0.80638400  1
  O  O70  1  0.73917900  0.49512000  0.62820800  1
  O  O71  1  0.80996300  0.77500100  0.24760000  1
  O  O72  1  0.80547900  0.27964600  0.74878900  1
  O  O73  1  0.72831600  0.82064800  0.56989500  1
  O  O74  1  0.57895200  0.90674200  0.90112800  1
  O  O75  1  0.90313900  0.52281200  0.73314200  1
  O  O76  1  0.90157900  0.87925100  0.42475400  1
  O  O77  1  0.90080700  0.38542700  0.92214300  1
  O  O78  1  0.80555000  0.93361900  0.76806100  1
  O  O79  1  0.90156200  0.74230500  0.89580300  1
