# generated using pymatgen
data_Co3(SeO3)4
_symmetry_space_group_name_H-M   'P 1'
_cell_length_a   9.19228600
_cell_length_b   7.66919700
_cell_length_c   8.02604981
_cell_angle_alpha   63.38821329
_cell_angle_beta   90.00000000
_cell_angle_gamma   90.00000000
_symmetry_Int_Tables_number   1
_chemical_formula_structural   Co3(SeO3)4
_chemical_formula_sum   'Co6 Se8 O24'
_cell_volume   505.87470113
_cell_formula_units_Z   2
loop_
 _symmetry_equiv_pos_site_id
 _symmetry_equiv_pos_as_xyz
  1  'x, y, z'
loop_
 _atom_site_type_symbol
 _atom_site_label
 _atom_site_symmetry_multiplicity
 _atom_site_fract_x
 _atom_site_fract_y
 _atom_site_fract_z
 _atom_site_occupancy
  Co  Co0  1  0.50000000  0.50000000  0.00000000  1
  Co  Co1  1  0.98849900  0.18117800  0.28064900  1
  Co  Co2  1  0.00000000  0.00000000  0.00000000  1
  Co  Co3  1  0.51150100  0.68117800  0.28064900  1
  Co  Co4  1  0.48849900  0.31882200  0.71935100  1
  Co  Co5  1  0.01150100  0.81882200  0.71935100  1
  Se  Se6  1  0.31735600  0.11835000  0.16735700  1
  Se  Se7  1  0.18264400  0.61835000  0.16735700  1
  Se  Se8  1  0.66771400  0.23785800  0.40149300  1
  Se  Se9  1  0.16771400  0.26214200  0.59850700  1
  Se  Se10  1  0.83228600  0.73785800  0.40149300  1
  Se  Se11  1  0.33228600  0.76214200  0.59850700  1
  Se  Se12  1  0.81735600  0.38165000  0.83264300  1
  Se  Se13  1  0.68264400  0.88165000  0.83264300  1
  O  O14  1  0.87346600  0.18374600  0.04736400  1
  O  O15  1  0.12899300  0.06163800  0.15982300  1
  O  O16  1  0.62653400  0.68374600  0.04736400  1
  O  O17  1  0.57048600  0.27563100  0.20595300  1
  O  O18  1  0.11511500  0.42196900  0.15021100  1
  O  O19  1  0.37100700  0.56163800  0.15982300  1
  O  O20  1  0.83853100  0.33174800  0.33618300  1
  O  O21  1  0.92951400  0.77563100  0.20595300  1
  O  O22  1  0.38488500  0.92196900  0.15021100  1
  O  O23  1  0.10109600  0.08440300  0.53572800  1
  O  O24  1  0.60109600  0.41559700  0.46427200  1
  O  O25  1  0.66146900  0.83174800  0.33618300  1
  O  O26  1  0.33853100  0.16825200  0.66381700  1
  O  O27  1  0.39890400  0.58440300  0.53572800  1
  O  O28  1  0.89890400  0.91559700  0.46427200  1
  O  O29  1  0.61511500  0.07803100  0.84978900  1
  O  O30  1  0.07048600  0.22436900  0.79404700  1
  O  O31  1  0.16146900  0.66825200  0.66381700  1
  O  O32  1  0.62899300  0.43836200  0.84017700  1
  O  O33  1  0.88488500  0.57803100  0.84978900  1
  O  O34  1  0.42951400  0.72436900  0.79404700  1
  O  O35  1  0.37346600  0.31625400  0.95263600  1
  O  O36  1  0.87100700  0.93836200  0.84017700  1
  O  O37  1  0.12653400  0.81625400  0.95263600  1
