# generated using pymatgen
data_Li5Mn2Fe17O32
_symmetry_space_group_name_H-M   'P 1'
_cell_length_a   8.45437900
_cell_length_b   8.47448181
_cell_length_c   8.47731836
_cell_angle_alpha   90.13157648
_cell_angle_beta   90.00141257
_cell_angle_gamma   90.08717608
_symmetry_Int_Tables_number   1
_chemical_formula_structural   Li5Mn2Fe17O32
_chemical_formula_sum   'Li5 Mn2 Fe17 O32'
_cell_volume   607.36772414
_cell_formula_units_Z   1
loop_
 _symmetry_equiv_pos_site_id
 _symmetry_equiv_pos_as_xyz
  1  'x, y, z'
loop_
 _atom_site_type_symbol
 _atom_site_label
 _atom_site_symmetry_multiplicity
 _atom_site_fract_x
 _atom_site_fract_y
 _atom_site_fract_z
 _atom_site_occupancy
  Li  Li0  1  0.00394800  0.49774300  0.50348200  1
  Li  Li1  1  0.87521700  0.87117500  0.62422300  1
  Li  Li2  1  0.62409800  0.12485300  0.12602800  1
  Li  Li3  1  0.37269600  0.62437900  0.37476400  1
  Li  Li4  1  0.12446200  0.37658000  0.87069300  1
  Mn  Mn5  1  0.87260000  0.12497500  0.37368300  1
  Mn  Mn6  1  0.87672000  0.62564500  0.86982000  1
  Fe  Fe7  1  0.00236000  0.99675100  0.00276700  1
  Fe  Fe8  1  0.87419900  0.36988300  0.12258000  1
  Fe  Fe9  1  0.74943200  0.25509900  0.74344500  1
  Fe  Fe10  1  0.75265800  0.75243000  0.24906900  1
  Fe  Fe11  1  0.62218200  0.37512700  0.36928600  1
  Fe  Fe12  1  0.62919500  0.62969800  0.62021800  1
  Fe  Fe13  1  0.62869900  0.88174000  0.87411100  1
  Fe  Fe14  1  0.50191100  0.00041600  0.50273700  1
  Fe  Fe15  1  0.50194200  0.49902700  0.99987200  1
  Fe  Fe16  1  0.37490200  0.13059300  0.88030000  1
  Fe  Fe17  1  0.36200400  0.38197900  0.62345000  1
  Fe  Fe18  1  0.38055400  0.87547300  0.13068200  1
  Fe  Fe19  1  0.24557300  0.25113400  0.25122800  1
  Fe  Fe20  1  0.24498400  0.75002400  0.74781100  1
  Fe  Fe21  1  0.12005600  0.12986500  0.63050500  1
  Fe  Fe22  1  0.13010700  0.61901400  0.13140800  1
  Fe  Fe23  1  0.12590000  0.86244900  0.38161100  1
  O  O24  1  0.88094300  0.12899800  0.60729600  1
  O  O25  1  0.88173100  0.61680100  0.11035200  1
  O  O26  1  0.87017500  0.39181500  0.88338900  1
  O  O27  1  0.88239200  0.89417000  0.37291500  1
  O  O28  1  0.87669200  0.13046500  0.13948000  1
  O  O29  1  0.86218800  0.35112500  0.36054100  1
  O  O30  1  0.86190100  0.62855900  0.65151100  1
  O  O31  1  0.86676700  0.85883400  0.87964500  1
  O  O32  1  0.64328200  0.12987000  0.37633400  1
  O  O33  1  0.64078000  0.63432700  0.86963300  1
  O  O34  1  0.63407400  0.37468900  0.13365700  1
  O  O35  1  0.62468800  0.86603900  0.63561800  1
  O  O36  1  0.61448000  0.38471800  0.61329400  1
  O  O37  1  0.62246400  0.11659100  0.87239000  1
  O  O38  1  0.61648500  0.87382200  0.11547400  1
  O  O39  1  0.63354300  0.61671600  0.38422100  1
  O  O40  1  0.38612100  0.37033800  0.38190600  1
  O  O41  1  0.38498400  0.61772700  0.63046200  1
  O  O42  1  0.37255200  0.11659300  0.11665900  1
  O  O43  1  0.38386300  0.88366400  0.88403400  1
  O  O44  1  0.36819700  0.12999500  0.63461200  1
  O  O45  1  0.37914000  0.36460400  0.86695000  1
  O  O46  1  0.36696800  0.63510700  0.11860400  1
  O  O47  1  0.36810000  0.88072600  0.36548300  1
  O  O48  1  0.14096100  0.35530300  0.62954200  1
  O  O49  1  0.13616500  0.86691900  0.13298100  1
  O  O50  1  0.12836500  0.11954800  0.86621100  1
  O  O51  1  0.12353500  0.63906900  0.35957600  1
  O  O52  1  0.10715200  0.11775500  0.38137800  1
  O  O53  1  0.10457600  0.62757200  0.88204600  1
  O  O54  1  0.11345800  0.38275200  0.12317900  1
  O  O55  1  0.12687600  0.88873500  0.61685200  1
