# generated using pymatgen
data_V3Cu(PO4)4
_symmetry_space_group_name_H-M   'P 1'
_cell_length_a   4.91528685
_cell_length_b   9.98487933
_cell_length_c   5.91257000
_cell_angle_alpha   90.00000000
_cell_angle_beta   90.00000000
_cell_angle_gamma   91.53557054
_symmetry_Int_Tables_number   1
_chemical_formula_structural   V3Cu(PO4)4
_chemical_formula_sum   'V3 Cu1 P4 O16'
_cell_volume   290.07612997
_cell_formula_units_Z   1
loop_
 _symmetry_equiv_pos_site_id
 _symmetry_equiv_pos_as_xyz
  1  'x, y, z'
loop_
 _atom_site_type_symbol
 _atom_site_label
 _atom_site_symmetry_multiplicity
 _atom_site_fract_x
 _atom_site_fract_y
 _atom_site_fract_z
 _atom_site_occupancy
  V  V0  1  0.47981000  0.22944100  0.75000000  1
  V  V1  1  0.54257300  0.78060000  0.25000000  1
  V  V2  1  0.97735800  0.26804700  0.25000000  1
  Cu  Cu3  1  0.08926200  0.71060500  0.75000000  1
  P  P4  1  0.09666600  0.60074500  0.25000000  1
  P  P5  1  0.40444400  0.09450000  0.25000000  1
  P  P6  1  0.56172300  0.90245400  0.75000000  1
  P  P7  1  0.92143900  0.40380100  0.75000000  1
  O  O8  1  0.14050200  0.45025100  0.25000000  1
  O  O9  1  0.26084800  0.67317300  0.05408300  1
  O  O10  1  0.26084800  0.67317300  0.44591700  1
  O  O11  1  0.22418900  0.37558200  0.75000000  1
  O  O12  1  0.25344700  0.88339600  0.75000000  1
  O  O13  1  0.26236700  0.16908500  0.04753900  1
  O  O14  1  0.26236700  0.16908500  0.45246100  1
  O  O15  1  0.32851300  0.94471100  0.25000000  1
  O  O16  1  0.64295500  0.05117200  0.75000000  1
  O  O17  1  0.69202400  0.83238100  0.53721600  1
  O  O18  1  0.69202400  0.83238100  0.96278400  1
  O  O19  1  0.71156600  0.11775600  0.25000000  1
  O  O20  1  0.79389900  0.63047800  0.25000000  1
  O  O21  1  0.76905100  0.32772900  0.54768600  1
  O  O22  1  0.76905100  0.32772900  0.95231400  1
  O  O23  1  0.86307500  0.55172700  0.75000000  1
