# generated using pymatgen
data_Na5VO4
_symmetry_space_group_name_H-M   'P 1'
_cell_length_a   6.02926700
_cell_length_b   10.76935100
_cell_length_c   18.21928500
_cell_angle_alpha   90.00000000
_cell_angle_beta   90.00000000
_cell_angle_gamma   90.00000000
_symmetry_Int_Tables_number   1
_chemical_formula_structural   Na5VO4
_chemical_formula_sum   'Na40 V8 O32'
_cell_volume   1183.00172522
_cell_formula_units_Z   8
loop_
 _symmetry_equiv_pos_site_id
 _symmetry_equiv_pos_as_xyz
  1  'x, y, z'
loop_
 _atom_site_type_symbol
 _atom_site_label
 _atom_site_symmetry_multiplicity
 _atom_site_fract_x
 _atom_site_fract_y
 _atom_site_fract_z
 _atom_site_occupancy
  Na  Na0  1  0.91130400  0.93722600  0.43610000  1
  Na  Na1  1  0.58869600  0.93722600  0.93610000  1
  Na  Na2  1  0.40047500  0.92483500  0.75250900  1
  Na  Na3  1  0.09952500  0.92483500  0.25250900  1
  Na  Na4  1  0.09171600  0.83217100  0.00314300  1
  Na  Na5  1  0.40828400  0.83217100  0.50314300  1
  Na  Na6  1  0.89209200  0.82286500  0.82726100  1
  Na  Na7  1  0.60790800  0.82286500  0.32726100  1
  Na  Na8  1  0.41959900  0.80430100  0.14134000  1
  Na  Na9  1  0.08040100  0.80430100  0.64134000  1
  Na  Na10  1  0.91959900  0.69569900  0.14134000  1
  Na  Na11  1  0.58040100  0.69569900  0.64134000  1
  Na  Na12  1  0.39209200  0.67713500  0.82726100  1
  Na  Na13  1  0.10790800  0.67713500  0.32726100  1
  Na  Na14  1  0.59171600  0.66782900  0.00314300  1
  Na  Na15  1  0.90828400  0.66782900  0.50314300  1
  Na  Na16  1  0.59952500  0.57516500  0.25250900  1
  Na  Na17  1  0.90047500  0.57516500  0.75250900  1
  Na  Na18  1  0.08869600  0.56277400  0.93610000  1
  Na  Na19  1  0.41130400  0.56277400  0.43610000  1
  Na  Na20  1  0.91130400  0.43722600  0.06390000  1
  Na  Na21  1  0.58869600  0.43722600  0.56390000  1
  Na  Na22  1  0.09952500  0.42483500  0.24749100  1
  Na  Na23  1  0.40047500  0.42483500  0.74749100  1
  Na  Na24  1  0.40828400  0.33217100  0.99685700  1
  Na  Na25  1  0.09171600  0.33217100  0.49685700  1
  Na  Na26  1  0.60790800  0.32286500  0.17273900  1
  Na  Na27  1  0.89209200  0.32286500  0.67273900  1
  Na  Na28  1  0.41959900  0.30430100  0.35866000  1
  Na  Na29  1  0.08040100  0.30430100  0.85866000  1
  Na  Na30  1  0.91959900  0.19569900  0.35866000  1
  Na  Na31  1  0.58040100  0.19569900  0.85866000  1
  Na  Na32  1  0.39209200  0.17713500  0.67273900  1
  Na  Na33  1  0.10790800  0.17713500  0.17273900  1
  Na  Na34  1  0.59171600  0.16782900  0.49685700  1
  Na  Na35  1  0.90828400  0.16782900  0.99685700  1
  Na  Na36  1  0.90047500  0.07516500  0.74749100  1
  Na  Na37  1  0.59952500  0.07516500  0.24749100  1
  Na  Na38  1  0.08869600  0.06277400  0.56390000  1
  Na  Na39  1  0.41130400  0.06277400  0.06390000  1
  V  V40  1  0.82729900  0.96008300  0.12231100  1
  V  V41  1  0.67270100  0.96008300  0.62231100  1
  V  V42  1  0.32729900  0.53991700  0.12231100  1
  V  V43  1  0.17270100  0.53991700  0.62231100  1
  V  V44  1  0.82729900  0.46008300  0.37768900  1
  V  V45  1  0.67270100  0.46008300  0.87768900  1
  V  V46  1  0.32729900  0.03991700  0.37768900  1
  V  V47  1  0.17270100  0.03991700  0.87768900  1
  O  O48  1  0.14465400  0.95207900  0.12026300  1
  O  O49  1  0.35534600  0.95207900  0.62026300  1
  O  O50  1  0.73405300  0.87576600  0.21236900  1
  O  O51  1  0.76594700  0.87576600  0.71236900  1
  O  O52  1  0.69244200  0.86361000  0.04537500  1
  O  O53  1  0.80755800  0.86361000  0.54537500  1
  O  O54  1  0.23765900  0.86531300  0.37465400  1
  O  O55  1  0.26234100  0.86531300  0.87465400  1
  O  O56  1  0.73765900  0.63468700  0.37465400  1
  O  O57  1  0.76234100  0.63468700  0.87465400  1
  O  O58  1  0.19244200  0.63639000  0.04537500  1
  O  O59  1  0.30755800  0.63639000  0.54537500  1
  O  O60  1  0.26594700  0.62423400  0.71236900  1
  O  O61  1  0.23405300  0.62423400  0.21236900  1
  O  O62  1  0.64465400  0.54792100  0.12026300  1
  O  O63  1  0.85534600  0.54792100  0.62026300  1
  O  O64  1  0.14465400  0.45207900  0.37973700  1
  O  O65  1  0.35534600  0.45207900  0.87973700  1
  O  O66  1  0.76594700  0.37576600  0.78763100  1
  O  O67  1  0.73405300  0.37576600  0.28763100  1
  O  O68  1  0.80755800  0.36361000  0.95462500  1
  O  O69  1  0.69244200  0.36361000  0.45462500  1
  O  O70  1  0.23765900  0.36531300  0.12534600  1
  O  O71  1  0.26234100  0.36531300  0.62534600  1
  O  O72  1  0.76234100  0.13468700  0.62534600  1
  O  O73  1  0.73765900  0.13468700  0.12534600  1
  O  O74  1  0.19244200  0.13639000  0.45462500  1
  O  O75  1  0.30755800  0.13639000  0.95462500  1
  O  O76  1  0.26594700  0.12423400  0.78763100  1
  O  O77  1  0.23405300  0.12423400  0.28763100  1
  O  O78  1  0.64465400  0.04792100  0.37973700  1
  O  O79  1  0.85534600  0.04792100  0.87973700  1
