# generated using pymatgen
data_CdH
_symmetry_space_group_name_H-M   'P 1'
_cell_length_a   3.06053023
_cell_length_b   3.06053023
_cell_length_c   7.24011500
_cell_angle_alpha   90.00000000
_cell_angle_beta   90.00000000
_cell_angle_gamma   120.00000507
_symmetry_Int_Tables_number   1
_chemical_formula_structural   CdH
_chemical_formula_sum   'Cd2 H2'
_cell_volume   58.73127410
_cell_formula_units_Z   2
loop_
 _symmetry_equiv_pos_site_id
 _symmetry_equiv_pos_as_xyz
  1  'x, y, z'
loop_
 _atom_site_type_symbol
 _atom_site_label
 _atom_site_symmetry_multiplicity
 _atom_site_fract_x
 _atom_site_fract_y
 _atom_site_fract_z
 _atom_site_occupancy
  Cd  Cd0  1  0.66666700  0.33333300  0.55206800  1
  Cd  Cd1  1  0.33333300  0.66666700  0.05206800  1
  H  H2  1  0.66666700  0.33333300  0.82293000  1
  H  H3  1  0.33333300  0.66666700  0.32293000  1
