# generated using pymatgen
data_Ti3Nb2Cr(PO4)6
_symmetry_space_group_name_H-M   'P 1'
_cell_length_a   8.63732098
_cell_length_b   8.63732098
_cell_length_c   8.63731998
_cell_angle_alpha   60.55716725
_cell_angle_beta   60.55716725
_cell_angle_gamma   60.55716350
_symmetry_Int_Tables_number   1
_chemical_formula_structural   Ti3Nb2Cr(PO4)6
_chemical_formula_sum   'Ti3 Nb2 Cr1 P6 O24'
_cell_volume   461.37552688
_cell_formula_units_Z   1
loop_
 _symmetry_equiv_pos_site_id
 _symmetry_equiv_pos_as_xyz
  1  'x, y, z'
loop_
 _atom_site_type_symbol
 _atom_site_label
 _atom_site_symmetry_multiplicity
 _atom_site_fract_x
 _atom_site_fract_y
 _atom_site_fract_z
 _atom_site_occupancy
  Ti  Ti0  1  0.14319800  0.14319800  0.14319800  1
  Ti  Ti1  1  0.35785100  0.35785100  0.35785100  1
  Ti  Ti2  1  0.64100700  0.64100700  0.64100700  1
  Nb  Nb3  1  0.00208200  0.00208200  0.00208200  1
  Nb  Nb4  1  0.50006100  0.50006100  0.50006100  1
  Cr  Cr5  1  0.85600100  0.85600100  0.85600100  1
  P  P6  1  0.74931500  0.03910400  0.46214000  1
  P  P7  1  0.03910400  0.46214000  0.74931500  1
  P  P8  1  0.54246300  0.24623300  0.96127600  1
  P  P9  1  0.96127600  0.54246300  0.24623300  1
  P  P10  1  0.24623300  0.96127600  0.54246300  1
  P  P11  1  0.46214000  0.74931500  0.03910400  1
  O  O12  1  0.30915100  0.11812800  0.50291100  1
  O  O13  1  0.50291100  0.30915100  0.11812800  1
  O  O14  1  0.91199300  0.05798900  0.26580100  1
  O  O15  1  0.11812800  0.50291100  0.30915100  1
  O  O16  1  0.80751500  0.00825200  0.61639600  1
  O  O17  1  0.58819800  0.23594300  0.43997300  1
  O  O18  1  0.05798900  0.26580100  0.91199300  1
  O  O19  1  0.23594200  0.43997300  0.58819800  1
  O  O20  1  0.38372300  0.18574600  0.99996000  1
  O  O21  1  0.43997300  0.58819800  0.23594300  1
  O  O22  1  0.73792000  0.08657700  0.94345700  1
  O  O23  1  0.99996000  0.38372300  0.18574600  1
  O  O24  1  0.00825200  0.61639600  0.80751500  1
  O  O25  1  0.26580100  0.91199300  0.05798900  1
  O  O26  1  0.55731800  0.40834000  0.76660300  1
  O  O27  1  0.61639600  0.80751500  0.00825200  1
  O  O28  1  0.76660300  0.55731800  0.40834000  1
  O  O29  1  0.94345700  0.73792000  0.08657700  1
  O  O30  1  0.40834000  0.76660300  0.55731800  1
  O  O31  1  0.18574600  0.99996000  0.38372300  1
  O  O32  1  0.88302200  0.49592900  0.68842100  1
  O  O33  1  0.08657700  0.94345700  0.73792000  1
  O  O34  1  0.49592900  0.68842100  0.88302200  1
  O  O35  1  0.68842100  0.88302200  0.49592900  1
