# generated using pymatgen
data_VOF3
_symmetry_space_group_name_H-M   'P 1'
_cell_length_a   5.29216800
_cell_length_b   5.49951647
_cell_length_c   9.33048766
_cell_angle_alpha   88.81727375
_cell_angle_beta   89.92567902
_cell_angle_gamma   88.90872852
_symmetry_Int_Tables_number   1
_chemical_formula_structural   VOF3
_chemical_formula_sum   'V4 O4 F12'
_cell_volume   271.45071015
_cell_formula_units_Z   4
loop_
 _symmetry_equiv_pos_site_id
 _symmetry_equiv_pos_as_xyz
  1  'x, y, z'
loop_
 _atom_site_type_symbol
 _atom_site_label
 _atom_site_symmetry_multiplicity
 _atom_site_fract_x
 _atom_site_fract_y
 _atom_site_fract_z
 _atom_site_occupancy
  V  V0  1  0.56825600  0.77054800  0.25046000  1
  V  V1  1  0.00000000  0.50000000  0.50000000  1
  V  V2  1  0.43174400  0.22945200  0.74954000  1
  V  V3  1  0.00000000  0.00000000  0.00000000  1
  O  O4  1  0.72220100  0.94771400  0.12529400  1
  O  O5  1  0.80166400  0.69856400  0.37218700  1
  O  O6  1  0.19833600  0.30143600  0.62781300  1
  O  O7  1  0.27779900  0.05228600  0.87470600  1
  F  F8  1  0.60940700  0.00784800  0.65604800  1
  F  F9  1  0.20233000  0.80677700  0.11895600  1
  F  F10  1  0.08621300  0.76124600  0.59645000  1
  F  F11  1  0.91742300  0.73925200  0.90256200  1
  F  F12  1  0.27951000  0.53894300  0.38379900  1
  F  F13  1  0.44132700  0.50697000  0.84019700  1
  F  F14  1  0.55867300  0.49303000  0.15980300  1
  F  F15  1  0.72049000  0.46105700  0.61620100  1
  F  F16  1  0.08257700  0.26074800  0.09743800  1
  F  F17  1  0.91378700  0.23875400  0.40355000  1
  F  F18  1  0.79767000  0.19322300  0.88104400  1
  F  F19  1  0.39059300  0.99215200  0.34395200  1
