# generated using pymatgen
data_Mn3Cr2Ni(PO4)6
_symmetry_space_group_name_H-M   'P 1'
_cell_length_a   8.40485054
_cell_length_b   8.40485054
_cell_length_c   8.40485061
_cell_angle_alpha   61.64954360
_cell_angle_beta   61.64954360
_cell_angle_gamma   61.64954894
_symmetry_Int_Tables_number   1
_chemical_formula_structural   Mn3Cr2Ni(PO4)6
_chemical_formula_sum   'Mn3 Cr2 Ni1 P6 O24'
_cell_volume   435.36065061
_cell_formula_units_Z   1
loop_
 _symmetry_equiv_pos_site_id
 _symmetry_equiv_pos_as_xyz
  1  'x, y, z'
loop_
 _atom_site_type_symbol
 _atom_site_label
 _atom_site_symmetry_multiplicity
 _atom_site_fract_x
 _atom_site_fract_y
 _atom_site_fract_z
 _atom_site_occupancy
  Mn  Mn0  1  0.14390200  0.14390200  0.14390200  1
  Mn  Mn1  1  0.35640900  0.35640900  0.35640900  1
  Mn  Mn2  1  0.64482000  0.64482000  0.64482000  1
  Cr  Cr3  1  0.99871400  0.99871400  0.99871400  1
  Cr  Cr4  1  0.50024300  0.50024300  0.50024300  1
  Ni  Ni5  1  0.85659700  0.85659700  0.85659700  1
  P  P6  1  0.75044500  0.04641300  0.45249200  1
  P  P7  1  0.04641300  0.45249200  0.75044500  1
  P  P8  1  0.45249200  0.75044500  0.04641300  1
  P  P9  1  0.54750700  0.24949800  0.95495800  1
  P  P10  1  0.95495800  0.54750700  0.24949800  1
  P  P11  1  0.24949800  0.95495800  0.54750700  1
  O  O12  1  0.32183000  0.11354900  0.50372000  1
  O  O13  1  0.50372000  0.32183000  0.11354900  1
  O  O14  1  0.90138300  0.06591100  0.24564500  1
  O  O15  1  0.11354900  0.50372000  0.32183000  1
  O  O16  1  0.81792800  0.01569000  0.60380100  1
  O  O17  1  0.58808700  0.25202200  0.43683700  1
  O  O18  1  0.06591100  0.24564500  0.90138300  1
  O  O19  1  0.25202200  0.43683700  0.58808700  1
  O  O20  1  0.39312100  0.18085300  0.98929500  1
  O  O21  1  0.43683700  0.58808700  0.25202200  1
  O  O22  1  0.75055400  0.09864800  0.93975300  1
  O  O23  1  0.98929500  0.39312100  0.18085300  1
  O  O24  1  0.01569000  0.60380100  0.81792800  1
  O  O25  1  0.24564500  0.90138300  0.06591100  1
  O  O26  1  0.55923200  0.40868200  0.75188100  1
  O  O27  1  0.60380100  0.81792800  0.01569000  1
  O  O28  1  0.75188100  0.55923200  0.40868200  1
  O  O29  1  0.93975300  0.75055400  0.09864800  1
  O  O30  1  0.40868100  0.75188100  0.55923200  1
  O  O31  1  0.18085300  0.98929500  0.39312100  1
  O  O32  1  0.89181000  0.48704300  0.68072500  1
  O  O33  1  0.09864800  0.93975300  0.75055400  1
  O  O34  1  0.48704300  0.68072500  0.89181000  1
  O  O35  1  0.68072500  0.89181000  0.48704300  1
