# generated using pymatgen
data_La2Nb2N2O5
_symmetry_space_group_name_H-M   'P 1'
_cell_length_a   13.51432181
_cell_length_b   13.51432181
_cell_length_c   5.69880100
_cell_angle_alpha   90.00000000
_cell_angle_beta   90.00000000
_cell_angle_gamma   162.78430421
_symmetry_Int_Tables_number   1
_chemical_formula_structural   La2Nb2N2O5
_chemical_formula_sum   'La4 Nb4 N4 O10'
_cell_volume   308.04864468
_cell_formula_units_Z   2
loop_
 _symmetry_equiv_pos_site_id
 _symmetry_equiv_pos_as_xyz
  1  'x, y, z'
loop_
 _atom_site_type_symbol
 _atom_site_label
 _atom_site_symmetry_multiplicity
 _atom_site_fract_x
 _atom_site_fract_y
 _atom_site_fract_z
 _atom_site_occupancy
  La  La0  1  0.70547400  0.29452600  0.04749700  1
  La  La1  1  0.55283700  0.44716300  0.47396900  1
  La  La2  1  0.44716300  0.55283700  0.97396900  1
  La  La3  1  0.29452600  0.70547400  0.54749700  1
  Nb  Nb4  1  0.94177400  0.05822600  0.47523800  1
  Nb  Nb5  1  0.83818700  0.16181300  0.00115100  1
  Nb  Nb6  1  0.16181300  0.83818700  0.50115100  1
  Nb  Nb7  1  0.05822600  0.94177400  0.97523800  1
  N  N8  1  0.54602600  0.45397400  0.93805100  1
  N  N9  1  0.65359300  0.34640700  0.45558000  1
  N  N10  1  0.45397400  0.54602600  0.43805100  1
  N  N11  1  0.34640700  0.65359300  0.95558000  1
  O  O12  1  0.98567000  0.01433000  0.76232400  1
  O  O13  1  0.90970800  0.09029200  0.14367300  1
  O  O14  1  0.77977400  0.22022600  0.77955100  1
  O  O15  1  0.88233900  0.11766100  0.65579400  1
  O  O16  1  0.79638000  0.20362000  0.27759000  1
  O  O17  1  0.22022600  0.77977400  0.27955100  1
  O  O18  1  0.20362000  0.79638000  0.77759000  1
  O  O19  1  0.11766100  0.88233900  0.15579400  1
  O  O20  1  0.09029200  0.90970800  0.64367300  1
  O  O21  1  0.01433000  0.98567000  0.26232400  1
