# generated using pymatgen
data_Cr2Fe3Cu(PO4)6
_symmetry_space_group_name_H-M   'P 1'
_cell_length_a   8.38852408
_cell_length_b   8.38852408
_cell_length_c   8.38852416
_cell_angle_alpha   61.84276622
_cell_angle_beta   61.84276622
_cell_angle_gamma   61.84276375
_symmetry_Int_Tables_number   1
_chemical_formula_structural   Cr2Fe3Cu(PO4)6
_chemical_formula_sum   'Cr2 Fe3 Cu1 P6 O24'
_cell_volume   434.61320844
_cell_formula_units_Z   1
loop_
 _symmetry_equiv_pos_site_id
 _symmetry_equiv_pos_as_xyz
  1  'x, y, z'
loop_
 _atom_site_type_symbol
 _atom_site_label
 _atom_site_symmetry_multiplicity
 _atom_site_fract_x
 _atom_site_fract_y
 _atom_site_fract_z
 _atom_site_occupancy
  Cr  Cr0  1  0.00082700  0.00082700  0.00082700  1
  Cr  Cr1  1  0.50053000  0.50053000  0.50053000  1
  Fe  Fe2  1  0.85484800  0.85484800  0.85484800  1
  Fe  Fe3  1  0.64654700  0.64654700  0.64654700  1
  Fe  Fe4  1  0.35424700  0.35424700  0.35424700  1
  Cu  Cu5  1  0.14588700  0.14588700  0.14588700  1
  P  P6  1  0.54667100  0.95155800  0.25005700  1
  P  P7  1  0.25005700  0.54667100  0.95155800  1
  P  P8  1  0.95155800  0.25005700  0.54667100  1
  P  P9  1  0.04945800  0.75131700  0.45172400  1
  P  P10  1  0.75131700  0.45172400  0.04945800  1
  P  P11  1  0.45172400  0.04945800  0.75131700  1
  O  O12  1  0.49523100  0.89484000  0.67604100  1
  O  O13  1  0.89484000  0.67604100  0.49523100  1
  O  O14  1  0.75061600  0.93969400  0.09499000  1
  O  O15  1  0.67604100  0.49523100  0.89484000  1
  O  O16  1  0.39276500  0.98298000  0.18064800  1
  O  O17  1  0.56694200  0.74666500  0.40454400  1
  O  O18  1  0.09499000  0.75061600  0.93969400  1
  O  O19  1  0.40454400  0.56694200  0.74666500  1
  O  O20  1  0.00623700  0.82560100  0.60620200  1
  O  O21  1  0.74666500  0.40454400  0.56694200  1
  O  O22  1  0.05937600  0.90545000  0.24900100  1
  O  O23  1  0.82560100  0.60620200  0.00623700  1
  O  O24  1  0.18064800  0.39276500  0.98298000  1
  O  O25  1  0.93969400  0.09499000  0.75061600  1
  O  O26  1  0.25273800  0.59614000  0.43654000  1
  O  O27  1  0.98298000  0.18064800  0.39276500  1
  O  O28  1  0.59614000  0.43654000  0.25273800  1
  O  O29  1  0.90545000  0.24900100  0.05937600  1
  O  O30  1  0.43654000  0.25273800  0.59614000  1
  O  O31  1  0.60620200  0.00623700  0.82560100  1
  O  O32  1  0.32525000  0.50172900  0.10610700  1
  O  O33  1  0.24900100  0.05937600  0.90545000  1
  O  O34  1  0.10610700  0.32525000  0.50172900  1
  O  O35  1  0.50172900  0.10610700  0.32525000  1
