# generated using pymatgen
data_Ti3Fe2Ni(PO4)6
_symmetry_space_group_name_H-M   'P 1'
_cell_length_a   8.52006627
_cell_length_b   8.52006627
_cell_length_c   8.52006669
_cell_angle_alpha   61.11508040
_cell_angle_beta   61.11508040
_cell_angle_gamma   61.11508413
_symmetry_Int_Tables_number   1
_chemical_formula_structural   Ti3Fe2Ni(PO4)6
_chemical_formula_sum   'Ti3 Fe2 Ni1 P6 O24'
_cell_volume   448.31068578
_cell_formula_units_Z   1
loop_
 _symmetry_equiv_pos_site_id
 _symmetry_equiv_pos_as_xyz
  1  'x, y, z'
loop_
 _atom_site_type_symbol
 _atom_site_label
 _atom_site_symmetry_multiplicity
 _atom_site_fract_x
 _atom_site_fract_y
 _atom_site_fract_z
 _atom_site_occupancy
  Ti  Ti0  1  0.14176900  0.14176900  0.14176900  1
  Ti  Ti1  1  0.35573500  0.35573500  0.35573500  1
  Ti  Ti2  1  0.64485800  0.64485800  0.64485800  1
  Fe  Fe3  1  0.99725900  0.99725900  0.99725900  1
  Fe  Fe4  1  0.49870800  0.49870800  0.49870800  1
  Ni  Ni5  1  0.85793400  0.85793400  0.85793400  1
  P  P6  1  0.75229700  0.04486000  0.45850600  1
  P  P7  1  0.04486000  0.45850600  0.75229700  1
  P  P8  1  0.54332700  0.25028400  0.95546600  1
  P  P9  1  0.95546600  0.54332700  0.25028400  1
  P  P10  1  0.25028400  0.95546600  0.54332700  1
  P  P11  1  0.45850600  0.75229700  0.04486000  1
  O  O12  1  0.32642500  0.11401600  0.48779100  1
  O  O13  1  0.48779100  0.32642500  0.11401600  1
  O  O14  1  0.90928000  0.05777600  0.25840100  1
  O  O15  1  0.11401600  0.48779100  0.32642500  1
  O  O16  1  0.81416200  0.01415500  0.61056900  1
  O  O17  1  0.58913200  0.24074800  0.43295900  1
  O  O18  1  0.05777600  0.25840100  0.90928000  1
  O  O19  1  0.24074800  0.43295900  0.58913200  1
  O  O20  1  0.38022800  0.18407400  0.00237900  1
  O  O21  1  0.43295900  0.58913200  0.24074800  1
  O  O22  1  0.73679100  0.09607500  0.94725600  1
  O  O23  1  0.00237900  0.38022800  0.18407400  1
  O  O24  1  0.01415500  0.61056900  0.81416200  1
  O  O25  1  0.25840100  0.90928000  0.05777600  1
  O  O26  1  0.55204100  0.41341700  0.76087200  1
  O  O27  1  0.61056900  0.81416200  0.01415500  1
  O  O28  1  0.76087200  0.55204100  0.41341700  1
  O  O29  1  0.94725600  0.73679100  0.09607500  1
  O  O30  1  0.41341700  0.76087200  0.55204100  1
  O  O31  1  0.18407400  0.00237900  0.38022800  1
  O  O32  1  0.88037100  0.50377400  0.68630600  1
  O  O33  1  0.09607500  0.94725600  0.73679100  1
  O  O34  1  0.50377400  0.68630600  0.88037100  1
  O  O35  1  0.68630600  0.88037100  0.50377400  1
