# generated using pymatgen
data_Ti3Mn2Ni(PO4)6
_symmetry_space_group_name_H-M   'P 1'
_cell_length_a   8.63726144
_cell_length_b   8.63726144
_cell_length_c   8.63726076
_cell_angle_alpha   59.94435148
_cell_angle_beta   59.94435148
_cell_angle_gamma   59.94435619
_symmetry_Int_Tables_number   1
_chemical_formula_structural   Ti3Mn2Ni(PO4)6
_chemical_formula_sum   'Ti3 Mn2 Ni1 P6 O24'
_cell_volume   455.05584397
_cell_formula_units_Z   1
loop_
 _symmetry_equiv_pos_site_id
 _symmetry_equiv_pos_as_xyz
  1  'x, y, z'
loop_
 _atom_site_type_symbol
 _atom_site_label
 _atom_site_symmetry_multiplicity
 _atom_site_fract_x
 _atom_site_fract_y
 _atom_site_fract_z
 _atom_site_occupancy
  Ti  Ti0  1  0.85617600  0.85617600  0.85617600  1
  Ti  Ti1  1  0.64593000  0.64593000  0.64593000  1
  Ti  Ti2  1  0.35282100  0.35282100  0.35282100  1
  Mn  Mn3  1  0.00407200  0.00407200  0.00407200  1
  Mn  Mn4  1  0.50063900  0.50063900  0.50063900  1
  Ni  Ni5  1  0.14366000  0.14366000  0.14366000  1
  P  P6  1  0.04402300  0.74937100  0.45710800  1
  P  P7  1  0.74937100  0.45710800  0.04402300  1
  P  P8  1  0.45710800  0.04402300  0.74937100  1
  P  P9  1  0.54124700  0.95550100  0.24801400  1
  P  P10  1  0.24801400  0.54124700  0.95550100  1
  P  P11  1  0.95550100  0.24801400  0.54124700  1
  O  O12  1  0.50893200  0.88247500  0.68286900  1
  O  O13  1  0.88247500  0.68286900  0.50893200  1
  O  O14  1  0.73837900  0.94115000  0.08608400  1
  O  O15  1  0.68286900  0.50893200  0.88247500  1
  O  O16  1  0.38665700  0.98574300  0.19405400  1
  O  O17  1  0.56694500  0.76314400  0.41551200  1
  O  O18  1  0.08608400  0.73837900  0.94115000  1
  O  O19  1  0.41551200  0.56694500  0.76314400  1
  O  O20  1  0.99890100  0.80764100  0.62255700  1
  O  O21  1  0.76314400  0.41551200  0.56694500  1
  O  O22  1  0.05357000  0.90847500  0.26694600  1
  O  O23  1  0.80764100  0.62255700  0.99890100  1
  O  O24  1  0.19405400  0.38665700  0.98574300  1
  O  O25  1  0.94115000  0.08608400  0.73837900  1
  O  O26  1  0.23535400  0.58193200  0.44706400  1
  O  O27  1  0.98574300  0.19405400  0.38665700  1
  O  O28  1  0.58193200  0.44706400  0.23535400  1
  O  O29  1  0.90847500  0.26694600  0.05357000  1
  O  O30  1  0.44706400  0.23535400  0.58193200  1
  O  O31  1  0.62255700  0.99890100  0.80764100  1
  O  O32  1  0.30691800  0.49880700  0.12133100  1
  O  O33  1  0.26694600  0.05357000  0.90847500  1
  O  O34  1  0.12133100  0.30691800  0.49880700  1
  O  O35  1  0.49880700  0.12133100  0.30691800  1
