# generated using pymatgen
data_Zr2N2O
_symmetry_space_group_name_H-M   'P 1'
_cell_length_a   7.10033958
_cell_length_b   7.10033958
_cell_length_c   16.64631408
_cell_angle_alpha   80.02155783
_cell_angle_beta   80.02155783
_cell_angle_gamma   27.11869738
_symmetry_Int_Tables_number   1
_chemical_formula_structural   Zr2N2O
_chemical_formula_sum   'Zr12 N12 O6'
_cell_volume   376.42051144
_cell_formula_units_Z   6
loop_
 _symmetry_equiv_pos_site_id
 _symmetry_equiv_pos_as_xyz
  1  'x, y, z'
loop_
 _atom_site_type_symbol
 _atom_site_label
 _atom_site_symmetry_multiplicity
 _atom_site_fract_x
 _atom_site_fract_y
 _atom_site_fract_z
 _atom_site_occupancy
  Zr  Zr0  1  0.02907300  0.02907300  0.09927500  1
  Zr  Zr1  1  0.03063500  0.03063500  0.59584800  1
  Zr  Zr2  1  0.63495300  0.63495300  0.26209200  1
  Zr  Zr3  1  0.69728800  0.69728800  0.43185300  1
  Zr  Zr4  1  0.62974600  0.62974600  0.76360200  1
  Zr  Zr5  1  0.30768400  0.30768400  0.06368100  1
  Zr  Zr6  1  0.69419200  0.69419200  0.93554600  1
  Zr  Zr7  1  0.36416400  0.36416400  0.23951200  1
  Zr  Zr8  1  0.30183200  0.30183200  0.56828200  1
  Zr  Zr9  1  0.37095800  0.37095800  0.73773800  1
  Zr  Zr10  1  0.96245900  0.96245900  0.40526800  1
  Zr  Zr11  1  0.97044200  0.97044200  0.90421700  1
  N  N12  1  0.53288200  0.53288200  0.17648000  1
  N  N13  1  0.17110800  0.17110800  0.01888300  1
  N  N14  1  0.53476300  0.53476300  0.67037600  1
  N  N15  1  0.12175700  0.12175700  0.35467100  1
  N  N16  1  0.17145400  0.17145400  0.51536900  1
  N  N17  1  0.12785100  0.12785100  0.85618600  1
  N  N18  1  0.80030400  0.80030400  0.31371200  1
  N  N19  1  0.87270400  0.87270400  0.13724300  1
  N  N20  1  0.82798500  0.82798500  0.48621000  1
  N  N21  1  0.87341600  0.87341600  0.64361900  1
  N  N22  1  0.82785000  0.82785000  0.97902900  1
  N  N23  1  0.46714700  0.46714700  0.82767500  1
  O  O24  1  0.21364200  0.21364200  0.19129800  1
  O  O25  1  0.20832600  0.20832600  0.68993200  1
  O  O26  1  0.78982100  0.78982100  0.80793800  1
  O  O27  1  0.46840200  0.46840200  0.32996400  1
  O  O28  1  0.49714800  0.49714800  0.49437900  1
  O  O29  1  0.50003500  0.50003500  0.00012600  1
