# generated using pymatgen
data_Ti3Mn2Sb(PO4)6
_symmetry_space_group_name_H-M   'P 1'
_cell_length_a   8.76778680
_cell_length_b   8.76778680
_cell_length_c   8.76778687
_cell_angle_alpha   60.14399788
_cell_angle_beta   60.14399788
_cell_angle_gamma   60.14400391
_symmetry_Int_Tables_number   1
_chemical_formula_structural   Ti3Mn2Sb(PO4)6
_chemical_formula_sum   'Ti3 Mn2 Sb1 P6 O24'
_cell_volume   478.15560545
_cell_formula_units_Z   1
loop_
 _symmetry_equiv_pos_site_id
 _symmetry_equiv_pos_as_xyz
  1  'x, y, z'
loop_
 _atom_site_type_symbol
 _atom_site_label
 _atom_site_symmetry_multiplicity
 _atom_site_fract_x
 _atom_site_fract_y
 _atom_site_fract_z
 _atom_site_occupancy
  Ti  Ti0  1  0.14585800  0.14585800  0.14585800  1
  Ti  Ti1  1  0.35283100  0.35283100  0.35283100  1
  Ti  Ti2  1  0.64624300  0.64624300  0.64624300  1
  Mn  Mn3  1  0.00047900  0.00047900  0.00047900  1
  Mn  Mn4  1  0.49905700  0.49905700  0.49905700  1
  Sb  Sb5  1  0.85217700  0.85217700  0.85217700  1
  P  P6  1  0.74808800  0.05164900  0.44310600  1
  P  P7  1  0.05164900  0.44310600  0.74808800  1
  P  P8  1  0.53649600  0.26087400  0.95706200  1
  P  P9  1  0.95706200  0.53649600  0.26087400  1
  P  P10  1  0.26087400  0.95706200  0.53649600  1
  P  P11  1  0.44310600  0.74808800  0.05164900  1
  O  O12  1  0.33487200  0.11158800  0.47837800  1
  O  O13  1  0.47837800  0.33487200  0.11158800  1
  O  O14  1  0.91024400  0.06474700  0.25352200  1
  O  O15  1  0.11158800  0.47837800  0.33487200  1
  O  O16  1  0.80602400  0.03282200  0.59112600  1
  O  O17  1  0.58473400  0.24141100  0.42176400  1
  O  O18  1  0.06474700  0.25352200  0.91024400  1
  O  O19  1  0.24141100  0.42176400  0.58473400  1
  O  O20  1  0.38456200  0.18974000  0.99951000  1
  O  O21  1  0.42176400  0.58473400  0.24141100  1
  O  O22  1  0.72977100  0.10832500  0.95226200  1
  O  O23  1  0.99951000  0.38456200  0.18974000  1
  O  O24  1  0.03282200  0.59112600  0.80602400  1
  O  O25  1  0.25352200  0.91024400  0.06474700  1
  O  O26  1  0.55071200  0.42082300  0.76419700  1
  O  O27  1  0.59112600  0.80602400  0.03282200  1
  O  O28  1  0.76419700  0.55071200  0.42082300  1
  O  O29  1  0.95226200  0.72977100  0.10832500  1
  O  O30  1  0.42082300  0.76419700  0.55071200  1
  O  O31  1  0.18974000  0.99951000  0.38456200  1
  O  O32  1  0.88300800  0.49936200  0.69257800  1
  O  O33  1  0.10832500  0.95226200  0.72977100  1
  O  O34  1  0.49936200  0.69257800  0.88300800  1
  O  O35  1  0.69257800  0.88300800  0.49936200  1
