# generated using pymatgen
data_Li4Ni(BO3)2
_symmetry_space_group_name_H-M   'P 1'
_cell_length_a   6.49948000
_cell_length_b   9.36387700
_cell_length_c   8.52318490
_cell_angle_alpha   89.99938469
_cell_angle_beta   112.41371679
_cell_angle_gamma   90.00007540
_symmetry_Int_Tables_number   1
_chemical_formula_structural   Li4Ni(BO3)2
_chemical_formula_sum   'Li16 Ni4 B8 O24'
_cell_volume   479.53674741
_cell_formula_units_Z   4
loop_
 _symmetry_equiv_pos_site_id
 _symmetry_equiv_pos_as_xyz
  1  'x, y, z'
loop_
 _atom_site_type_symbol
 _atom_site_label
 _atom_site_symmetry_multiplicity
 _atom_site_fract_x
 _atom_site_fract_y
 _atom_site_fract_z
 _atom_site_occupancy
  Li  Li0  1  0.33400400  0.05931300  0.16818600  1
  Li  Li1  1  0.83406300  0.05933400  0.16822000  1
  Li  Li2  1  0.33410300  0.44067600  0.66850200  1
  Li  Li3  1  0.83424600  0.44068400  0.66844500  1
  Li  Li4  1  0.16591200  0.55931700  0.33188200  1
  Li  Li5  1  0.66605400  0.55933100  0.33182700  1
  Li  Li6  1  0.66586500  0.94069500  0.83160100  1
  Li  Li7  1  0.16581200  0.94067900  0.83156800  1
  Li  Li8  1  0.00039300  0.20957400  0.00061200  1
  Li  Li9  1  0.50026400  0.20957500  0.00060400  1
  Li  Li10  1  0.50032800  0.29060100  0.50074200  1
  Li  Li11  1  0.00042500  0.29051100  0.50073000  1
  Li  Li12  1  0.49972300  0.70953000  0.49940500  1
  Li  Li13  1  0.99963500  0.70962300  0.49939900  1
  Li  Li14  1  0.49967800  0.79055300  0.99927500  1
  Li  Li15  1  0.99955700  0.79054800  0.99925400  1
  Ni  Ni16  1  0.74993900  0.00019800  0.49945800  1
  Ni  Ni17  1  0.75025500  0.49973900  0.00019900  1
  Ni  Ni18  1  0.24988800  0.99970000  0.49984200  1
  Ni  Ni19  1  0.25037100  0.50056500  0.00049900  1
  B  B20  1  0.63179700  0.19570700  0.76370900  1
  B  B21  1  0.13180100  0.19566000  0.76366700  1
  B  B22  1  0.13182300  0.30423800  0.26372300  1
  B  B23  1  0.63182900  0.30424800  0.26375500  1
  B  B24  1  0.36813000  0.69570900  0.73632000  1
  B  B25  1  0.86814200  0.69572500  0.73634900  1
  B  B26  1  0.36807200  0.80424900  0.23619700  1
  B  B27  1  0.86806900  0.80429400  0.23623100  1
  O  O28  1  0.55714600  0.10869000  0.61444300  1
  O  O29  1  0.05715900  0.10856700  0.61441900  1
  O  O30  1  0.05726600  0.39135600  0.11451300  1
  O  O31  1  0.55725800  0.39132500  0.11456100  1
  O  O32  1  0.44279200  0.60867900  0.88557200  1
  O  O33  1  0.94278200  0.60865400  0.88559600  1
  O  O34  1  0.44267900  0.89125700  0.38546400  1
  O  O35  1  0.94266400  0.89137300  0.38546100  1
  O  O36  1  0.12429300  0.15660300  0.24872300  1
  O  O37  1  0.62430800  0.15658900  0.24879700  1
  O  O38  1  0.62430800  0.34341100  0.74879100  1
  O  O39  1  0.12424300  0.34330200  0.74860300  1
  O  O40  1  0.37564900  0.65651500  0.25113100  1
  O  O41  1  0.87572800  0.65663800  0.25129500  1
  O  O42  1  0.37569400  0.84338400  0.75123900  1
  O  O43  1  0.87572500  0.84335000  0.75129400  1
  O  O44  1  0.70939700  0.13156600  0.91869200  1
  O  O45  1  0.20943600  0.13151500  0.91864900  1
  O  O46  1  0.20943300  0.36839900  0.41874500  1
  O  O47  1  0.70946400  0.36840400  0.41877700  1
  O  O48  1  0.29058600  0.63152800  0.58126900  1
  O  O49  1  0.79063400  0.63154400  0.58130000  1
  O  O50  1  0.29060200  0.86836700  0.08121600  1
  O  O51  1  0.79057400  0.86840900  0.08125000  1
