# generated using pymatgen
data_AlCoO3
_symmetry_space_group_name_H-M   'P 1'
_cell_length_a   4.85975372
_cell_length_b   5.32559542
_cell_length_c   4.96477640
_cell_angle_alpha   87.24563963
_cell_angle_beta   59.51777561
_cell_angle_gamma   116.01965390
_symmetry_Int_Tables_number   1
_chemical_formula_structural   AlCoO3
_chemical_formula_sum   'Al2 Co2 O6'
_cell_volume   93.23907440
_cell_formula_units_Z   2
loop_
 _symmetry_equiv_pos_site_id
 _symmetry_equiv_pos_as_xyz
  1  'x, y, z'
loop_
 _atom_site_type_symbol
 _atom_site_label
 _atom_site_symmetry_multiplicity
 _atom_site_fract_x
 _atom_site_fract_y
 _atom_site_fract_z
 _atom_site_occupancy
  Al  Al0  1  0.30894000  0.45589800  0.84486700  1
  Al  Al1  1  0.69975800  0.54902300  0.15070100  1
  Co  Co2  1  0.30422900  0.94769200  0.34465100  1
  Co  Co3  1  0.69804800  0.06487400  0.66227000  1
  O  O4  1  0.79953300  0.73702000  0.75767700  1
  O  O5  1  0.81161400  0.25634500  0.95623600  1
  O  O6  1  0.49037700  0.73301900  0.43474600  1
  O  O7  1  0.50126900  0.27306400  0.56279900  1
  O  O8  1  0.18862400  0.73552200  0.04001900  1
  O  O9  1  0.19760900  0.24754200  0.24603300  1
