# generated using pymatgen
data_Na4Sb2C4SO16
_symmetry_space_group_name_H-M   'P 1'
_cell_length_a   10.34526724
_cell_length_b   10.23742975
_cell_length_c   10.21319056
_cell_angle_alpha   60.77753460
_cell_angle_beta   59.72703448
_cell_angle_gamma   59.49543092
_symmetry_Int_Tables_number   1
_chemical_formula_structural   Na4Sb2C4SO16
_chemical_formula_sum   'Na8 Sb4 C8 S2 O32'
_cell_volume   764.63589628
_cell_formula_units_Z   2
loop_
 _symmetry_equiv_pos_site_id
 _symmetry_equiv_pos_as_xyz
  1  'x, y, z'
loop_
 _atom_site_type_symbol
 _atom_site_label
 _atom_site_symmetry_multiplicity
 _atom_site_fract_x
 _atom_site_fract_y
 _atom_site_fract_z
 _atom_site_occupancy
  Na  Na0  1  0.20661800  0.79338200  0.20661800  1
  Na  Na1  1  0.79353900  0.79353900  0.20646100  1
  Na  Na2  1  0.79537000  0.20463000  0.20463000  1
  Na  Na3  1  0.20463000  0.79537000  0.79537000  1
  Na  Na4  1  0.05342900  0.44657100  0.44657100  1
  Na  Na5  1  0.79338200  0.20661800  0.79338200  1
  Na  Na6  1  0.20646100  0.20646100  0.79353900  1
  Na  Na7  1  0.44657100  0.05342900  0.05342900  1
  Sb  Sb8  1  0.61459800  0.63101900  0.62971500  1
  Sb  Sb9  1  0.12466900  0.62971500  0.63101900  1
  Sb  Sb10  1  0.62971500  0.12466900  0.61459700  1
  Sb  Sb11  1  0.63101900  0.61459800  0.12466900  1
  C  C12  1  0.40514800  0.78236500  0.40804300  1
  C  C13  1  0.84973100  0.84207900  0.45399300  1
  C  C14  1  0.84207900  0.84973100  0.85419700  1
  C  C15  1  0.45399300  0.85419700  0.84973100  1
  C  C16  1  0.78236500  0.40514800  0.40444500  1
  C  C17  1  0.40804300  0.40444500  0.40514800  1
  C  C18  1  0.40444500  0.40804300  0.78236500  1
  C  C19  1  0.85419700  0.45399300  0.84207900  1
  S  S20  1  0.25000000  0.25000000  0.25000000  1
  S  S21  1  0.00000000  0.00000000  0.00000000  1
  O  O22  1  0.52406000  0.79153100  0.27385800  1
  O  O23  1  0.98589400  0.72579300  0.45112000  1
  O  O24  1  0.27781100  0.77747800  0.41749000  1
  O  O25  1  0.73393700  0.82447500  0.45476000  1
  O  O26  1  0.41400300  0.77469600  0.53491200  1
  O  O27  1  0.19471000  0.18799500  0.18795500  1
  O  O28  1  0.42934000  0.18795500  0.18799500  1
  O  O29  1  0.83189600  0.97898700  0.45212400  1
  O  O30  1  0.45212400  0.73699400  0.83189600  1
  O  O31  1  0.97898700  0.83189600  0.73699400  1
  O  O32  1  0.18799500  0.19471000  0.42934000  1
  O  O33  1  0.18795500  0.42934000  0.19471000  1
  O  O34  1  0.77469600  0.41400300  0.27638800  1
  O  O35  1  0.53491200  0.27638800  0.41400300  1
  O  O36  1  0.45476000  0.98682800  0.73393700  1
  O  O37  1  0.82447500  0.73393700  0.98682800  1
  O  O38  1  0.77747800  0.27781100  0.52722100  1
  O  O39  1  0.41749000  0.52722100  0.27781100  1
  O  O40  1  0.72579300  0.98589400  0.83719300  1
  O  O41  1  0.45112000  0.83719300  0.98589400  1
  O  O42  1  0.05991700  0.05842700  0.82143500  1
  O  O43  1  0.06022200  0.82143500  0.05842700  1
  O  O44  1  0.27385800  0.41055100  0.52406000  1
  O  O45  1  0.79153100  0.52406000  0.41055100  1
  O  O46  1  0.41055100  0.27385800  0.79153100  1
  O  O47  1  0.05842700  0.05991700  0.06022200  1
  O  O48  1  0.82143500  0.06022200  0.05991700  1
  O  O49  1  0.83719300  0.45112000  0.72579300  1
  O  O50  1  0.52722100  0.41749000  0.77747800  1
  O  O51  1  0.98682800  0.45476000  0.82447500  1
  O  O52  1  0.27638800  0.53491200  0.77469600  1
  O  O53  1  0.73699400  0.45212400  0.97898700  1
