# generated using pymatgen
data_Li4V3Fe3(SnO8)2
_symmetry_space_group_name_H-M   'P 1'
_cell_length_a   5.95975321
_cell_length_b   5.90214271
_cell_length_c   9.86308266
_cell_angle_alpha   89.82987180
_cell_angle_beta   89.57144332
_cell_angle_gamma   119.85874654
_symmetry_Int_Tables_number   1
_chemical_formula_structural   Li4V3Fe3(SnO8)2
_chemical_formula_sum   'Li4 V3 Fe3 Sn2 O16'
_cell_volume   300.86564859
_cell_formula_units_Z   1
loop_
 _symmetry_equiv_pos_site_id
 _symmetry_equiv_pos_as_xyz
  1  'x, y, z'
loop_
 _atom_site_type_symbol
 _atom_site_label
 _atom_site_symmetry_multiplicity
 _atom_site_fract_x
 _atom_site_fract_y
 _atom_site_fract_z
 _atom_site_occupancy
  Li  Li0  1  0.34122700  0.67081200  0.89485100  1
  Li  Li1  1  0.99628000  0.99788600  0.99325400  1
  Li  Li2  1  0.99643100  0.99768300  0.49329000  1
  Li  Li3  1  0.67564600  0.33773500  0.39096600  1
  V  V4  1  0.82542300  0.64748600  0.71460700  1
  V  V5  1  0.65323500  0.82654600  0.21931100  1
  V  V6  1  0.82511100  0.17813700  0.71474100  1
  Fe  Fe7  1  0.16772300  0.82668200  0.21273500  1
  Fe  Fe8  1  0.16728000  0.34056100  0.21264600  1
  Fe  Fe9  1  0.33156400  0.16574400  0.71494200  1
  Sn  Sn10  1  0.33272000  0.66644600  0.49063300  1
  Sn  Sn11  1  0.66231300  0.33143400  0.99508400  1
  O  O12  1  0.15196600  0.82991100  0.60358000  1
  O  O13  1  0.04097500  0.52033500  0.34299100  1
  O  O14  1  0.36654000  0.68303600  0.10390200  1
  O  O15  1  0.97618400  0.98843900  0.30591000  1
  O  O16  1  0.97359700  0.98632000  0.80437700  1
  O  O17  1  0.15114200  0.32171300  0.60365300  1
  O  O18  1  0.49685400  0.96833300  0.34090000  1
  O  O19  1  0.49694000  0.52865000  0.34049600  1
  O  O20  1  0.31663400  0.15841900  0.09584300  1
  O  O21  1  0.67567000  0.83840300  0.60680200  1
  O  O22  1  0.53241400  0.49079300  0.83442900  1
  O  O23  1  0.53290300  0.04194900  0.83476100  1
  O  O24  1  0.68429700  0.34267100  0.60096000  1
  O  O25  1  0.82987400  0.67499800  0.10136900  1
  O  O26  1  0.96939700  0.48438200  0.83947100  1
  O  O27  1  0.82966000  0.15479700  0.10133400  1
