# generated using pymatgen
data_Zr2N2O
_symmetry_space_group_name_H-M   'P 1'
_cell_length_a   8.88670891
_cell_length_b   8.88360737
_cell_length_c   8.85381890
_cell_angle_alpha   109.26607051
_cell_angle_beta   109.42625142
_cell_angle_gamma   109.68513669
_symmetry_Int_Tables_number   1
_chemical_formula_structural   Zr2N2O
_chemical_formula_sum   'Zr16 N16 O8'
_cell_volume   538.30511282
_cell_formula_units_Z   8
loop_
 _symmetry_equiv_pos_site_id
 _symmetry_equiv_pos_as_xyz
  1  'x, y, z'
loop_
 _atom_site_type_symbol
 _atom_site_label
 _atom_site_symmetry_multiplicity
 _atom_site_fract_x
 _atom_site_fract_y
 _atom_site_fract_z
 _atom_site_occupancy
  Zr  Zr0  1  0.49887600  0.99814400  0.98723300  1
  Zr  Zr1  1  0.75876700  0.29483900  0.54698600  1
  Zr  Zr2  1  0.72065700  0.47136000  0.24986000  1
  Zr  Zr3  1  0.20823800  0.95859200  0.24365500  1
  Zr  Zr4  1  0.24571000  0.21114500  0.95209600  1
  Zr  Zr5  1  0.02786000  0.74237100  0.77459800  1
  Zr  Zr6  1  0.53223900  0.74730900  0.28981900  1
  Zr  Zr7  1  0.96388600  0.25045200  0.21665300  1
  Zr  Zr8  1  0.50311700  0.50783800  0.51226600  1
  Zr  Zr9  1  0.99968800  0.99937000  0.49889700  1
  Zr  Zr10  1  0.47001700  0.25791000  0.72461000  1
  Zr  Zr11  1  0.99912000  0.50820700  0.99946700  1
  Zr  Zr12  1  0.75819200  0.78950100  0.04005900  1
  Zr  Zr13  1  0.28432300  0.53371800  0.74482300  1
  Zr  Zr14  1  0.78165000  0.03148500  0.75316700  1
  Zr  Zr15  1  0.24818800  0.70588000  0.46206700  1
  N  N16  1  0.72683700  0.99312800  0.95801300  1
  N  N17  1  0.50999200  0.23790700  0.97037600  1
  N  N18  1  0.01546300  0.04713300  0.27616300  1
  N  N19  1  0.76779800  0.72814700  0.26293700  1
  N  N20  1  0.72681800  0.25684900  0.76876400  1
  N  N21  1  0.76763600  0.53778000  0.52739200  1
  N  N22  1  0.27472400  0.74124600  0.22701900  1
  N  N23  1  0.95661300  0.72830900  0.98777000  1
  N  N24  1  0.53884400  0.77041400  0.54253500  1
  N  N25  1  0.98914500  0.95851800  0.73050200  1
  N  N26  1  0.22653200  0.27066600  0.73829100  1
  N  N27  1  0.54753900  0.53300800  0.77321700  1
  N  N28  1  0.22925900  0.45509200  0.46656000  1
  N  N29  1  0.96377700  0.50645700  0.23733500  1
  N  N30  1  0.03333900  0.48493000  0.75875200  1
  N  N31  1  0.26511900  0.77971700  0.72993700  1
  O  O32  1  0.27840500  0.01483100  0.05308700  1
  O  O33  1  0.76084500  0.03442000  0.48218500  1
  O  O34  1  0.73749900  0.21914000  0.27535600  1
  O  O35  1  0.05134900  0.27489000  0.01782500  1
  O  O36  1  0.44436400  0.46380700  0.22281900  1
  O  O37  1  0.23710100  0.96654500  0.50918700  1
  O  O38  1  0.46104900  0.22442800  0.45210600  1
  O  O39  1  0.48942300  0.76451800  0.03561800  1
