# generated using pymatgen
data_V2P2O7
_symmetry_space_group_name_H-M   'P 1'
_cell_length_a   6.52810200
_cell_length_b   6.52810200
_cell_length_c   23.62124200
_cell_angle_alpha   90.00000000
_cell_angle_beta   90.00000000
_cell_angle_gamma   90.00000000
_symmetry_Int_Tables_number   1
_chemical_formula_structural   V2P2O7
_chemical_formula_sum   'V16 P16 O56'
_cell_volume   1006.64558258
_cell_formula_units_Z   8
loop_
 _symmetry_equiv_pos_site_id
 _symmetry_equiv_pos_as_xyz
  1  'x, y, z'
loop_
 _atom_site_type_symbol
 _atom_site_label
 _atom_site_symmetry_multiplicity
 _atom_site_fract_x
 _atom_site_fract_y
 _atom_site_fract_z
 _atom_site_occupancy
  V  V0  1  0.11664800  0.59553900  0.88031000  1
  V  V1  1  0.11263700  0.22013700  0.99854800  1
  V  V2  1  0.16437600  0.53401600  0.26149400  1
  V  V3  1  0.17964500  0.24516600  0.64088700  1
  V  V4  1  0.22013700  0.88736300  0.74854800  1
  V  V5  1  0.24516600  0.82035500  0.39088700  1
  V  V6  1  0.40446100  0.11664800  0.13031000  1
  V  V7  1  0.46598400  0.16437600  0.51149400  1
  V  V8  1  0.53401600  0.83562400  0.01149400  1
  V  V9  1  0.59553900  0.88335200  0.63031000  1
  V  V10  1  0.75483400  0.17964500  0.89088700  1
  V  V11  1  0.77986300  0.11263700  0.24854800  1
  V  V12  1  0.82035500  0.75483400  0.14088700  1
  V  V13  1  0.83562400  0.46598400  0.76149400  1
  V  V14  1  0.88736300  0.77986300  0.49854800  1
  V  V15  1  0.88335200  0.40446100  0.38031000  1
  P  P16  1  0.05013100  0.71890500  0.01771800  1
  P  P17  1  0.11737400  0.73791200  0.62310300  1
  P  P18  1  0.26208800  0.11737400  0.87310300  1
  P  P19  1  0.28109500  0.05013100  0.26771800  1
  P  P20  1  0.29580600  0.63946100  0.12514600  1
  P  P21  1  0.31797900  0.37634400  0.76837600  1
  P  P22  1  0.36053900  0.29580600  0.37514600  1
  P  P23  1  0.37634400  0.68202100  0.51837600  1
  P  P24  1  0.62365600  0.31797900  0.01837600  1
  P  P25  1  0.63946100  0.70419400  0.87514600  1
  P  P26  1  0.68202100  0.62365600  0.26837600  1
  P  P27  1  0.70419400  0.36053900  0.62514600  1
  P  P28  1  0.71890500  0.94986900  0.76771800  1
  P  P29  1  0.73791200  0.88262600  0.37310300  1
  P  P30  1  0.88262600  0.26208800  0.12310300  1
  P  P31  1  0.94986900  0.28109500  0.51771800  1
  O  O32  1  0.03935400  0.55423100  0.97177000  1
  O  O33  1  0.07466300  0.17455100  0.09448400  1
  O  O34  1  0.08569300  0.24984100  0.89888600  1
  O  O35  1  0.10156000  0.56555900  0.66548800  1
  O  O36  1  0.10292900  0.18781700  0.24906800  1
  O  O37  1  0.15241000  0.21102600  0.54492300  1
  O  O38  1  0.14959900  0.74838500  0.16601000  1
  O  O39  1  0.16803900  0.59524800  0.06727800  1
  O  O40  1  0.15989300  0.54286900  0.78667800  1
  O  O41  1  0.17455100  0.92533700  0.84448400  1
  O  O42  1  0.18781700  0.89707100  0.99906800  1
  O  O43  1  0.21179400  0.21632700  0.73052700  1
  O  O44  1  0.21102600  0.84759000  0.29492300  1
  O  O45  1  0.20942200  0.47252400  0.35681400  1
  O  O46  1  0.21632700  0.78820600  0.48052700  1
  O  O47  1  0.25161500  0.14959900  0.41601000  1
  O  O48  1  0.25193000  0.62804200  0.57483100  1
  O  O49  1  0.24984100  0.91430700  0.64888600  1
  O  O50  1  0.37502200  0.43427100  0.14305200  1
  O  O51  1  0.37195800  0.25193000  0.82483100  1
  O  O52  1  0.43444100  0.10156000  0.91548800  1
  O  O53  1  0.40475200  0.16803900  0.31727800  1
  O  O54  1  0.44576900  0.03935400  0.22177000  1
  O  O55  1  0.43427100  0.62497800  0.89305200  1
  O  O56  1  0.45713100  0.15989300  0.03667800  1
  O  O57  1  0.47252400  0.79057800  0.10681400  1
  O  O58  1  0.46774900  0.48574800  0.49781500  1
  O  O59  1  0.51425200  0.46774900  0.74781500  1
  O  O60  1  0.48574800  0.53225100  0.24781500  1
  O  O61  1  0.53225100  0.51425200  0.99781500  1
  O  O62  1  0.52747600  0.20942200  0.60681400  1
  O  O63  1  0.54286900  0.84010700  0.53667800  1
  O  O64  1  0.56572900  0.37502200  0.39305200  1
  O  O65  1  0.55423100  0.96064600  0.72177000  1
  O  O66  1  0.59524800  0.83196100  0.81727800  1
  O  O67  1  0.56555900  0.89844000  0.41548800  1
  O  O68  1  0.62804200  0.74807000  0.32483100  1
  O  O69  1  0.62497800  0.56572900  0.64305200  1
  O  O70  1  0.75015900  0.08569300  0.14888600  1
  O  O71  1  0.74807000  0.37195800  0.07483100  1
  O  O72  1  0.74838500  0.85040100  0.91601000  1
  O  O73  1  0.78367300  0.21179400  0.98052700  1
  O  O74  1  0.79057800  0.52747600  0.85681400  1
  O  O75  1  0.78897400  0.15241000  0.79492300  1
  O  O76  1  0.78820600  0.78367300  0.23052700  1
  O  O77  1  0.81218300  0.10292900  0.49906800  1
  O  O78  1  0.82544900  0.07466300  0.34448400  1
  O  O79  1  0.84010700  0.45713100  0.28667800  1
  O  O80  1  0.83196100  0.40475200  0.56727800  1
  O  O81  1  0.85040100  0.25161500  0.66601000  1
  O  O82  1  0.84759000  0.78897400  0.04492300  1
  O  O83  1  0.89707100  0.81218300  0.74906800  1
  O  O84  1  0.89844000  0.43444100  0.16548800  1
  O  O85  1  0.91430700  0.75015900  0.39888600  1
  O  O86  1  0.92533700  0.82544900  0.59448400  1
  O  O87  1  0.96064600  0.44576900  0.47177000  1
