# generated using pymatgen
data_V2O5
_symmetry_space_group_name_H-M   'P 1'
_cell_length_a   6.61126600
_cell_length_b   7.60255900
_cell_length_c   7.96492200
_cell_angle_alpha   90.00000000
_cell_angle_beta   90.00000000
_cell_angle_gamma   90.00000000
_symmetry_Int_Tables_number   1
_chemical_formula_structural   V2O5
_chemical_formula_sum   'V8 O20'
_cell_volume   400.33720927
_cell_formula_units_Z   4
loop_
 _symmetry_equiv_pos_site_id
 _symmetry_equiv_pos_as_xyz
  1  'x, y, z'
loop_
 _atom_site_type_symbol
 _atom_site_label
 _atom_site_symmetry_multiplicity
 _atom_site_fract_x
 _atom_site_fract_y
 _atom_site_fract_z
 _atom_site_occupancy
  V  V0  1  0.25000000  0.73941200  0.16909300  1
  V  V1  1  0.75000000  0.23941200  0.33090700  1
  V  V2  1  0.25000000  0.76058800  0.66909300  1
  V  V3  1  0.75000000  0.26058800  0.83090700  1
  V  V4  1  0.75000000  0.62365400  0.11948600  1
  V  V5  1  0.25000000  0.12365400  0.38051400  1
  V  V6  1  0.75000000  0.87634600  0.61948600  1
  V  V7  1  0.25000000  0.37634600  0.88051400  1
  O  O8  1  0.25000000  0.51150700  0.05447700  1
  O  O9  1  0.75000000  0.17260600  0.13698700  1
  O  O10  1  0.53102800  0.75195900  0.12286300  1
  O  O11  1  0.96897200  0.75195900  0.12286300  1
  O  O12  1  0.25000000  0.98463700  0.20619200  1
  O  O13  1  0.75000000  0.48463700  0.29380800  1
  O  O14  1  0.03102800  0.25195900  0.37713700  1
  O  O15  1  0.46897200  0.25195900  0.37713700  1
  O  O16  1  0.25000000  0.67260600  0.36301300  1
  O  O17  1  0.75000000  0.01150700  0.44552300  1
  O  O18  1  0.25000000  0.98849300  0.55447700  1
  O  O19  1  0.75000000  0.32739400  0.63698700  1
  O  O20  1  0.53102800  0.74804100  0.62286300  1
  O  O21  1  0.96897200  0.74804100  0.62286300  1
  O  O22  1  0.25000000  0.51536300  0.70619200  1
  O  O23  1  0.75000000  0.01536300  0.79380800  1
  O  O24  1  0.03102800  0.24804100  0.87713700  1
  O  O25  1  0.46897200  0.24804100  0.87713700  1
  O  O26  1  0.25000000  0.82739400  0.86301300  1
  O  O27  1  0.75000000  0.48849300  0.94552300  1
