# generated using pymatgen
data_Na5Sn2P(CO4)4
_symmetry_space_group_name_H-M   'P 1'
_cell_length_a   10.16638213
_cell_length_b   10.16638213
_cell_length_c   9.94566501
_cell_angle_alpha   61.13416589
_cell_angle_beta   61.13416589
_cell_angle_gamma   91.09423444
_symmetry_Int_Tables_number   1
_chemical_formula_structural   Na5Sn2P(CO4)4
_chemical_formula_sum   'Na10 Sn4 P2 C8 O32'
_cell_volume   744.54118107
_cell_formula_units_Z   2
loop_
 _symmetry_equiv_pos_site_id
 _symmetry_equiv_pos_as_xyz
  1  'x, y, z'
loop_
 _atom_site_type_symbol
 _atom_site_label
 _atom_site_symmetry_multiplicity
 _atom_site_fract_x
 _atom_site_fract_y
 _atom_site_fract_z
 _atom_site_occupancy
  Na  Na0  1  0.32694000  0.07069200  0.85885400  1
  Na  Na1  1  0.07069200  0.32694000  0.35885400  1
  Na  Na2  1  0.92987700  0.67169600  0.25554600  1
  Na  Na3  1  0.93044300  0.06955700  0.25000000  1
  Na  Na4  1  0.32830400  0.07012300  0.24445400  1
  Na  Na5  1  0.67169600  0.92987700  0.75554600  1
  Na  Na6  1  0.07012300  0.32830400  0.74445400  1
  Na  Na7  1  0.06955700  0.93044300  0.75000000  1
  Na  Na8  1  0.92930800  0.67306000  0.64114600  1
  Na  Na9  1  0.67306000  0.92930800  0.14114600  1
  Sn  Sn10  1  0.50000000  0.00000000  0.50000000  1
  Sn  Sn11  1  0.50000000  0.50000000  0.50000000  1
  Sn  Sn12  1  0.00000000  0.50000000  0.00000000  1
  Sn  Sn13  1  0.50000000  0.50000000  0.00000000  1
  P  P14  1  0.87449200  0.12550800  0.75000000  1
  P  P15  1  0.12550800  0.87449200  0.25000000  1
  C  C16  1  0.71015200  0.28253800  0.45385200  1
  C  C17  1  0.34098700  0.28725600  0.43126600  1
  C  C18  1  0.71274400  0.65901300  0.06873400  1
  C  C19  1  0.71746200  0.28984800  0.04614800  1
  C  C20  1  0.28253800  0.71015200  0.95385200  1
  C  C21  1  0.28725600  0.34098700  0.93126600  1
  C  C22  1  0.65901300  0.71274400  0.56873400  1
  C  C23  1  0.28984800  0.71746200  0.54614800  1
  O  O24  1  0.69011500  0.05823900  0.87790800  1
  O  O25  1  0.94177000  0.06593400  0.87473900  1
  O  O26  1  0.93406600  0.05823000  0.62526100  1
  O  O27  1  0.94176100  0.30988500  0.62209200  1
  O  O28  1  0.59091200  0.15424900  0.58654500  1
  O  O29  1  0.35165300  0.30966200  0.54684300  1
  O  O30  1  0.31156000  0.14669100  0.46951000  1
  O  O31  1  0.69755900  0.42283900  0.42726300  1
  O  O32  1  0.84459500  0.28523400  0.33673500  1
  O  O33  1  0.35495700  0.40963800  0.28612000  1
  O  O34  1  0.71476600  0.15540500  0.16326500  1
  O  O35  1  0.59036200  0.64504300  0.21388000  1
  O  O36  1  0.15424900  0.59091200  0.08654500  1
  O  O37  1  0.30966200  0.35165300  0.04684300  1
  O  O38  1  0.57716100  0.30244100  0.07273700  1
  O  O39  1  0.85330900  0.68844000  0.03049000  1
  O  O40  1  0.42283900  0.69755900  0.92726300  1
  O  O41  1  0.14669100  0.31156000  0.96951000  1
  O  O42  1  0.69033800  0.64834700  0.95315700  1
  O  O43  1  0.84575100  0.40908800  0.91345500  1
  O  O44  1  0.40963800  0.35495700  0.78612000  1
  O  O45  1  0.28523400  0.84459500  0.83673500  1
  O  O46  1  0.64504300  0.59036200  0.71388000  1
  O  O47  1  0.15540500  0.71476600  0.66326500  1
  O  O48  1  0.68844000  0.85330900  0.53049000  1
  O  O49  1  0.30244100  0.57716100  0.57273700  1
  O  O50  1  0.64834700  0.69033800  0.45315700  1
  O  O51  1  0.40908800  0.84575100  0.41345500  1
  O  O52  1  0.05823900  0.69011500  0.37790800  1
  O  O53  1  0.06593400  0.94177000  0.37473900  1
  O  O54  1  0.05823000  0.93406600  0.12526100  1
  O  O55  1  0.30988500  0.94176100  0.12209200  1
