# generated using pymatgen
data_Ti3V5O16
_symmetry_space_group_name_H-M   'P 1'
_cell_length_a   5.90771496
_cell_length_b   5.90771496
_cell_length_c   9.02114729
_cell_angle_alpha   89.89769404
_cell_angle_beta   89.89769404
_cell_angle_gamma   60.61583035
_symmetry_Int_Tables_number   1
_chemical_formula_structural   Ti3V5O16
_chemical_formula_sum   'Ti3 V5 O16'
_cell_volume   274.34196945
_cell_formula_units_Z   1
loop_
 _symmetry_equiv_pos_site_id
 _symmetry_equiv_pos_as_xyz
  1  'x, y, z'
loop_
 _atom_site_type_symbol
 _atom_site_label
 _atom_site_symmetry_multiplicity
 _atom_site_fract_x
 _atom_site_fract_y
 _atom_site_fract_z
 _atom_site_occupancy
  Ti  Ti0  1  0.66433700  0.16133700  0.78800100  1
  Ti  Ti1  1  0.16133700  0.66433700  0.78800100  1
  Ti  Ti2  1  0.83558900  0.83558900  0.29263200  1
  V  V3  1  0.33129000  0.33129000  0.51406600  1
  V  V4  1  0.16697300  0.16697300  0.79516600  1
  V  V5  1  0.66134500  0.66134500  0.01466100  1
  V  V6  1  0.33616900  0.83316200  0.28972100  1
  V  V7  1  0.83316200  0.33616900  0.28972100  1
  O  O8  1  0.66470700  0.17362100  0.39426400  1
  O  O9  1  0.47277000  0.47277000  0.65482200  1
  O  O10  1  0.33488100  0.33488100  0.90222800  1
  O  O11  1  0.99850500  0.99850500  0.68740200  1
  O  O12  1  0.00111500  0.00111500  0.18637800  1
  O  O13  1  0.17362100  0.66470700  0.39426400  1
  O  O14  1  0.46717500  0.04767100  0.66281000  1
  O  O15  1  0.04767100  0.46717500  0.66281000  1
  O  O16  1  0.82769600  0.82769600  0.89564900  1
  O  O17  1  0.17752200  0.17752200  0.39676700  1
  O  O18  1  0.94882500  0.52131100  0.16118500  1
  O  O19  1  0.52131100  0.94882500  0.16118500  1
  O  O20  1  0.66889300  0.66889300  0.40047900  1
  O  O21  1  0.83003500  0.34332700  0.89505000  1
  O  O22  1  0.52316800  0.52316800  0.16233200  1
  O  O23  1  0.34332700  0.83003500  0.89505000  1
