# generated using pymatgen
data_Ti3FeSn2(PO4)6
_symmetry_space_group_name_H-M   'P 1'
_cell_length_a   9.15808312
_cell_length_b   9.15808312
_cell_length_c   9.15808326
_cell_angle_alpha   56.40601554
_cell_angle_beta   56.40601554
_cell_angle_gamma   56.40601740
_symmetry_Int_Tables_number   1
_chemical_formula_structural   Ti3FeSn2(PO4)6
_chemical_formula_sum   'Ti3 Fe1 Sn2 P6 O24'
_cell_volume   497.98654589
_cell_formula_units_Z   1
loop_
 _symmetry_equiv_pos_site_id
 _symmetry_equiv_pos_as_xyz
  1  'x, y, z'
loop_
 _atom_site_type_symbol
 _atom_site_label
 _atom_site_symmetry_multiplicity
 _atom_site_fract_x
 _atom_site_fract_y
 _atom_site_fract_z
 _atom_site_occupancy
  Ti  Ti0  1  0.85551000  0.85551000  0.85551000  1
  Ti  Ti1  1  0.64730700  0.64730700  0.64730700  1
  Ti  Ti2  1  0.34335000  0.34335000  0.34335000  1
  Fe  Fe3  1  0.15317400  0.15317400  0.15317400  1
  Sn  Sn4  1  0.01747000  0.01747000  0.01747000  1
  Sn  Sn5  1  0.48555400  0.48555400  0.48555400  1
  P  P6  1  0.47152600  0.03691000  0.74226500  1
  P  P7  1  0.03691000  0.74226500  0.47152600  1
  P  P8  1  0.74226500  0.47152600  0.03691000  1
  P  P9  1  0.25055900  0.54014700  0.95367400  1
  P  P10  1  0.95367400  0.25055900  0.54014700  1
  P  P11  1  0.54014700  0.95367400  0.25055900  1
  O  O12  1  0.69537900  0.51165400  0.87897000  1
  O  O13  1  0.51165400  0.87897000  0.69537900  1
  O  O14  1  0.06821200  0.71430600  0.94104800  1
  O  O15  1  0.87897000  0.69537900  0.51165400  1
  O  O16  1  0.24804700  0.37278200  0.96029600  1
  O  O17  1  0.41606900  0.59699100  0.78149500  1
  O  O18  1  0.94104800  0.06821200  0.71430600  1
  O  O19  1  0.78149500  0.41606900  0.59699100  1
  O  O20  1  0.63347500  0.00650600  0.77859600  1
  O  O21  1  0.59699100  0.78149500  0.41606900  1
  O  O22  1  0.28651600  0.05727800  0.91388600  1
  O  O23  1  0.00650600  0.77859600  0.63347500  1
  O  O24  1  0.96029600  0.24804700  0.37278200  1
  O  O25  1  0.71430600  0.94104800  0.06821200  1
  O  O26  1  0.44493300  0.22240700  0.56655800  1
  O  O27  1  0.37278200  0.96029600  0.24804700  1
  O  O28  1  0.22240700  0.56655800  0.44493300  1
  O  O29  1  0.05727800  0.91388600  0.28651600  1
  O  O30  1  0.56655800  0.44493300  0.22240700  1
  O  O31  1  0.77859600  0.63347500  0.00650600  1
  O  O32  1  0.13294200  0.27343400  0.50077500  1
  O  O33  1  0.91388600  0.28651600  0.05727800  1
  O  O34  1  0.50077500  0.13294200  0.27343400  1
  O  O35  1  0.27343400  0.50077500  0.13294200  1
