# generated using pymatgen
data_Ti3Mn2Cr3O16
_symmetry_space_group_name_H-M   'P 1'
_cell_length_a   5.86487900
_cell_length_b   5.89154631
_cell_length_c   8.94640815
_cell_angle_alpha   90.30129473
_cell_angle_beta   90.61931749
_cell_angle_gamma   119.77577211
_symmetry_Int_Tables_number   1
_chemical_formula_structural   Ti3Mn2Cr3O16
_chemical_formula_sum   'Ti3 Mn2 Cr3 O16'
_cell_volume   268.27896038
_cell_formula_units_Z   1
loop_
 _symmetry_equiv_pos_site_id
 _symmetry_equiv_pos_as_xyz
  1  'x, y, z'
loop_
 _atom_site_type_symbol
 _atom_site_label
 _atom_site_symmetry_multiplicity
 _atom_site_fract_x
 _atom_site_fract_y
 _atom_site_fract_z
 _atom_site_occupancy
  Ti  Ti0  1  0.67584300  0.82565900  0.70484900  1
  Ti  Ti1  1  0.82957700  0.16488100  0.21055600  1
  Ti  Ti2  1  0.83001000  0.66526000  0.21193400  1
  Mn  Mn3  1  0.66369400  0.33375700  0.48306400  1
  Mn  Mn4  1  0.33386000  0.66402700  0.98178400  1
  Cr  Cr5  1  0.33161200  0.16512500  0.20012100  1
  Cr  Cr6  1  0.16535400  0.33118800  0.69975800  1
  Cr  Cr7  1  0.18139000  0.83540900  0.71635200  1
  O  O8  1  0.82607300  0.17406400  0.60808200  1
  O  O9  1  0.94906400  0.47386900  0.34700100  1
  O  O10  1  0.67404700  0.33657600  0.09600500  1
  O  O11  1  0.00047400  0.00076900  0.31328800  1
  O  O12  1  0.00597600  0.99791500  0.81138600  1
  O  O13  1  0.82565200  0.65804100  0.60201400  1
  O  O14  1  0.52059500  0.05155500  0.34140200  1
  O  O15  1  0.51939900  0.47003000  0.34080500  1
  O  O16  1  0.65383400  0.82610400  0.10493700  1
  O  O17  1  0.33885100  0.17864900  0.60584100  1
  O  O18  1  0.47343300  0.52527600  0.83901300  1
  O  O19  1  0.46995800  0.95233200  0.84542100  1
  O  O20  1  0.32626100  0.67328500  0.59847000  1
  O  O21  1  0.17777000  0.34305800  0.10641500  1
  O  O22  1  0.05028300  0.52100100  0.83988900  1
  O  O23  1  0.17699200  0.83197300  0.10733400  1
