# generated using pymatgen
data_Ti3Cu2Sb(PO4)6
_symmetry_space_group_name_H-M   'P 1'
_cell_length_a   8.72778666
_cell_length_b   8.72778666
_cell_length_c   8.72778638
_cell_angle_alpha   59.95085010
_cell_angle_beta   59.95085010
_cell_angle_gamma   59.95085024
_symmetry_Int_Tables_number   1
_chemical_formula_structural   Ti3Cu2Sb(PO4)6
_chemical_formula_sum   'Ti3 Cu2 Sb1 P6 O24'
_cell_volume   469.58366252
_cell_formula_units_Z   1
loop_
 _symmetry_equiv_pos_site_id
 _symmetry_equiv_pos_as_xyz
  1  'x, y, z'
loop_
 _atom_site_type_symbol
 _atom_site_label
 _atom_site_symmetry_multiplicity
 _atom_site_fract_x
 _atom_site_fract_y
 _atom_site_fract_z
 _atom_site_occupancy
  Ti  Ti0  1  0.14205000  0.14205000  0.14205000  1
  Ti  Ti1  1  0.35675400  0.35675400  0.35675400  1
  Ti  Ti2  1  0.64166900  0.64166900  0.64166900  1
  Cu  Cu3  1  0.00594400  0.00594400  0.00594400  1
  Cu  Cu4  1  0.49985700  0.49985700  0.49985700  1
  Sb  Sb5  1  0.85722800  0.85722800  0.85722800  1
  P  P6  1  0.45316800  0.74787800  0.04337800  1
  P  P7  1  0.74787800  0.04337800  0.45316800  1
  P  P8  1  0.96127800  0.53564700  0.25436700  1
  P  P9  1  0.25436700  0.96127800  0.53564700  1
  P  P10  1  0.53564700  0.25436700  0.96127800  1
  P  P11  1  0.04337800  0.45316800  0.74787800  1
  O  O12  1  0.49020100  0.31190300  0.12249400  1
  O  O13  1  0.12249400  0.49020100  0.31190300  1
  O  O14  1  0.26514200  0.91496000  0.06014800  1
  O  O15  1  0.31190300  0.12249400  0.49020100  1
  O  O16  1  0.60625800  0.80047500  0.02424800  1
  O  O17  1  0.43091800  0.58169400  0.22992100  1
  O  O18  1  0.91496000  0.06014800  0.26514200  1
  O  O19  1  0.58169400  0.22992100  0.43091800  1
  O  O20  1  0.00037700  0.37592300  0.19555700  1
  O  O21  1  0.22992100  0.43091800  0.58169400  1
  O  O22  1  0.95036800  0.72798900  0.09251100  1
  O  O23  1  0.19555700  0.00037700  0.37592300  1
  O  O24  1  0.80047500  0.02424800  0.60625800  1
  O  O25  1  0.06014800  0.26514200  0.91496000  1
  O  O26  1  0.77179500  0.55479900  0.41919600  1
  O  O27  1  0.02424800  0.60625800  0.80047500  1
  O  O28  1  0.41919600  0.77179500  0.55479900  1
  O  O29  1  0.09251100  0.95036800  0.72798900  1
  O  O30  1  0.55479900  0.41919600  0.77179500  1
  O  O31  1  0.37592300  0.19555700  0.00037700  1
  O  O32  1  0.69755000  0.87441800  0.50193500  1
  O  O33  1  0.72798900  0.09251100  0.95036800  1
  O  O34  1  0.87441800  0.50193500  0.69755000  1
  O  O35  1  0.50193500  0.69755000  0.87441800  1
