# generated using pymatgen
data_Na5Bi2As(CO4)4
_symmetry_space_group_name_H-M   'P 1'
_cell_length_a   10.52013912
_cell_length_b   10.49513744
_cell_length_c   10.40925477
_cell_angle_alpha   60.42886753
_cell_angle_beta   60.18976824
_cell_angle_gamma   59.38136423
_symmetry_Int_Tables_number   1
_chemical_formula_structural   Na5Bi2As(CO4)4
_chemical_formula_sum   'Na10 Bi4 As2 C8 O32'
_cell_volume   812.52160490
_cell_formula_units_Z   2
loop_
 _symmetry_equiv_pos_site_id
 _symmetry_equiv_pos_as_xyz
  1  'x, y, z'
loop_
 _atom_site_type_symbol
 _atom_site_label
 _atom_site_symmetry_multiplicity
 _atom_site_fract_x
 _atom_site_fract_y
 _atom_site_fract_z
 _atom_site_occupancy
  Na  Na0  1  0.55380800  0.94619200  0.55380800  1
  Na  Na1  1  0.69494300  0.30505700  0.30505700  1
  Na  Na2  1  0.30555100  0.69444900  0.30555100  1
  Na  Na3  1  0.55362100  0.55362100  0.94637900  1
  Na  Na4  1  0.94637900  0.94637900  0.55362100  1
  Na  Na5  1  0.94645800  0.55354200  0.55354200  1
  Na  Na6  1  0.30505700  0.69494300  0.69494300  1
  Na  Na7  1  0.94619200  0.55380800  0.94619200  1
  Na  Na8  1  0.55354200  0.94645800  0.94645800  1
  Na  Na9  1  0.69444900  0.30555100  0.69444900  1
  Bi  Bi10  1  0.13024700  0.12897700  0.11668300  1
  Bi  Bi11  1  0.62409300  0.11668300  0.12897700  1
  Bi  Bi12  1  0.11668300  0.62409300  0.13024700  1
  Bi  Bi13  1  0.12897700  0.13024700  0.62409300  1
  As  As14  1  0.75000000  0.75000000  0.75000000  1
  As  As15  1  0.50000000  0.50000000  0.50000000  1
  C  C16  1  0.34283100  0.96507400  0.34450800  1
  C  C17  1  0.34450800  0.34758700  0.34283100  1
  C  C18  1  0.34758700  0.34450800  0.96507400  1
  C  C19  1  0.96507400  0.34283100  0.34758700  1
  C  C20  1  0.90626000  0.90740300  0.29108800  1
  C  C21  1  0.29108800  0.89524900  0.90626000  1
  C  C22  1  0.89524900  0.29108800  0.90740300  1
  C  C23  1  0.90740300  0.90626000  0.89524900  1
  O  O24  1  0.92090200  0.02429100  0.28955700  1
  O  O25  1  0.33489600  0.96199700  0.47532500  1
  O  O26  1  0.47532500  0.22778200  0.33489600  1
  O  O27  1  0.76525000  0.28955700  0.02429100  1
  O  O28  1  0.22238600  0.33885500  0.46609500  1
  O  O29  1  0.68271500  0.68297100  0.95175900  1
  O  O30  1  0.95175900  0.68255600  0.68271500  1
  O  O31  1  0.33641900  0.47746400  0.22480800  1
  O  O32  1  0.22480800  0.96130900  0.33641900  1
  O  O33  1  0.47746400  0.33641900  0.96130900  1
  O  O34  1  0.96130900  0.22480800  0.47746400  1
  O  O35  1  0.68255600  0.95175900  0.68297100  1
  O  O36  1  0.68297100  0.68271500  0.68255600  1
  O  O37  1  0.02381300  0.77481400  0.29272400  1
  O  O38  1  0.29272400  0.90864800  0.02381300  1
  O  O39  1  0.97266400  0.46609500  0.33885500  1
  O  O40  1  0.28955700  0.76525000  0.92090200  1
  O  O41  1  0.96199700  0.33489600  0.22778200  1
  O  O42  1  0.22778200  0.47532500  0.96199700  1
  O  O43  1  0.58396400  0.29748600  0.55917200  1
  O  O44  1  0.55917200  0.55937800  0.58396400  1
  O  O45  1  0.29429500  0.00928600  0.77544400  1
  O  O46  1  0.77544400  0.92097500  0.29429500  1
  O  O47  1  0.00928600  0.29429500  0.92097500  1
  O  O48  1  0.92097500  0.77544400  0.00928600  1
  O  O49  1  0.29748600  0.58396400  0.55937800  1
  O  O50  1  0.55937800  0.55917200  0.29748600  1
  O  O51  1  0.02429100  0.92090200  0.76525000  1
  O  O52  1  0.46609500  0.97266400  0.22238600  1
  O  O53  1  0.77481400  0.02381300  0.90864800  1
  O  O54  1  0.90864800  0.29272400  0.77481400  1
  O  O55  1  0.33885500  0.22238600  0.97266400  1
