# generated using pymatgen
data_Ti2N2O
_symmetry_space_group_name_H-M   'P 1'
_cell_length_a   8.22249677
_cell_length_b   8.21096346
_cell_length_c   8.22914773
_cell_angle_alpha   109.58299419
_cell_angle_beta   109.40814444
_cell_angle_gamma   109.41158030
_symmetry_Int_Tables_number   1
_chemical_formula_structural   Ti2N2O
_chemical_formula_sum   'Ti16 N16 O8'
_cell_volume   427.74845005
_cell_formula_units_Z   8
loop_
 _symmetry_equiv_pos_site_id
 _symmetry_equiv_pos_as_xyz
  1  'x, y, z'
loop_
 _atom_site_type_symbol
 _atom_site_label
 _atom_site_symmetry_multiplicity
 _atom_site_fract_x
 _atom_site_fract_y
 _atom_site_fract_z
 _atom_site_occupancy
  Ti  Ti0  1  0.95319300  0.24226200  0.19983800  1
  Ti  Ti1  1  0.51004100  0.01132900  0.99962900  1
  Ti  Ti2  1  0.79812200  0.04324000  0.76005800  1
  Ti  Ti3  1  0.69520900  0.45649500  0.23635700  1
  Ti  Ti4  1  0.74612100  0.28933500  0.53116200  1
  Ti  Ti5  1  0.75178100  0.78402600  0.04057200  1
  Ti  Ti6  1  0.00766200  0.50978200  0.99503800  1
  Ti  Ti7  1  0.00610300  0.99711500  0.50963000  1
  Ti  Ti8  1  0.49861500  0.49768300  0.50246100  1
  Ti  Ti9  1  0.45313500  0.25384400  0.70828600  1
  Ti  Ti10  1  0.53709700  0.73998700  0.29684900  1
  Ti  Ti11  1  0.25725100  0.71593100  0.46316100  1
  Ti  Ti12  1  0.24470400  0.21075300  0.95154800  1
  Ti  Ti13  1  0.29355800  0.54915600  0.75489800  1
  Ti  Ti14  1  0.21646100  0.95505400  0.25861600  1
  Ti  Ti15  1  0.04694100  0.75252500  0.79378400  1
  N  N16  1  0.73314800  0.22588200  0.27560200  1
  N  N17  1  0.46185100  0.22373100  0.44757500  1
  N  N18  1  0.77330200  0.72461200  0.26143300  1
  N  N19  1  0.45127500  0.45976300  0.22733200  1
  N  N20  1  0.04758500  0.27335700  0.01217700  1
  N  N21  1  0.51234100  0.23566000  0.95854800  1
  N  N22  1  0.98795700  0.94648200  0.72130300  1
  N  N23  1  0.27564000  0.73454900  0.22242100  1
  N  N24  1  0.95268900  0.72749300  0.99424700  1
  N  N25  1  0.54747900  0.54164300  0.77397900  1
  N  N26  1  0.22261300  0.27441800  0.73406000  1
  N  N27  1  0.53748500  0.77409100  0.54915100  1
  N  N28  1  0.03711800  0.48811700  0.76333700  1
  N  N29  1  0.72348100  0.98933400  0.95071200  1
  N  N30  1  0.26513500  0.77330400  0.72597700  1
  N  N31  1  0.23005300  0.95779100  0.50598500  1
  O  O32  1  0.76648500  0.04314100  0.49509100  1
  O  O33  1  0.96498500  0.50855500  0.24066200  1
  O  O34  1  0.27256300  0.00825500  0.04620300  1
  O  O35  1  0.01051700  0.05578900  0.27661000  1
  O  O36  1  0.72484100  0.26321600  0.77328100  1
  O  O37  1  0.77375200  0.55119000  0.54478500  1
  O  O38  1  0.48685500  0.76343700  0.03963900  1
  O  O39  1  0.22485400  0.44766900  0.45800400  1
