# generated using pymatgen
data_V3Fe2Te(PO4)6
_symmetry_space_group_name_H-M   'P 1'
_cell_length_a   8.64464439
_cell_length_b   8.76659879
_cell_length_c   8.76659883
_cell_angle_alpha   59.99999633
_cell_angle_beta   59.53221116
_cell_angle_gamma   59.53221504
_symmetry_Int_Tables_number   1
_chemical_formula_structural   V3Fe2Te(PO4)6
_chemical_formula_sum   'V3 Fe2 Te1 P6 O24'
_cell_volume   466.43078141
_cell_formula_units_Z   1
loop_
 _symmetry_equiv_pos_site_id
 _symmetry_equiv_pos_as_xyz
  1  'x, y, z'
loop_
 _atom_site_type_symbol
 _atom_site_label
 _atom_site_symmetry_multiplicity
 _atom_site_fract_x
 _atom_site_fract_y
 _atom_site_fract_z
 _atom_site_occupancy
  V  V0  1  0.06764200  0.64411900  0.64411900  1
  V  V1  1  0.42853800  0.85715400  0.85715400  1
  V  V2  1  0.92621500  0.35792800  0.35792800  1
  Fe  Fe3  1  0.01160100  0.99613300  0.99613300  1
  Fe  Fe4  1  0.49862800  0.50045700  0.50045700  1
  Te  Te5  1  0.56515900  0.14494700  0.14494700  1
  P  P6  1  0.24084400  0.25326700  0.55419400  1
  P  P7  1  0.24084400  0.95169500  0.25326700  1
  P  P8  1  0.24084400  0.55419400  0.95169500  1
  P  P9  1  0.75210900  0.46334500  0.04196100  1
  P  P10  1  0.75210900  0.04196100  0.74258500  1
  P  P11  1  0.75210900  0.74258500  0.46334500  1
  O  O12  1  0.07004700  0.11516900  0.31107100  1
  O  O13  1  0.07004700  0.50371300  0.11516900  1
  O  O14  1  0.07004700  0.31107100  0.50371300  1
  O  O15  1  0.22493200  0.09349400  0.74502700  1
  O  O16  1  0.43348200  0.18940900  0.40287700  1
  O  O17  1  0.25845200  0.41383100  0.56998900  1
  O  O18  1  0.22493200  0.93654800  0.09349400  1
  O  O19  1  0.25845200  0.75772800  0.41383100  1
  O  O20  1  0.57112400  0.61283400  0.00297400  1
  O  O21  1  0.25845200  0.56998900  0.75772800  1
  O  O22  1  0.78563800  0.26461100  0.05037100  1
  O  O23  1  0.57112400  0.00297400  0.81306900  1
  O  O24  1  0.43348200  0.97423300  0.18940900  1
  O  O25  1  0.22493200  0.74502700  0.93654800  1
  O  O26  1  0.73122100  0.44424100  0.23797500  1
  O  O27  1  0.43348200  0.40287700  0.97423300  1
  O  O28  1  0.73122100  0.23797500  0.58656300  1
  O  O29  1  0.78563800  0.05037100  0.89937900  1
  O  O30  1  0.73122100  0.58656300  0.44424100  1
  O  O31  1  0.57112400  0.81306900  0.61283400  1
  O  O32  1  0.78563800  0.89937900  0.26461100  1
  O  O33  1  0.93289200  0.67372000  0.50688700  1
  O  O34  1  0.93289200  0.50688700  0.88650200  1
  O  O35  1  0.93289200  0.88650200  0.67372000  1
