# generated using pymatgen
data_Na5CoO4
_symmetry_space_group_name_H-M   'P 1'
_cell_length_a   10.36135400
_cell_length_b   10.49163100
_cell_length_c   10.65766900
_cell_angle_alpha   90.00000000
_cell_angle_beta   90.00000000
_cell_angle_gamma   90.00000000
_symmetry_Int_Tables_number   1
_chemical_formula_structural   Na5CoO4
_chemical_formula_sum   'Na40 Co8 O32'
_cell_volume   1158.56858296
_cell_formula_units_Z   8
loop_
 _symmetry_equiv_pos_site_id
 _symmetry_equiv_pos_as_xyz
  1  'x, y, z'
loop_
 _atom_site_type_symbol
 _atom_site_label
 _atom_site_symmetry_multiplicity
 _atom_site_fract_x
 _atom_site_fract_y
 _atom_site_fract_z
 _atom_site_occupancy
  Na  Na0  1  0.85173600  0.38604500  0.10505400  1
  Na  Na1  1  0.35173600  0.11395500  0.10505400  1
  Na  Na2  1  0.16245700  0.89370700  0.11272100  1
  Na  Na3  1  0.66245700  0.60629300  0.11272100  1
  Na  Na4  1  0.63530100  0.15501800  0.11722900  1
  Na  Na5  1  0.13530100  0.34498200  0.11722900  1
  Na  Na6  1  0.91025100  0.12044300  0.14742100  1
  Na  Na7  1  0.41025100  0.37955700  0.14742100  1
  Na  Na8  1  0.60043900  0.87869100  0.16144300  1
  Na  Na9  1  0.10043900  0.62130900  0.16144300  1
  Na  Na10  1  0.10043900  0.12130900  0.33855700  1
  Na  Na11  1  0.60043900  0.37869100  0.33855700  1
  Na  Na12  1  0.41025100  0.87955700  0.35257900  1
  Na  Na13  1  0.91025100  0.62044300  0.35257900  1
  Na  Na14  1  0.63530100  0.65501800  0.38277100  1
  Na  Na15  1  0.13530100  0.84498200  0.38277100  1
  Na  Na16  1  0.16245700  0.39370700  0.38727900  1
  Na  Na17  1  0.66245700  0.10629300  0.38727900  1
  Na  Na18  1  0.35173600  0.61395500  0.39494600  1
  Na  Na19  1  0.85173600  0.88604500  0.39494600  1
  Na  Na20  1  0.64826400  0.38604500  0.60505400  1
  Na  Na21  1  0.14826400  0.11395500  0.60505400  1
  Na  Na22  1  0.33754300  0.89370700  0.61272100  1
  Na  Na23  1  0.83754300  0.60629300  0.61272100  1
  Na  Na24  1  0.36469900  0.34498200  0.61722900  1
  Na  Na25  1  0.86469900  0.15501800  0.61722900  1
  Na  Na26  1  0.08974900  0.37955700  0.64742100  1
  Na  Na27  1  0.58974900  0.12044300  0.64742100  1
  Na  Na28  1  0.89956100  0.87869100  0.66144300  1
  Na  Na29  1  0.39956100  0.62130900  0.66144300  1
  Na  Na30  1  0.89956100  0.37869100  0.83855700  1
  Na  Na31  1  0.39956100  0.12130900  0.83855700  1
  Na  Na32  1  0.58974900  0.62044300  0.85257900  1
  Na  Na33  1  0.08974900  0.87955700  0.85257900  1
  Na  Na34  1  0.36469900  0.84498200  0.88277100  1
  Na  Na35  1  0.86469900  0.65501800  0.88277100  1
  Na  Na36  1  0.33754300  0.39370700  0.88727900  1
  Na  Na37  1  0.83754300  0.10629300  0.88727900  1
  Na  Na38  1  0.64826400  0.88604500  0.89494600  1
  Na  Na39  1  0.14826400  0.61395500  0.89494600  1
  Co  Co40  1  0.88347500  0.85225700  0.12584000  1
  Co  Co41  1  0.38347500  0.64774300  0.12584000  1
  Co  Co42  1  0.88347500  0.35225700  0.37416000  1
  Co  Co43  1  0.38347500  0.14774300  0.37416000  1
  Co  Co44  1  0.61652500  0.85225700  0.62584000  1
  Co  Co45  1  0.11652500  0.64774300  0.62584000  1
  Co  Co46  1  0.61652500  0.35225700  0.87416000  1
  Co  Co47  1  0.11652500  0.14774300  0.87416000  1
  O  O48  1  0.49663400  0.73680400  0.02104900  1
  O  O49  1  0.99663400  0.76319600  0.02104900  1
  O  O50  1  0.76925400  0.97591200  0.05111200  1
  O  O51  1  0.26925400  0.52408800  0.05111200  1
  O  O52  1  0.99494200  0.94745500  0.24239300  1
  O  O53  1  0.49494200  0.55254500  0.24239300  1
  O  O54  1  0.77499700  0.75548300  0.23507800  1
  O  O55  1  0.27499700  0.74451700  0.23507800  1
  O  O56  1  0.77499700  0.25548300  0.26492200  1
  O  O57  1  0.27499700  0.24451700  0.26492200  1
  O  O58  1  0.99494200  0.44745500  0.25760700  1
  O  O59  1  0.49494200  0.05254500  0.25760700  1
  O  O60  1  0.76925400  0.47591200  0.44888800  1
  O  O61  1  0.26925400  0.02408800  0.44888800  1
  O  O62  1  0.49663400  0.23680400  0.47895100  1
  O  O63  1  0.99663400  0.26319600  0.47895100  1
  O  O64  1  0.00336600  0.73680400  0.52104900  1
  O  O65  1  0.50336600  0.76319600  0.52104900  1
  O  O66  1  0.73074600  0.97591200  0.55111200  1
  O  O67  1  0.23074600  0.52408800  0.55111200  1
  O  O68  1  0.50505800  0.94745500  0.74239300  1
  O  O69  1  0.00505800  0.55254500  0.74239300  1
  O  O70  1  0.72500300  0.75548300  0.73507800  1
  O  O71  1  0.22500300  0.74451700  0.73507800  1
  O  O72  1  0.72500300  0.25548300  0.76492200  1
  O  O73  1  0.22500300  0.24451700  0.76492200  1
  O  O74  1  0.00505800  0.05254500  0.75760700  1
  O  O75  1  0.50505800  0.44745500  0.75760700  1
  O  O76  1  0.23074600  0.02408800  0.94888800  1
  O  O77  1  0.73074600  0.47591200  0.94888800  1
  O  O78  1  0.00336600  0.23680400  0.97895100  1
  O  O79  1  0.50336600  0.26319600  0.97895100  1
