# generated using pymatgen
data_Na5Mn2As(CO4)4
_symmetry_space_group_name_H-M   'P 1'
_cell_length_a   10.10890693
_cell_length_b   10.08031683
_cell_length_c   10.02362717
_cell_angle_alpha   60.37430282
_cell_angle_beta   60.09058484
_cell_angle_gamma   59.53511234
_symmetry_Int_Tables_number   1
_chemical_formula_structural   Na5Mn2As(CO4)4
_chemical_formula_sum   'Na10 Mn4 As2 C8 O32'
_cell_volume   722.17125404
_cell_formula_units_Z   2
loop_
 _symmetry_equiv_pos_site_id
 _symmetry_equiv_pos_as_xyz
  1  'x, y, z'
loop_
 _atom_site_type_symbol
 _atom_site_label
 _atom_site_symmetry_multiplicity
 _atom_site_fract_x
 _atom_site_fract_y
 _atom_site_fract_z
 _atom_site_occupancy
  Na  Na0  1  0.57877000  0.90887100  0.16648700  1
  Na  Na1  1  0.34112900  0.67123000  0.90412800  1
  Na  Na2  1  0.90572500  0.67203300  0.34067100  1
  Na  Na3  1  0.34067100  0.08157000  0.90572500  1
  Na  Na4  1  0.16648700  0.34587200  0.57877000  1
  Na  Na5  1  0.16843000  0.90932900  0.57796700  1
  Na  Na6  1  0.57796700  0.34427500  0.16843000  1
  Na  Na7  1  0.91244100  0.08755900  0.91244100  1
  Na  Na8  1  0.90412800  0.08351300  0.34112900  1
  Na  Na9  1  0.16244100  0.33755900  0.16244100  1
  Mn  Mn10  1  0.75012200  0.99630500  0.74887800  1
  Mn  Mn11  1  0.74530500  0.50112200  0.25369500  1
  Mn  Mn12  1  0.74887800  0.50469500  0.75012200  1
  Mn  Mn13  1  0.25369500  0.49987800  0.74530500  1
  As  As14  1  0.12506400  0.87493600  0.12506400  1
  As  As15  1  0.37506400  0.12493600  0.37506400  1
  C  C16  1  0.53499600  0.28036500  0.53712400  1
  C  C17  1  0.53712400  0.64751600  0.53499600  1
  C  C18  1  0.90114000  0.28417900  0.53156200  1
  C  C19  1  0.53156200  0.28311800  0.90114000  1
  C  C20  1  0.96963500  0.71500400  0.60248400  1
  C  C21  1  0.60248400  0.71287600  0.96963500  1
  C  C22  1  0.96582100  0.34886000  0.96688100  1
  C  C23  1  0.96688100  0.71843800  0.96582100  1
  O  O24  1  0.59465100  0.85348600  0.94936200  1
  O  O25  1  0.55938400  0.65538800  0.39244400  1
  O  O26  1  0.39244400  0.39278500  0.55938400  1
  O  O27  1  0.85394800  0.69621600  0.10563500  1
  O  O28  1  0.39651400  0.65534900  0.64750000  1
  O  O29  1  0.91517600  0.94625100  0.19309600  1
  O  O30  1  0.19309600  0.94547800  0.91517600  1
  O  O31  1  0.56014400  0.14761800  0.65783100  1
  O  O32  1  0.65783100  0.63440800  0.56014400  1
  O  O33  1  0.89806800  0.40113500  0.39262300  1
  O  O34  1  0.39262300  0.30817400  0.89806800  1
  O  O35  1  0.18727400  0.95669700  0.19042700  1
  O  O36  1  0.19042700  0.66560200  0.18727400  1
  O  O37  1  0.85721500  0.85755600  0.59461200  1
  O  O38  1  0.59461200  0.69061600  0.85721500  1
  O  O39  1  0.55378400  0.39605200  0.90579900  1
  O  O40  1  0.94936200  0.60250000  0.59465100  1
  O  O41  1  0.90437000  0.30846600  0.64581500  1
  O  O42  1  0.64581500  0.14134900  0.90437000  1
  O  O43  1  0.30374900  0.33482400  0.30452200  1
  O  O44  1  0.30452200  0.05690400  0.30374900  1
  O  O45  1  0.10238200  0.68985600  0.61559200  1
  O  O46  1  0.61559200  0.59216900  0.10238200  1
  O  O47  1  0.94182600  0.85737700  0.84886500  1
  O  O48  1  0.84886500  0.35193200  0.94182600  1
  O  O49  1  0.29330300  0.06272600  0.58439800  1
  O  O50  1  0.58439800  0.05957300  0.29330300  1
  O  O51  1  0.10563500  0.34420100  0.85394800  1
  O  O52  1  0.64750000  0.30063800  0.39651400  1
  O  O53  1  0.94153400  0.34563000  0.10865100  1
  O  O54  1  0.10865100  0.60418500  0.94153400  1
  O  O55  1  0.90579900  0.14436500  0.55378400  1
