# generated using pymatgen
data_Mn3(O2F)2
_symmetry_space_group_name_H-M   'P 1'
_cell_length_a   5.50298800
_cell_length_b   5.52254401
_cell_length_c   6.99307113
_cell_angle_alpha   74.36093869
_cell_angle_beta   73.92162584
_cell_angle_gamma   75.60383301
_symmetry_Int_Tables_number   1
_chemical_formula_structural   Mn3(O2F)2
_chemical_formula_sum   'Mn6 O8 F4'
_cell_volume   193.14299859
_cell_formula_units_Z   2
loop_
 _symmetry_equiv_pos_site_id
 _symmetry_equiv_pos_as_xyz
  1  'x, y, z'
loop_
 _atom_site_type_symbol
 _atom_site_label
 _atom_site_symmetry_multiplicity
 _atom_site_fract_x
 _atom_site_fract_y
 _atom_site_fract_z
 _atom_site_occupancy
  Mn  Mn0  1  0.50000000  0.50000000  0.50000000  1
  Mn  Mn1  1  0.18957200  0.14132400  0.33306800  1
  Mn  Mn2  1  0.50000000  0.50000000  0.00000000  1
  Mn  Mn3  1  0.19068300  0.15688400  0.82698100  1
  Mn  Mn4  1  0.80931700  0.84311600  0.17301900  1
  Mn  Mn5  1  0.81042800  0.85867600  0.66693200  1
  O  O6  1  0.72042600  0.74420900  0.96247500  1
  O  O7  1  0.40956700  0.37995000  0.29756200  1
  O  O8  1  0.06977100  0.06785600  0.62527300  1
  O  O9  1  0.93022900  0.93214400  0.37472700  1
  O  O10  1  0.59043300  0.62005000  0.70243800  1
  O  O11  1  0.27957400  0.25579100  0.03752500  1
  O  O12  1  0.46647000  0.84906400  0.33396400  1
  O  O13  1  0.53353000  0.15093600  0.66603600  1
  F  F14  1  0.89011100  0.44279700  0.33010000  1
  F  F15  1  0.17024900  0.79431300  0.01766700  1
  F  F16  1  0.82975100  0.20568700  0.98233300  1
  F  F17  1  0.10988900  0.55720300  0.66990000  1
