# generated using pymatgen
data_Na5Bi2As(CO4)4
_symmetry_space_group_name_H-M   'P 1'
_cell_length_a   10.53316054
_cell_length_b   10.50969624
_cell_length_c   10.41584421
_cell_angle_alpha   60.44362348
_cell_angle_beta   60.21931915
_cell_angle_gamma   59.33705736
_symmetry_Int_Tables_number   1
_chemical_formula_structural   Na5Bi2As(CO4)4
_chemical_formula_sum   'Na10 Bi4 As2 C8 O32'
_cell_volume   815.15144693
_cell_formula_units_Z   2
loop_
 _symmetry_equiv_pos_site_id
 _symmetry_equiv_pos_as_xyz
  1  'x, y, z'
loop_
 _atom_site_type_symbol
 _atom_site_label
 _atom_site_symmetry_multiplicity
 _atom_site_fract_x
 _atom_site_fract_y
 _atom_site_fract_z
 _atom_site_occupancy
  Na  Na0  1  0.82149000  0.42255800  0.56809400  1
  Na  Na1  1  0.06339300  0.68208800  0.42736100  1
  Na  Na2  1  0.68208800  0.06339300  0.82715800  1
  Na  Na3  1  0.06214200  0.68190600  0.82744200  1
  Na  Na4  1  0.82263900  0.42284200  0.18660700  1
  Na  Na5  1  0.42255800  0.82149000  0.18785800  1
  Na  Na6  1  0.42284200  0.82263900  0.56791200  1
  Na  Na7  1  0.68128300  0.68128300  0.81871700  1
  Na  Na8  1  0.68190600  0.06214200  0.42851000  1
  Na  Na9  1  0.43128300  0.43128300  0.56871700  1
  Bi  Bi10  1  0.75323900  0.24187100  0.00364700  1
  Bi  Bi11  1  0.24635300  0.24875700  0.49676100  1
  Bi  Bi12  1  0.24187100  0.75323900  0.00124300  1
  Bi  Bi13  1  0.24875700  0.24635300  0.00812900  1
  As  As14  1  0.87465200  0.87465200  0.62534800  1
  As  As15  1  0.62465200  0.62465200  0.37534800  1
  C  C16  1  0.47537100  0.08708100  0.21733000  1
  C  C17  1  0.08708100  0.47537100  0.22021800  1
  C  C18  1  0.46989900  0.47112200  0.22158200  1
  C  C19  1  0.47112200  0.46989900  0.83739700  1
  C  C20  1  0.03267000  0.02978200  0.77462900  1
  C  C21  1  0.02978200  0.03267000  0.16291900  1
  C  C22  1  0.02841800  0.41260300  0.78010100  1
  C  C23  1  0.41260300  0.02841800  0.77887800  1
  O  O24  1  0.90163300  0.14813900  0.78393600  1
  O  O25  1  0.36170600  0.07804000  0.20847800  1
  O  O26  1  0.07804000  0.36170600  0.35177600  1
  O  O27  1  0.04095100  0.41448300  0.64789500  1
  O  O28  1  0.08370800  0.46606400  0.10186100  1
  O  O29  1  0.80657500  0.80567100  0.55888900  1
  O  O30  1  0.80567100  0.80657500  0.82886500  1
  O  O31  1  0.09947300  0.59819100  0.20840100  1
  O  O32  1  0.59819100  0.09947300  0.09393500  1
  O  O33  1  0.35407200  0.45853500  0.35224600  1
  O  O34  1  0.45853500  0.35407200  0.83514700  1
  O  O35  1  0.79062100  0.07482000  0.56713000  1
  O  O36  1  0.07482000  0.79062100  0.56742800  1
  O  O37  1  0.04152200  0.89822400  0.88829400  1
  O  O38  1  0.89822400  0.04152200  0.17196000  1
  O  O39  1  0.35333000  0.60210500  0.83551700  1
  O  O40  1  0.14813900  0.90163300  0.16629200  1
  O  O41  1  0.60058000  0.45569100  0.83886900  1
  O  O42  1  0.45569100  0.60058000  0.10486100  1
  O  O43  1  0.69111100  0.42113500  0.44342500  1
  O  O44  1  0.42113500  0.69111100  0.44432900  1
  O  O45  1  0.04159900  0.15606500  0.15052700  1
  O  O46  1  0.15606500  0.04159900  0.65180900  1
  O  O47  1  0.89775400  0.41485300  0.89592800  1
  O  O48  1  0.41485300  0.89775400  0.79146500  1
  O  O49  1  0.68257200  0.68287000  0.17517900  1
  O  O50  1  0.68287000  0.68257200  0.45937900  1
  O  O51  1  0.41448300  0.04095100  0.89667000  1
  O  O52  1  0.46606400  0.08370800  0.34836700  1
  O  O53  1  0.41113100  0.14513900  0.64942000  1
  O  O54  1  0.14513900  0.41113100  0.79430900  1
  O  O55  1  0.60210500  0.35333000  0.20904900  1
