# generated using pymatgen
data_Sr2Ti6N2O11
_symmetry_space_group_name_H-M   'P 1'
_cell_length_a   7.84652548
_cell_length_b   7.84652548
_cell_length_c   9.30616291
_cell_angle_alpha   81.39181505
_cell_angle_beta   81.39181505
_cell_angle_gamma   28.41003821
_symmetry_Int_Tables_number   1
_chemical_formula_structural   Sr2Ti6N2O11
_chemical_formula_sum   'Sr2 Ti6 N2 O11'
_cell_volume   269.33382239
_cell_formula_units_Z   1
loop_
 _symmetry_equiv_pos_site_id
 _symmetry_equiv_pos_as_xyz
  1  'x, y, z'
loop_
 _atom_site_type_symbol
 _atom_site_label
 _atom_site_symmetry_multiplicity
 _atom_site_fract_x
 _atom_site_fract_y
 _atom_site_fract_z
 _atom_site_occupancy
  Sr  Sr0  1  0.55521400  0.55521400  0.23830700  1
  Sr  Sr1  1  0.45538500  0.45538500  0.77289600  1
  Ti  Ti2  1  0.12129400  0.12129400  0.91325000  1
  Ti  Ti3  1  0.16596900  0.16596900  0.55793900  1
  Ti  Ti4  1  0.24169200  0.24169200  0.24277000  1
  Ti  Ti5  1  0.76844600  0.76844600  0.76859100  1
  Ti  Ti6  1  0.83251700  0.83251700  0.43511300  1
  Ti  Ti7  1  0.88806700  0.88806700  0.11042500  1
  N  N8  1  0.29278900  0.29278900  0.42079400  1
  N  N9  1  0.93197500  0.93197500  0.28685800  1
  O  O10  1  0.06851700  0.06851700  0.70556800  1
  O  O11  1  0.12278900  0.12278900  0.38332900  1
  O  O12  1  0.15456800  0.15456800  0.09568300  1
  O  O13  1  0.63965200  0.63965200  0.88672500  1
  O  O14  1  0.69717700  0.69717700  0.57412100  1
  O  O15  1  0.75512300  0.75512300  0.23190700  1
  O  O16  1  0.24014200  0.24014200  0.76126200  1
  O  O17  1  0.35858800  0.35858800  0.10842900  1
  O  O18  1  0.83857200  0.83857200  0.90175000  1
  O  O19  1  0.87218900  0.87218900  0.61740200  1
  O  O20  1  0.99933400  0.99933400  0.98688100  1
