# generated using pymatgen
data_YNb2NO5
_symmetry_space_group_name_H-M   'P 1'
_cell_length_a   15.02591600
_cell_length_b   5.29526500
_cell_length_c   5.93865852
_cell_angle_alpha   89.67164045
_cell_angle_beta   90.00000000
_cell_angle_gamma   90.00000000
_symmetry_Int_Tables_number   1
_chemical_formula_structural   YNb2NO5
_chemical_formula_sum   'Y4 Nb8 N4 O20'
_cell_volume   472.50877433
_cell_formula_units_Z   4
loop_
 _symmetry_equiv_pos_site_id
 _symmetry_equiv_pos_as_xyz
  1  'x, y, z'
loop_
 _atom_site_type_symbol
 _atom_site_label
 _atom_site_symmetry_multiplicity
 _atom_site_fract_x
 _atom_site_fract_y
 _atom_site_fract_z
 _atom_site_occupancy
  Y  Y0  1  0.24968900  0.25743500  0.69967800  1
  Y  Y1  1  0.24807700  0.75752700  0.29254200  1
  Y  Y2  1  0.75192300  0.75752700  0.79254200  1
  Y  Y3  1  0.75031100  0.25743500  0.19967800  1
  Nb  Nb4  1  0.08769600  0.74331800  0.82667000  1
  Nb  Nb5  1  0.08196700  0.22434700  0.17599200  1
  Nb  Nb6  1  0.91803300  0.22434700  0.67599200  1
  Nb  Nb7  1  0.91230400  0.74331800  0.32667000  1
  Nb  Nb8  1  0.58695400  0.27584800  0.68512500  1
  Nb  Nb9  1  0.58138300  0.77506500  0.31481100  1
  Nb  Nb10  1  0.41861700  0.77506500  0.81481100  1
  Nb  Nb11  1  0.41304600  0.27584800  0.18512500  1
  N  N12  1  0.15160100  0.03235000  0.92367200  1
  N  N13  1  0.84839900  0.03235000  0.42367200  1
  N  N14  1  0.66848900  0.39539600  0.88380800  1
  N  N15  1  0.33151100  0.39539600  0.38380800  1
  O  O16  1  0.16362300  0.10417800  0.39355300  1
  O  O17  1  0.16831100  0.60628300  0.61397500  1
  O  O18  1  0.14973400  0.53435200  0.09086800  1
  O  O19  1  0.00627100  0.39633400  0.87297300  1
  O  O20  1  0.00433000  0.90212000  0.13360200  1
  O  O21  1  0.99372900  0.39633400  0.37297200  1
  O  O22  1  0.99567000  0.90212000  0.63360200  1
  O  O23  1  0.85026600  0.53435200  0.59086800  1
  O  O24  1  0.83637700  0.10417800  0.89355300  1
  O  O25  1  0.83168900  0.60628300  0.11397500  1
  O  O26  1  0.66711300  0.89641800  0.11378400  1
  O  O27  1  0.64923400  0.95743700  0.58165700  1
  O  O28  1  0.64784800  0.46334800  0.40779500  1
  O  O29  1  0.50584500  0.59825800  0.62873200  1
  O  O30  1  0.50446100  0.07998500  0.36076300  1
  O  O31  1  0.49553900  0.07998500  0.86076300  1
  O  O32  1  0.49415500  0.59825800  0.12873200  1
  O  O33  1  0.35215200  0.46334800  0.90779500  1
  O  O34  1  0.35076600  0.95743700  0.08165700  1
  O  O35  1  0.33288700  0.89641800  0.61378400  1
