# generated using pymatgen
data_Ti3V2Sb(PO4)6
_symmetry_space_group_name_H-M   'P 1'
_cell_length_a   8.68819717
_cell_length_b   8.68819717
_cell_length_c   8.68819765
_cell_angle_alpha   60.80288750
_cell_angle_beta   60.80288750
_cell_angle_gamma   60.80288837
_symmetry_Int_Tables_number   1
_chemical_formula_structural   Ti3V2Sb(PO4)6
_chemical_formula_sum   'Ti3 V2 Sb1 P6 O24'
_cell_volume   472.13725929
_cell_formula_units_Z   1
loop_
 _symmetry_equiv_pos_site_id
 _symmetry_equiv_pos_as_xyz
  1  'x, y, z'
loop_
 _atom_site_type_symbol
 _atom_site_label
 _atom_site_symmetry_multiplicity
 _atom_site_fract_x
 _atom_site_fract_y
 _atom_site_fract_z
 _atom_site_occupancy
  Ti  Ti0  1  0.64658400  0.64658400  0.64658400  1
  Ti  Ti1  1  0.85529100  0.85529100  0.85529100  1
  Ti  Ti2  1  0.35485900  0.35485900  0.35485900  1
  V  V3  1  0.99821300  0.99821300  0.99821300  1
  V  V4  1  0.50161400  0.50161400  0.50161400  1
  Sb  Sb5  1  0.14730900  0.14730900  0.14730900  1
  P  P6  1  0.55681000  0.94788500  0.25175600  1
  P  P7  1  0.25175600  0.55681000  0.94788500  1
  P  P8  1  0.94788500  0.25175600  0.55681000  1
  P  P9  1  0.04399100  0.73981300  0.46269000  1
  P  P10  1  0.73981300  0.46269000  0.04399100  1
  P  P11  1  0.46269000  0.04399100  0.73981300  1
  O  O12  1  0.30933200  0.50030800  0.11593300  1
  O  O13  1  0.11593300  0.30933200  0.50030800  1
  O  O14  1  0.50030800  0.11593300  0.30933200  1
  O  O15  1  0.74811900  0.93666400  0.09134200  1
  O  O16  1  0.41129800  0.96593800  0.18886600  1
  O  O17  1  0.57688400  0.75631700  0.41340500  1
  O  O18  1  0.09134200  0.74811900  0.93666400  1
  O  O19  1  0.41340500  0.57688400  0.75631700  1
  O  O20  1  0.00119400  0.81255100  0.61497300  1
  O  O21  1  0.75631700  0.41340500  0.57688400  1
  O  O22  1  0.04775800  0.89055300  0.26831100  1
  O  O23  1  0.81255100  0.61497300  0.00119400  1
  O  O24  1  0.18886600  0.41129800  0.96593800  1
  O  O25  1  0.93666400  0.09134200  0.74811900  1
  O  O26  1  0.23843000  0.58210100  0.44876700  1
  O  O27  1  0.96593800  0.18886600  0.41129800  1
  O  O28  1  0.58210100  0.44876700  0.23843000  1
  O  O29  1  0.89055300  0.26831100  0.04775800  1
  O  O30  1  0.44876700  0.23843000  0.58210100  1
  O  O31  1  0.61497300  0.00119400  0.81255100  1
  O  O32  1  0.26831100  0.04775800  0.89055300  1
  O  O33  1  0.52116400  0.88968400  0.66330400  1
  O  O34  1  0.88968400  0.66330400  0.52116400  1
  O  O35  1  0.66330400  0.52116400  0.88968400  1
