# generated using pymatgen
data_Li5V6O5F19
_symmetry_space_group_name_H-M   'P 1'
_cell_length_a   5.18468617
_cell_length_b   5.38647827
_cell_length_c   16.17766521
_cell_angle_alpha   79.99667953
_cell_angle_beta   89.88711577
_cell_angle_gamma   89.86550603
_symmetry_Int_Tables_number   1
_chemical_formula_structural   Li5V6O5F19
_chemical_formula_sum   'Li5 V6 O5 F19'
_cell_volume   444.92673839
_cell_formula_units_Z   1
loop_
 _symmetry_equiv_pos_site_id
 _symmetry_equiv_pos_as_xyz
  1  'x, y, z'
loop_
 _atom_site_type_symbol
 _atom_site_label
 _atom_site_symmetry_multiplicity
 _atom_site_fract_x
 _atom_site_fract_y
 _atom_site_fract_z
 _atom_site_occupancy
  Li  Li0  1  0.71463600  0.02386400  0.50629500  1
  Li  Li1  1  0.95844400  0.22050600  0.78901600  1
  Li  Li2  1  0.82715300  0.62537300  0.17382100  1
  Li  Li3  1  0.29195300  0.51872000  0.48828500  1
  Li  Li4  1  0.03328600  0.65275500  0.89043100  1
  V  V5  1  0.50871400  0.49188900  0.99993300  1
  V  V6  1  0.02726500  0.36080000  0.33418200  1
  V  V7  1  0.98263400  0.03247500  0.00069900  1
  V  V8  1  0.46584600  0.18881600  0.67178200  1
  V  V9  1  0.52183100  0.80968500  0.32776100  1
  V  V10  1  0.97549200  0.69983300  0.66363900  1
  O  O11  1  0.20947000  0.36014500  0.68772400  1
  O  O12  1  0.28400600  0.54958500  0.35370900  1
  O  O13  1  0.78195400  0.61111300  0.31309400  1
  O  O14  1  0.79142800  0.30362500  0.97901800  1
  O  O15  1  0.78160500  0.94845100  0.64531900  1
  F  F16  1  0.29964500  0.19018400  0.02302100  1
  F  F17  1  0.22038800  0.04470700  0.35457900  1
  F  F18  1  0.71950900  0.10962400  0.32064000  1
  F  F19  1  0.43091500  0.20574600  0.55168700  1
  F  F20  1  0.08275100  0.01643100  0.88586800  1
  F  F21  1  0.07462500  0.37124900  0.22109300  1
  F  F22  1  0.93175700  0.28297800  0.44962100  1
  F  F23  1  0.58536500  0.47631700  0.11163800  1
  F  F24  1  0.61671200  0.12028200  0.77759100  1
  F  F25  1  0.18684600  0.68705600  0.01868600  1
  F  F26  1  0.71631800  0.45675500  0.63983300  1
  F  F27  1  0.91993400  0.58024600  0.78273400  1
  F  F28  1  0.38457400  0.53674600  0.89061200  1
  F  F29  1  0.90851400  0.94516000  0.11267500  1
  F  F30  1  0.09652500  0.71578700  0.55326600  1
  F  F31  1  0.57075500  0.77252200  0.44939100  1
  F  F32  1  0.42450700  0.88431500  0.22032700  1
  F  F33  1  0.28139700  0.86599900  0.69723300  1
  F  F34  1  0.70218200  0.80623900  0.97296700  1
