# generated using pymatgen
data_TiNi3Sn2(PO4)6
_symmetry_space_group_name_H-M   'P 1'
_cell_length_a   8.48580732
_cell_length_b   8.48580732
_cell_length_c   8.48580723
_cell_angle_alpha   61.44246178
_cell_angle_beta   61.44246178
_cell_angle_gamma   61.44245772
_symmetry_Int_Tables_number   1
_chemical_formula_structural   TiNi3Sn2(PO4)6
_chemical_formula_sum   'Ti1 Ni3 Sn2 P6 O24'
_cell_volume   446.07652332
_cell_formula_units_Z   1
loop_
 _symmetry_equiv_pos_site_id
 _symmetry_equiv_pos_as_xyz
  1  'x, y, z'
loop_
 _atom_site_type_symbol
 _atom_site_label
 _atom_site_symmetry_multiplicity
 _atom_site_fract_x
 _atom_site_fract_y
 _atom_site_fract_z
 _atom_site_occupancy
  Ti  Ti0  1  0.85079400  0.85079400  0.85079400  1
  Ni  Ni1  1  0.14925300  0.14925300  0.14925300  1
  Ni  Ni2  1  0.35238100  0.35238100  0.35238100  1
  Ni  Ni3  1  0.64595100  0.64595100  0.64595100  1
  Sn  Sn4  1  0.00235500  0.00235500  0.00235500  1
  Sn  Sn5  1  0.50175300  0.50175300  0.50175300  1
  P  P6  1  0.74752400  0.04514200  0.45217300  1
  P  P7  1  0.04514200  0.45217300  0.74752400  1
  P  P8  1  0.54367200  0.25037900  0.95563000  1
  P  P9  1  0.95563000  0.54367200  0.25037900  1
  P  P10  1  0.25037900  0.95563000  0.54367200  1
  P  P11  1  0.45217300  0.74752400  0.04514200  1
  O  O12  1  0.31682300  0.10376800  0.51750300  1
  O  O13  1  0.51750300  0.31682300  0.10376800  1
  O  O14  1  0.90479700  0.06766100  0.25127300  1
  O  O15  1  0.10376800  0.51750300  0.31682300  1
  O  O16  1  0.82348600  0.99330800  0.61229000  1
  O  O17  1  0.59738200  0.24787800  0.44483800  1
  O  O18  1  0.06766100  0.25127300  0.90479700  1
  O  O19  1  0.24787800  0.44483800  0.59738200  1
  O  O20  1  0.39997000  0.17479800  0.98753200  1
  O  O21  1  0.44483800  0.59738200  0.24787800  1
  O  O22  1  0.75250900  0.08839900  0.93400300  1
  O  O23  1  0.98753200  0.39997000  0.17479800  1
  O  O24  1  0.99330800  0.61229000  0.82348600  1
  O  O25  1  0.25127300  0.90479700  0.06766100  1
  O  O26  1  0.56942300  0.40255500  0.74917000  1
  O  O27  1  0.61229000  0.82348600  0.99330800  1
  O  O28  1  0.74917000  0.56942300  0.40255500  1
  O  O29  1  0.93400300  0.75250900  0.08839900  1
  O  O30  1  0.40255500  0.74917000  0.56942300  1
  O  O31  1  0.17479800  0.98753200  0.39997000  1
  O  O32  1  0.89657400  0.48998400  0.67707200  1
  O  O33  1  0.08839900  0.93400300  0.75250900  1
  O  O34  1  0.48998400  0.67707200  0.89657400  1
  O  O35  1  0.67707200  0.89657400  0.48998400  1
