# generated using pymatgen
data_Cr2O3
_symmetry_space_group_name_H-M   'P 1'
_cell_length_a   8.17257262
_cell_length_b   8.17257262
_cell_length_c   8.17257262
_cell_angle_alpha   109.47122063
_cell_angle_beta   109.47122063
_cell_angle_gamma   109.47122063
_symmetry_Int_Tables_number   1
_chemical_formula_structural   Cr2O3
_chemical_formula_sum   'Cr16 O24'
_cell_volume   420.19847668
_cell_formula_units_Z   8
loop_
 _symmetry_equiv_pos_site_id
 _symmetry_equiv_pos_as_xyz
  1  'x, y, z'
loop_
 _atom_site_type_symbol
 _atom_site_label
 _atom_site_symmetry_multiplicity
 _atom_site_fract_x
 _atom_site_fract_y
 _atom_site_fract_z
 _atom_site_occupancy
  Cr  Cr0  1  0.00000000  0.00000000  0.00000000  1
  Cr  Cr1  1  0.50000000  0.50000000  0.00000000  1
  Cr  Cr2  1  0.50000000  0.00000000  0.50000000  1
  Cr  Cr3  1  0.00000000  0.50000000  0.50000000  1
  Cr  Cr4  1  0.53837700  0.28837700  0.25000000  1
  Cr  Cr5  1  0.03837700  0.78837700  0.25000000  1
  Cr  Cr6  1  0.78837700  0.25000000  0.03837700  1
  Cr  Cr7  1  0.21162300  0.75000000  0.96162300  1
  Cr  Cr8  1  0.75000000  0.46162300  0.71162300  1
  Cr  Cr9  1  0.75000000  0.96162300  0.21162300  1
  Cr  Cr10  1  0.25000000  0.53837700  0.28837700  1
  Cr  Cr11  1  0.25000000  0.03837700  0.78837700  1
  Cr  Cr12  1  0.71162300  0.75000000  0.46162300  1
  Cr  Cr13  1  0.28837700  0.25000000  0.53837700  1
  Cr  Cr14  1  0.46162300  0.71162300  0.75000000  1
  Cr  Cr15  1  0.96162300  0.21162300  0.75000000  1
  O  O16  1  0.00546700  0.45851600  0.73213200  1
  O  O17  1  0.72638400  0.95851600  0.95304900  1
  O  O18  1  0.77361600  0.72666500  0.23213200  1
  O  O19  1  0.49453300  0.22666500  0.45304900  1
  O  O20  1  0.45304900  0.49453300  0.22666500  1
  O  O21  1  0.26786800  0.99453300  0.54148400  1
  O  O22  1  0.04695100  0.27361600  0.04148400  1
  O  O23  1  0.23213200  0.77361600  0.72666500  1
  O  O24  1  0.04148400  0.04695100  0.27361600  1
  O  O25  1  0.77333500  0.54695100  0.50546700  1
  O  O26  1  0.72666500  0.23213200  0.77361600  1
  O  O27  1  0.45851600  0.73213200  0.00546700  1
  O  O28  1  0.22666500  0.45304900  0.49453300  1
  O  O29  1  0.95851600  0.95304900  0.72638400  1
  O  O30  1  0.54148400  0.26786800  0.99453300  1
  O  O31  1  0.27333500  0.76786800  0.22638400  1
  O  O32  1  0.73213200  0.00546700  0.45851600  1
  O  O33  1  0.54695100  0.50546700  0.77333500  1
  O  O34  1  0.95304900  0.72638400  0.95851600  1
  O  O35  1  0.76786800  0.22638400  0.27333500  1
  O  O36  1  0.99453300  0.54148400  0.26786800  1
  O  O37  1  0.27361600  0.04148400  0.04695100  1
  O  O38  1  0.50546700  0.77333500  0.54695100  1
  O  O39  1  0.22638400  0.27333500  0.76786800  1
