# generated using pymatgen
data_Sn2N2O
_symmetry_space_group_name_H-M   'P 1'
_cell_length_a   6.45457842
_cell_length_b   6.45457842
_cell_length_c   15.80929800
_cell_angle_alpha   90.00000000
_cell_angle_beta   90.00000000
_cell_angle_gamma   120.00000427
_symmetry_Int_Tables_number   1
_chemical_formula_structural   Sn2N2O
_chemical_formula_sum   'Sn16 N16 O8'
_cell_volume   570.39927086
_cell_formula_units_Z   8
loop_
 _symmetry_equiv_pos_site_id
 _symmetry_equiv_pos_as_xyz
  1  'x, y, z'
loop_
 _atom_site_type_symbol
 _atom_site_label
 _atom_site_symmetry_multiplicity
 _atom_site_fract_x
 _atom_site_fract_y
 _atom_site_fract_z
 _atom_site_occupancy
  Sn  Sn0  1  0.66666700  0.33333300  0.95507100  1
  Sn  Sn1  1  0.66666700  0.33333300  0.33137800  1
  Sn  Sn2  1  0.50000000  0.00000000  0.50000000  1
  Sn  Sn3  1  0.83190000  0.16810000  0.16521500  1
  Sn  Sn4  1  0.66380100  0.83190000  0.83478500  1
  Sn  Sn5  1  0.16810000  0.33619900  0.83478500  1
  Sn  Sn6  1  0.00000000  0.00000000  0.62867800  1
  Sn  Sn7  1  0.50000000  0.50000000  0.50000000  1
  Sn  Sn8  1  0.00000000  0.00000000  0.37132200  1
  Sn  Sn9  1  0.00000000  0.00000000  0.00000000  1
  Sn  Sn10  1  0.83190000  0.66380100  0.16521500  1
  Sn  Sn11  1  0.33619900  0.16810000  0.16521500  1
  Sn  Sn12  1  0.16810000  0.83190000  0.83478500  1
  Sn  Sn13  1  0.00000000  0.50000000  0.50000000  1
  Sn  Sn14  1  0.33333300  0.66666700  0.66862200  1
  Sn  Sn15  1  0.33333300  0.66666700  0.04492900  1
  N  N16  1  0.66666700  0.33333300  0.08855900  1
  N  N17  1  0.82150100  0.17849900  0.41762100  1
  N  N18  1  0.84525600  0.15474400  0.91270300  1
  N  N19  1  0.17849900  0.35699800  0.58237900  1
  N  N20  1  0.64300200  0.82150100  0.58237900  1
  N  N21  1  0.69051300  0.84525600  0.08729700  1
  N  N22  1  0.15474400  0.30948700  0.08729700  1
  N  N23  1  0.00000000  0.00000000  0.76138700  1
  N  N24  1  0.00000000  0.00000000  0.23861300  1
  N  N25  1  0.84525600  0.69051300  0.91270300  1
  N  N26  1  0.30948700  0.15474400  0.91270300  1
  N  N27  1  0.82150100  0.64300200  0.41762100  1
  N  N28  1  0.35699800  0.17849900  0.41762100  1
  N  N29  1  0.15474400  0.84525600  0.08729700  1
  N  N30  1  0.17849900  0.82150100  0.58237900  1
  N  N31  1  0.33333300  0.66666700  0.91144100  1
  O  O32  1  0.52319400  0.47680600  0.24249100  1
  O  O33  1  0.66666700  0.33333300  0.56366000  1
  O  O34  1  0.52319400  0.04638900  0.24249100  1
  O  O35  1  0.95361100  0.47680600  0.24249100  1
  O  O36  1  0.04638900  0.52319400  0.75750900  1
  O  O37  1  0.47680600  0.95361100  0.75750900  1
  O  O38  1  0.33333300  0.66666700  0.43634000  1
  O  O39  1  0.47680600  0.52319400  0.75750900  1
