# generated using pymatgen
data_Na2NiO3
_symmetry_space_group_name_H-M   'P 1'
_cell_length_a   5.20179770
_cell_length_b   5.20179770
_cell_length_c   10.75984826
_cell_angle_alpha   85.18877855
_cell_angle_beta   85.18877855
_cell_angle_gamma   119.99264471
_symmetry_Int_Tables_number   1
_chemical_formula_structural   Na2NiO3
_chemical_formula_sum   'Na8 Ni4 O12'
_cell_volume   248.58757351
_cell_formula_units_Z   4
loop_
 _symmetry_equiv_pos_site_id
 _symmetry_equiv_pos_as_xyz
  1  'x, y, z'
loop_
 _atom_site_type_symbol
 _atom_site_label
 _atom_site_symmetry_multiplicity
 _atom_site_fract_x
 _atom_site_fract_y
 _atom_site_fract_z
 _atom_site_occupancy
  Na  Na0  1  0.84225700  0.68433000  0.99935500  1
  Na  Na1  1  0.68433000  0.84225700  0.49935500  1
  Na  Na2  1  0.00000000  0.50000000  0.50000000  1
  Na  Na3  1  0.91556600  0.08443400  0.75000000  1
  Na  Na4  1  0.08443400  0.91556600  0.25000000  1
  Na  Na5  1  0.31567000  0.15774300  0.50064500  1
  Na  Na6  1  0.50000000  0.00000000  0.00000000  1
  Na  Na7  1  0.15774300  0.31567000  0.00064500  1
  Ni  Ni8  1  0.58259400  0.41740600  0.75000000  1
  Ni  Ni9  1  0.24964200  0.75035800  0.75000000  1
  Ni  Ni10  1  0.41740600  0.58259400  0.25000000  1
  Ni  Ni11  1  0.75035800  0.24964200  0.25000000  1
  O  O12  1  0.94934900  0.74070800  0.65165800  1
  O  O13  1  0.88228600  0.42855700  0.84821800  1
  O  O14  1  0.74070800  0.94934900  0.15165800  1
  O  O15  1  0.50356100  0.67170500  0.84804800  1
  O  O16  1  0.42855700  0.88228600  0.34821800  1
  O  O17  1  0.67170500  0.50356100  0.34804800  1
  O  O18  1  0.32829500  0.49643900  0.65195200  1
  O  O19  1  0.57144300  0.11771400  0.65178200  1
  O  O20  1  0.49643900  0.32829500  0.15195200  1
  O  O21  1  0.25929200  0.05065100  0.84834200  1
  O  O22  1  0.11771400  0.57144300  0.15178200  1
  O  O23  1  0.05065100  0.25929200  0.34834200  1
