# generated using pymatgen
data_Sn2N2O
_symmetry_space_group_name_H-M   'P 1'
_cell_length_a   8.87375845
_cell_length_b   8.84696669
_cell_length_c   8.86224396
_cell_angle_alpha   109.38206934
_cell_angle_beta   109.52913116
_cell_angle_gamma   109.59468551
_symmetry_Int_Tables_number   1
_chemical_formula_structural   Sn2N2O
_chemical_formula_sum   'Sn16 N16 O8'
_cell_volume   534.96743138
_cell_formula_units_Z   8
loop_
 _symmetry_equiv_pos_site_id
 _symmetry_equiv_pos_as_xyz
  1  'x, y, z'
loop_
 _atom_site_type_symbol
 _atom_site_label
 _atom_site_symmetry_multiplicity
 _atom_site_fract_x
 _atom_site_fract_y
 _atom_site_fract_z
 _atom_site_occupancy
  Sn  Sn0  1  0.49945200  0.99935800  0.98973800  1
  Sn  Sn1  1  0.74417600  0.28167100  0.53316100  1
  Sn  Sn2  1  0.71495800  0.46997500  0.23678200  1
  Sn  Sn3  1  0.22753200  0.96204300  0.25683100  1
  Sn  Sn4  1  0.24513100  0.21644600  0.95468600  1
  Sn  Sn5  1  0.00702700  0.50407800  0.00223100  1
  Sn  Sn6  1  0.97382400  0.25647100  0.21221000  1
  Sn  Sn7  1  0.49775300  0.50225200  0.50706100  1
  Sn  Sn8  1  0.00556100  0.99240000  0.50346700  1
  Sn  Sn9  1  0.53527500  0.75429100  0.29045100  1
  Sn  Sn10  1  0.45905600  0.25035500  0.71533800  1
  Sn  Sn11  1  0.03507600  0.74745100  0.78299600  1
  Sn  Sn12  1  0.75338200  0.78285100  0.03241900  1
  Sn  Sn13  1  0.79095400  0.02468600  0.76142000  1
  Sn  Sn14  1  0.27099200  0.52461300  0.73475700  1
  Sn  Sn15  1  0.25068000  0.71487700  0.46630700  1
  N  N16  1  0.73552200  0.99871500  0.97330800  1
  N  N17  1  0.50258000  0.23646500  0.96491100  1
  N  N18  1  0.47034900  0.23327300  0.46104500  1
  N  N19  1  0.76199900  0.73510400  0.26321100  1
  N  N20  1  0.04562000  0.27202000  0.00035900  1
  N  N21  1  0.23390900  0.95913300  0.50405400  1
  N  N22  1  0.96743600  0.74235500  0.00229700  1
  N  N23  1  0.22598300  0.45335300  0.45473800  1
  N  N24  1  0.54936200  0.77414500  0.54673100  1
  N  N25  1  0.99665900  0.94945500  0.73020400  1
  N  N26  1  0.54372800  0.54260500  0.77960100  1
  N  N27  1  0.95397300  0.50003100  0.22782100  1
  N  N28  1  0.21901700  0.26950900  0.72612000  1
  N  N29  1  0.27877500  0.73090700  0.22862300  1
  N  N30  1  0.01763100  0.48612100  0.75260100  1
  N  N31  1  0.26708900  0.77009000  0.73237200  1
  O  O32  1  0.76830600  0.04581600  0.49612200  1
  O  O33  1  0.28603000  0.01409400  0.05588700  1
  O  O34  1  0.72572600  0.22327000  0.27591600  1
  O  O35  1  0.45257400  0.45812000  0.22727300  1
  O  O36  1  0.76729800  0.54373200  0.51775500  1
  O  O37  1  0.71866500  0.24911000  0.77029700  1
  O  O38  1  0.48825500  0.77503700  0.04552600  1
  O  O39  1  0.01268500  0.05372200  0.28336900  1
