# generated using pymatgen
data_Na4CoO4
_symmetry_space_group_name_H-M   'P 1'
_cell_length_a   6.04844200
_cell_length_b   10.07274700
_cell_length_c   17.83544613
_cell_angle_alpha   88.91936810
_cell_angle_beta   90.00000000
_cell_angle_gamma   90.00000000
_symmetry_Int_Tables_number   1
_chemical_formula_structural   Na4CoO4
_chemical_formula_sum   'Na32 Co8 O32'
_cell_volume   1086.42105791
_cell_formula_units_Z   8
loop_
 _symmetry_equiv_pos_site_id
 _symmetry_equiv_pos_as_xyz
  1  'x, y, z'
loop_
 _atom_site_type_symbol
 _atom_site_label
 _atom_site_symmetry_multiplicity
 _atom_site_fract_x
 _atom_site_fract_y
 _atom_site_fract_z
 _atom_site_occupancy
  Na  Na0  1  0.08817500  0.85396100  0.85660000  1
  Na  Na1  1  0.91182500  0.85396100  0.35660000  1
  Na  Na2  1  0.61215000  0.80019700  0.14282600  1
  Na  Na3  1  0.38785000  0.80019700  0.64282600  1
  Na  Na4  1  0.68741800  0.74439300  0.78971100  1
  Na  Na5  1  0.31258200  0.74439300  0.28971100  1
  Na  Na6  1  0.16135800  0.67160500  0.50237900  1
  Na  Na7  1  0.83864200  0.67160500  0.00237900  1
  Na  Na8  1  0.90296100  0.61265200  0.23584300  1
  Na  Na9  1  0.09703900  0.61265200  0.73584300  1
  Na  Na10  1  0.37665700  0.63675400  0.91890900  1
  Na  Na11  1  0.62334300  0.63675400  0.41890900  1
  Na  Na12  1  0.18056600  0.45217200  0.05756000  1
  Na  Na13  1  0.81943400  0.45217200  0.55756000  1
  Na  Na14  1  0.37819900  0.40838400  0.25438300  1
  Na  Na15  1  0.62180100  0.40838400  0.75438300  1
  Na  Na16  1  0.65742000  0.34933200  0.00319700  1
  Na  Na17  1  0.34258000  0.34933200  0.50319700  1
  Na  Na18  1  0.14465500  0.31347400  0.67699100  1
  Na  Na19  1  0.85534500  0.31347400  0.17699100  1
  Na  Na20  1  0.69034800  0.30615800  0.37245600  1
  Na  Na21  1  0.30965200  0.30615800  0.87245600  1
  Na  Na22  1  0.16385300  0.19786900  0.36613600  1
  Na  Na23  1  0.83614700  0.19786900  0.86613600  1
  Na  Na24  1  0.66392300  0.15322500  0.67456000  1
  Na  Na25  1  0.33607700  0.15322500  0.17456000  1
  Na  Na26  1  0.83563900  0.09828500  0.50706500  1
  Na  Na27  1  0.16436100  0.09828500  0.00706500  1
  Na  Na28  1  0.19273200  0.05080600  0.74602600  1
  Na  Na29  1  0.80726800  0.05080600  0.24602600  1
  Na  Na30  1  0.33660900  0.02354100  0.54665000  1
  Na  Na31  1  0.66339100  0.02354100  0.04665000  1
  Co  Co32  1  0.06738000  0.93072900  0.13321500  1
  Co  Co33  1  0.93262000  0.93072900  0.63321500  1
  Co  Co34  1  0.57942500  0.52496900  0.12435000  1
  Co  Co35  1  0.42057500  0.52496900  0.62435000  1
  Co  Co36  1  0.09082800  0.47110700  0.37608100  1
  Co  Co37  1  0.90917200  0.47110700  0.87608100  1
  Co  Co38  1  0.55916900  0.04638900  0.37433000  1
  Co  Co39  1  0.44083100  0.04638900  0.87433000  1
  O  O40  1  0.35670800  0.95636900  0.11536800  1
  O  O41  1  0.64329200  0.95636900  0.61536800  1
  O  O42  1  0.98372500  0.84852600  0.22080900  1
  O  O43  1  0.01627500  0.84852600  0.72080900  1
  O  O44  1  0.08122300  0.86355100  0.55665500  1
  O  O45  1  0.91877700  0.86355100  0.05665500  1
  O  O46  1  0.48517800  0.87094300  0.87050700  1
  O  O47  1  0.51482200  0.87094300  0.37050700  1
  O  O48  1  0.00359900  0.64256200  0.37601300  1
  O  O49  1  0.99640100  0.64256200  0.87601300  1
  O  O50  1  0.47657200  0.60030000  0.04028400  1
  O  O51  1  0.52342800  0.60030000  0.54028400  1
  O  O52  1  0.48471000  0.61149700  0.70969200  1
  O  O53  1  0.51529000  0.61149700  0.20969200  1
  O  O54  1  0.87472200  0.51766300  0.11509300  1
  O  O55  1  0.12527800  0.51766300  0.61509300  1
  O  O56  1  0.61158500  0.45961600  0.88126800  1
  O  O57  1  0.38841500  0.45961600  0.38126800  1
  O  O58  1  0.00119700  0.38982200  0.29048400  1
  O  O59  1  0.99880300  0.38982200  0.79048400  1
  O  O60  1  0.02132200  0.37102000  0.95240000  1
  O  O61  1  0.97867800  0.37102000  0.45240000  1
  O  O62  1  0.52391000  0.35350000  0.63014500  1
  O  O63  1  0.47609000  0.35350000  0.13014500  1
  O  O64  1  0.03662200  0.10817200  0.63394400  1
  O  O65  1  0.96337800  0.10817200  0.13394400  1
  O  O66  1  0.46082200  0.14446900  0.45211800  1
  O  O67  1  0.53917800  0.14446900  0.95211800  1
  O  O68  1  0.52156500  0.14736900  0.79201800  1
  O  O69  1  0.47843500  0.14736900  0.29201800  1
  O  O70  1  0.85885200  0.07021400  0.37640600  1
  O  O71  1  0.14114800  0.07021400  0.87640600  1
