# generated using pymatgen
data_Fe5O3F7
_symmetry_space_group_name_H-M   'P 1'
_cell_length_a   4.76925895
_cell_length_b   4.78355636
_cell_length_c   15.60001100
_cell_angle_alpha   90.00000000
_cell_angle_beta   90.00000000
_cell_angle_gamma   89.64720597
_symmetry_Int_Tables_number   1
_chemical_formula_structural   Fe5O3F7
_chemical_formula_sum   'Fe10 O6 F14'
_cell_volume   355.89220020
_cell_formula_units_Z   2
loop_
 _symmetry_equiv_pos_site_id
 _symmetry_equiv_pos_as_xyz
  1  'x, y, z'
loop_
 _atom_site_type_symbol
 _atom_site_label
 _atom_site_symmetry_multiplicity
 _atom_site_fract_x
 _atom_site_fract_y
 _atom_site_fract_z
 _atom_site_occupancy
  Fe  Fe0  1  0.96111400  0.95291700  0.00000000  1
  Fe  Fe1  1  0.02828200  0.01848500  0.20459200  1
  Fe  Fe2  1  0.02059700  0.97397600  0.39905600  1
  Fe  Fe3  1  0.02059700  0.97397600  0.60094400  1
  Fe  Fe4  1  0.02828200  0.01848500  0.79540800  1
  Fe  Fe5  1  0.49814500  0.48953600  0.09871700  1
  Fe  Fe6  1  0.48336800  0.52083100  0.50000000  1
  Fe  Fe7  1  0.46628900  0.51136000  0.29163900  1
  Fe  Fe8  1  0.46628900  0.51136000  0.70836100  1
  Fe  Fe9  1  0.49814500  0.48953600  0.90128300  1
  O  O10  1  0.20048400  0.80987500  0.30359000  1
  O  O11  1  0.18364200  0.80886600  0.50000000  1
  O  O12  1  0.20048400  0.80987500  0.69641000  1
  O  O13  1  0.32319700  0.31978200  0.19640200  1
  O  O14  1  0.32319700  0.31978200  0.80359800  1
  O  O15  1  0.67358200  0.65959500  0.00000000  1
  F  F16  1  0.20725000  0.79588600  0.10149000  1
  F  F17  1  0.20725000  0.79588600  0.89851000  1
  F  F18  1  0.28913000  0.28033000  0.00000000  1
  F  F19  1  0.30121300  0.30046300  0.39580600  1
  F  F20  1  0.30121300  0.30046300  0.60419400  1
  F  F21  1  0.70963400  0.70798700  0.19928600  1
  F  F22  1  0.69706000  0.69890200  0.39399800  1
  F  F23  1  0.69706000  0.69890200  0.60600200  1
  F  F24  1  0.70963400  0.70798700  0.80071400  1
  F  F25  1  0.80380200  0.19613500  0.10274000  1
  F  F26  1  0.79794900  0.19851100  0.50000000  1
  F  F27  1  0.79965500  0.21708600  0.30838700  1
  F  F28  1  0.80380200  0.19613500  0.89726000  1
  F  F29  1  0.79965500  0.21708600  0.69161300  1
