# generated using pymatgen
data_Ta2H15N6Cl7
_symmetry_space_group_name_H-M   'P 1'
_cell_length_a   11.58973578
_cell_length_b   11.58973578
_cell_length_c   7.93989600
_cell_angle_alpha   90.00000000
_cell_angle_beta   90.00000000
_cell_angle_gamma   127.85676906
_symmetry_Int_Tables_number   1
_chemical_formula_structural   Ta2H15N6Cl7
_chemical_formula_sum   'Ta4 H30 N12 Cl14'
_cell_volume   842.05423678
_cell_formula_units_Z   2
loop_
 _symmetry_equiv_pos_site_id
 _symmetry_equiv_pos_as_xyz
  1  'x, y, z'
loop_
 _atom_site_type_symbol
 _atom_site_label
 _atom_site_symmetry_multiplicity
 _atom_site_fract_x
 _atom_site_fract_y
 _atom_site_fract_z
 _atom_site_occupancy
  Ta  Ta0  1  0.00000000  0.00000000  0.00000000  1
  Ta  Ta1  1  0.00000000  0.00000000  0.50000000  1
  Ta  Ta2  1  0.83948200  0.16051800  0.75000000  1
  Ta  Ta3  1  0.16051800  0.83948200  0.25000000  1
  H  H4  1  0.28832000  0.05043200  0.75000000  1
  H  H5  1  0.39971700  0.02774600  0.85529700  1
  H  H6  1  0.39971700  0.02774600  0.64470300  1
  H  H7  1  0.46856500  0.18979500  0.75000000  1
  H  H8  1  0.50777000  0.32467700  0.25000000  1
  H  H9  1  0.92193400  0.07806600  0.25000000  1
  H  H10  1  0.87323600  0.12676400  0.03094700  1
  H  H11  1  0.87323600  0.12676400  0.46905300  1
  H  H12  1  0.53363100  0.46636900  0.14658200  1
  H  H13  1  0.53363100  0.46636900  0.35341800  1
  H  H14  1  0.67532300  0.49223000  0.25000000  1
  H  H15  1  0.05043200  0.28832000  0.25000000  1
  H  H16  1  0.81020500  0.53143500  0.75000000  1
  H  H17  1  0.02774600  0.39971700  0.14470300  1
  H  H18  1  0.02774600  0.39971700  0.35529700  1
  H  H19  1  0.97225400  0.60028300  0.85529700  1
  H  H20  1  0.97225400  0.60028300  0.64470300  1
  H  H21  1  0.18979500  0.46856500  0.25000000  1
  H  H22  1  0.94956800  0.71168000  0.75000000  1
  H  H23  1  0.32467700  0.50777000  0.75000000  1
  H  H24  1  0.46636900  0.53363100  0.85341800  1
  H  H25  1  0.46636900  0.53363100  0.64658200  1
  H  H26  1  0.12676400  0.87323600  0.96905300  1
  H  H27  1  0.07806600  0.92193400  0.75000000  1
  H  H28  1  0.12676400  0.87323600  0.53094700  1
  H  H29  1  0.49223000  0.67532300  0.75000000  1
  H  H30  1  0.53143500  0.81020500  0.25000000  1
  H  H31  1  0.60028300  0.97225400  0.14470300  1
  H  H32  1  0.60028300  0.97225400  0.35529700  1
  H  H33  1  0.71168000  0.94956800  0.25000000  1
  N  N34  1  0.38904500  0.07236700  0.75000000  1
  N  N35  1  0.97125800  0.02874200  0.25000000  1
  N  N36  1  0.90369900  0.09630100  0.57112600  1
  N  N37  1  0.90369900  0.09630100  0.92887400  1
  N  N38  1  0.56353800  0.43646200  0.25000000  1
  N  N39  1  0.07236700  0.38904500  0.25000000  1
  N  N40  1  0.92763300  0.61095500  0.75000000  1
  N  N41  1  0.09630100  0.90369900  0.07112600  1
  N  N42  1  0.43646200  0.56353800  0.75000000  1
  N  N43  1  0.09630100  0.90369900  0.42887400  1
  N  N44  1  0.02874200  0.97125800  0.75000000  1
  N  N45  1  0.61095500  0.92763300  0.25000000  1
  Cl  Cl46  1  0.41233700  0.06476900  0.25000000  1
  Cl  Cl47  1  0.59304400  0.40695600  0.75000000  1
  Cl  Cl48  1  0.75488100  0.24511900  0.52326700  1
  Cl  Cl49  1  0.75488100  0.24511900  0.97673300  1
  Cl  Cl50  1  0.23840100  0.23840100  0.00000000  1
  Cl  Cl51  1  0.23840100  0.23840100  0.50000000  1
  Cl  Cl52  1  0.06476900  0.41233700  0.75000000  1
  Cl  Cl53  1  0.93523100  0.58766300  0.25000000  1
  Cl  Cl54  1  0.40695600  0.59304400  0.25000000  1
  Cl  Cl55  1  0.24511900  0.75488100  0.02326700  1
  Cl  Cl56  1  0.24511900  0.75488100  0.47673300  1
  Cl  Cl57  1  0.58766300  0.93523100  0.75000000  1
  Cl  Cl58  1  0.76159900  0.76159900  0.00000000  1
  Cl  Cl59  1  0.76159900  0.76159900  0.50000000  1
