# generated using pymatgen
data_PH18C6N3O
_symmetry_space_group_name_H-M   'P 1'
_cell_length_a   12.95889100
_cell_length_b   6.62527800
_cell_length_c   6.63766161
_cell_angle_alpha   75.22304675
_cell_angle_beta   90.00000000
_cell_angle_gamma   90.00000000
_symmetry_Int_Tables_number   1
_chemical_formula_structural   PH18C6N3O
_chemical_formula_sum   'P2 H36 C12 N6 O2'
_cell_volume   551.03643706
_cell_formula_units_Z   2
loop_
 _symmetry_equiv_pos_site_id
 _symmetry_equiv_pos_as_xyz
  1  'x, y, z'
loop_
 _atom_site_type_symbol
 _atom_site_label
 _atom_site_symmetry_multiplicity
 _atom_site_fract_x
 _atom_site_fract_y
 _atom_site_fract_z
 _atom_site_occupancy
  P  P0  1  0.75000000  0.87008100  0.48241900  1
  P  P1  1  0.25000000  0.12991900  0.51758100  1
  H  H2  1  0.49061300  0.90633300  0.72355100  1
  H  H3  1  0.00938700  0.90633300  0.72355100  1
  H  H4  1  0.37890100  0.79236100  0.86590300  1
  H  H5  1  0.12109900  0.79236100  0.86590300  1
  H  H6  1  0.38883800  0.80749700  0.59328100  1
  H  H7  1  0.11116200  0.80749700  0.59328100  1
  H  H8  1  0.84752400  0.87724100  0.02520100  1
  H  H9  1  0.65247600  0.87724100  0.02520100  1
  H  H10  1  0.96048500  0.76848800  0.16594800  1
  H  H11  1  0.53951500  0.76848800  0.16594800  1
  H  H12  1  0.84592600  0.52952200  0.85069100  1
  H  H13  1  0.65407400  0.52952200  0.85069100  1
  H  H14  1  0.91278900  0.58035500  0.60748800  1
  H  H15  1  0.58721100  0.58035500  0.60748800  1
  H  H16  1  0.16039200  0.65615200  0.30301400  1
  H  H17  1  0.33960800  0.65615200  0.30301400  1
  H  H18  1  0.83971800  0.63785000  0.22461500  1
  H  H19  1  0.66028200  0.63785000  0.22461500  1
  H  H20  1  0.16028200  0.36215000  0.77538500  1
  H  H21  1  0.33971800  0.36215000  0.77538500  1
  H  H22  1  0.83960800  0.34384800  0.69698600  1
  H  H23  1  0.66039200  0.34384800  0.69698600  1
  H  H24  1  0.41278900  0.41964500  0.39251200  1
  H  H25  1  0.08721100  0.41964500  0.39251200  1
  H  H26  1  0.15407400  0.47047800  0.14930900  1
  H  H27  1  0.34592600  0.47047800  0.14930900  1
  H  H28  1  0.46048500  0.23151200  0.83405200  1
  H  H29  1  0.03951500  0.23151200  0.83405200  1
  H  H30  1  0.34752400  0.12275900  0.97479900  1
  H  H31  1  0.15247600  0.12275900  0.97479900  1
  H  H32  1  0.88883800  0.19250300  0.40671900  1
  H  H33  1  0.61116200  0.19250300  0.40671900  1
  H  H34  1  0.87890100  0.20763900  0.13409700  1
  H  H35  1  0.62109900  0.20763900  0.13409700  1
  H  H36  1  0.50938700  0.09366700  0.27644900  1
  H  H37  1  0.99061300  0.09366700  0.27644900  1
  C  C38  1  0.40635200  0.88862400  0.71374600  1
  C  C39  1  0.09364800  0.88862400  0.71374600  1
  C  C40  1  0.87677700  0.79156700  0.17981300  1
  C  C41  1  0.62322300  0.79156700  0.17981300  1
  C  C42  1  0.84278700  0.51163200  0.68956000  1
  C  C43  1  0.65721300  0.51163200  0.68956000  1
  C  C44  1  0.34278700  0.48836800  0.31044000  1
  C  C45  1  0.15721300  0.48836800  0.31044000  1
  C  C46  1  0.37677700  0.20843300  0.82018700  1
  C  C47  1  0.12322300  0.20843300  0.82018700  1
  C  C48  1  0.90635200  0.11137600  0.28625400  1
  C  C49  1  0.59364800  0.11137600  0.28625400  1
  N  N50  1  0.85819000  0.90527900  0.33829600  1
  N  N51  1  0.64181000  0.90527900  0.33829600  1
  N  N52  1  0.75000000  0.61064800  0.58174000  1
  N  N53  1  0.25000000  0.38935200  0.41826000  1
  N  N54  1  0.35819000  0.09472100  0.66170400  1
  N  N55  1  0.14181000  0.09472100  0.66170400  1
  O  O56  1  0.25000000  0.99002200  0.37332200  1
  O  O57  1  0.75000000  0.00997800  0.62667800  1
