# generated using pymatgen
data_Fe2OF3
_symmetry_space_group_name_H-M   'P 1'
_cell_length_a   4.93965200
_cell_length_b   6.05150100
_cell_length_c   10.52828000
_cell_angle_alpha   90.00000000
_cell_angle_beta   90.00000000
_cell_angle_gamma   90.00000000
_symmetry_Int_Tables_number   1
_chemical_formula_structural   Fe2OF3
_chemical_formula_sum   'Fe8 O4 F12'
_cell_volume   314.71459918
_cell_formula_units_Z   4
loop_
 _symmetry_equiv_pos_site_id
 _symmetry_equiv_pos_as_xyz
  1  'x, y, z'
loop_
 _atom_site_type_symbol
 _atom_site_label
 _atom_site_symmetry_multiplicity
 _atom_site_fract_x
 _atom_site_fract_y
 _atom_site_fract_z
 _atom_site_occupancy
  Fe  Fe0  1  0.50000000  0.00000000  0.00000000  1
  Fe  Fe1  1  0.50000000  0.50000000  0.00000000  1
  Fe  Fe2  1  0.48753400  0.25000000  0.73972000  1
  Fe  Fe3  1  0.01246600  0.25000000  0.23972000  1
  Fe  Fe4  1  0.00000000  0.00000000  0.50000000  1
  Fe  Fe5  1  0.00000000  0.50000000  0.50000000  1
  Fe  Fe6  1  0.98753400  0.75000000  0.76028000  1
  Fe  Fe7  1  0.51246600  0.75000000  0.26028000  1
  O  O8  1  0.33114100  0.25000000  0.92401800  1
  O  O9  1  0.16885900  0.25000000  0.42401800  1
  O  O10  1  0.83114100  0.75000000  0.57598200  1
  O  O11  1  0.66885900  0.75000000  0.07598200  1
  F  F12  1  0.23915300  0.75000000  0.41538200  1
  F  F13  1  0.23320300  0.00731300  0.66342600  1
  F  F14  1  0.23320300  0.49268700  0.66342600  1
  F  F15  1  0.26679700  0.49268700  0.16342600  1
  F  F16  1  0.26679700  0.00731300  0.16342600  1
  F  F17  1  0.26084700  0.75000000  0.91538200  1
  F  F18  1  0.73915300  0.25000000  0.08461800  1
  F  F19  1  0.73320300  0.50731300  0.83657400  1
  F  F20  1  0.73320300  0.99268700  0.83657400  1
  F  F21  1  0.76679700  0.99268700  0.33657400  1
  F  F22  1  0.76679700  0.50731300  0.33657400  1
  F  F23  1  0.76084700  0.25000000  0.58461800  1
