# generated using pymatgen
data_Ta2CrNO5
_symmetry_space_group_name_H-M   'P 1'
_cell_length_a   4.76593098
_cell_length_b   4.76584396
_cell_length_c   9.23881867
_cell_angle_alpha   89.78836654
_cell_angle_beta   90.21191233
_cell_angle_gamma   90.12607736
_symmetry_Int_Tables_number   1
_chemical_formula_structural   Ta2CrNO5
_chemical_formula_sum   'Ta4 Cr2 N2 O10'
_cell_volume   209.84423316
_cell_formula_units_Z   2
loop_
 _symmetry_equiv_pos_site_id
 _symmetry_equiv_pos_as_xyz
  1  'x, y, z'
loop_
 _atom_site_type_symbol
 _atom_site_label
 _atom_site_symmetry_multiplicity
 _atom_site_fract_x
 _atom_site_fract_y
 _atom_site_fract_z
 _atom_site_occupancy
  Ta  Ta0  1  0.98826600  0.01173900  0.34359700  1
  Ta  Ta1  1  0.99247200  0.00753800  0.67295800  1
  Ta  Ta2  1  0.49566800  0.50433100  0.16685900  1
  Ta  Ta3  1  0.47953400  0.52046300  0.83003100  1
  Cr  Cr4  1  0.50265800  0.49737000  0.49921700  1
  Cr  Cr5  1  0.00323000  0.99677900  0.99999800  1
  N  N6  1  0.19804300  0.80195600  0.83301600  1
  N  N7  1  0.80333900  0.19666100  0.49753000  1
  O  O8  1  0.19628000  0.80372100  0.49785200  1
  O  O9  1  0.20468600  0.79526500  0.16511900  1
  O  O10  1  0.80581300  0.19418600  0.16889400  1
  O  O11  1  0.80553900  0.19446400  0.83184100  1
  O  O12  1  0.30710400  0.30012100  0.32752700  1
  O  O13  1  0.69987700  0.69289700  0.32752700  1
  O  O14  1  0.30690900  0.30125300  0.66824200  1
  O  O15  1  0.69874800  0.69309300  0.66824400  1
  O  O16  1  0.31320900  0.30137200  0.00077500  1
  O  O17  1  0.69862300  0.68679300  0.00077500  1
