# generated using pymatgen
data_Mn6O5F7
_symmetry_space_group_name_H-M   'P 1'
_cell_length_a   5.57796306
_cell_length_b   5.06168745
_cell_length_c   15.14886122
_cell_angle_alpha   96.50024456
_cell_angle_beta   85.04057931
_cell_angle_gamma   94.54954229
_symmetry_Int_Tables_number   1
_chemical_formula_structural   Mn6O5F7
_chemical_formula_sum   'Mn12 O10 F14'
_cell_volume   422.32504846
_cell_formula_units_Z   2
loop_
 _symmetry_equiv_pos_site_id
 _symmetry_equiv_pos_as_xyz
  1  'x, y, z'
loop_
 _atom_site_type_symbol
 _atom_site_label
 _atom_site_symmetry_multiplicity
 _atom_site_fract_x
 _atom_site_fract_y
 _atom_site_fract_z
 _atom_site_occupancy
  Mn  Mn0  1  0.09599300  0.00326900  0.01335900  1
  Mn  Mn1  1  0.93049000  0.50671400  0.16584600  1
  Mn  Mn2  1  0.08948300  0.94863600  0.33746900  1
  Mn  Mn3  1  0.92361800  0.49852100  0.50107600  1
  Mn  Mn4  1  0.13431000  0.98206100  0.67214400  1
  Mn  Mn5  1  0.91887000  0.49433200  0.83172200  1
  Mn  Mn6  1  0.43279800  0.01484000  0.16048200  1
  Mn  Mn7  1  0.45259300  0.51208600  0.00060700  1
  Mn  Mn8  1  0.44796400  0.51680800  0.66241000  1
  Mn  Mn9  1  0.46500100  0.00287900  0.49552600  1
  Mn  Mn10  1  0.43740600  0.52411400  0.32231700  1
  Mn  Mn11  1  0.45231000  0.02577800  0.82489600  1
  O  O12  1  0.20567500  0.74156300  0.08402100  1
  O  O13  1  0.20911100  0.72489100  0.42084500  1
  O  O14  1  0.20084700  0.73864100  0.75610200  1
  O  O15  1  0.32129700  0.23682500  0.07522600  1
  O  O16  1  0.31299800  0.78039100  0.25338300  1
  O  O17  1  0.36894600  0.80486100  0.59632200  1
  O  O18  1  0.36057800  0.21926300  0.73098300  1
  O  O19  1  0.62181200  0.31366000  0.89533900  1
  O  O20  1  0.61959100  0.31581300  0.56440200  1
  O  O21  1  0.60230500  0.30657000  0.22778700  1
  F  F22  1  0.10955500  0.25531400  0.25871500  1
  F  F23  1  0.13479300  0.25050400  0.58210400  1
  F  F24  1  0.14208700  0.26212700  0.91234100  1
  F  F25  1  0.40556400  0.81202100  0.92629000  1
  F  F26  1  0.38746800  0.21932000  0.39869800  1
  F  F27  1  0.67590800  0.72766700  0.09689300  1
  F  F28  1  0.67591800  0.67915800  0.43172100  1
  F  F29  1  0.67053200  0.69326100  0.76573800  1
  F  F30  1  0.87785400  0.15230100  0.41978900  1
  F  F31  1  0.83072100  0.22893600  0.06475300  1
  F  F32  1  0.88217000  0.17093300  0.74063900  1
  F  F33  1  0.88953200  0.77820200  0.60714400  1
  F  F34  1  0.89991800  0.77461100  0.93563200  1
  F  F35  1  0.81398400  0.78313000  0.26727800  1
