# generated using pymatgen
data_CdSb3
_symmetry_space_group_name_H-M   'P 1'
_cell_length_a   6.59363439
_cell_length_b   6.59363439
_cell_length_c   5.72105300
_cell_angle_alpha   90.00000000
_cell_angle_beta   90.00000000
_cell_angle_gamma   120.00000393
_symmetry_Int_Tables_number   1
_chemical_formula_structural   CdSb3
_chemical_formula_sum   'Cd2 Sb6'
_cell_volume   215.40526313
_cell_formula_units_Z   2
loop_
 _symmetry_equiv_pos_site_id
 _symmetry_equiv_pos_as_xyz
  1  'x, y, z'
loop_
 _atom_site_type_symbol
 _atom_site_label
 _atom_site_symmetry_multiplicity
 _atom_site_fract_x
 _atom_site_fract_y
 _atom_site_fract_z
 _atom_site_occupancy
  Cd  Cd0  1  0.33333300  0.66666700  0.75000000  1
  Cd  Cd1  1  0.66666700  0.33333300  0.25000000  1
  Sb  Sb2  1  0.17142300  0.34284500  0.25000000  1
  Sb  Sb3  1  0.65715500  0.82857700  0.25000000  1
  Sb  Sb4  1  0.17142300  0.82857700  0.25000000  1
  Sb  Sb5  1  0.82857700  0.65715500  0.75000000  1
  Sb  Sb6  1  0.34284500  0.17142300  0.75000000  1
  Sb  Sb7  1  0.82857700  0.17142300  0.75000000  1
