# generated using pymatgen
data_Fe7(OF7)2
_symmetry_space_group_name_H-M   'P 1'
_cell_length_a   4.84732100
_cell_length_b   6.07205576
_cell_length_c   10.39415945
_cell_angle_alpha   93.31504951
_cell_angle_beta   90.07153872
_cell_angle_gamma   92.11123033
_symmetry_Int_Tables_number   1
_chemical_formula_structural   Fe7(OF7)2
_chemical_formula_sum   'Fe7 O2 F14'
_cell_volume   305.21240639
_cell_formula_units_Z   1
loop_
 _symmetry_equiv_pos_site_id
 _symmetry_equiv_pos_as_xyz
  1  'x, y, z'
loop_
 _atom_site_type_symbol
 _atom_site_label
 _atom_site_symmetry_multiplicity
 _atom_site_fract_x
 _atom_site_fract_y
 _atom_site_fract_z
 _atom_site_occupancy
  Fe  Fe0  1  0.00000000  0.50000000  0.00000000  1
  Fe  Fe1  1  0.50920200  0.74430900  0.24176200  1
  Fe  Fe2  1  0.99291900  0.22709500  0.25647000  1
  Fe  Fe3  1  0.50000000  0.50000000  0.50000000  1
  Fe  Fe4  1  0.50000000  0.00000000  0.50000000  1
  Fe  Fe5  1  0.00708100  0.77290500  0.74353000  1
  Fe  Fe6  1  0.49079800  0.25569100  0.75823800  1
  O  O7  1  0.67115400  0.76130700  0.41007200  1
  O  O8  1  0.32884600  0.23869300  0.58992800  1
  F  F9  1  0.26004700  0.70953000  0.09186900  1
  F  F10  1  0.16813000  0.26520100  0.08278200  1
  F  F11  1  0.75972700  0.51345900  0.16035500  1
  F  F12  1  0.72314800  0.98393400  0.17800500  1
  F  F13  1  0.26180100  0.98947000  0.33156100  1
  F  F14  1  0.27063900  0.49179500  0.32139900  1
  F  F15  1  0.75422400  0.24066900  0.41892800  1
  F  F16  1  0.24577600  0.75933100  0.58107200  1
  F  F17  1  0.72936100  0.50820500  0.67860100  1
  F  F18  1  0.73819900  0.01053000  0.66843900  1
  F  F19  1  0.27685200  0.01606600  0.82199500  1
  F  F20  1  0.24027300  0.48654100  0.83964500  1
  F  F21  1  0.83187000  0.73479900  0.91721800  1
  F  F22  1  0.73995300  0.29047000  0.90813100  1
