# generated using pymatgen
data_Fe5O3F7
_symmetry_space_group_name_H-M   'P 1'
_cell_length_a   4.80415923
_cell_length_b   4.80415923
_cell_length_c   15.61296542
_cell_angle_alpha   89.82833396
_cell_angle_beta   89.82833396
_cell_angle_gamma   89.27992163
_symmetry_Int_Tables_number   1
_chemical_formula_structural   Fe5O3F7
_chemical_formula_sum   'Fe10 O6 F14'
_cell_volume   360.31474526
_cell_formula_units_Z   2
loop_
 _symmetry_equiv_pos_site_id
 _symmetry_equiv_pos_as_xyz
  1  'x, y, z'
loop_
 _atom_site_type_symbol
 _atom_site_label
 _atom_site_symmetry_multiplicity
 _atom_site_fract_x
 _atom_site_fract_y
 _atom_site_fract_z
 _atom_site_occupancy
  Fe  Fe0  1  0.04162700  0.97718500  0.80833000  1
  Fe  Fe1  1  0.99356500  0.00643500  0.00000000  1
  Fe  Fe2  1  0.02281500  0.95837300  0.19167000  1
  Fe  Fe3  1  0.97399300  0.02581700  0.39823800  1
  Fe  Fe4  1  0.97418300  0.02600700  0.60176200  1
  Fe  Fe5  1  0.45902200  0.47620700  0.89634900  1
  Fe  Fe6  1  0.49413600  0.49656900  0.30007100  1
  Fe  Fe7  1  0.52379300  0.54097800  0.10365100  1
  Fe  Fe8  1  0.52516700  0.47483300  0.50000000  1
  Fe  Fe9  1  0.50343100  0.50586400  0.69992900  1
  O  O10  1  0.81896100  0.81206800  0.10094600  1
  O  O11  1  0.67684500  0.32144000  0.39757100  1
  O  O12  1  0.67856000  0.32315500  0.60242900  1
  O  O13  1  0.31396600  0.68168700  0.79381300  1
  O  O14  1  0.31831300  0.68603400  0.20618700  1
  O  O15  1  0.18793200  0.18103900  0.89905400  1
  F  F16  1  0.79814400  0.79193800  0.89728400  1
  F  F17  1  0.80282500  0.79740000  0.29505900  1
  F  F18  1  0.78432800  0.80182100  0.50016000  1
  F  F19  1  0.80575800  0.80042500  0.70666400  1
  F  F20  1  0.70413300  0.28763800  0.79479700  1
  F  F21  1  0.67951800  0.32048200  0.00000000  1
  F  F22  1  0.71236200  0.29586700  0.20520300  1
  F  F23  1  0.31025600  0.68974400  0.00000000  1
  F  F24  1  0.29283500  0.70488500  0.40147600  1
  F  F25  1  0.29511500  0.70716500  0.59852400  1
  F  F26  1  0.19957500  0.19424200  0.29333600  1
  F  F27  1  0.20806200  0.20185600  0.10271600  1
  F  F28  1  0.20260000  0.19717500  0.70494100  1
  F  F29  1  0.19817900  0.21567200  0.49984000  1
