# generated using pymatgen
data_Ge2N2O
_symmetry_space_group_name_H-M   'P 1'
_cell_length_a   5.57286188
_cell_length_b   5.57286188
_cell_length_c   5.35834863
_cell_angle_alpha   81.21232107
_cell_angle_beta   81.21232107
_cell_angle_gamma   122.19689892
_symmetry_Int_Tables_number   1
_chemical_formula_structural   Ge2N2O
_chemical_formula_sum   'Ge4 N4 O2'
_cell_volume   133.60185892
_cell_formula_units_Z   2
loop_
 _symmetry_equiv_pos_site_id
 _symmetry_equiv_pos_as_xyz
  1  'x, y, z'
loop_
 _atom_site_type_symbol
 _atom_site_label
 _atom_site_symmetry_multiplicity
 _atom_site_fract_x
 _atom_site_fract_y
 _atom_site_fract_z
 _atom_site_occupancy
  Ge  Ge0  1  0.82266600  0.33337100  0.50529200  1
  Ge  Ge1  1  0.50398200  0.66799100  0.50168000  1
  Ge  Ge2  1  0.33337100  0.82266600  0.00529200  1
  Ge  Ge3  1  0.66799100  0.50398200  0.00168000  1
  N  N4  1  0.58679800  0.42711500  0.36326000  1
  N  N5  1  0.21280300  0.66402500  0.37047400  1
  N  N6  1  0.42711500  0.58679800  0.86326000  1
  N  N7  1  0.66402500  0.21280300  0.87047400  1
  O  O8  1  0.04967900  0.81490100  0.88429400  1
  O  O9  1  0.81490100  0.04967900  0.38429400  1
