# generated using pymatgen
data_Fe5(OF4)2
_symmetry_space_group_name_H-M   'P 1'
_cell_length_a   4.82949286
_cell_length_b   7.99048115
_cell_length_c   10.13046064
_cell_angle_alpha   108.44675091
_cell_angle_beta   91.07943981
_cell_angle_gamma   89.22670777
_symmetry_Int_Tables_number   1
_chemical_formula_structural   Fe5(OF4)2
_chemical_formula_sum   'Fe10 O4 F16'
_cell_volume   370.76974971
_cell_formula_units_Z   2
loop_
 _symmetry_equiv_pos_site_id
 _symmetry_equiv_pos_as_xyz
  1  'x, y, z'
loop_
 _atom_site_type_symbol
 _atom_site_label
 _atom_site_symmetry_multiplicity
 _atom_site_fract_x
 _atom_site_fract_y
 _atom_site_fract_z
 _atom_site_occupancy
  Fe  Fe0  1  0.49910300  0.30048800  0.89953800  1
  Fe  Fe1  1  0.51647500  0.10926100  0.29379800  1
  Fe  Fe2  1  0.49682800  0.90201400  0.70463700  1
  Fe  Fe3  1  0.50108400  0.68329100  0.09690700  1
  Fe  Fe4  1  0.51985400  0.50790300  0.51149900  1
  Fe  Fe5  1  0.97113300  0.60978700  0.79185200  1
  Fe  Fe6  1  0.03724400  0.19487800  0.61286400  1
  Fe  Fe7  1  0.99964200  0.79924300  0.39472300  1
  Fe  Fe8  1  0.95245700  0.38634000  0.18505200  1
  Fe  Fe9  1  0.99529000  0.00333300  0.01454600  1
  O  O10  1  0.82349500  0.17361500  0.19021500  1
  O  O11  1  0.68401700  0.65888600  0.66632800  1
  O  O12  1  0.69399400  0.44537100  0.05971200  1
  O  O13  1  0.30968300  0.15019900  0.72962400  1
  F  F14  1  0.79981100  0.75968400  0.98108000  1
  F  F15  1  0.81555600  0.97597700  0.57992600  1
  F  F16  1  0.79238800  0.54975700  0.37189200  1
  F  F17  1  0.80287300  0.34851500  0.76821700  1
  F  F18  1  0.70675400  0.07314700  0.88370000  1
  F  F19  1  0.68863600  0.85762100  0.28465500  1
  F  F20  1  0.70892200  0.27263400  0.49292900  1
  F  F21  1  0.29457800  0.72880100  0.51076600  1
  F  F22  1  0.31306400  0.36092600  0.33556500  1
  F  F23  1  0.30773400  0.92811800  0.12611300  1
  F  F24  1  0.28883200  0.52620300  0.90406800  1
  F  F25  1  0.19961900  0.42791900  0.61004700  1
  F  F26  1  0.19706400  0.05358800  0.42894800  1
  F  F27  1  0.19593300  0.84432800  0.82978700  1
  F  F28  1  0.21330000  0.24768100  0.02658300  1
  F  F29  1  0.17463800  0.62049200  0.21442500  1
