# generated using pymatgen
data_Fe5O3F7
_symmetry_space_group_name_H-M   'P 1'
_cell_length_a   4.82201127
_cell_length_b   4.82201127
_cell_length_c   15.70924211
_cell_angle_alpha   89.97928348
_cell_angle_beta   89.97928348
_cell_angle_gamma   91.55484293
_symmetry_Int_Tables_number   1
_chemical_formula_structural   Fe5O3F7
_chemical_formula_sum   'Fe10 O6 F14'
_cell_volume   365.13350360
_cell_formula_units_Z   2
loop_
 _symmetry_equiv_pos_site_id
 _symmetry_equiv_pos_as_xyz
  1  'x, y, z'
loop_
 _atom_site_type_symbol
 _atom_site_label
 _atom_site_symmetry_multiplicity
 _atom_site_fract_x
 _atom_site_fract_y
 _atom_site_fract_z
 _atom_site_occupancy
  Fe  Fe0  1  0.96898400  0.99125900  0.19298300  1
  Fe  Fe1  1  0.98010200  0.97860400  0.39915000  1
  Fe  Fe2  1  0.02139600  0.01989800  0.60085000  1
  Fe  Fe3  1  0.00874100  0.03101600  0.80701700  1
  Fe  Fe4  1  0.97426400  0.02573600  0.00000000  1
  Fe  Fe5  1  0.52023600  0.52767500  0.30146900  1
  Fe  Fe6  1  0.47232500  0.47976400  0.69853100  1
  Fe  Fe7  1  0.50050100  0.49949900  0.50000000  1
  Fe  Fe8  1  0.50905300  0.47707000  0.89474400  1
  Fe  Fe9  1  0.52293000  0.49094700  0.10525600  1
  O  O10  1  0.81460500  0.18192700  0.90039000  1
  O  O11  1  0.81807300  0.18539500  0.09961000  1
  O  O12  1  0.32222300  0.32403800  0.59679000  1
  O  O13  1  0.30320000  0.30263900  0.79328900  1
  O  O14  1  0.69736100  0.69680000  0.20671100  1
  O  O15  1  0.67596200  0.67777700  0.40321000  1
  F  F16  1  0.79550200  0.19713100  0.29650600  1
  F  F17  1  0.79696400  0.20303600  0.50000000  1
  F  F18  1  0.80286900  0.20449800  0.70349400  1
  F  F19  1  0.29322900  0.29133000  0.21082500  1
  F  F20  1  0.29732100  0.29829600  0.39946100  1
  F  F21  1  0.30635100  0.29714800  0.00206200  1
  F  F22  1  0.70170400  0.70267900  0.60053900  1
  F  F23  1  0.70867000  0.70677100  0.78917500  1
  F  F24  1  0.70285200  0.69364900  0.99793800  1
  F  F25  1  0.19376800  0.79907600  0.29515000  1
  F  F26  1  0.20092400  0.80623200  0.70485000  1
  F  F27  1  0.20381700  0.79618300  0.50000000  1
  F  F28  1  0.19027100  0.80419900  0.09831200  1
  F  F29  1  0.19580100  0.80972900  0.90168800  1
