# generated using pymatgen
data_Na5Bi2P(CO4)4
_symmetry_space_group_name_H-M   'P 1'
_cell_length_a   10.45678648
_cell_length_b   10.42886707
_cell_length_c   10.31305610
_cell_angle_alpha   60.54520208
_cell_angle_beta   60.27543841
_cell_angle_gamma   59.17935951
_symmetry_Int_Tables_number   1
_chemical_formula_structural   Na5Bi2P(CO4)4
_chemical_formula_sum   'Na10 Bi4 P2 C8 O32'
_cell_volume   795.00571390
_cell_formula_units_Z   2
loop_
 _symmetry_equiv_pos_site_id
 _symmetry_equiv_pos_as_xyz
  1  'x, y, z'
loop_
 _atom_site_type_symbol
 _atom_site_label
 _atom_site_symmetry_multiplicity
 _atom_site_fract_x
 _atom_site_fract_y
 _atom_site_fract_z
 _atom_site_occupancy
  Na  Na0  1  0.81923800  0.42486900  0.56489000  1
  Na  Na1  1  0.68576500  0.06086000  0.82468600  1
  Na  Na2  1  0.05899700  0.68511000  0.82513100  1
  Na  Na3  1  0.06086000  0.68576500  0.42868900  1
  Na  Na4  1  0.82131100  0.42531400  0.18914000  1
  Na  Na5  1  0.42486900  0.81923800  0.19100300  1
  Na  Na6  1  0.42531400  0.82131100  0.56423500  1
  Na  Na7  1  0.68209300  0.68209300  0.81790700  1
  Na  Na8  1  0.68511000  0.05899700  0.43076200  1
  Na  Na9  1  0.43209300  0.43209300  0.56790700  1
  Bi  Bi10  1  0.75364700  0.24131700  0.00363200  1
  Bi  Bi11  1  0.24636800  0.24859700  0.49635300  1
  Bi  Bi12  1  0.24131700  0.75364700  0.00140300  1
  Bi  Bi13  1  0.24859700  0.24636800  0.00868300  1
  P  P14  1  0.87167900  0.87167900  0.62832100  1
  P  P15  1  0.62167900  0.62167900  0.37832100  1
  C  C16  1  0.47776700  0.08418900  0.21744800  1
  C  C17  1  0.08418900  0.47776700  0.22059600  1
  C  C18  1  0.47227100  0.47039300  0.83411500  1
  C  C19  1  0.47039300  0.47227100  0.22322100  1
  C  C20  1  0.03255200  0.02940400  0.77223300  1
  C  C21  1  0.02940400  0.03255200  0.16581100  1
  C  C22  1  0.02677900  0.41588500  0.77960700  1
  C  C23  1  0.41588500  0.02677900  0.77772900  1
  O  O24  1  0.90162900  0.15042900  0.77892200  1
  O  O25  1  0.36172600  0.07466100  0.21182100  1
  O  O26  1  0.07466100  0.36172600  0.35179200  1
  O  O27  1  0.03746300  0.41717100  0.64689300  1
  O  O28  1  0.08097900  0.47107800  0.09957100  1
  O  O29  1  0.81004700  0.80877900  0.56711400  1
  O  O30  1  0.80877900  0.81004700  0.81406000  1
  O  O31  1  0.59874500  0.09843000  0.09108900  1
  O  O32  1  0.09843000  0.59874500  0.21173600  1
  O  O33  1  0.35273900  0.46206500  0.35341400  1
  O  O34  1  0.46206500  0.35273900  0.83178100  1
  O  O35  1  0.80113000  0.05432100  0.57207600  1
  O  O36  1  0.05432100  0.80113000  0.57247300  1
  O  O37  1  0.03817900  0.89820800  0.88827400  1
  O  O38  1  0.89820800  0.03817900  0.17533900  1
  O  O39  1  0.35152700  0.60310700  0.83282900  1
  O  O40  1  0.15042900  0.90162800  0.16902100  1
  O  O41  1  0.45846600  0.60133700  0.10402900  1
  O  O42  1  0.60133700  0.45846600  0.83616800  1
  O  O43  1  0.43594000  0.68288600  0.44122100  1
  O  O44  1  0.68288600  0.43594000  0.43995300  1
  O  O45  1  0.03826400  0.15891100  0.15157000  1
  O  O46  1  0.15891100  0.03826400  0.65125500  1
  O  O47  1  0.89658600  0.41821900  0.89726100  1
  O  O48  1  0.41821900  0.89658600  0.78793500  1
  O  O49  1  0.67752700  0.67792400  0.19567900  1
  O  O50  1  0.67792400  0.67752700  0.44887000  1
  O  O51  1  0.41717100  0.03746300  0.89847300  1
  O  O52  1  0.47107800  0.08097900  0.34837200  1
  O  O53  1  0.41383200  0.14597100  0.64866300  1
  O  O54  1  0.14597100  0.41383200  0.79153400  1
  O  O55  1  0.60310700  0.35152700  0.21253700  1
