# generated using pymatgen
data_Fe5O3F7
_symmetry_space_group_name_H-M   'P 1'
_cell_length_a   4.79952900
_cell_length_b   4.80716421
_cell_length_c   15.70167264
_cell_angle_alpha   89.94880353
_cell_angle_beta   89.87555359
_cell_angle_gamma   88.71379048
_symmetry_Int_Tables_number   1
_chemical_formula_structural   Fe5O3F7
_chemical_formula_sum   'Fe10 O6 F14'
_cell_volume   362.17867759
_cell_formula_units_Z   2
loop_
 _symmetry_equiv_pos_site_id
 _symmetry_equiv_pos_as_xyz
  1  'x, y, z'
loop_
 _atom_site_type_symbol
 _atom_site_label
 _atom_site_symmetry_multiplicity
 _atom_site_fract_x
 _atom_site_fract_y
 _atom_site_fract_z
 _atom_site_occupancy
  Fe  Fe0  1  0.00518200  0.99351900  0.00022700  1
  Fe  Fe1  1  0.96959800  0.02857900  0.80129400  1
  Fe  Fe2  1  0.03257900  0.96507400  0.60010400  1
  Fe  Fe3  1  0.95852700  0.02011500  0.39333600  1
  Fe  Fe4  1  0.99955500  0.98851900  0.20237100  1
  Fe  Fe5  1  0.51443800  0.48424400  0.90616100  1
  Fe  Fe6  1  0.49836000  0.49075000  0.50298900  1
  Fe  Fe7  1  0.49629200  0.50124600  0.70543900  1
  Fe  Fe8  1  0.53839700  0.51895600  0.30456300  1
  Fe  Fe9  1  0.49707900  0.49854700  0.08544100  1
  O  O10  1  0.79774700  0.81162200  0.30469100  1
  O  O11  1  0.69927600  0.29715400  0.00115000  1
  O  O12  1  0.67231100  0.32640400  0.79825400  1
  O  O13  1  0.68477400  0.31837900  0.40325500  1
  O  O14  1  0.30811400  0.68894200  0.99738900  1
  O  O15  1  0.32883000  0.66547800  0.59764400  1
  F  F16  1  0.78904300  0.79297200  0.89793000  1
  F  F17  1  0.79160000  0.79239700  0.69756300  1
  F  F18  1  0.80051300  0.80082600  0.49318900  1
  F  F19  1  0.79232900  0.78407000  0.10600800  1
  F  F20  1  0.71150900  0.28357500  0.59719200  1
  F  F21  1  0.69561600  0.31204000  0.20380000  1
  F  F22  1  0.28608500  0.71197900  0.79613900  1
  F  F23  1  0.29586500  0.70897500  0.40089600  1
  F  F24  1  0.31780300  0.68517000  0.20291200  1
  F  F25  1  0.20554100  0.20937500  0.89780400  1
  F  F26  1  0.19545000  0.19271400  0.49132600  1
  F  F27  1  0.20579000  0.20491100  0.69738600  1
  F  F28  1  0.21036100  0.20453400  0.10819100  1
  F  F29  1  0.20143900  0.21893200  0.30535500  1
