# generated using pymatgen
data_Na6Sn2O7
_symmetry_space_group_name_H-M   'P 1'
_cell_length_a   6.63152993
_cell_length_b   6.63152993
_cell_length_c   11.05000412
_cell_angle_alpha   79.24502142
_cell_angle_beta   79.24502142
_cell_angle_gamma   59.97360460
_symmetry_Int_Tables_number   1
_chemical_formula_structural   Na6Sn2O7
_chemical_formula_sum   'Na12 Sn4 O14'
_cell_volume   410.85057018
_cell_formula_units_Z   2
loop_
 _symmetry_equiv_pos_site_id
 _symmetry_equiv_pos_as_xyz
  1  'x, y, z'
loop_
 _atom_site_type_symbol
 _atom_site_label
 _atom_site_symmetry_multiplicity
 _atom_site_fract_x
 _atom_site_fract_y
 _atom_site_fract_z
 _atom_site_occupancy
  Na  Na0  1  0.53005900  0.32611100  0.12213500  1
  Na  Na1  1  0.07598400  0.78501000  0.09663400  1
  Na  Na2  1  0.32611100  0.53005900  0.62213500  1
  Na  Na3  1  0.78501000  0.07598400  0.59663400  1
  Na  Na4  1  0.67194500  0.92529800  0.38054600  1
  Na  Na5  1  0.92529800  0.67194500  0.88054600  1
  Na  Na6  1  0.07470200  0.32805500  0.11945400  1
  Na  Na7  1  0.32805500  0.07470200  0.61945400  1
  Na  Na8  1  0.21499000  0.92401600  0.40336600  1
  Na  Na9  1  0.67388900  0.46994100  0.37786500  1
  Na  Na10  1  0.92401600  0.21499000  0.90336600  1
  Na  Na11  1  0.46994100  0.67388900  0.87786500  1
  Sn  Sn12  1  0.17579300  0.46973600  0.37372200  1
  Sn  Sn13  1  0.46973600  0.17579300  0.87372200  1
  Sn  Sn14  1  0.53026400  0.82420700  0.12627800  1
  Sn  Sn15  1  0.82420700  0.53026400  0.62627800  1
  O  O16  1  0.46912600  0.27685700  0.45861300  1
  O  O17  1  0.27685700  0.46912600  0.95861300  1
  O  O18  1  0.71884300  0.99604200  0.00346100  1
  O  O19  1  0.92147200  0.60617100  0.25846300  1
  O  O20  1  0.39382900  0.07852800  0.24153700  1
  O  O21  1  0.99604200  0.71884300  0.50346100  1
  O  O22  1  0.00395800  0.28115700  0.49653900  1
  O  O23  1  0.60617100  0.92147200  0.75846300  1
  O  O24  1  0.07852800  0.39382900  0.74153700  1
  O  O25  1  0.28115700  0.00395800  0.99653900  1
  O  O26  1  0.72314300  0.53087400  0.04138700  1
  O  O27  1  0.34385200  0.65614800  0.25000000  1
  O  O28  1  0.53087400  0.72314300  0.54138700  1
  O  O29  1  0.65614800  0.34385200  0.75000000  1
