# generated using pymatgen
data_Dy5Ti5O17
_symmetry_space_group_name_H-M   'P 1'
_cell_length_a   3.85870500
_cell_length_b   5.44235900
_cell_length_c   31.64887800
_cell_angle_alpha   90.00000000
_cell_angle_beta   90.00000000
_cell_angle_gamma   90.00000000
_symmetry_Int_Tables_number   1
_chemical_formula_structural   Dy5Ti5O17
_chemical_formula_sum   'Dy10 Ti10 O34'
_cell_volume   664.64092955
_cell_formula_units_Z   2
loop_
 _symmetry_equiv_pos_site_id
 _symmetry_equiv_pos_as_xyz
  1  'x, y, z'
loop_
 _atom_site_type_symbol
 _atom_site_label
 _atom_site_symmetry_multiplicity
 _atom_site_fract_x
 _atom_site_fract_y
 _atom_site_fract_z
 _atom_site_occupancy
  Dy  Dy0  1  0.00000000  0.17311600  0.01696100  1
  Dy  Dy1  1  0.00000000  0.71785600  0.69856700  1
  Dy  Dy2  1  0.00000000  0.26578700  0.79338100  1
  Dy  Dy3  1  0.00000000  0.32662100  0.57135900  1
  Dy  Dy4  1  0.00000000  0.79811300  0.89114200  1
  Dy  Dy5  1  0.50000000  0.28214400  0.19856700  1
  Dy  Dy6  1  0.50000000  0.82688400  0.51696100  1
  Dy  Dy7  1  0.50000000  0.73421300  0.29338100  1
  Dy  Dy8  1  0.50000000  0.67337900  0.07135900  1
  Dy  Dy9  1  0.50000000  0.20188700  0.39114200  1
  Ti  Ti10  1  0.00000000  0.75938200  0.20576700  1
  Ti  Ti11  1  0.00000000  0.25843000  0.29627200  1
  Ti  Ti12  1  0.00000000  0.75408900  0.38265900  1
  Ti  Ti13  1  0.00000000  0.28133000  0.46946300  1
  Ti  Ti14  1  0.50000000  0.77223900  0.61909900  1
  Ti  Ti15  1  0.50000000  0.24061800  0.70576700  1
  Ti  Ti16  1  0.50000000  0.74157000  0.79627200  1
  Ti  Ti17  1  0.50000000  0.24591100  0.88265900  1
  Ti  Ti18  1  0.50000000  0.71867000  0.96946300  1
  Ti  Ti19  1  0.00000000  0.22776100  0.11909900  1
  O  O20  1  0.00000000  0.21074000  0.71665400  1
  O  O21  1  0.00000000  0.69903300  0.79751900  1
  O  O22  1  0.00000000  0.21652600  0.87200300  1
  O  O23  1  0.00000000  0.45120100  0.06967200  1
  O  O24  1  0.00000000  0.95749000  0.08218700  1
  O  O25  1  0.00000000  0.76441400  0.96447300  1
  O  O26  1  0.00000000  0.55091800  0.16069600  1
  O  O27  1  0.00000000  0.07808200  0.17677200  1
  O  O28  1  0.00000000  0.95781200  0.26662500  1
  O  O29  1  0.00000000  0.45077800  0.24138500  1
  O  O30  1  0.50000000  0.89784800  0.85051000  1
  O  O31  1  0.50000000  0.40134900  0.82490100  1
  O  O32  1  0.50000000  0.44865800  0.00735200  1
  O  O33  1  0.50000000  0.94582900  0.01888900  1
  O  O34  1  0.50000000  0.02575400  0.92846400  1
  O  O35  1  0.50000000  0.54619600  0.91281800  1
  O  O36  1  0.50000000  0.28025300  0.12545800  1
  O  O37  1  0.50000000  0.78926000  0.21665400  1
  O  O38  1  0.50000000  0.30096700  0.29751900  1
  O  O39  1  0.50000000  0.78347400  0.37200300  1
  O  O40  1  0.50000000  0.23558600  0.46447300  1
  O  O41  1  0.50000000  0.54879900  0.56967200  1
  O  O42  1  0.50000000  0.04251000  0.58218700  1
  O  O43  1  0.50000000  0.44908200  0.66069600  1
  O  O44  1  0.50000000  0.92191800  0.67677200  1
  O  O45  1  0.50000000  0.54922200  0.74138500  1
  O  O46  1  0.50000000  0.04218800  0.76662500  1
  O  O47  1  0.00000000  0.10215200  0.35051000  1
  O  O48  1  0.00000000  0.59865100  0.32490100  1
  O  O49  1  0.00000000  0.97424600  0.42846400  1
  O  O50  1  0.00000000  0.45380400  0.41281800  1
  O  O51  1  0.00000000  0.55134200  0.50735200  1
  O  O52  1  0.00000000  0.05417100  0.51888900  1
  O  O53  1  0.00000000  0.71974700  0.62545800  1
