# generated using pymatgen
data_Na3VO3
_symmetry_space_group_name_H-M   'P 1'
_cell_length_a   6.17217166
_cell_length_b   8.75764764
_cell_length_c   8.75788889
_cell_angle_alpha   103.19867799
_cell_angle_beta   70.00218466
_cell_angle_gamma   109.99888939
_symmetry_Int_Tables_number   1
_chemical_formula_structural   Na3VO3
_chemical_formula_sum   'Na12 V4 O12'
_cell_volume   414.69027722
_cell_formula_units_Z   4
loop_
 _symmetry_equiv_pos_site_id
 _symmetry_equiv_pos_as_xyz
  1  'x, y, z'
loop_
 _atom_site_type_symbol
 _atom_site_label
 _atom_site_symmetry_multiplicity
 _atom_site_fract_x
 _atom_site_fract_y
 _atom_site_fract_z
 _atom_site_occupancy
  Na  Na0  1  0.75002600  0.44022400  0.44020000  1
  Na  Na1  1  0.24997900  0.55977900  0.55979000  1
  Na  Na2  1  0.74996500  0.71967900  0.71969300  1
  Na  Na3  1  0.25002000  0.28031700  0.28030600  1
  Na  Na4  1  0.55104700  0.17420200  0.99541000  1
  Na  Na5  1  0.05104900  0.00458400  0.82583300  1
  Na  Na6  1  0.94896400  0.99541700  0.17416600  1
  Na  Na7  1  0.44895900  0.82579800  0.00459500  1
  Na  Na8  1  0.92401200  0.23202500  0.63525900  1
  Na  Na9  1  0.42400000  0.36474200  0.76794700  1
  Na  Na10  1  0.57599900  0.63524900  0.23205400  1
  Na  Na11  1  0.07597900  0.76797700  0.36474400  1
  V  V12  1  0.40728900  0.08564500  0.42452500  1
  V  V13  1  0.59270700  0.91436000  0.57547300  1
  V  V14  1  0.90725700  0.57545400  0.91436600  1
  V  V15  1  0.09275800  0.42454700  0.08563400  1
  O  O16  1  0.72798800  0.09293800  0.43136400  1
  O  O17  1  0.22796500  0.56862500  0.90702300  1
  O  O18  1  0.77204200  0.43137300  0.09297300  1
  O  O19  1  0.27200500  0.90706300  0.56863800  1
  O  O20  1  0.83778700  0.48201400  0.71112200  1
  O  O21  1  0.33785800  0.28891200  0.51795000  1
  O  O22  1  0.66214000  0.71108900  0.48205000  1
  O  O23  1  0.16221500  0.51798900  0.28888100  1
  O  O24  1  0.81574400  0.77264000  0.99104500  1
  O  O25  1  0.31573400  0.00892900  0.22735800  1
  O  O26  1  0.68425900  0.99107100  0.77264600  1
  O  O27  1  0.18425400  0.22735900  0.00895700  1
