# generated using pymatgen
data_Rb2CoO3
_symmetry_space_group_name_H-M   'P 1'
_cell_length_a   13.66789300
_cell_length_b   6.66574700
_cell_length_c   16.93553534
_cell_angle_alpha   72.27152231
_cell_angle_beta   90.00000000
_cell_angle_gamma   90.00000000
_symmetry_Int_Tables_number   1
_chemical_formula_structural   Rb2CoO3
_chemical_formula_sum   'Rb24 Co12 O36'
_cell_volume   1469.66713799
_cell_formula_units_Z   12
loop_
 _symmetry_equiv_pos_site_id
 _symmetry_equiv_pos_as_xyz
  1  'x, y, z'
loop_
 _atom_site_type_symbol
 _atom_site_label
 _atom_site_symmetry_multiplicity
 _atom_site_fract_x
 _atom_site_fract_y
 _atom_site_fract_z
 _atom_site_occupancy
  Rb  Rb0  1  0.88784800  0.99502300  0.91824900  1
  Rb  Rb1  1  0.62071400  0.87438500  0.85885100  1
  Rb  Rb2  1  0.30252600  0.87945600  0.80435600  1
  Rb  Rb3  1  0.15420500  0.56387600  0.98971100  1
  Rb  Rb4  1  0.61215200  0.99502300  0.41824900  1
  Rb  Rb5  1  0.00742000  0.63864700  0.77713200  1
  Rb  Rb6  1  0.87928600  0.87438500  0.35885100  1
  Rb  Rb7  1  0.08694300  0.73580500  0.53129500  1
  Rb  Rb8  1  0.19747400  0.87945600  0.30435600  1
  Rb  Rb9  1  0.58694300  0.26419500  0.96870500  1
  Rb  Rb10  1  0.34579500  0.56387600  0.48971100  1
  Rb  Rb11  1  0.50742000  0.36135300  0.72286800  1
  Rb  Rb12  1  0.49258000  0.63864700  0.27713200  1
  Rb  Rb13  1  0.65420500  0.43612400  0.51028900  1
  Rb  Rb14  1  0.41305700  0.73580500  0.03129500  1
  Rb  Rb15  1  0.80252600  0.12054400  0.69564400  1
  Rb  Rb16  1  0.91305700  0.26419500  0.46870500  1
  Rb  Rb17  1  0.12071400  0.12561500  0.64114900  1
  Rb  Rb18  1  0.99258000  0.36135300  0.22286800  1
  Rb  Rb19  1  0.38784800  0.00497700  0.58175100  1
  Rb  Rb20  1  0.84579500  0.43612400  0.01028900  1
  Rb  Rb21  1  0.69747400  0.12054400  0.19564400  1
  Rb  Rb22  1  0.37928600  0.12561500  0.14114900  1
  Rb  Rb23  1  0.11215200  0.00497700  0.08175100  1
  Co  Co24  1  0.61897600  0.84102800  0.63234100  1
  Co  Co25  1  0.84649700  0.72859600  0.60278000  1
  Co  Co26  1  0.75710900  0.52965400  0.79232300  1
  Co  Co27  1  0.25710900  0.47034600  0.70767700  1
  Co  Co28  1  0.34649700  0.27140400  0.89722000  1
  Co  Co29  1  0.88102400  0.84102800  0.13234100  1
  Co  Co30  1  0.11897600  0.15897200  0.86765900  1
  Co  Co31  1  0.65350300  0.72859600  0.10278000  1
  Co  Co32  1  0.74289100  0.52965400  0.29232300  1
  Co  Co33  1  0.24289100  0.47034600  0.20767700  1
  Co  Co34  1  0.15350300  0.27140400  0.39722000  1
  Co  Co35  1  0.38102400  0.15897200  0.36765900  1
  O  O36  1  0.08993300  0.92220900  0.85074000  1
  O  O37  1  0.93886300  0.90754400  0.61117100  1
  O  O38  1  0.80970700  0.70049800  0.83952700  1
  O  O39  1  0.74107300  0.89355200  0.57158500  1
  O  O40  1  0.64517200  0.66366500  0.74037600  1
  O  O41  1  0.41006700  0.92220900  0.35074000  1
  O  O42  1  0.22537300  0.73184300  0.66225000  1
  O  O43  1  0.54680100  0.71238900  0.57777500  1
  O  O44  1  0.36354300  0.41001100  0.96836100  1
  O  O45  1  0.84028900  0.52966900  0.70136400  1
  O  O46  1  0.34028900  0.47033100  0.79863600  1
  O  O47  1  0.86354300  0.58998900  0.53163900  1
  O  O48  1  0.04680100  0.28761100  0.92222500  1
  O  O49  1  0.56113700  0.90754400  0.11117100  1
  O  O50  1  0.69029300  0.70049800  0.33952700  1
  O  O51  1  0.72537300  0.26815700  0.83775000  1
  O  O52  1  0.75892700  0.89355200  0.07158500  1
  O  O53  1  0.14517200  0.33633500  0.75962400  1
  O  O54  1  0.85482800  0.66366500  0.24037600  1
  O  O55  1  0.24107300  0.10644800  0.92841500  1
  O  O56  1  0.27462700  0.73184300  0.16225000  1
  O  O57  1  0.30970700  0.29950200  0.66047300  1
  O  O58  1  0.43886300  0.09245600  0.88882900  1
  O  O59  1  0.95319900  0.71238900  0.07777500  1
  O  O60  1  0.13645700  0.41001100  0.46836100  1
  O  O61  1  0.65971100  0.52966900  0.20136400  1
  O  O62  1  0.15971100  0.47033100  0.29863600  1
  O  O63  1  0.63645700  0.58998900  0.03163900  1
  O  O64  1  0.45319900  0.28761100  0.42222500  1
  O  O65  1  0.77462700  0.26815700  0.33775000  1
  O  O66  1  0.58993300  0.07779100  0.64926000  1
  O  O67  1  0.35482800  0.33633500  0.25962400  1
  O  O68  1  0.25892700  0.10644800  0.42841500  1
  O  O69  1  0.19029300  0.29950200  0.16047300  1
  O  O70  1  0.06113700  0.09245600  0.38882900  1
  O  O71  1  0.91006700  0.07779100  0.14926000  1
