# generated using pymatgen
data_Na8Co2O7
_symmetry_space_group_name_H-M   'P 1'
_cell_length_a   11.01503400
_cell_length_b   8.65290500
_cell_length_c   10.10181895
_cell_angle_alpha   73.38541132
_cell_angle_beta   90.00000000
_cell_angle_gamma   90.00000000
_symmetry_Int_Tables_number   1
_chemical_formula_structural   Na8Co2O7
_chemical_formula_sum   'Na32 Co8 O28'
_cell_volume   922.62686464
_cell_formula_units_Z   4
loop_
 _symmetry_equiv_pos_site_id
 _symmetry_equiv_pos_as_xyz
  1  'x, y, z'
loop_
 _atom_site_type_symbol
 _atom_site_label
 _atom_site_symmetry_multiplicity
 _atom_site_fract_x
 _atom_site_fract_y
 _atom_site_fract_z
 _atom_site_occupancy
  Na  Na0  1  0.52375200  0.87843300  0.92284500  1
  Na  Na1  1  0.54093100  0.91953900  0.64560300  1
  Na  Na2  1  0.25886500  0.89433800  0.53253300  1
  Na  Na3  1  0.97624800  0.87843300  0.42284500  1
  Na  Na4  1  0.05496700  0.74441900  0.71498800  1
  Na  Na5  1  0.95906900  0.91953900  0.14560300  1
  Na  Na6  1  0.75011400  0.71428700  0.56887400  1
  Na  Na7  1  0.24113500  0.89433800  0.03253300  1
  Na  Na8  1  0.52657600  0.56791900  0.85618100  1
  Na  Na9  1  0.49536000  0.66051800  0.51575800  1
  Na  Na10  1  0.44503300  0.74441900  0.21498800  1
  Na  Na11  1  0.76819000  0.50103200  0.87346500  1
  Na  Na12  1  0.74988600  0.71428700  0.06887400  1
  Na  Na13  1  0.26819000  0.49896800  0.62653500  1
  Na  Na14  1  0.97342400  0.56791900  0.35618100  1
  Na  Na15  1  0.99536000  0.33948200  0.98424200  1
  Na  Na16  1  0.00464000  0.66051800  0.01575800  1
  Na  Na17  1  0.02657600  0.43208100  0.64381900  1
  Na  Na18  1  0.73181000  0.50103200  0.37346500  1
  Na  Na19  1  0.25011400  0.28571300  0.93112600  1
  Na  Na20  1  0.23181000  0.49896800  0.12653500  1
  Na  Na21  1  0.55496700  0.25558100  0.78501200  1
  Na  Na22  1  0.50464000  0.33948200  0.48424200  1
  Na  Na23  1  0.47342400  0.43208100  0.14381900  1
  Na  Na24  1  0.75886500  0.10566200  0.96746700  1
  Na  Na25  1  0.24988600  0.28571300  0.43112600  1
  Na  Na26  1  0.04093100  0.08046100  0.85439700  1
  Na  Na27  1  0.94503300  0.25558100  0.28501200  1
  Na  Na28  1  0.02375200  0.12156700  0.57715500  1
  Na  Na29  1  0.74113500  0.10566200  0.46746700  1
  Na  Na30  1  0.45906900  0.08046100  0.35439700  1
  Na  Na31  1  0.47624800  0.12156700  0.07715500  1
  Co  Co32  1  0.80148000  0.90700400  0.77305600  1
  Co  Co33  1  0.69852000  0.90700400  0.27305600  1
  Co  Co34  1  0.28602900  0.69056700  0.84544800  1
  Co  Co35  1  0.21397100  0.69056700  0.34544800  1
  Co  Co36  1  0.78602900  0.30943300  0.65455200  1
  Co  Co37  1  0.71397100  0.30943300  0.15455200  1
  Co  Co38  1  0.30148000  0.09299600  0.72694400  1
  Co  Co39  1  0.19852000  0.09299600  0.22694400  1
  O  O40  1  0.88846400  0.89223900  0.93405000  1
  O  O41  1  0.20056000  0.89802800  0.78433500  1
  O  O42  1  0.88907000  0.89854400  0.62104200  1
  O  O43  1  0.61153600  0.89223900  0.43405000  1
  O  O44  1  0.67469200  0.75097100  0.81905000  1
  O  O45  1  0.29944000  0.89802800  0.28433500  1
  O  O46  1  0.61093000  0.89854400  0.12104200  1
  O  O47  1  0.38130300  0.68204400  0.69905600  1
  O  O48  1  0.82530800  0.75097100  0.31905000  1
  O  O49  1  0.15076900  0.54318700  0.89574600  1
  O  O50  1  0.11689500  0.67005700  0.50535200  1
  O  O51  1  0.11869700  0.68204400  0.19905600  1
  O  O52  1  0.34923100  0.54318700  0.39574600  1
  O  O53  1  0.61689500  0.32994300  0.99464800  1
  O  O54  1  0.38310500  0.67005700  0.00535200  1
  O  O55  1  0.65076900  0.45681300  0.60425400  1
  O  O56  1  0.88130300  0.31795600  0.80094400  1
  O  O57  1  0.88310500  0.32994300  0.49464800  1
  O  O58  1  0.84923100  0.45681300  0.10425400  1
  O  O59  1  0.17469200  0.24902900  0.68095000  1
  O  O60  1  0.61869700  0.31795600  0.30094400  1
  O  O61  1  0.38907000  0.10145600  0.87895800  1
  O  O62  1  0.70056000  0.10197200  0.71566500  1
  O  O63  1  0.32530800  0.24902900  0.18095000  1
  O  O64  1  0.38846400  0.10776100  0.56595000  1
  O  O65  1  0.11093000  0.10145600  0.37895800  1
  O  O66  1  0.79944000  0.10197200  0.21566500  1
  O  O67  1  0.11153600  0.10776100  0.06595000  1
