# generated using pymatgen
data_Na4Fe2C4SO16
_symmetry_space_group_name_H-M   'P 1'
_cell_length_a   9.96065667
_cell_length_b   9.93187761
_cell_length_c   9.73036057
_cell_angle_alpha   60.86342236
_cell_angle_beta   60.56781309
_cell_angle_gamma   58.56876456
_symmetry_Int_Tables_number   1
_chemical_formula_structural   Na4Fe2C4SO16
_chemical_formula_sum   'Na8 Fe4 C8 S2 O32'
_cell_volume   680.02720761
_cell_formula_units_Z   2
loop_
 _symmetry_equiv_pos_site_id
 _symmetry_equiv_pos_as_xyz
  1  'x, y, z'
loop_
 _atom_site_type_symbol
 _atom_site_label
 _atom_site_symmetry_multiplicity
 _atom_site_fract_x
 _atom_site_fract_y
 _atom_site_fract_z
 _atom_site_occupancy
  Na  Na0  1  0.95863400  0.54136600  0.95863400  1
  Na  Na1  1  0.54101400  0.95898600  0.95898600  1
  Na  Na2  1  0.29101400  0.70898600  0.70898600  1
  Na  Na3  1  0.70863400  0.29136600  0.70863400  1
  Na  Na4  1  0.54136600  0.95863400  0.54136600  1
  Na  Na5  1  0.95898600  0.54101400  0.54101400  1
  Na  Na6  1  0.70898600  0.29101400  0.29101400  1
  Na  Na7  1  0.29136600  0.70863400  0.29136600  1
  Fe  Fe8  1  0.12500000  0.12500000  0.12500000  1
  Fe  Fe9  1  0.12500000  0.12500000  0.62500000  1
  Fe  Fe10  1  0.12500000  0.62500000  0.12500000  1
  Fe  Fe11  1  0.62500000  0.12500000  0.12500000  1
  C  C12  1  0.91604500  0.91312100  0.90287000  1
  C  C13  1  0.33687900  0.33395500  0.98203600  1
  C  C14  1  0.90287000  0.26796400  0.91604500  1
  C  C15  1  0.26796400  0.90287000  0.91312100  1
  C  C16  1  0.98203600  0.34713000  0.33687900  1
  C  C17  1  0.34713000  0.98203600  0.33395500  1
  C  C18  1  0.91312100  0.91604500  0.26796400  1
  C  C19  1  0.33395500  0.33687900  0.34713000  1
  S  S20  1  0.50000000  0.50000000  0.50000000  1
  S  S21  1  0.75000000  0.75000000  0.75000000  1
  O  O22  1  0.94404200  0.76861600  0.01487900  1
  O  O23  1  0.31404900  0.56836200  0.55902300  1
  O  O24  1  0.03279200  0.94087100  0.76428600  1
  O  O25  1  0.30912900  0.21720800  0.98794900  1
  O  O26  1  0.76428600  0.26205100  0.03279200  1
  O  O27  1  0.22098500  0.48097300  0.97672800  1
  O  O28  1  0.55902300  0.55856500  0.31404900  1
  O  O29  1  0.56836200  0.31404900  0.55856500  1
  O  O30  1  0.32131400  0.97672800  0.48097300  1
  O  O31  1  0.26205100  0.76428600  0.94087100  1
  O  O32  1  0.48138400  0.30595800  0.97753700  1
  O  O33  1  0.55856500  0.55902300  0.56836200  1
  O  O34  1  0.01487900  0.27246300  0.94404200  1
  O  O35  1  0.27246300  0.01487900  0.76861600  1
  O  O36  1  0.76902700  0.02901500  0.92868600  1
  O  O37  1  0.97672800  0.32131400  0.22098500  1
  O  O38  1  0.27327200  0.92868600  0.02901500  1
  O  O39  1  0.48097300  0.22098500  0.32131400  1
  O  O40  1  0.97753700  0.23512100  0.48138400  1
  O  O41  1  0.23512100  0.97753700  0.30595800  1
  O  O42  1  0.69143500  0.69097700  0.68163800  1
  O  O43  1  0.76861600  0.94404200  0.27246300  1
  O  O44  1  0.98794900  0.48571400  0.30912900  1
  O  O45  1  0.92868600  0.27327200  0.76902700  1
  O  O46  1  0.68163800  0.93595100  0.69143500  1
  O  O47  1  0.69097700  0.69143500  0.93595100  1
  O  O48  1  0.02901500  0.76902700  0.27327200  1
  O  O49  1  0.48571400  0.98794900  0.21720800  1
  O  O50  1  0.94087100  0.03279200  0.26205100  1
  O  O51  1  0.21720800  0.30912900  0.48571400  1
  O  O52  1  0.93595100  0.68163800  0.69097700  1
  O  O53  1  0.30595800  0.48138400  0.23512100  1
