# generated using pymatgen
data_Ba5Y3F19
_symmetry_space_group_name_H-M   'P 1'
_cell_length_a   11.94569667
_cell_length_b   11.94569667
_cell_length_c   11.94569667
_cell_angle_alpha   97.04726741
_cell_angle_beta   97.04726741
_cell_angle_gamma   138.99250481
_symmetry_Int_Tables_number   1
_chemical_formula_structural   Ba5Y3F19
_chemical_formula_sum   'Ba10 Y6 F38'
_cell_volume   1047.65843899
_cell_formula_units_Z   2
loop_
 _symmetry_equiv_pos_site_id
 _symmetry_equiv_pos_as_xyz
  1  'x, y, z'
loop_
 _atom_site_type_symbol
 _atom_site_label
 _atom_site_symmetry_multiplicity
 _atom_site_fract_x
 _atom_site_fract_y
 _atom_site_fract_z
 _atom_site_occupancy
  Ba  Ba0  1  0.30931100  0.80931100  0.50000000  1
  Ba  Ba1  1  0.73340100  0.55620300  0.30237100  1
  Ba  Ba2  1  0.75383200  0.05620300  0.82280200  1
  Ba  Ba3  1  0.05620300  0.23340100  0.30237100  1
  Ba  Ba4  1  0.43103000  0.73340100  0.17719800  1
  Ba  Ba5  1  0.55620300  0.25383200  0.82280200  1
  Ba  Ba6  1  0.93103000  0.75383200  0.69762900  1
  Ba  Ba7  1  0.25383200  0.43103000  0.69762900  1
  Ba  Ba8  1  0.23340100  0.93103000  0.17719800  1
  Ba  Ba9  1  0.80931100  0.30931100  0.50000000  1
  Y  Y10  1  0.83536500  0.33536500  0.16431000  1
  Y  Y11  1  0.83293800  0.83293800  0.00000000  1
  Y  Y12  1  0.33293800  0.33293800  0.00000000  1
  Y  Y13  1  0.33536500  0.17105400  0.50000000  1
  Y  Y14  1  0.67105400  0.83536500  0.50000000  1
  Y  Y15  1  0.17105400  0.67105400  0.83569000  1
  F  F16  1  0.06964300  0.41215100  0.16338900  1
  F  F17  1  0.91215100  0.56964300  0.16338900  1
  F  F18  1  0.98857200  0.48857200  0.35633800  1
  F  F19  1  0.52159200  0.74244200  0.63028100  1
  F  F20  1  0.61216100  0.24244200  0.22084900  1
  F  F21  1  0.94837700  0.75417900  0.98897000  1
  F  F22  1  0.58580700  0.58580700  0.00000000  1
  F  F23  1  0.08580700  0.08580700  0.00000000  1
  F  F24  1  0.44837700  0.45940700  0.19419800  1
  F  F25  1  0.11216100  0.89131200  0.36971900  1
  F  F26  1  0.13223400  0.63223400  0.64366200  1
  F  F27  1  0.55729900  0.05729900  0.70978300  1
  F  F28  1  0.84751600  0.55729900  0.50000000  1
  F  F29  1  0.95940700  0.94837700  0.19419800  1
  F  F30  1  0.25417900  0.44837700  0.98897000  1
  F  F31  1  0.24244200  0.02159200  0.63028100  1
  F  F32  1  0.75703400  0.72600600  0.50000000  1
  F  F33  1  0.72600600  0.22600600  0.96897300  1
  F  F34  1  0.74876200  0.91215100  0.34250800  1
  F  F35  1  0.24876200  0.90625400  0.83661100  1
  F  F36  1  0.56964300  0.40625400  0.65749200  1
  F  F37  1  0.25703400  0.75703400  0.03102700  1
  F  F38  1  0.22600600  0.25703400  0.50000000  1
  F  F39  1  0.39131200  0.61216100  0.36971900  1
  F  F40  1  0.74244200  0.11216100  0.22084900  1
  F  F41  1  0.75417900  0.76520900  0.80580200  1
  F  F42  1  0.45940700  0.26520900  0.01103000  1
  F  F43  1  0.34751600  0.84751600  0.29021700  1
  F  F44  1  0.05729900  0.34751600  0.50000000  1
  F  F45  1  0.90625400  0.06964300  0.65749200  1
  F  F46  1  0.63223400  0.98857200  0.50000000  1
  F  F47  1  0.26520900  0.25417900  0.80580200  1
  F  F48  1  0.76520900  0.95940700  0.01103000  1
  F  F49  1  0.02159200  0.39131200  0.77915100  1
  F  F50  1  0.48857200  0.13223400  0.50000000  1
  F  F51  1  0.41215100  0.24876200  0.34250800  1
  F  F52  1  0.40625400  0.74876200  0.83661100  1
  F  F53  1  0.89131200  0.52159200  0.77915100  1
