# generated using pymatgen
data_Na4Co2O5
_symmetry_space_group_name_H-M   'P 1'
_cell_length_a   5.74818400
_cell_length_b   9.09549100
_cell_length_c   12.68343078
_cell_angle_alpha   63.28710214
_cell_angle_beta   90.00000000
_cell_angle_gamma   90.00000000
_symmetry_Int_Tables_number   1
_chemical_formula_structural   Na4Co2O5
_chemical_formula_sum   'Na16 Co8 O20'
_cell_volume   592.34729364
_cell_formula_units_Z   4
loop_
 _symmetry_equiv_pos_site_id
 _symmetry_equiv_pos_as_xyz
  1  'x, y, z'
loop_
 _atom_site_type_symbol
 _atom_site_label
 _atom_site_symmetry_multiplicity
 _atom_site_fract_x
 _atom_site_fract_y
 _atom_site_fract_z
 _atom_site_occupancy
  Na  Na0  1  0.92890100  0.19909500  0.96211400  1
  Na  Na1  1  0.58626300  0.70529900  0.95954300  1
  Na  Na2  1  0.11976100  0.60916500  0.86921200  1
  Na  Na3  1  0.37218600  0.12507500  0.85988300  1
  Na  Na4  1  0.61976100  0.39083500  0.63078800  1
  Na  Na5  1  0.87218600  0.87492500  0.64011700  1
  Na  Na6  1  0.42890100  0.80090500  0.53788600  1
  Na  Na7  1  0.91373700  0.70529900  0.45954300  1
  Na  Na8  1  0.08626300  0.29470100  0.54045700  1
  Na  Na9  1  0.57109900  0.19909500  0.46211400  1
  Na  Na10  1  0.12781400  0.12507500  0.35988300  1
  Na  Na11  1  0.38023900  0.60916500  0.36921200  1
  Na  Na12  1  0.62781400  0.87492500  0.14011700  1
  Na  Na13  1  0.88023900  0.39083500  0.13078800  1
  Na  Na14  1  0.41373700  0.29470100  0.04045700  1
  Na  Na15  1  0.07109900  0.80090500  0.03788600  1
  Co  Co16  1  0.61263500  0.53608100  0.80638200  1
  Co  Co17  1  0.11263500  0.46391900  0.69361800  1
  Co  Co18  1  0.83987400  0.04728800  0.79868400  1
  Co  Co19  1  0.33987400  0.95271200  0.70131600  1
  Co  Co20  1  0.66012600  0.04728800  0.29868400  1
  Co  Co21  1  0.16012600  0.95271200  0.20131600  1
  Co  Co22  1  0.88736500  0.53608100  0.30638200  1
  Co  Co23  1  0.38736500  0.46391900  0.19361800  1
  O  O24  1  0.76847900  0.45179100  0.94290400  1
  O  O25  1  0.34454200  0.41319100  0.81961900  1
  O  O26  1  0.73890000  0.96168200  0.94808900  1
  O  O27  1  0.08606300  0.89371700  0.80631700  1
  O  O28  1  0.51050800  0.75480000  0.75719300  1
  O  O29  1  0.84454200  0.58680900  0.68038100  1
  O  O30  1  0.01050800  0.24520000  0.74280700  1
  O  O31  1  0.58606300  0.10628300  0.69368300  1
  O  O32  1  0.26847900  0.54820900  0.55709600  1
  O  O33  1  0.23890000  0.03831800  0.55191100  1
  O  O34  1  0.76110000  0.96168200  0.44808900  1
  O  O35  1  0.73152100  0.45179100  0.44290400  1
  O  O36  1  0.41393700  0.89371700  0.30631700  1
  O  O37  1  0.98949200  0.75480000  0.25719300  1
  O  O38  1  0.15545800  0.41319100  0.31961900  1
  O  O39  1  0.48949200  0.24520000  0.24280700  1
  O  O40  1  0.91393700  0.10628300  0.19368300  1
  O  O41  1  0.26110000  0.03831800  0.05191100  1
  O  O42  1  0.65545800  0.58680900  0.18038100  1
  O  O43  1  0.23152100  0.54820900  0.05709600  1
