# generated using pymatgen
data_La4CoO8
_symmetry_space_group_name_H-M   'P 1'
_cell_length_a   13.34413013
_cell_length_b   13.34413013
_cell_length_c   13.34413013
_cell_angle_alpha   157.00893556
_cell_angle_beta   157.00893556
_cell_angle_gamma   32.74019711
_symmetry_Int_Tables_number   1
_chemical_formula_structural   La4CoO8
_chemical_formula_sum   'La8 Co2 O16'
_cell_volume   362.18950074
_cell_formula_units_Z   2
loop_
 _symmetry_equiv_pos_site_id
 _symmetry_equiv_pos_as_xyz
  1  'x, y, z'
loop_
 _atom_site_type_symbol
 _atom_site_label
 _atom_site_symmetry_multiplicity
 _atom_site_fract_x
 _atom_site_fract_y
 _atom_site_fract_z
 _atom_site_occupancy
  La  La0  1  0.06535200  0.56535200  0.50000000  1
  La  La1  1  0.93152600  0.43152600  0.50000000  1
  La  La2  1  0.68464800  0.68464800  0.00000000  1
  La  La3  1  0.31535200  0.31535200  0.00000000  1
  La  La4  1  0.81847400  0.81847400  0.00000000  1
  La  La5  1  0.18152600  0.18152600  0.00000000  1
  La  La6  1  0.56847400  0.06847400  0.50000000  1
  La  La7  1  0.43464800  0.93464800  0.50000000  1
  Co  Co8  1  0.25000000  0.75000000  0.50000000  1
  Co  Co9  1  0.50000000  0.50000000  0.00000000  1
  O  O10  1  0.00673100  0.50673100  0.01346100  1
  O  O11  1  0.74326900  0.25673100  0.00000000  1
  O  O12  1  0.00673100  0.99326900  0.50000000  1
  O  O13  1  0.84328600  0.34328600  0.50000000  1
  O  O14  1  0.16902100  0.66902100  0.50000000  1
  O  O15  1  0.25673100  0.25673100  0.51346100  1
  O  O16  1  0.49326900  0.50673100  0.50000000  1
  O  O17  1  0.74326900  0.74326900  0.48653900  1
  O  O18  1  0.09328600  0.09328600  0.00000000  1
  O  O19  1  0.49326900  0.99326900  0.98653900  1
  O  O20  1  0.58097900  0.58097900  0.00000000  1
  O  O21  1  0.25673100  0.74326900  0.00000000  1
  O  O22  1  0.41902100  0.41902100  0.00000000  1
  O  O23  1  0.90671400  0.90671400  0.00000000  1
  O  O24  1  0.33097900  0.83097900  0.50000000  1
  O  O25  1  0.65671400  0.15671400  0.50000000  1
