# generated using pymatgen
data_Li4V3Cr3(CuO8)2
_symmetry_space_group_name_H-M   'P 1'
_cell_length_a   5.83872500
_cell_length_b   5.84457850
_cell_length_c   9.75097184
_cell_angle_alpha   92.67301122
_cell_angle_beta   90.61734035
_cell_angle_gamma   119.34978709
_symmetry_Int_Tables_number   1
_chemical_formula_structural   Li4V3Cr3(CuO8)2
_chemical_formula_sum   'Li4 V3 Cr3 Cu2 O16'
_cell_volume   289.50834261
_cell_formula_units_Z   1
loop_
 _symmetry_equiv_pos_site_id
 _symmetry_equiv_pos_as_xyz
  1  'x, y, z'
loop_
 _atom_site_type_symbol
 _atom_site_label
 _atom_site_symmetry_multiplicity
 _atom_site_fract_x
 _atom_site_fract_y
 _atom_site_fract_z
 _atom_site_occupancy
  Li  Li0  1  0.31682400  0.65615900  0.09758300  1
  Li  Li1  1  0.01798000  0.03339600  0.00468100  1
  Li  Li2  1  0.02422300  0.01510400  0.50742100  1
  Li  Li3  1  0.64664400  0.32381700  0.60541600  1
  V  V4  1  0.79064000  0.64159100  0.27322400  1
  V  V5  1  0.13990800  0.81459900  0.78944900  1
  V  V6  1  0.32830500  0.11710900  0.29722300  1
  Cr  Cr7  1  0.65586000  0.84810600  0.78253700  1
  Cr  Cr8  1  0.17134000  0.34412500  0.78697400  1
  Cr  Cr9  1  0.85031000  0.17931000  0.28704200  1
  Cu  Cu10  1  0.35104200  0.66281100  0.51652700  1
  Cu  Cu11  1  0.67155200  0.33341500  0.99925900  1
  O  O12  1  0.70470600  0.84247400  0.39215400  1
  O  O13  1  0.47269400  0.51465300  0.66716100  1
  O  O14  1  0.33116600  0.69371600  0.89441300  1
  O  O15  1  0.99530900  0.99143500  0.68783600  1
  O  O16  1  0.00966000  0.98538000  0.18857000  1
  O  O17  1  0.19359400  0.32205000  0.39479900  1
  O  O18  1  0.45620600  0.95670800  0.66100500  1
  O  O19  1  0.01459700  0.51863600  0.67382400  1
  O  O20  1  0.84856700  0.17592500  0.89833800  1
  O  O21  1  0.18320900  0.84367000  0.39651800  1
  O  O22  1  0.96162500  0.47886600  0.16847100  1
  O  O23  1  0.50022000  0.01774600  0.18003900  1
  O  O24  1  0.66906700  0.34598100  0.39172400  1
  O  O25  1  0.85653200  0.70371500  0.89437900  1
  O  O26  1  0.51183600  0.47944500  0.16194300  1
  O  O27  1  0.32667800  0.16035700  0.89364800  1
