# generated using pymatgen
data_Na6Mn3(PO4)4
_symmetry_space_group_name_H-M   'P 1'
_cell_length_a   10.63407167
_cell_length_b   10.63407167
_cell_length_c   10.93660540
_cell_angle_alpha   89.63905082
_cell_angle_beta   89.63905082
_cell_angle_gamma   37.06205426
_symmetry_Int_Tables_number   1
_chemical_formula_structural   Na6Mn3(PO4)4
_chemical_formula_sum   'Na12 Mn6 P8 O32'
_cell_volume   745.34722326
_cell_formula_units_Z   2
loop_
 _symmetry_equiv_pos_site_id
 _symmetry_equiv_pos_as_xyz
  1  'x, y, z'
loop_
 _atom_site_type_symbol
 _atom_site_label
 _atom_site_symmetry_multiplicity
 _atom_site_fract_x
 _atom_site_fract_y
 _atom_site_fract_z
 _atom_site_occupancy
  Na  Na0  1  0.01259400  0.81164300  0.55682800  1
  Na  Na1  1  0.17991600  0.72402600  0.31406200  1
  Na  Na2  1  0.00477000  0.48705000  0.49761800  1
  Na  Na3  1  0.05659700  0.08790800  0.34810700  1
  Na  Na4  1  0.08790800  0.05659700  0.84810700  1
  Na  Na5  1  0.24937900  0.88810600  0.07397000  1
  Na  Na6  1  0.48705000  0.00477000  0.99761800  1
  Na  Na7  1  0.72402600  0.17991600  0.81406200  1
  Na  Na8  1  0.81164300  0.01259400  0.05682800  1
  Na  Na9  1  0.39949600  0.60761000  0.73721400  1
  Na  Na10  1  0.60761000  0.39949600  0.23721400  1
  Na  Na11  1  0.88810600  0.24937900  0.57397000  1
  Mn  Mn12  1  0.32596600  0.35864400  0.24305200  1
  Mn  Mn13  1  0.35864400  0.32596600  0.74305200  1
  Mn  Mn14  1  0.50389300  0.99969900  0.49219200  1
  Mn  Mn15  1  0.62447200  0.68534500  0.24675700  1
  Mn  Mn16  1  0.68534500  0.62447200  0.74675700  1
  Mn  Mn17  1  0.99969900  0.50389300  0.99219200  1
  P  P18  1  0.24208300  0.60248900  0.98185400  1
  P  P19  1  0.17249600  0.22723300  0.24692100  1
  P  P20  1  0.22723300  0.17249600  0.74692100  1
  P  P21  1  0.60248900  0.24208300  0.48185400  1
  P  P22  1  0.39154800  0.76693800  0.50192600  1
  P  P23  1  0.77900700  0.81738200  0.23660100  1
  P  P24  1  0.81738200  0.77900700  0.73660100  1
  P  P25  1  0.76693800  0.39154800  0.00192600  1
  O  O26  1  0.04478600  0.67704000  0.98443500  1
  O  O27  1  0.00267000  0.68515500  0.26503500  1
  O  O28  1  0.04760000  0.63686400  0.70485700  1
  O  O29  1  0.00781500  0.29589300  0.71844700  1
  O  O30  1  0.32760900  0.54802700  0.11645900  1
  O  O31  1  0.20344600  0.29605100  0.13698900  1
  O  O32  1  0.41261700  0.40358900  0.89890900  1
  O  O33  1  0.25908100  0.23720600  0.35651300  1
  O  O34  1  0.23720600  0.25908100  0.85651300  1
  O  O35  1  0.40358900  0.41261700  0.39890900  1
  O  O36  1  0.29605100  0.20344600  0.63698900  1
  O  O37  1  0.54802700  0.32760900  0.61645900  1
  O  O38  1  0.29589300  0.00781500  0.21844700  1
  O  O39  1  0.30982300  0.96805100  0.49342200  1
  O  O40  1  0.21211200  0.82633700  0.55668900  1
  O  O41  1  0.18571900  0.78083600  0.92764100  1
  O  O42  1  0.37161100  0.94517600  0.77973000  1
  O  O43  1  0.63686400  0.04760000  0.20485700  1
  O  O44  1  0.68515500  0.00267000  0.76503500  1
  O  O45  1  0.67704000  0.04478600  0.48443500  1
  O  O46  1  0.44023600  0.68233200  0.36713900  1
  O  O47  1  0.70186500  0.79504600  0.34643100  1
  O  O48  1  0.76172200  0.73680200  0.12709900  1
  O  O49  1  0.60018100  0.58900700  0.08601100  1
  O  O50  1  0.58900700  0.60018100  0.58601100  1
  O  O51  1  0.73680200  0.76172200  0.62709900  1
  O  O52  1  0.79504600  0.70186500  0.84643100  1
  O  O53  1  0.68233200  0.44023600  0.86713900  1
  O  O54  1  0.94517600  0.37161100  0.27973000  1
  O  O55  1  0.78083600  0.18571900  0.42764100  1
  O  O56  1  0.82633700  0.21211200  0.05668900  1
  O  O57  1  0.96805100  0.30982300  0.99342200  1
