# generated using pymatgen
data_Li2MnH8(SO6)2
_symmetry_space_group_name_H-M   'P 1'
_cell_length_a   9.28265953
_cell_length_b   11.85641483
_cell_length_c   12.52651412
_cell_angle_alpha   61.97008854
_cell_angle_beta   89.98336119
_cell_angle_gamma   113.10801283
_symmetry_Int_Tables_number   1
_chemical_formula_structural   Li2MnH8(SO6)2
_chemical_formula_sum   'Li8 Mn4 H32 S8 O48'
_cell_volume   1089.94706058
_cell_formula_units_Z   4
loop_
 _symmetry_equiv_pos_site_id
 _symmetry_equiv_pos_as_xyz
  1  'x, y, z'
loop_
 _atom_site_type_symbol
 _atom_site_label
 _atom_site_symmetry_multiplicity
 _atom_site_fract_x
 _atom_site_fract_y
 _atom_site_fract_z
 _atom_site_occupancy
  Li  Li0  1  0.00872100  0.24796900  0.30789400  1
  Li  Li1  1  0.63131900  0.27312000  0.33253800  1
  Li  Li2  1  0.36596700  0.73288100  0.16099200  1
  Li  Li3  1  0.75999400  0.75156700  0.19058400  1
  Li  Li4  1  0.24196000  0.25249000  0.80800900  1
  Li  Li5  1  0.63285600  0.26988000  0.83520000  1
  Li  Li6  1  0.36436900  0.72629400  0.66844000  1
  Li  Li7  1  0.98575200  0.74846500  0.69454000  1
  Mn  Mn8  1  0.99895800  0.49864900  0.00151500  1
  Mn  Mn9  1  0.25102100  0.99928900  0.25192000  1
  Mn  Mn10  1  0.49927800  0.49950900  0.50011900  1
  Mn  Mn11  1  0.74656000  0.99847500  0.75002500  1
  H  H12  1  0.01417000  0.25139700  0.03880800  1
  H  H13  1  0.72764900  0.25765200  0.05363800  1
  H  H14  1  0.35718200  0.27950200  0.04451200  1
  H  H15  1  0.97670300  0.03338800  0.17550800  1
  H  H16  1  0.55653900  0.03198600  0.17348900  1
  H  H17  1  0.81388800  0.62735400  0.00478800  1
  H  H18  1  0.31238200  0.61493000  0.00981600  1
  H  H19  1  0.40109300  0.28957300  0.16606100  1
  H  H20  1  0.11292800  0.70735400  0.33674800  1
  H  H21  1  0.69437800  0.38293400  0.49161000  1
  H  H22  1  0.23685400  0.25223400  0.54109400  1
  H  H23  1  0.18192500  0.37141600  0.49549000  1
  H  H24  1  0.52619800  0.25418500  0.55614800  1
  H  H25  1  0.91699900  0.27954300  0.54344900  1
  H  H26  1  0.05647800  0.03239900  0.67569400  1
  H  H27  1  0.47547700  0.03429900  0.67395600  1
  H  H28  1  0.52479500  0.96767600  0.32296700  1
  H  H29  1  0.94347900  0.97087700  0.32475200  1
  H  H30  1  0.07853500  0.71602500  0.45875700  1
  H  H31  1  0.47049600  0.74301700  0.44920400  1
  H  H32  1  0.81391300  0.62534800  0.51090500  1
  H  H33  1  0.76427600  0.74848600  0.45604300  1
  H  H34  1  0.30059500  0.61477800  0.50558300  1
  H  H35  1  0.88809400  0.29087700  0.66492900  1
  H  H36  1  0.59405800  0.70812900  0.83597500  1
  H  H37  1  0.68424500  0.38382700  0.99113300  1
  H  H38  1  0.18745000  0.37285300  0.99365600  1
  H  H39  1  0.44239800  0.96747500  0.82455900  1
  H  H40  1  0.02433300  0.96634100  0.82543300  1
  H  H41  1  0.63706700  0.71538500  0.95841100  1
  H  H42  1  0.27306200  0.74412300  0.94711400  1
  H  H43  1  0.98761300  0.74759000  0.95792600  1
  S  S44  1  0.75561400  0.03624400  0.01882200  1
  S  S45  1  0.52418500  0.53209400  0.20443600  1
  S  S46  1  0.98971100  0.46604100  0.29610300  1
  S  S47  1  0.27627800  0.03491800  0.52108300  1
  S  S48  1  0.72027400  0.96236700  0.47964800  1
  S  S49  1  0.00611800  0.53015900  0.70668200  1
  S  S50  1  0.47885300  0.46991400  0.79578800  1
  S  S51  1  0.24247800  0.96495600  0.98093700  1
  O  O52  1  0.92218600  0.10195300  0.03503500  1
  O  O53  1  0.66750800  0.12015600  0.01731500  1
  O  O54  1  0.08210500  0.33602400  0.04630200  1
  O  O55  1  0.74558700  0.34682700  0.05177600  1
  O  O56  1  0.37367100  0.22881100  0.12898600  1
  O  O57  1  0.02101500  0.00248700  0.25048300  1
  O  O58  1  0.48065600  0.99858400  0.24861100  1
  O  O59  1  0.67451900  0.63219200  0.10176100  1
  O  O60  1  0.99279700  0.43123300  0.19530900  1
  O  O61  1  0.38815700  0.56362200  0.15965800  1
  O  O62  1  0.48770500  0.38176100  0.25017200  1
  O  O63  1  0.26932100  0.03672500  0.40290400  1
  O  O64  1  0.78095600  0.11180000  0.37341600  1
  O  O65  1  0.66794400  0.88643800  0.12599300  1
  O  O66  1  0.23431100  0.96439200  0.09852900  1
  O  O67  1  0.10324400  0.61589100  0.25218900  1
  O  O68  1  0.82169500  0.43261200  0.34115100  1
  O  O69  1  0.56282800  0.56888700  0.30370700  1
  O  O70  1  0.03986300  0.36493800  0.39763200  1
  O  O71  1  0.17772600  0.10304700  0.53618800  1
  O  O72  1  0.44908800  0.11858300  0.51797100  1
  O  O73  1  0.25247100  0.33713100  0.54750500  1
  O  O74  1  0.59581800  0.34523500  0.55213700  1
  O  O75  1  0.14597900  0.76799200  0.37397600  1
  O  O76  1  0.85325300  0.22873400  0.62900600  1
  O  O77  1  0.40311200  0.65392100  0.44880100  1
  O  O78  1  0.74772400  0.66091500  0.45416200  1
  O  O79  1  0.97811600  0.99624600  0.75108600  1
  O  O80  1  0.51848300  0.00235600  0.74884900  1
  O  O81  1  0.54787000  0.87792700  0.48222600  1
  O  O82  1  0.82171100  0.89766300  0.46252100  1
  O  O83  1  0.95619500  0.63103300  0.60469000  1
  O  O84  1  0.44256800  0.43347000  0.69589700  1
  O  O85  1  0.17390700  0.56234700  0.66185500  1
  O  O86  1  0.89198300  0.38020000  0.75130800  1
  O  O87  1  0.76281000  0.03875300  0.90055500  1
  O  O88  1  0.33033600  0.11429100  0.87298300  1
  O  O89  1  0.21382900  0.88594300  0.62866500  1
  O  O90  1  0.72681600  0.95871600  0.59890000  1
  O  O91  1  0.51416400  0.61994200  0.74988900  1
  O  O92  1  0.61376100  0.43793200  0.84161200  1
  O  O93  1  0.00378300  0.56555700  0.80692000  1
  O  O94  1  0.32722400  0.36973100  0.89739900  1
  O  O95  1  0.62080900  0.76792800  0.87405900  1
  O  O96  1  0.25142700  0.65358900  0.95001300  1
  O  O97  1  0.91798900  0.66326000  0.95097400  1
  O  O98  1  0.33175100  0.88148100  0.98354200  1
  O  O99  1  0.07612400  0.89709600  0.96579600  1
