# generated using pymatgen
data_Ti17(NO4)6
_symmetry_space_group_name_H-M   'P 1'
_cell_length_a   10.39552600
_cell_length_b   11.29138754
_cell_length_c   11.47774017
_cell_angle_alpha   80.24753596
_cell_angle_beta   68.39152203
_cell_angle_gamma   62.66307584
_symmetry_Int_Tables_number   1
_chemical_formula_structural   Ti17(NO4)6
_chemical_formula_sum   'Ti34 N12 O48'
_cell_volume   1112.68803172
_cell_formula_units_Z   2
loop_
 _symmetry_equiv_pos_site_id
 _symmetry_equiv_pos_as_xyz
  1  'x, y, z'
loop_
 _atom_site_type_symbol
 _atom_site_label
 _atom_site_symmetry_multiplicity
 _atom_site_fract_x
 _atom_site_fract_y
 _atom_site_fract_z
 _atom_site_occupancy
  Ti  Ti0  1  0.92375100  0.92875700  0.12084800  1
  Ti  Ti1  1  0.82302300  0.24969100  0.10108600  1
  Ti  Ti2  1  0.39962900  0.42846300  0.21114900  1
  Ti  Ti3  1  0.43015100  0.92342700  0.12383400  1
  Ti  Ti4  1  0.60429300  0.57750800  0.12351900  1
  Ti  Ti5  1  0.17767300  0.75095400  0.23134600  1
  Ti  Ti6  1  0.89169400  0.44263700  0.21234800  1
  Ti  Ti7  1  0.32327500  0.24938800  0.10334800  1
  Ti  Ti8  1  0.07356800  0.07517600  0.21270200  1
  Ti  Ti9  1  0.92511400  0.92770700  0.45309400  1
  Ti  Ti10  1  0.10203600  0.57021200  0.12127500  1
  Ti  Ti11  1  0.39766400  0.42329700  0.55191600  1
  Ti  Ti12  1  0.58789300  0.05317700  0.21170000  1
  Ti  Ti13  1  0.60233600  0.57670300  0.44808400  1
  Ti  Ti14  1  0.82135900  0.25052000  0.43321200  1
  Ti  Ti15  1  0.17864100  0.74948000  0.56678800  1
  Ti  Ti16  1  0.43072300  0.92346100  0.44807000  1
  Ti  Ti17  1  0.07488600  0.07229300  0.54690600  1
  Ti  Ti18  1  0.92643200  0.92482400  0.78729800  1
  Ti  Ti19  1  0.67713400  0.75040400  0.56843700  1
  Ti  Ti20  1  0.89490400  0.42822000  0.54733200  1
  Ti  Ti21  1  0.10509600  0.57178000  0.45266800  1
  Ti  Ti22  1  0.32286600  0.24959600  0.43156300  1
  Ti  Ti23  1  0.39570700  0.42249200  0.87648100  1
  Ti  Ti24  1  0.17697700  0.75030900  0.89891400  1
  Ti  Ti25  1  0.60037100  0.57153700  0.78885100  1
  Ti  Ti26  1  0.56927700  0.07653900  0.55193000  1
  Ti  Ti27  1  0.82232700  0.24904600  0.76865400  1
  Ti  Ti28  1  0.41210700  0.94682300  0.78830000  1
  Ti  Ti29  1  0.07624900  0.07124300  0.87915200  1
  Ti  Ti30  1  0.10830600  0.55736300  0.78765200  1
  Ti  Ti31  1  0.67672500  0.75061200  0.89665200  1
  Ti  Ti32  1  0.89796400  0.42978800  0.87872500  1
  Ti  Ti33  1  0.56984900  0.07657300  0.87616600  1
  N  N34  1  0.10820800  0.74993100  0.08852600  1
  N  N35  1  0.59547100  0.75066000  0.07968300  1
  N  N36  1  0.10542500  0.74994600  0.42391600  1
  N  N37  1  0.89361600  0.25090800  0.24404200  1
  N  N38  1  0.59462700  0.75044400  0.44135500  1
  N  N39  1  0.39725000  0.25059700  0.24306700  1
  N  N40  1  0.10638400  0.74909200  0.75595800  1
  N  N41  1  0.89457500  0.25005400  0.57608400  1
  N  N42  1  0.60275000  0.74940300  0.75693300  1
  N  N43  1  0.40537300  0.24955600  0.55864500  1
  N  N44  1  0.89179200  0.25006900  0.91147400  1
  N  N45  1  0.40452900  0.24934000  0.92031700  1
  O  O46  1  0.34585900  0.43399200  0.06432600  1
  O  O47  1  0.73759300  0.12228400  0.15072700  1
  O  O48  1  0.39243900  0.61824500  0.18370900  1
  O  O49  1  0.03101100  0.06565500  0.06239100  1
  O  O50  1  0.84099700  0.43878700  0.06363000  1
  O  O51  1  0.96940900  0.93687200  0.27087500  1
  O  O52  1  0.60769500  0.38076800  0.14838400  1
  O  O53  1  0.26127300  0.88073900  0.18363900  1
  O  O54  1  0.34180600  0.43630200  0.39481800  1
  O  O55  1  0.11055000  0.37709500  0.15083000  1
  O  O56  1  0.23776900  0.11894900  0.14886300  1
  O  O57  1  0.52929900  0.06158500  0.06503600  1
  O  O58  1  0.65011900  0.55166400  0.27493000  1
  O  O59  1  0.45138000  0.94855100  0.27487900  1
  O  O60  1  0.90244400  0.60912100  0.18070800  1
  O  O61  1  0.76198600  0.88924000  0.18139600  1
  O  O62  1  0.39207700  0.61968100  0.51239000  1
  O  O63  1  0.03070600  0.06418400  0.39564100  1
  O  O64  1  0.73937700  0.11823500  0.48437400  1
  O  O65  1  0.96929400  0.93581600  0.60435900  1
  O  O66  1  0.60792300  0.38031900  0.48761000  1
  O  O67  1  0.15551500  0.56475800  0.27089400  1
  O  O68  1  0.84208500  0.43823700  0.39604700  1
  O  O69  1  0.26062300  0.88176500  0.51562600  1
  O  O70  1  0.34988100  0.44833600  0.72507000  1
  O  O71  1  0.52855100  0.06174700  0.39504400  1
  O  O72  1  0.65819400  0.56369800  0.60518200  1
  O  O73  1  0.47144900  0.93825300  0.60495600  1
  O  O74  1  0.89348400  0.61842800  0.51610000  1
  O  O75  1  0.10651600  0.38157200  0.48390000  1
  O  O76  1  0.76383600  0.87959300  0.51284900  1
  O  O77  1  0.23616400  0.12040700  0.48715100  1
  O  O78  1  0.39230500  0.61923200  0.85161600  1
  O  O79  1  0.73872700  0.11926100  0.81636100  1
  O  O80  1  0.03059100  0.06312800  0.72912500  1
  O  O81  1  0.60756100  0.38175500  0.81629100  1
  O  O82  1  0.84448500  0.43524200  0.72910600  1
  O  O83  1  0.96898900  0.93434500  0.93760900  1
  O  O84  1  0.26240700  0.87771600  0.84927300  1
  O  O85  1  0.15791500  0.56176300  0.60395300  1
  O  O86  1  0.65414100  0.56600800  0.93567400  1
  O  O87  1  0.88945000  0.62290500  0.84917000  1
  O  O88  1  0.76223100  0.88105100  0.85113700  1
  O  O89  1  0.23801400  0.11076000  0.81860400  1
  O  O90  1  0.47070100  0.93841500  0.93496400  1
  O  O91  1  0.09755600  0.39087900  0.81929200  1
  O  O92  1  0.54862000  0.05144900  0.72512100  1
  O  O93  1  0.15900300  0.56121300  0.93637000  1
