# generated using pymatgen
data_V3Cu2P6WO24
_symmetry_space_group_name_H-M   'P 1'
_cell_length_a   8.70017787
_cell_length_b   8.68728331
_cell_length_c   8.68728354
_cell_angle_alpha   59.99999453
_cell_angle_beta   60.04901341
_cell_angle_gamma   60.04901283
_symmetry_Int_Tables_number   1
_chemical_formula_structural   V3Cu2P6WO24
_chemical_formula_sum   'V3 Cu2 P6 W1 O24'
_cell_volume   464.62485641
_cell_formula_units_Z   1
loop_
 _symmetry_equiv_pos_site_id
 _symmetry_equiv_pos_as_xyz
  1  'x, y, z'
loop_
 _atom_site_type_symbol
 _atom_site_label
 _atom_site_symmetry_multiplicity
 _atom_site_fract_x
 _atom_site_fract_y
 _atom_site_fract_z
 _atom_site_occupancy
  V  V0  1  0.07333900  0.64222000  0.64222000  1
  V  V1  1  0.42827000  0.85724400  0.85724400  1
  V  V2  1  0.92665200  0.35778300  0.35778300  1
  Cu  Cu3  1  0.01129500  0.99623500  0.99623500  1
  Cu  Cu4  1  0.49959800  0.50013400  0.50013400  1
  P  P5  1  0.24527200  0.25171100  0.54444300  1
  P  P6  1  0.24527200  0.95857500  0.25171100  1
  P  P7  1  0.24527200  0.54444300  0.95857500  1
  P  P8  1  0.75034600  0.46581700  0.03930500  1
  P  P9  1  0.75034600  0.03930500  0.74453200  1
  P  P10  1  0.75034600  0.74453200  0.46581700  1
  W  W11  1  0.57343000  0.14219000  0.14219000  1
  O  O12  1  0.07187200  0.12286000  0.30150200  1
  O  O13  1  0.07187200  0.50376600  0.12286000  1
  O  O14  1  0.07187200  0.30150200  0.50376600  1
  O  O15  1  0.24561200  0.08286900  0.73031200  1
  O  O16  1  0.42910800  0.19740200  0.37986400  1
  O  O17  1  0.25564600  0.41694600  0.55755500  1
  O  O18  1  0.24561200  0.94120800  0.08286900  1
  O  O19  1  0.25564600  0.76985200  0.41694600  1
  O  O20  1  0.57017100  0.62272000  0.00519400  1
  O  O21  1  0.25564600  0.55755500  0.76985200  1
  O  O22  1  0.75226100  0.27246400  0.06044000  1
  O  O23  1  0.57017100  0.00519400  0.80191400  1
  O  O24  1  0.42910800  0.99362700  0.19740200  1
  O  O25  1  0.24561200  0.73031200  0.94120800  1
  O  O26  1  0.74584500  0.44018300  0.23095700  1
  O  O27  1  0.42910800  0.37986400  0.99362700  1
  O  O28  1  0.74584500  0.23095700  0.58301600  1
  O  O29  1  0.75226100  0.06044000  0.91483400  1
  O  O30  1  0.74584500  0.58301600  0.44018300  1
  O  O31  1  0.57017100  0.80191400  0.62272000  1
  O  O32  1  0.75226100  0.91483400  0.27246400  1
  O  O33  1  0.92967400  0.69837200  0.49443700  1
  O  O34  1  0.92967400  0.49443700  0.87751600  1
  O  O35  1  0.92967400  0.87751600  0.69837200  1
