# generated using pymatgen
data_Li2MnV(PO4)3
_symmetry_space_group_name_H-M   'P 1'
_cell_length_a   9.19031254
_cell_length_b   8.32259319
_cell_length_c   8.32148852
_cell_angle_alpha   61.14886184
_cell_angle_beta   62.22263812
_cell_angle_gamma   92.49859870
_symmetry_Int_Tables_number   1
_chemical_formula_structural   Li2MnV(PO4)3
_chemical_formula_sum   'Li4 Mn2 V2 P6 O24'
_cell_volume   462.69676595
_cell_formula_units_Z   2
loop_
 _symmetry_equiv_pos_site_id
 _symmetry_equiv_pos_as_xyz
  1  'x, y, z'
loop_
 _atom_site_type_symbol
 _atom_site_label
 _atom_site_symmetry_multiplicity
 _atom_site_fract_x
 _atom_site_fract_y
 _atom_site_fract_z
 _atom_site_occupancy
  Li  Li0  1  0.13979200  0.74884300  0.17232500  1
  Li  Li1  1  0.36277400  0.18947900  0.37546300  1
  Li  Li2  1  0.86130400  0.92467000  0.40774200  1
  Li  Li3  1  0.87779200  0.24257100  0.82040900  1
  Mn  Mn4  1  0.56910400  0.85402600  0.28585400  1
  Mn  Mn5  1  0.43813000  0.14465100  0.71055100  1
  V  V6  1  0.04657500  0.35213600  0.29956700  1
  V  V7  1  0.95746500  0.64719800  0.70427400  1
  P  P8  1  0.24996600  0.04843800  0.20679700  1
  P  P9  1  0.24617800  0.46504200  0.49387700  1
  P  P10  1  0.25988300  0.74843900  0.77775000  1
  P  P11  1  0.75005100  0.24890300  0.21540500  1
  P  P12  1  0.75914500  0.53596500  0.50246700  1
  P  P13  1  0.74764000  0.95687900  0.78892400  1
  O  O14  1  0.09441400  0.84462700  0.37101200  1
  O  O15  1  0.27279200  0.11821700  0.98651300  1
  O  O16  1  0.18794500  0.18861100  0.27961000  1
  O  O17  1  0.19512000  0.50530200  0.32414100  1
  O  O18  1  0.08942300  0.46383600  0.68578600  1
  O  O19  1  0.12411700  0.77758300  0.70971700  1
  O  O20  1  0.41003900  0.03711400  0.21659600  1
  O  O21  1  0.26755700  0.26606800  0.58466200  1
  O  O22  1  0.41633000  0.62937000  0.36747700  1
  O  O23  1  0.18758200  0.53768400  0.98351700  1
  O  O24  1  0.26626600  0.88934700  0.84739700  1
  O  O25  1  0.43722500  0.79205500  0.58626500  1
  O  O26  1  0.56739200  0.20362300  0.40534400  1
  O  O27  1  0.74015700  0.11335400  0.14024900  1
  O  O28  1  0.81611200  0.46303800  0.02117500  1
  O  O29  1  0.58718600  0.37556400  0.62789000  1
  O  O30  1  0.74974100  0.73979100  0.39265600  1
  O  O31  1  0.58133900  0.96752400  0.79770600  1
  O  O32  1  0.88056500  0.20518700  0.28816700  1
  O  O33  1  0.91324400  0.52741200  0.31812000  1
  O  O34  1  0.81029900  0.50512900  0.67111200  1
  O  O35  1  0.82176400  0.82740100  0.70647700  1
  O  O36  1  0.73339000  0.89062400  0.00459900  1
  O  O37  1  0.89627900  0.17025200  0.61809600  1
