# generated using pymatgen
data_Ho2P4O13
_symmetry_space_group_name_H-M   'P 1'
_cell_length_a   9.46645889
_cell_length_b   9.46645889
_cell_length_c   8.60552200
_cell_angle_alpha   90.00000000
_cell_angle_beta   90.00000000
_cell_angle_gamma   136.26050986
_symmetry_Int_Tables_number   1
_chemical_formula_structural   Ho2P4O13
_chemical_formula_sum   'Ho4 P8 O26'
_cell_volume   533.17463078
_cell_formula_units_Z   2
loop_
 _symmetry_equiv_pos_site_id
 _symmetry_equiv_pos_as_xyz
  1  'x, y, z'
loop_
 _atom_site_type_symbol
 _atom_site_label
 _atom_site_symmetry_multiplicity
 _atom_site_fract_x
 _atom_site_fract_y
 _atom_site_fract_z
 _atom_site_occupancy
  Ho  Ho0  1  0.10665600  0.40063600  0.85275800  1
  Ho  Ho1  1  0.59936400  0.89334400  0.64724200  1
  Ho  Ho2  1  0.40063600  0.10665600  0.14724200  1
  Ho  Ho3  1  0.89334400  0.59936400  0.35275800  1
  P  P4  1  0.58461100  0.90447700  0.00257200  1
  P  P5  1  0.09552300  0.41538900  0.49742800  1
  P  P6  1  0.72021500  0.83652500  0.27454500  1
  P  P7  1  0.16347500  0.27978500  0.22545500  1
  P  P8  1  0.27978500  0.16347500  0.77454500  1
  P  P9  1  0.83652500  0.72021500  0.72545500  1
  P  P10  1  0.90447700  0.58461100  0.99742800  1
  P  P11  1  0.41538900  0.09552300  0.50257200  1
  O  O12  1  0.06181500  0.93818500  0.75000000  1
  O  O13  1  0.06830400  0.77761700  0.09842500  1
  O  O14  1  0.22238300  0.93169600  0.40157500  1
  O  O15  1  0.52709300  0.98340800  0.10853000  1
  O  O16  1  0.01659200  0.47290700  0.39147000  1
  O  O17  1  0.41840500  0.73995500  0.88592000  1
  O  O18  1  0.26004500  0.58159500  0.61408000  1
  O  O19  1  0.15865800  0.38714400  0.10112400  1
  O  O20  1  0.61285600  0.84134200  0.39887600  1
  O  O21  1  0.61696700  0.78731600  0.10848300  1
  O  O22  1  0.21268400  0.38303300  0.39151700  1
  O  O23  1  0.69710100  0.74340900  0.70356300  1
  O  O24  1  0.25659100  0.30289900  0.79643700  1
  O  O25  1  0.74340900  0.69710100  0.29643700  1
  O  O26  1  0.30289900  0.25659100  0.20356300  1
  O  O27  1  0.78731600  0.61696700  0.89151700  1
  O  O28  1  0.38303300  0.21268400  0.60848300  1
  O  O29  1  0.84134200  0.61285600  0.60112400  1
  O  O30  1  0.38714400  0.15865800  0.89887600  1
  O  O31  1  0.73995500  0.41840500  0.11408000  1
  O  O32  1  0.58159500  0.26004500  0.38592000  1
  O  O33  1  0.47290700  0.01659200  0.60853000  1
  O  O34  1  0.98340800  0.52709300  0.89147000  1
  O  O35  1  0.93169600  0.22238300  0.59842500  1
  O  O36  1  0.77761700  0.06830400  0.90157500  1
  O  O37  1  0.93818500  0.06181500  0.25000000  1
