# generated using pymatgen
data_Cr4OF11
_symmetry_space_group_name_H-M   'P 1'
_cell_length_a   5.09694760
_cell_length_b   5.33094822
_cell_length_c   16.88739305
_cell_angle_alpha   92.43602256
_cell_angle_beta   98.62552869
_cell_angle_gamma   61.36751752
_symmetry_Int_Tables_number   1
_chemical_formula_structural   Cr4OF11
_chemical_formula_sum   'Cr8 O2 F22'
_cell_volume   397.96074789
_cell_formula_units_Z   2
loop_
 _symmetry_equiv_pos_site_id
 _symmetry_equiv_pos_as_xyz
  1  'x, y, z'
loop_
 _atom_site_type_symbol
 _atom_site_label
 _atom_site_symmetry_multiplicity
 _atom_site_fract_x
 _atom_site_fract_y
 _atom_site_fract_z
 _atom_site_occupancy
  Cr  Cr0  1  0.74362500  0.64828200  0.12991100  1
  Cr  Cr1  1  0.74801300  0.12028400  0.62458100  1
  Cr  Cr2  1  0.49663800  0.75029500  0.75017400  1
  Cr  Cr3  1  0.50399600  0.23922700  0.24783900  1
  Cr  Cr4  1  0.24325800  0.88763600  0.37815200  1
  Cr  Cr5  1  0.24752800  0.37654600  0.87599900  1
  Cr  Cr6  1  0.00753200  0.48041700  0.49633400  1
  Cr  Cr7  1  0.99618300  0.00692300  0.00198800  1
  O  O8  1  0.74564700  0.94262200  0.18835400  1
  O  O9  1  0.24278700  0.18627600  0.43708300  1
  F  F10  1  0.81831700  0.78204600  0.03455000  1
  F  F11  1  0.75762100  0.80876300  0.55967700  1
  F  F12  1  0.75500000  0.32420700  0.06506000  1
  F  F13  1  0.68367100  0.96777800  0.71846700  1
  F  F14  1  0.68066200  0.65434200  0.40786000  1
  F  F15  1  0.67754100  0.47300600  0.21758100  1
  F  F16  1  0.81289800  0.59388800  0.84256000  1
  F  F17  1  0.80922300  0.09296300  0.34317800  1
  F  F18  1  0.81010600  0.28303100  0.53253300  1
  F  F19  1  0.31133800  0.85055200  0.09478300  1
  F  F20  1  0.74367800  0.43696900  0.68697800  1
  F  F21  1  0.26361900  0.56257800  0.31338000  1
  F  F22  1  0.68290800  0.15325200  0.90856900  1
  F  F23  1  0.18448600  0.90819700  0.65685800  1
  F  F24  1  0.18047300  0.41139400  0.15862500  1
  F  F25  1  0.18321000  0.71404800  0.46780100  1
  F  F26  1  0.31245800  0.53169900  0.78271500  1
  F  F27  1  0.31019500  0.33897400  0.59210200  1
  F  F28  1  0.31205000  0.03206900  0.28296300  1
  F  F29  1  0.24699200  0.68876000  0.93954300  1
  F  F30  1  0.24697800  0.06156000  0.81395100  1
  F  F31  1  0.18033100  0.22404900  0.96913800  1
