# generated using pymatgen
data_DyNp3
_symmetry_space_group_name_H-M   'P 1'
_cell_length_a   5.60463208
_cell_length_b   5.60463208
_cell_length_c   5.60463208
_cell_angle_alpha   132.27281708
_cell_angle_beta   132.27281708
_cell_angle_gamma   69.79848177
_symmetry_Int_Tables_number   1
_chemical_formula_structural   DyNp3
_chemical_formula_sum   'Dy1 Np3'
_cell_volume   94.52934766
_cell_formula_units_Z   1
loop_
 _symmetry_equiv_pos_site_id
 _symmetry_equiv_pos_as_xyz
  1  'x, y, z'
loop_
 _atom_site_type_symbol
 _atom_site_label
 _atom_site_symmetry_multiplicity
 _atom_site_fract_x
 _atom_site_fract_y
 _atom_site_fract_z
 _atom_site_occupancy
  Dy  Dy0  1  0.00000000  0.00000000  0.00000000  1
  Np  Np1  1  0.75000000  0.25000000  0.50000000  1
  Np  Np2  1  0.25000000  0.75000000  0.50000000  1
  Np  Np3  1  0.50000000  0.50000000  0.00000000  1
