# generated using pymatgen
data_V3OF11
_symmetry_space_group_name_H-M   'P 1'
_cell_length_a   5.25812000
_cell_length_b   5.45826900
_cell_length_c   14.81944465
_cell_angle_alpha   79.73350785
_cell_angle_beta   90.00000000
_cell_angle_gamma   90.00000000
_symmetry_Int_Tables_number   1
_chemical_formula_structural   V3OF11
_chemical_formula_sum   'V6 O2 F22'
_cell_volume   418.51188330
_cell_formula_units_Z   2
loop_
 _symmetry_equiv_pos_site_id
 _symmetry_equiv_pos_as_xyz
  1  'x, y, z'
loop_
 _atom_site_type_symbol
 _atom_site_label
 _atom_site_symmetry_multiplicity
 _atom_site_fract_x
 _atom_site_fract_y
 _atom_site_fract_z
 _atom_site_occupancy
  V  V0  1  0.02406400  0.04317900  0.83647100  1
  V  V1  1  0.52406400  0.95682100  0.16352900  1
  V  V2  1  0.00035300  0.74993800  0.50009200  1
  V  V3  1  0.50735100  0.57238500  0.83270300  1
  V  V4  1  0.00735100  0.42761500  0.16729700  1
  V  V5  1  0.50035300  0.25006200  0.49990800  1
  O  O6  1  0.20476400  0.79154500  0.85575200  1
  O  O7  1  0.70476400  0.20845500  0.14424800  1
  F  F8  1  0.80333100  0.06156100  0.47516900  1
  F  F9  1  0.71238000  0.88758100  0.80913300  1
  F  F10  1  0.30333100  0.93843900  0.52483100  1
  F  F11  1  0.90607300  0.05142600  0.94805500  1
  F  F12  1  0.57288700  0.85566500  0.28234500  1
  F  F13  1  0.91267100  0.71068400  0.61694500  1
  F  F14  1  0.40607300  0.94857400  0.05194500  1
  F  F15  1  0.08553200  0.79170300  0.38294100  1
  F  F16  1  0.41187900  0.63109100  0.71634700  1
  F  F17  1  0.79086600  0.72733500  0.14149800  1
  F  F18  1  0.69683600  0.56113100  0.47534000  1
  F  F19  1  0.79374600  0.38944900  0.80999800  1
  F  F20  1  0.29374600  0.61055100  0.19000200  1
  F  F21  1  0.19683600  0.43886900  0.52466000  1
  F  F22  1  0.57726600  0.54554300  0.95104700  1
  F  F23  1  0.91187900  0.36890900  0.28365300  1
  F  F24  1  0.58553200  0.20829700  0.61705900  1
  F  F25  1  0.07726600  0.45445700  0.04895300  1
  F  F26  1  0.41267100  0.28931600  0.38305500  1
  F  F27  1  0.07288700  0.14433500  0.71765500  1
  F  F28  1  0.29086600  0.27266500  0.85850200  1
  F  F29  1  0.21238000  0.11241900  0.19086700  1
