# generated using pymatgen
data_Hf2N2O
_symmetry_space_group_name_H-M   'P 1'
_cell_length_a   8.75524926
_cell_length_b   8.75062974
_cell_length_c   8.70498112
_cell_angle_alpha   109.34003332
_cell_angle_beta   109.55887478
_cell_angle_gamma   109.62834869
_symmetry_Int_Tables_number   1
_chemical_formula_structural   Hf2N2O
_chemical_formula_sum   'Hf16 N16 O8'
_cell_volume   512.67386837
_cell_formula_units_Z   8
loop_
 _symmetry_equiv_pos_site_id
 _symmetry_equiv_pos_as_xyz
  1  'x, y, z'
loop_
 _atom_site_type_symbol
 _atom_site_label
 _atom_site_symmetry_multiplicity
 _atom_site_fract_x
 _atom_site_fract_y
 _atom_site_fract_z
 _atom_site_occupancy
  Hf  Hf0  1  0.48908800  0.98985100  0.98874900  1
  Hf  Hf1  1  0.75638700  0.29289100  0.54376700  1
  Hf  Hf2  1  0.72078900  0.47150300  0.24917100  1
  Hf  Hf3  1  0.21243500  0.95405200  0.24956100  1
  Hf  Hf4  1  0.25025200  0.21493200  0.95600400  1
  Hf  Hf5  1  0.97206900  0.26580600  0.22367100  1
  Hf  Hf6  1  0.99661500  0.50940400  0.99643700  1
  Hf  Hf7  1  0.50344900  0.50927000  0.51281100  1
  Hf  Hf8  1  0.01022300  0.99834700  0.50835900  1
  Hf  Hf9  1  0.02616400  0.74071300  0.77373000  1
  Hf  Hf10  1  0.46602100  0.25017000  0.72198900  1
  Hf  Hf11  1  0.53398200  0.74871000  0.28271200  1
  Hf  Hf12  1  0.74422200  0.77826200  0.03629700  1
  Hf  Hf13  1  0.78088000  0.03133500  0.74525300  1
  Hf  Hf14  1  0.28637500  0.53727900  0.75138400  1
  Hf  Hf15  1  0.25141000  0.71469100  0.46375700  1
  N  N16  1  0.51071200  0.23890600  0.97208500  1
  N  N17  1  0.76651000  0.53670200  0.52560300  1
  N  N18  1  0.72585200  0.25559900  0.76763700  1
  N  N19  1  0.23618100  0.96792400  0.50770400  1
  N  N20  1  0.77097900  0.72740200  0.26236300  1
  N  N21  1  0.49243500  0.76806000  0.03587300  1
  N  N22  1  0.95824700  0.73236700  0.99086200  1
  N  N23  1  0.96326800  0.50612700  0.23600200  1
  N  N24  1  0.27369700  0.73936300  0.22523500  1
  N  N25  1  0.22822200  0.45014800  0.46260800  1
  N  N26  1  0.54901300  0.53323700  0.77304000  1
  N  N27  1  0.54050000  0.77368100  0.54873100  1
  N  N28  1  0.99021200  0.95853600  0.73099600  1
  N  N29  1  0.22501600  0.27325900  0.74087000  1
  N  N30  1  0.03155800  0.48469300  0.75816200  1
  N  N31  1  0.26201800  0.77750800  0.72815100  1
  O  O32  1  0.73057200  0.99677300  0.95853400  1
  O  O33  1  0.28194300  0.01454300  0.05363300  1
  O  O34  1  0.76017000  0.03431300  0.48520700  1
  O  O35  1  0.74389200  0.21831200  0.27628500  1
  O  O36  1  0.46081900  0.22470300  0.44606700  1
  O  O37  1  0.04877000  0.26991900  0.01887500  1
  O  O38  1  0.44409000  0.46619400  0.22212900  1
  O  O39  1  0.00496600  0.04451600  0.26969400  1
