# generated using pymatgen
data_Ca2CrO4
_symmetry_space_group_name_H-M   'P 1'
_cell_length_a   5.64440400
_cell_length_b   9.66316400
_cell_length_c   13.59428300
_cell_angle_alpha   90.00000000
_cell_angle_beta   90.00000000
_cell_angle_gamma   90.00000000
_symmetry_Int_Tables_number   1
_chemical_formula_structural   Ca2CrO4
_chemical_formula_sum   'Ca16 Cr8 O32'
_cell_volume   741.47027967
_cell_formula_units_Z   8
loop_
 _symmetry_equiv_pos_site_id
 _symmetry_equiv_pos_as_xyz
  1  'x, y, z'
loop_
 _atom_site_type_symbol
 _atom_site_label
 _atom_site_symmetry_multiplicity
 _atom_site_fract_x
 _atom_site_fract_y
 _atom_site_fract_z
 _atom_site_occupancy
  Ca  Ca0  1  0.71990700  0.77212100  0.04891000  1
  Ca  Ca1  1  0.68537200  0.41779100  0.12070100  1
  Ca  Ca2  1  0.22669100  0.99552300  0.12827200  1
  Ca  Ca3  1  0.18128900  0.64509800  0.20233800  1
  Ca  Ca4  1  0.68128900  0.14509800  0.29766200  1
  Ca  Ca5  1  0.72669100  0.49552300  0.37172800  1
  Ca  Ca6  1  0.18537200  0.91779100  0.37929900  1
  Ca  Ca7  1  0.21990700  0.27212100  0.45109000  1
  Ca  Ca8  1  0.78009300  0.77212100  0.54891000  1
  Ca  Ca9  1  0.81462800  0.41779100  0.62070100  1
  Ca  Ca10  1  0.27330900  0.99552300  0.62827200  1
  Ca  Ca11  1  0.31871100  0.64509800  0.70233800  1
  Ca  Ca12  1  0.81871100  0.14509800  0.79766200  1
  Ca  Ca13  1  0.77330900  0.49552300  0.87172800  1
  Ca  Ca14  1  0.31462800  0.91779100  0.87929900  1
  Ca  Ca15  1  0.28009300  0.27212100  0.95109000  1
  Cr  Cr16  1  0.77636300  0.12751500  0.02966100  1
  Cr  Cr17  1  0.17658200  0.28387200  0.22640200  1
  Cr  Cr18  1  0.67658200  0.78387200  0.27359800  1
  Cr  Cr19  1  0.27636300  0.62751500  0.47033900  1
  Cr  Cr20  1  0.72363700  0.12751500  0.52966100  1
  Cr  Cr21  1  0.32341800  0.28387200  0.72640200  1
  Cr  Cr22  1  0.82341800  0.78387200  0.77359800  1
  Cr  Cr23  1  0.22363700  0.62751500  0.97033900  1
  O  O24  1  0.55784400  0.99758500  0.01697800  1
  O  O25  1  0.95646700  0.55943900  0.02689200  1
  O  O26  1  0.28572500  0.77264400  0.04834700  1
  O  O27  1  0.35289200  0.24522300  0.11966900  1
  O  O28  1  0.86997100  0.19470500  0.14810200  1
  O  O29  1  0.61368400  0.63971200  0.19126400  1
  O  O30  1  0.94240100  0.84510200  0.19831400  1
  O  O31  1  0.49311900  0.93650800  0.25797700  1
  O  O32  1  0.99311900  0.43650800  0.24202300  1
  O  O33  1  0.44240100  0.34510200  0.30168600  1
  O  O34  1  0.11368400  0.13971200  0.30873600  1
  O  O35  1  0.36997100  0.69470500  0.35189800  1
  O  O36  1  0.85289200  0.74522300  0.38033100  1
  O  O37  1  0.78572500  0.27264400  0.45165300  1
  O  O38  1  0.45646700  0.05943900  0.47310800  1
  O  O39  1  0.05784400  0.49758500  0.48302200  1
  O  O40  1  0.94215600  0.99758500  0.51697800  1
  O  O41  1  0.54353300  0.55943900  0.52689200  1
  O  O42  1  0.21427500  0.77264400  0.54834700  1
  O  O43  1  0.14710800  0.24522300  0.61966900  1
  O  O44  1  0.63002900  0.19470500  0.64810200  1
  O  O45  1  0.88631600  0.63971200  0.69126400  1
  O  O46  1  0.55759900  0.84510200  0.69831400  1
  O  O47  1  0.00688100  0.93650800  0.75797700  1
  O  O48  1  0.50688100  0.43650800  0.74202300  1
  O  O49  1  0.05759900  0.34510200  0.80168600  1
  O  O50  1  0.38631600  0.13971200  0.80873600  1
  O  O51  1  0.13002900  0.69470500  0.85189800  1
  O  O52  1  0.64710800  0.74522300  0.88033100  1
  O  O53  1  0.71427500  0.27264400  0.95165300  1
  O  O54  1  0.04353300  0.05943900  0.97310800  1
  O  O55  1  0.44215600  0.49758500  0.98302200  1
