# generated using pymatgen
data_Lu2P4O13
_symmetry_space_group_name_H-M   'P 1'
_cell_length_a   9.65963500
_cell_length_b   8.59448900
_cell_length_c   13.94710723
_cell_angle_alpha   75.16848839
_cell_angle_beta   90.00000000
_cell_angle_gamma   90.00000000
_symmetry_Int_Tables_number   1
_chemical_formula_structural   Lu2P4O13
_chemical_formula_sum   'Lu8 P16 O52'
_cell_volume   1119.30614026
_cell_formula_units_Z   4
loop_
 _symmetry_equiv_pos_site_id
 _symmetry_equiv_pos_as_xyz
  1  'x, y, z'
loop_
 _atom_site_type_symbol
 _atom_site_label
 _atom_site_symmetry_multiplicity
 _atom_site_fract_x
 _atom_site_fract_y
 _atom_site_fract_z
 _atom_site_occupancy
  Lu  Lu0  1  0.99928100  0.71493800  0.98815300  1
  Lu  Lu1  1  0.99676800  0.78838500  0.51200900  1
  Lu  Lu2  1  0.50071900  0.71493800  0.48815300  1
  Lu  Lu3  1  0.50323200  0.78838500  0.01200900  1
  Lu  Lu4  1  0.49676800  0.21161500  0.98799100  1
  Lu  Lu5  1  0.49928100  0.28506200  0.51184700  1
  Lu  Lu6  1  0.00323200  0.21161500  0.48799100  1
  Lu  Lu7  1  0.00071900  0.28506200  0.01184700  1
  P  P8  1  0.71840300  0.96895100  0.59495000  1
  P  P9  1  0.75483900  0.88371200  0.81507100  1
  P  P10  1  0.26934500  0.76225600  0.68267800  1
  P  P11  1  0.78159700  0.96895100  0.09495000  1
  P  P12  1  0.74516100  0.88371200  0.31507100  1
  P  P13  1  0.28179600  0.53991400  0.90151700  1
  P  P14  1  0.23065500  0.76225600  0.18267800  1
  P  P15  1  0.78179600  0.46008600  0.59848300  1
  P  P16  1  0.21820400  0.53991400  0.40151700  1
  P  P17  1  0.76934500  0.23774400  0.81732200  1
  P  P18  1  0.71820400  0.46008600  0.09848300  1
  P  P19  1  0.25483900  0.11628800  0.68492900  1
  P  P20  1  0.21840300  0.03104900  0.90505000  1
  P  P21  1  0.73065500  0.23774400  0.31732200  1
  P  P22  1  0.24516100  0.11628800  0.18492900  1
  P  P23  1  0.28159700  0.03104900  0.40505000  1
  O  O24  1  0.31057100  0.93230600  0.70525100  1
  O  O25  1  0.15071000  0.87328500  0.90200300  1
  O  O26  1  0.87095600  0.98923200  0.55823000  1
  O  O27  1  0.62399100  0.85926500  0.87504300  1
  O  O28  1  0.72230800  0.85985700  0.70800600  1
  O  O29  1  0.63632100  0.87297400  0.53753600  1
  O  O30  1  0.87289600  0.77142600  0.85533100  1
  O  O31  1  0.18942900  0.93230600  0.20525100  1
  O  O32  1  0.34929000  0.87328500  0.40200300  1
  O  O33  1  0.62904400  0.98923200  0.05823000  1
  O  O34  1  0.36832900  0.63997500  0.95406100  1
  O  O35  1  0.12521700  0.77145700  0.64153600  1
  O  O36  1  0.87600900  0.85926500  0.37504300  1
  O  O37  1  0.77769200  0.85985700  0.20800600  1
  O  O38  1  0.38193100  0.71617500  0.62053700  1
  O  O39  1  0.27128700  0.63653500  0.78688900  1
  O  O40  1  0.86367900  0.87297400  0.03753600  1
  O  O41  1  0.84870800  0.62042000  0.59636900  1
  O  O42  1  0.12926200  0.51735400  0.94129000  1
  O  O43  1  0.62710400  0.77142600  0.35533100  1
  O  O44  1  0.13167100  0.63997500  0.45406100  1
  O  O45  1  0.37478300  0.77145700  0.14153600  1
  O  O46  1  0.11806900  0.71617500  0.12053700  1
  O  O47  1  0.22871300  0.63653500  0.28688900  1
  O  O48  1  0.62926200  0.48264600  0.55871000  1
  O  O49  1  0.34870800  0.37958000  0.90363100  1
  O  O50  1  0.65129200  0.62042000  0.09636900  1
  O  O51  1  0.37073800  0.51735400  0.44129000  1
  O  O52  1  0.77128700  0.36346500  0.71311100  1
  O  O53  1  0.88193100  0.28382500  0.87946300  1
  O  O54  1  0.62521700  0.22854300  0.85846400  1
  O  O55  1  0.86832900  0.36002500  0.54593900  1
  O  O56  1  0.37289600  0.22857400  0.64466900  1
  O  O57  1  0.87073800  0.48264600  0.05871000  1
  O  O58  1  0.15129200  0.37958000  0.40363100  1
  O  O59  1  0.13632100  0.12702600  0.96246400  1
  O  O60  1  0.72871300  0.36346500  0.21311100  1
  O  O61  1  0.61806900  0.28382500  0.37946300  1
  O  O62  1  0.22230800  0.14014300  0.79199400  1
  O  O63  1  0.12399100  0.14073500  0.62495700  1
  O  O64  1  0.87478300  0.22854300  0.35846400  1
  O  O65  1  0.63167100  0.36002500  0.04593900  1
  O  O66  1  0.37095600  0.01076800  0.94177000  1
  O  O67  1  0.65071000  0.12671500  0.59799700  1
  O  O68  1  0.81057100  0.06769400  0.79474900  1
  O  O69  1  0.12710400  0.22857400  0.14466900  1
  O  O70  1  0.36367900  0.12702600  0.46246400  1
  O  O71  1  0.27769200  0.14014300  0.29199400  1
  O  O72  1  0.37600900  0.14073500  0.12495700  1
  O  O73  1  0.12904400  0.01076800  0.44177000  1
  O  O74  1  0.84929000  0.12671500  0.09799700  1
  O  O75  1  0.68942900  0.06769400  0.29474900  1
