# generated using pymatgen
data_TbNbO4
_symmetry_space_group_name_H-M   'P 1'
_cell_length_a   5.44010900
_cell_length_b   5.44010900
_cell_length_c   5.13537000
_cell_angle_alpha   90.00000000
_cell_angle_beta   90.00000000
_cell_angle_gamma   90.00000000
_symmetry_Int_Tables_number   1
_chemical_formula_structural   TbNbO4
_chemical_formula_sum   'Tb2 Nb2 O8'
_cell_volume   151.98017583
_cell_formula_units_Z   2
loop_
 _symmetry_equiv_pos_site_id
 _symmetry_equiv_pos_as_xyz
  1  'x, y, z'
loop_
 _atom_site_type_symbol
 _atom_site_label
 _atom_site_symmetry_multiplicity
 _atom_site_fract_x
 _atom_site_fract_y
 _atom_site_fract_z
 _atom_site_occupancy
  Tb  Tb0  1  0.50000000  0.50000000  0.00000000  1
  Tb  Tb1  1  0.00000000  0.00000000  0.00000000  1
  Nb  Nb2  1  0.00000000  0.50000000  0.50000000  1
  Nb  Nb3  1  0.50000000  0.00000000  0.50000000  1
  O  O4  1  0.18880600  0.68880600  0.25753600  1
  O  O5  1  0.81119400  0.68880600  0.74246400  1
  O  O6  1  0.81119400  0.31119400  0.25753600  1
  O  O7  1  0.18880600  0.31119400  0.74246400  1
  O  O8  1  0.68880600  0.18880600  0.74246400  1
  O  O9  1  0.31119400  0.18880600  0.25753600  1
  O  O10  1  0.68880600  0.81119400  0.25753600  1
  O  O11  1  0.31119400  0.81119400  0.74246400  1
