# generated using pymatgen
data_V4OF11
_symmetry_space_group_name_H-M   'P 1'
_cell_length_a   5.27208200
_cell_length_b   7.46504022
_cell_length_c   5.48118977
_cell_angle_alpha   93.27285303
_cell_angle_beta   90.00083359
_cell_angle_gamma   90.00064898
_symmetry_Int_Tables_number   1
_chemical_formula_structural   V4OF11
_chemical_formula_sum   'V4 O1 F11'
_cell_volume   215.36752864
_cell_formula_units_Z   1
loop_
 _symmetry_equiv_pos_site_id
 _symmetry_equiv_pos_as_xyz
  1  'x, y, z'
loop_
 _atom_site_type_symbol
 _atom_site_label
 _atom_site_symmetry_multiplicity
 _atom_site_fract_x
 _atom_site_fract_y
 _atom_site_fract_z
 _atom_site_occupancy
  V  V0  1  0.50645400  0.48764600  0.49979800  1
  V  V1  1  0.50643900  0.01231700  0.50020500  1
  V  V2  1  0.00048100  0.50058800  0.99994200  1
  V  V3  1  0.00046600  0.99941200  0.00005400  1
  O  O4  1  0.57143500  0.25002700  0.50002000  1
  F  F5  1  0.88911600  0.25001700  0.00000500  1
  F  F6  1  0.80360100  0.55162300  0.30287700  1
  F  F7  1  0.80358900  0.94839000  0.69711100  1
  F  F8  1  0.69874500  0.94777900  0.20038200  1
  F  F9  1  0.69871400  0.55221700  0.79957700  1
  F  F10  1  0.41411300  0.74998600  0.49998800  1
  F  F11  1  0.30305600  0.45139300  0.19837600  1
  F  F12  1  0.30301900  0.04860500  0.80165600  1
  F  F13  1  0.19457300  0.04728400  0.30366700  1
  F  F14  1  0.19455900  0.45272100  0.69633700  1
  F  F15  1  0.11163700  0.74999400  0.00000400  1
