# generated using pymatgen
data_Na6Cr2C4SO16
_symmetry_space_group_name_H-M   'P 1'
_cell_length_a   9.96695434
_cell_length_b   9.96695434
_cell_length_c   9.96695434
_cell_angle_alpha   60.00000000
_cell_angle_beta   60.00000000
_cell_angle_gamma   60.00000000
_symmetry_Int_Tables_number   1
_chemical_formula_structural   Na6Cr2C4SO16
_chemical_formula_sum   'Na12 Cr4 C8 S2 O32'
_cell_volume   700.11987726
_cell_formula_units_Z   2
loop_
 _symmetry_equiv_pos_site_id
 _symmetry_equiv_pos_as_xyz
  1  'x, y, z'
loop_
 _atom_site_type_symbol
 _atom_site_label
 _atom_site_symmetry_multiplicity
 _atom_site_fract_x
 _atom_site_fract_y
 _atom_site_fract_z
 _atom_site_occupancy
  Na  Na0  1  0.28548100  0.28548100  0.71451900  1
  Na  Na1  1  0.96451900  0.53548100  0.53548100  1
  Na  Na2  1  0.28548100  0.71451900  0.28548100  1
  Na  Na3  1  0.71451900  0.28548100  0.71451900  1
  Na  Na4  1  0.53548100  0.96451900  0.96451900  1
  Na  Na5  1  0.53548100  0.53548100  0.96451900  1
  Na  Na6  1  0.71451900  0.28548100  0.28548100  1
  Na  Na7  1  0.71451900  0.71451900  0.28548100  1
  Na  Na8  1  0.53548100  0.96451900  0.53548100  1
  Na  Na9  1  0.96451900  0.53548100  0.96451900  1
  Na  Na10  1  0.28548100  0.71451900  0.71451900  1
  Na  Na11  1  0.96451900  0.96451900  0.53548100  1
  Cr  Cr12  1  0.62500000  0.12500000  0.12500000  1
  Cr  Cr13  1  0.12500000  0.12500000  0.12500000  1
  Cr  Cr14  1  0.12500000  0.12500000  0.62500000  1
  Cr  Cr15  1  0.12500000  0.62500000  0.12500000  1
  C  C16  1  0.28685800  0.90438100  0.90438100  1
  C  C17  1  0.90438100  0.28685800  0.90438100  1
  C  C18  1  0.90438100  0.90438100  0.90438100  1
  C  C19  1  0.90438100  0.90438100  0.28685800  1
  C  C20  1  0.34561900  0.34561900  0.96314200  1
  C  C21  1  0.34561900  0.34561900  0.34561900  1
  C  C22  1  0.34561900  0.96314200  0.34561900  1
  C  C23  1  0.96314200  0.34561900  0.34561900  1
  S  S24  1  0.50000000  0.50000000  0.50000000  1
  S  S25  1  0.75000000  0.75000000  0.75000000  1
  O  O26  1  0.22779100  0.48665500  0.32397900  1
  O  O27  1  0.96157500  0.32397900  0.48665500  1
  O  O28  1  0.28842500  0.02220900  0.92602100  1
  O  O29  1  0.02220900  0.28842400  0.76334500  1
  O  O30  1  0.28842400  0.76334500  0.02220900  1
  O  O31  1  0.56140500  0.56140500  0.31578500  1
  O  O32  1  0.92602100  0.02220900  0.76334500  1
  O  O33  1  0.56140500  0.56140500  0.56140500  1
  O  O34  1  0.56140500  0.31578500  0.56140500  1
  O  O35  1  0.92602100  0.28842500  0.02220900  1
  O  O36  1  0.76334500  0.28842400  0.92602100  1
  O  O37  1  0.31578500  0.56140500  0.56140500  1
  O  O38  1  0.02220900  0.92602100  0.28842400  1
  O  O39  1  0.76334500  0.92602100  0.02220900  1
  O  O40  1  0.92602100  0.76334500  0.28842400  1
  O  O41  1  0.48665500  0.22779100  0.96157600  1
  O  O42  1  0.76334500  0.02220900  0.28842400  1
  O  O43  1  0.32397900  0.48665500  0.96157600  1
  O  O44  1  0.48665500  0.32397900  0.22779100  1
  O  O45  1  0.22779100  0.32397900  0.96157500  1
  O  O46  1  0.93421500  0.68859500  0.68859500  1
  O  O47  1  0.48665500  0.96157600  0.32397900  1
  O  O48  1  0.32397900  0.96157600  0.22779100  1
  O  O49  1  0.68859500  0.68859500  0.68859500  1
  O  O50  1  0.68859500  0.93421500  0.68859500  1
  O  O51  1  0.32397900  0.22779100  0.48665500  1
  O  O52  1  0.68859500  0.68859500  0.93421500  1
  O  O53  1  0.96157600  0.48665500  0.22779100  1
  O  O54  1  0.22779100  0.96157600  0.48665500  1
  O  O55  1  0.96157600  0.22779100  0.32397900  1
  O  O56  1  0.28842400  0.92602100  0.76334500  1
  O  O57  1  0.02220900  0.76334500  0.92602100  1
