# generated using pymatgen
data_Mn6O5F7
_symmetry_space_group_name_H-M   'P 1'
_cell_length_a   4.81155600
_cell_length_b   5.73791986
_cell_length_c   7.89571964
_cell_angle_alpha   85.76692308
_cell_angle_beta   86.39437476
_cell_angle_gamma   85.20941689
_symmetry_Int_Tables_number   1
_chemical_formula_structural   Mn6O5F7
_chemical_formula_sum   'Mn6 O5 F7'
_cell_volume   216.28029195
_cell_formula_units_Z   1
loop_
 _symmetry_equiv_pos_site_id
 _symmetry_equiv_pos_as_xyz
  1  'x, y, z'
loop_
 _atom_site_type_symbol
 _atom_site_label
 _atom_site_symmetry_multiplicity
 _atom_site_fract_x
 _atom_site_fract_y
 _atom_site_fract_z
 _atom_site_occupancy
  Mn  Mn0  1  0.49823300  0.48783000  0.00649700  1
  Mn  Mn1  1  0.56005600  0.83900700  0.66729900  1
  Mn  Mn2  1  0.50757300  0.16540700  0.32305300  1
  Mn  Mn3  1  0.97338600  0.33308700  0.67805800  1
  Mn  Mn4  1  0.00022900  0.66452800  0.32986100  1
  Mn  Mn5  1  0.97750100  0.00741600  0.99372400  1
  O  O6  1  0.82402000  0.05091600  0.77526900  1
  O  O7  1  0.69598600  0.20160600  0.10132800  1
  O  O8  1  0.69304000  0.53013700  0.78599000  1
  O  O9  1  0.70401600  0.87845700  0.42165000  1
  O  O10  1  0.30582800  0.46047800  0.23403100  1
  F  F11  1  0.80041800  0.37794500  0.43486800  1
  F  F12  1  0.80529900  0.69709200  0.10255300  1
  F  F13  1  0.29756100  0.13717800  0.55715000  1
  F  F14  1  0.29916300  0.79914400  0.90318500  1
  F  F15  1  0.16656500  0.61646500  0.57216100  1
  F  F16  1  0.18088500  0.95733100  0.21441700  1
  F  F17  1  0.21024200  0.29597400  0.89891000  1
