# generated using pymatgen
data_Ca9Mn(PO4)7
_symmetry_space_group_name_H-M   'P 1'
_cell_length_a   13.91009576
_cell_length_b   13.91009576
_cell_length_c   13.91009555
_cell_angle_alpha   44.02698312
_cell_angle_beta   44.02698312
_cell_angle_gamma   44.02697976
_symmetry_Int_Tables_number   1
_chemical_formula_structural   Ca9Mn(PO4)7
_chemical_formula_sum   'Ca18 Mn2 P14 O56'
_cell_volume   1180.85428294
_cell_formula_units_Z   2
loop_
 _symmetry_equiv_pos_site_id
 _symmetry_equiv_pos_as_xyz
  1  'x, y, z'
loop_
 _atom_site_type_symbol
 _atom_site_label
 _atom_site_symmetry_multiplicity
 _atom_site_fract_x
 _atom_site_fract_y
 _atom_site_fract_z
 _atom_site_occupancy
  Ca  Ca0  1  0.34345500  0.92097900  0.93526600  1
  Ca  Ca1  1  0.09513800  0.06772300  0.64260100  1
  Ca  Ca2  1  0.14260100  0.56772300  0.59513800  1
  Ca  Ca3  1  0.02652400  0.04668600  0.44822600  1
  Ca  Ca4  1  0.43526600  0.42097900  0.84345500  1
  Ca  Ca5  1  0.54668600  0.52652400  0.94822600  1
  Ca  Ca6  1  0.06772300  0.64260100  0.09513800  1
  Ca  Ca7  1  0.52652400  0.94822600  0.54668600  1
  Ca  Ca8  1  0.42097900  0.84345500  0.43526600  1
  Ca  Ca9  1  0.93526600  0.34345500  0.92097900  1
  Ca  Ca10  1  0.04668600  0.44822600  0.02652400  1
  Ca  Ca11  1  0.59513800  0.14260100  0.56772300  1
  Ca  Ca12  1  0.44822600  0.02652400  0.04668600  1
  Ca  Ca13  1  0.56772300  0.59513800  0.14260100  1
  Ca  Ca14  1  0.84345500  0.43526600  0.42097900  1
  Ca  Ca15  1  0.94822600  0.54668600  0.52652400  1
  Ca  Ca16  1  0.92097900  0.93526600  0.34345500  1
  Ca  Ca17  1  0.64260100  0.09513800  0.06772300  1
  Mn  Mn18  1  0.99844300  0.99844300  0.99844300  1
  Mn  Mn19  1  0.49844300  0.49844300  0.49844300  1
  P  P20  1  0.17710400  0.68809200  0.72576700  1
  P  P21  1  0.31325900  0.77614500  0.81505700  1
  P  P22  1  0.31505700  0.27614500  0.81325900  1
  P  P23  1  0.22576700  0.18809200  0.67710400  1
  P  P24  1  0.27614500  0.81325900  0.31505700  1
  P  P25  1  0.18809200  0.67710400  0.22576700  1
  P  P26  1  0.73225700  0.73225700  0.73225700  1
  P  P27  1  0.23225700  0.23225700  0.23225700  1
  P  P28  1  0.72576700  0.17710400  0.68809200  1
  P  P29  1  0.81505700  0.31325900  0.77614500  1
  P  P30  1  0.77614500  0.81505700  0.31325900  1
  P  P31  1  0.67710400  0.22576700  0.18809200  1
  P  P32  1  0.68809200  0.72576700  0.17710400  1
  P  P33  1  0.81325900  0.31505700  0.27614500  1
  O  O34  1  0.13435400  0.86691300  0.88305600  1
  O  O35  1  0.14570700  0.32935300  0.86965000  1
  O  O36  1  0.16438500  0.60909700  0.88732700  1
  O  O37  1  0.12650500  0.11746000  0.85717700  1
  O  O38  1  0.09371800  0.64234500  0.74045500  1
  O  O39  1  0.32711000  0.31108400  0.88619300  1
  O  O40  1  0.35046600  0.60387500  0.91127400  1
  O  O41  1  0.12811100  0.86152800  0.64682100  1
  O  O42  1  0.14682100  0.36152800  0.62811100  1
  O  O43  1  0.41127400  0.10387500  0.85046600  1
  O  O44  1  0.38619300  0.81108400  0.82711000  1
  O  O45  1  0.24045500  0.14234500  0.59371800  1
  O  O46  1  0.10909700  0.66438500  0.38732700  1
  O  O47  1  0.10387500  0.85046600  0.41127400  1
  O  O48  1  0.35717700  0.61746000  0.62650500  1
  O  O49  1  0.60475000  0.74163000  0.88886400  1
  O  O50  1  0.38732700  0.10909700  0.66438500  1
  O  O51  1  0.36965000  0.82935300  0.64570700  1
  O  O52  1  0.38305600  0.36691300  0.63435400  1
  O  O53  1  0.64682100  0.12811100  0.86152800  1
  O  O54  1  0.64570700  0.36965000  0.82935300  1
  O  O55  1  0.24163000  0.10475000  0.38886400  1
  O  O56  1  0.10475000  0.38886400  0.24163000  1
  O  O57  1  0.14234500  0.59371800  0.24045500  1
  O  O58  1  0.36691300  0.63435400  0.38305600  1
  O  O59  1  0.11746000  0.85717700  0.12650500  1
  O  O60  1  0.31108400  0.88619300  0.32711000  1
  O  O61  1  0.69093800  0.69093800  0.69093800  1
  O  O62  1  0.19093800  0.19093800  0.19093800  1
  O  O63  1  0.82711000  0.38619300  0.81108400  1
  O  O64  1  0.62650500  0.35717700  0.61746000  1
  O  O65  1  0.88305600  0.13435400  0.86691300  1
  O  O66  1  0.74045500  0.09371800  0.64234500  1
  O  O67  1  0.74163000  0.88886400  0.60475000  1
  O  O68  1  0.88886400  0.60475000  0.74163000  1
  O  O69  1  0.32935300  0.86965000  0.14570700  1
  O  O70  1  0.36152800  0.62811100  0.14682100  1
  O  O71  1  0.60387500  0.91127400  0.35046600  1
  O  O72  1  0.62811100  0.14682100  0.36152800  1
  O  O73  1  0.61746000  0.62650500  0.35717700  1
  O  O74  1  0.38886400  0.24163000  0.10475000  1
  O  O75  1  0.63435400  0.38305600  0.36691300  1
  O  O76  1  0.91127400  0.35046600  0.60387500  1
  O  O77  1  0.88732700  0.16438500  0.60909700  1
  O  O78  1  0.81108400  0.82711000  0.38619300  1
  O  O79  1  0.59371800  0.24045500  0.14234500  1
  O  O80  1  0.82935300  0.64570700  0.36965000  1
  O  O81  1  0.60909700  0.88732700  0.16438500  1
  O  O82  1  0.66438500  0.38732700  0.10909700  1
  O  O83  1  0.86965000  0.14570700  0.32935300  1
  O  O84  1  0.64234500  0.74045500  0.09371800  1
  O  O85  1  0.88619300  0.32711000  0.31108400  1
  O  O86  1  0.86691300  0.88305600  0.13435400  1
  O  O87  1  0.85717700  0.12650500  0.11746000  1
  O  O88  1  0.86152800  0.64682100  0.12811100  1
  O  O89  1  0.85046600  0.41127400  0.10387500  1
