# generated using pymatgen
data_SrTaNO2
_symmetry_space_group_name_H-M   'P 1'
_cell_length_a   5.73112100
_cell_length_b   5.74288568
_cell_length_c   8.18980999
_cell_angle_alpha   90.05389724
_cell_angle_beta   90.01695827
_cell_angle_gamma   90.09372236
_symmetry_Int_Tables_number   1
_chemical_formula_structural   SrTaNO2
_chemical_formula_sum   'Sr4 Ta4 N4 O8'
_cell_volume   269.55213896
_cell_formula_units_Z   4
loop_
 _symmetry_equiv_pos_site_id
 _symmetry_equiv_pos_as_xyz
  1  'x, y, z'
loop_
 _atom_site_type_symbol
 _atom_site_label
 _atom_site_symmetry_multiplicity
 _atom_site_fract_x
 _atom_site_fract_y
 _atom_site_fract_z
 _atom_site_occupancy
  Sr  Sr0  1  0.00392000  0.00328500  0.24877700  1
  Sr  Sr1  1  0.51381600  0.50827800  0.24854700  1
  Sr  Sr2  1  0.48899100  0.50562600  0.72497400  1
  Sr  Sr3  1  0.97883100  0.00296500  0.72560500  1
  Ta  Ta4  1  0.49715600  0.00385300  0.99810900  1
  Ta  Ta5  1  0.49478900  0.01746000  0.48527700  1
  Ta  Ta6  1  0.99953300  0.50515400  0.97369400  1
  Ta  Ta7  1  0.99701600  0.48836800  0.49184100  1
  N  N8  1  0.00281600  0.53919800  0.73772600  1
  N  N9  1  0.73226700  0.26876800  0.50185100  1
  N  N10  1  0.23161400  0.22934800  0.50323000  1
  N  N11  1  0.49648400  0.03131800  0.23034600  1
  O  O12  1  0.51048300  0.94869900  0.73599800  1
  O  O13  1  0.77900500  0.77242400  0.46201100  1
  O  O14  1  0.77955900  0.77698700  0.00440500  1
  O  O15  1  0.27981900  0.71755400  0.00373700  1
  O  O16  1  0.27868600  0.72331600  0.46333600  1
  O  O17  1  0.99371500  0.46259800  0.22916900  1
  O  O18  1  0.72094800  0.27620000  0.96187000  1
  O  O19  1  0.22055100  0.21860200  0.96149900  1
