# generated using pymatgen
data_CaMnAs2(H3O5)2
_symmetry_space_group_name_H-M   'P 1'
_cell_length_a   7.05119400
_cell_length_b   7.74502953
_cell_length_c   8.57751548
_cell_angle_alpha   84.59965532
_cell_angle_beta   82.10451642
_cell_angle_gamma   81.56884082
_symmetry_Int_Tables_number   1
_chemical_formula_structural   CaMnAs2(H3O5)2
_chemical_formula_sum   'Ca2 Mn2 As4 H12 O20'
_cell_volume   457.66774223
_cell_formula_units_Z   2
loop_
 _symmetry_equiv_pos_site_id
 _symmetry_equiv_pos_as_xyz
  1  'x, y, z'
loop_
 _atom_site_type_symbol
 _atom_site_label
 _atom_site_symmetry_multiplicity
 _atom_site_fract_x
 _atom_site_fract_y
 _atom_site_fract_z
 _atom_site_occupancy
  Ca  Ca0  1  0.87180800  0.10151700  0.82975300  1
  Ca  Ca1  1  0.12819200  0.89848300  0.17024700  1
  Mn  Mn2  1  0.66178700  0.84953500  0.57807600  1
  Mn  Mn3  1  0.33821300  0.15046500  0.42192400  1
  As  As4  1  0.36416500  0.13697700  0.81516700  1
  As  As5  1  0.16512300  0.77131400  0.57233700  1
  As  As6  1  0.83487700  0.22868600  0.42766300  1
  As  As7  1  0.63583500  0.86302300  0.18483300  1
  H  H8  1  0.57792600  0.76704000  0.95517900  1
  H  H9  1  0.75030100  0.46018600  0.91829000  1
  H  H10  1  0.12437300  0.60868400  0.94783300  1
  H  H11  1  0.50169200  0.57653600  0.72645300  1
  H  H12  1  0.71519100  0.48900500  0.66225600  1
  H  H13  1  0.23472500  0.47234300  0.67897500  1
  H  H14  1  0.76527500  0.52765700  0.32102500  1
  H  H15  1  0.28480900  0.51099500  0.33774400  1
  H  H16  1  0.49830800  0.42346400  0.27354700  1
  H  H17  1  0.87562700  0.39131600  0.05216700  1
  H  H18  1  0.24969900  0.53981400  0.08171000  1
  H  H19  1  0.42207400  0.23296000  0.04482100  1
  O  O20  1  0.86063900  0.37359200  0.94344400  1
  O  O21  1  0.41871600  0.29333700  0.93833800  1
  O  O22  1  0.57672300  0.99544400  0.79304500  1
  O  O23  1  0.17764700  0.03827800  0.91384600  1
  O  O24  1  0.94445800  0.87363100  0.64870100  1
  O  O25  1  0.63871900  0.59568900  0.71200200  1
  O  O26  1  0.23069200  0.59553900  0.71341300  1
  O  O27  1  0.83908800  0.30534200  0.60627300  1
  O  O28  1  0.30251600  0.26390600  0.65092800  1
  O  O29  1  0.34076700  0.90346600  0.57050500  1
  O  O30  1  0.65923300  0.09653400  0.42949500  1
  O  O31  1  0.69748400  0.73609400  0.34907200  1
  O  O32  1  0.16091200  0.69465800  0.39372700  1
  O  O33  1  0.76930800  0.40446100  0.28658700  1
  O  O34  1  0.36128100  0.40431100  0.28799800  1
  O  O35  1  0.05554200  0.12636900  0.35129900  1
  O  O36  1  0.82235300  0.96172200  0.08615400  1
  O  O37  1  0.42327700  0.00455600  0.20695500  1
  O  O38  1  0.58128400  0.70666300  0.06166200  1
  O  O39  1  0.13936100  0.62640800  0.05655600  1
