# generated using pymatgen
data_Na6Cr2B4PO16
_symmetry_space_group_name_H-M   'P 1'
_cell_length_a   9.90810608
_cell_length_b   9.90810608
_cell_length_c   9.90810608
_cell_angle_alpha   60.00000000
_cell_angle_beta   60.00000000
_cell_angle_gamma   60.00000000
_symmetry_Int_Tables_number   1
_chemical_formula_structural   Na6Cr2B4PO16
_chemical_formula_sum   'Na12 Cr4 B8 P2 O32'
_cell_volume   687.79172364
_cell_formula_units_Z   2
loop_
 _symmetry_equiv_pos_site_id
 _symmetry_equiv_pos_as_xyz
  1  'x, y, z'
loop_
 _atom_site_type_symbol
 _atom_site_label
 _atom_site_symmetry_multiplicity
 _atom_site_fract_x
 _atom_site_fract_y
 _atom_site_fract_z
 _atom_site_occupancy
  Na  Na0  1  0.03660800  0.46339200  0.46339200  1
  Na  Na1  1  0.03660800  0.03660800  0.46339200  1
  Na  Na2  1  0.46339200  0.03660800  0.46339200  1
  Na  Na3  1  0.03660800  0.46339200  0.03660800  1
  Na  Na4  1  0.78660800  0.21339200  0.21339200  1
  Na  Na5  1  0.78660800  0.78660800  0.21339200  1
  Na  Na6  1  0.46339200  0.46339200  0.03660800  1
  Na  Na7  1  0.46339200  0.03660800  0.03660800  1
  Na  Na8  1  0.21339200  0.78660800  0.21339200  1
  Na  Na9  1  0.78660800  0.21339200  0.78660800  1
  Na  Na10  1  0.21339200  0.78660800  0.78660800  1
  Na  Na11  1  0.21339200  0.21339200  0.78660800  1
  Cr  Cr12  1  0.12500000  0.62500000  0.62500000  1
  Cr  Cr13  1  0.62500000  0.12500000  0.62500000  1
  Cr  Cr14  1  0.62500000  0.62500000  0.62500000  1
  Cr  Cr15  1  0.62500000  0.62500000  0.12500000  1
  B  B16  1  0.83587300  0.83587300  0.49238200  1
  B  B17  1  0.83587300  0.83587300  0.83587300  1
  B  B18  1  0.83587300  0.49238200  0.83587300  1
  B  B19  1  0.49238200  0.83587300  0.83587300  1
  B  B20  1  0.75761800  0.41412700  0.41412700  1
  B  B21  1  0.41412700  0.75761800  0.41412700  1
  B  B22  1  0.41412700  0.41412700  0.41412700  1
  B  B23  1  0.41412700  0.41412700  0.75761800  1
  P  P24  1  0.00000000  0.00000000  0.00000000  1
  P  P25  1  0.25000000  0.25000000  0.25000000  1
  O  O26  1  0.06408600  0.06408600  0.80774300  1
  O  O27  1  0.06408600  0.06408600  0.06408600  1
  O  O28  1  0.06408600  0.80774300  0.06408600  1
  O  O29  1  0.80774300  0.06408600  0.06408600  1
  O  O30  1  0.99148200  0.71947700  0.48663200  1
  O  O31  1  0.80240900  0.99148200  0.48663200  1
  O  O32  1  0.99148200  0.80240900  0.71947700  1
  O  O33  1  0.71947700  0.80240900  0.48663200  1
  O  O34  1  0.99148200  0.48663200  0.80240900  1
  O  O35  1  0.80240900  0.48663200  0.71947700  1
  O  O36  1  0.71947700  0.99148200  0.80240900  1
  O  O37  1  0.80240900  0.71947700  0.99148200  1
  O  O38  1  0.48663200  0.99148200  0.71947700  1
  O  O39  1  0.71947700  0.48663200  0.99148200  1
  O  O40  1  0.48663200  0.71947700  0.80240900  1
  O  O41  1  0.76336800  0.44759100  0.25851800  1
  O  O42  1  0.48663200  0.80240900  0.99148200  1
  O  O43  1  0.76336800  0.53052300  0.44759100  1
  O  O44  1  0.53052300  0.76336800  0.25851800  1
  O  O45  1  0.76336800  0.25851800  0.53052300  1
  O  O46  1  0.44759100  0.53052300  0.25851800  1
  O  O47  1  0.53052300  0.25851800  0.44759100  1
  O  O48  1  0.44759100  0.76336800  0.53052300  1
  O  O49  1  0.25851800  0.76336800  0.44759100  1
  O  O50  1  0.53052300  0.44759100  0.76336800  1
  O  O51  1  0.25851800  0.44759100  0.53052300  1
  O  O52  1  0.44759100  0.25851800  0.76336800  1
  O  O53  1  0.25851800  0.53052300  0.76336800  1
  O  O54  1  0.44225700  0.18591400  0.18591400  1
  O  O55  1  0.18591400  0.18591400  0.18591400  1
  O  O56  1  0.18591400  0.44225700  0.18591400  1
  O  O57  1  0.18591400  0.18591400  0.44225700  1
