# generated using pymatgen
data_Na6Ni2P(CO4)4
_symmetry_space_group_name_H-M   'P 1'
_cell_length_a   9.81049282
_cell_length_b   9.81049282
_cell_length_c   9.81049282
_cell_angle_alpha   60.00000000
_cell_angle_beta   60.00000000
_cell_angle_gamma   60.00000000
_symmetry_Int_Tables_number   1
_chemical_formula_structural   Na6Ni2P(CO4)4
_chemical_formula_sum   'Na12 Ni4 P2 C8 O32'
_cell_volume   667.66325439
_cell_formula_units_Z   2
loop_
 _symmetry_equiv_pos_site_id
 _symmetry_equiv_pos_as_xyz
  1  'x, y, z'
loop_
 _atom_site_type_symbol
 _atom_site_label
 _atom_site_symmetry_multiplicity
 _atom_site_fract_x
 _atom_site_fract_y
 _atom_site_fract_z
 _atom_site_occupancy
  Na  Na0  1  0.28735700  0.28735700  0.71264300  1
  Na  Na1  1  0.96264300  0.53735700  0.53735700  1
  Na  Na2  1  0.71264300  0.28735700  0.71264300  1
  Na  Na3  1  0.28735700  0.71264300  0.28735700  1
  Na  Na4  1  0.53735700  0.96264300  0.96264300  1
  Na  Na5  1  0.53735700  0.53735700  0.96264300  1
  Na  Na6  1  0.71264300  0.28735700  0.28735700  1
  Na  Na7  1  0.71264300  0.71264300  0.28735700  1
  Na  Na8  1  0.96264300  0.53735700  0.96264300  1
  Na  Na9  1  0.53735700  0.96264300  0.53735700  1
  Na  Na10  1  0.28735700  0.71264300  0.71264300  1
  Na  Na11  1  0.96264300  0.96264300  0.53735700  1
  Ni  Ni12  1  0.62500000  0.12500000  0.12500000  1
  Ni  Ni13  1  0.12500000  0.12500000  0.12500000  1
  Ni  Ni14  1  0.12500000  0.12500000  0.62500000  1
  Ni  Ni15  1  0.12500000  0.62500000  0.12500000  1
  P  P16  1  0.50000000  0.50000000  0.50000000  1
  P  P17  1  0.75000000  0.75000000  0.75000000  1
  C  C18  1  0.27559600  0.90813500  0.90813500  1
  C  C19  1  0.90813500  0.27559600  0.90813500  1
  C  C20  1  0.90813500  0.90813500  0.90813500  1
  C  C21  1  0.90813500  0.90813500  0.27559600  1
  C  C22  1  0.34186500  0.34186500  0.97440400  1
  C  C23  1  0.34186500  0.34186500  0.34186500  1
  C  C24  1  0.34186500  0.97440400  0.34186500  1
  C  C25  1  0.97440400  0.34186500  0.34186500  1
  O  O26  1  0.22437800  0.48550800  0.31843700  1
  O  O27  1  0.97167700  0.31843700  0.48550800  1
  O  O28  1  0.27832300  0.02562200  0.93156300  1
  O  O29  1  0.02562200  0.27832300  0.76449200  1
  O  O30  1  0.27832300  0.76449200  0.02562200  1
  O  O31  1  0.56466700  0.56466700  0.30600000  1
  O  O32  1  0.93156300  0.02562200  0.76449200  1
  O  O33  1  0.56466700  0.56466700  0.56466700  1
  O  O34  1  0.56466700  0.30600000  0.56466700  1
  O  O35  1  0.93156300  0.27832300  0.02562200  1
  O  O36  1  0.76449200  0.27832300  0.93156300  1
  O  O37  1  0.30600000  0.56466700  0.56466700  1
  O  O38  1  0.02562200  0.93156300  0.27832300  1
  O  O39  1  0.76449200  0.93156300  0.02562200  1
  O  O40  1  0.93156300  0.76449200  0.27832300  1
  O  O41  1  0.48550800  0.22437800  0.97167700  1
  O  O42  1  0.76449200  0.02562200  0.27832300  1
  O  O43  1  0.31843700  0.48550800  0.97167700  1
  O  O44  1  0.48550800  0.31843700  0.22437800  1
  O  O45  1  0.22437800  0.31843700  0.97167700  1
  O  O46  1  0.94400000  0.68533300  0.68533300  1
  O  O47  1  0.48550800  0.97167700  0.31843700  1
  O  O48  1  0.31843700  0.97167700  0.22437800  1
  O  O49  1  0.68533300  0.94400000  0.68533300  1
  O  O50  1  0.68533300  0.68533300  0.68533300  1
  O  O51  1  0.31843700  0.22437800  0.48550800  1
  O  O52  1  0.68533300  0.68533300  0.94400000  1
  O  O53  1  0.97167700  0.48550800  0.22437800  1
  O  O54  1  0.22437800  0.97167700  0.48550800  1
  O  O55  1  0.97167700  0.22437800  0.31843700  1
  O  O56  1  0.27832300  0.93156300  0.76449200  1
  O  O57  1  0.02562200  0.76449200  0.93156300  1
