# generated using pymatgen
data_Ca5BC4Cl3
_symmetry_space_group_name_H-M   'P 1'
_cell_length_a   7.29327352
_cell_length_b   7.29327352
_cell_length_c   18.68898400
_cell_angle_alpha   90.00000000
_cell_angle_beta   90.00000000
_cell_angle_gamma   149.10149521
_symmetry_Int_Tables_number   1
_chemical_formula_structural   Ca5BC4Cl3
_chemical_formula_sum   'Ca10 B2 C8 Cl6'
_cell_volume   510.48982779
_cell_formula_units_Z   2
loop_
 _symmetry_equiv_pos_site_id
 _symmetry_equiv_pos_as_xyz
  1  'x, y, z'
loop_
 _atom_site_type_symbol
 _atom_site_label
 _atom_site_symmetry_multiplicity
 _atom_site_fract_x
 _atom_site_fract_y
 _atom_site_fract_z
 _atom_site_occupancy
  Ca  Ca0  1  0.84404500  0.15595500  0.25000000  1
  Ca  Ca1  1  0.63706600  0.36293400  0.56262700  1
  Ca  Ca2  1  0.94520100  0.05479900  0.64111100  1
  Ca  Ca3  1  0.63706600  0.36293400  0.93737300  1
  Ca  Ca4  1  0.94520100  0.05479900  0.85888900  1
  Ca  Ca5  1  0.36293400  0.63706600  0.06262700  1
  Ca  Ca6  1  0.05479900  0.94520100  0.35888900  1
  Ca  Ca7  1  0.36293400  0.63706600  0.43737300  1
  Ca  Ca8  1  0.15595500  0.84404500  0.75000000  1
  Ca  Ca9  1  0.05479900  0.94520100  0.14111100  1
  B  B10  1  0.53444300  0.46555700  0.75000000  1
  B  B11  1  0.46555700  0.53444300  0.25000000  1
  C  C12  1  0.95815900  0.04184100  0.01171300  1
  C  C13  1  0.95815900  0.04184100  0.48828700  1
  C  C14  1  0.04184100  0.95815900  0.51171300  1
  C  C15  1  0.04184100  0.95815900  0.98828700  1
  C  C16  1  0.54960000  0.45040000  0.67316800  1
  C  C17  1  0.54960000  0.45040000  0.82683200  1
  C  C18  1  0.45040000  0.54960000  0.17316800  1
  C  C19  1  0.45040000  0.54960000  0.32683200  1
  Cl  Cl20  1  0.71580600  0.28419400  0.08539700  1
  Cl  Cl21  1  0.71580600  0.28419400  0.41460300  1
  Cl  Cl22  1  0.80619400  0.19380600  0.75000000  1
  Cl  Cl23  1  0.28419400  0.71580600  0.58539700  1
  Cl  Cl24  1  0.19380600  0.80619400  0.25000000  1
  Cl  Cl25  1  0.28419400  0.71580600  0.91460300  1
