# generated using pymatgen
data_Na2Ti2O5
_symmetry_space_group_name_H-M   'P 1'
_cell_length_a   5.51472500
_cell_length_b   6.71995300
_cell_length_c   16.61576700
_cell_angle_alpha   90.00000000
_cell_angle_beta   90.00000000
_cell_angle_gamma   90.00000000
_symmetry_Int_Tables_number   1
_chemical_formula_structural   Na2Ti2O5
_chemical_formula_sum   'Na8 Ti8 O20'
_cell_volume   615.75860502
_cell_formula_units_Z   4
loop_
 _symmetry_equiv_pos_site_id
 _symmetry_equiv_pos_as_xyz
  1  'x, y, z'
loop_
 _atom_site_type_symbol
 _atom_site_label
 _atom_site_symmetry_multiplicity
 _atom_site_fract_x
 _atom_site_fract_y
 _atom_site_fract_z
 _atom_site_occupancy
  Na  Na0  1  0.78480700  0.09904200  0.94373900  1
  Na  Na1  1  0.21519300  0.09904200  0.44373900  1
  Na  Na2  1  0.28480700  0.40095800  0.94373900  1
  Na  Na3  1  0.71519300  0.40095800  0.44373900  1
  Na  Na4  1  0.28480700  0.59904200  0.55626100  1
  Na  Na5  1  0.71519300  0.59904200  0.05626100  1
  Na  Na6  1  0.78480700  0.90095800  0.55626100  1
  Na  Na7  1  0.21519300  0.90095800  0.05626100  1
  Ti  Ti8  1  0.29789500  0.10367300  0.65018800  1
  Ti  Ti9  1  0.70210500  0.10367300  0.15018800  1
  Ti  Ti10  1  0.79789500  0.39632700  0.65018800  1
  Ti  Ti11  1  0.20210500  0.39632700  0.15018800  1
  Ti  Ti12  1  0.20210500  0.60367300  0.34981200  1
  Ti  Ti13  1  0.79789500  0.60367300  0.84981200  1
  Ti  Ti14  1  0.29789500  0.89632700  0.84981200  1
  Ti  Ti15  1  0.70210500  0.89632700  0.34981200  1
  O  O16  1  0.22660700  0.00000000  0.75000000  1
  O  O17  1  0.77339300  0.00000000  0.25000000  1
  O  O18  1  0.21609400  0.06073500  0.92764300  1
  O  O19  1  0.78390600  0.06073500  0.42764300  1
  O  O20  1  0.62817000  0.15755900  0.63670500  1
  O  O21  1  0.37183000  0.15755900  0.13670500  1
  O  O22  1  0.12817000  0.34244100  0.63670500  1
  O  O23  1  0.87183000  0.34244100  0.13670500  1
  O  O24  1  0.71609400  0.43926500  0.92764300  1
  O  O25  1  0.28390600  0.43926500  0.42764300  1
  O  O26  1  0.72660700  0.50000000  0.75000000  1
  O  O27  1  0.27339300  0.50000000  0.25000000  1
  O  O28  1  0.71609400  0.56073500  0.57235700  1
  O  O29  1  0.28390600  0.56073500  0.07235700  1
  O  O30  1  0.12817000  0.65755900  0.86329500  1
  O  O31  1  0.87183000  0.65755900  0.36329500  1
  O  O32  1  0.62817000  0.84244100  0.86329500  1
  O  O33  1  0.37183000  0.84244100  0.36329500  1
  O  O34  1  0.21609400  0.93926500  0.57235700  1
  O  O35  1  0.78390600  0.93926500  0.07235700  1
