# generated using pymatgen
data_Na2Co2O3
_symmetry_space_group_name_H-M   'P 1'
_cell_length_a   8.39552796
_cell_length_b   8.39552796
_cell_length_c   5.64786747
_cell_angle_alpha   71.71429632
_cell_angle_beta   71.71429632
_cell_angle_gamma   83.26937627
_symmetry_Int_Tables_number   1
_chemical_formula_structural   Na2Co2O3
_chemical_formula_sum   'Na8 Co8 O12'
_cell_volume   358.82269101
_cell_formula_units_Z   4
loop_
 _symmetry_equiv_pos_site_id
 _symmetry_equiv_pos_as_xyz
  1  'x, y, z'
loop_
 _atom_site_type_symbol
 _atom_site_label
 _atom_site_symmetry_multiplicity
 _atom_site_fract_x
 _atom_site_fract_y
 _atom_site_fract_z
 _atom_site_occupancy
  Na  Na0  1  0.81959700  0.00697800  0.08507700  1
  Na  Na1  1  0.00697800  0.81959700  0.58507700  1
  Na  Na2  1  0.71110500  0.28889500  0.25000000  1
  Na  Na3  1  0.42474800  0.57525200  0.25000000  1
  Na  Na4  1  0.57525200  0.42474800  0.75000000  1
  Na  Na5  1  0.28889500  0.71110500  0.75000000  1
  Na  Na6  1  0.99302200  0.18040300  0.41492300  1
  Na  Na7  1  0.18040300  0.99302200  0.91492300  1
  Co  Co8  1  0.78209400  0.64506600  0.19710000  1
  Co  Co9  1  0.44886300  0.91325300  0.25046400  1
  Co  Co10  1  0.64506600  0.78209400  0.69710000  1
  Co  Co11  1  0.91325300  0.44886300  0.75046400  1
  Co  Co12  1  0.08674700  0.55113700  0.24953600  1
  Co  Co13  1  0.35493400  0.21790600  0.30290000  1
  Co  Co14  1  0.55113700  0.08674700  0.74953600  1
  Co  Co15  1  0.21790600  0.35493400  0.80290000  1
  O  O16  1  0.56916300  0.71853700  0.43496500  1
  O  O17  1  0.85612800  0.43360800  0.44016100  1
  O  O18  1  0.23477800  0.00342300  0.44412100  1
  O  O19  1  0.71853700  0.56916300  0.93496500  1
  O  O20  1  0.43360800  0.85612800  0.94016100  1
  O  O21  1  0.00342300  0.23477800  0.94412100  1
  O  O22  1  0.99657700  0.76522200  0.05587900  1
  O  O23  1  0.56639200  0.14387200  0.05983900  1
  O  O24  1  0.28146300  0.43083700  0.06503500  1
  O  O25  1  0.76522200  0.99657700  0.55587900  1
  O  O26  1  0.14387200  0.56639200  0.55983900  1
  O  O27  1  0.43083700  0.28146300  0.56503500  1
