# generated using pymatgen
data_PH8N4Cl
_symmetry_space_group_name_H-M   'P 1'
_cell_length_a   4.78679700
_cell_length_b   7.75005200
_cell_length_c   16.53779500
_cell_angle_alpha   90.00000000
_cell_angle_beta   90.00000000
_cell_angle_gamma   90.00000000
_symmetry_Int_Tables_number   1
_chemical_formula_structural   PH8N4Cl
_chemical_formula_sum   'P4 H32 N16 Cl4'
_cell_volume   613.51788955
_cell_formula_units_Z   4
loop_
 _symmetry_equiv_pos_site_id
 _symmetry_equiv_pos_as_xyz
  1  'x, y, z'
loop_
 _atom_site_type_symbol
 _atom_site_label
 _atom_site_symmetry_multiplicity
 _atom_site_fract_x
 _atom_site_fract_y
 _atom_site_fract_z
 _atom_site_occupancy
  P  P0  1  0.00000000  0.75000000  0.12720200  1
  P  P1  1  0.00000000  0.25000000  0.87279800  1
  P  P2  1  0.50000000  0.75000000  0.62720200  1
  P  P3  1  0.50000000  0.25000000  0.37279800  1
  H  H4  1  0.19843800  0.85149300  0.24598900  1
  H  H5  1  0.19843800  0.35149300  0.75401100  1
  H  H6  1  0.22897100  0.99991100  0.16826900  1
  H  H7  1  0.22897100  0.49991100  0.83173100  1
  H  H8  1  0.24077500  0.66901200  0.01114600  1
  H  H9  1  0.24077500  0.16901200  0.98885400  1
  H  H10  1  0.25783400  0.51159000  0.08516300  1
  H  H11  1  0.25783400  0.01159000  0.91483700  1
  H  H12  1  0.24216600  0.01159000  0.41483700  1
  H  H13  1  0.24216600  0.51159000  0.58516300  1
  H  H14  1  0.25922500  0.66901200  0.51114600  1
  H  H15  1  0.25922500  0.16901200  0.48885400  1
  H  H16  1  0.27102900  0.49991100  0.33173100  1
  H  H17  1  0.27102900  0.99991100  0.66826900  1
  H  H18  1  0.30156200  0.35149300  0.25401100  1
  H  H19  1  0.30156200  0.85149300  0.74598900  1
  H  H20  1  0.69843800  0.14850700  0.25401100  1
  H  H21  1  0.69843800  0.64850700  0.74598900  1
  H  H22  1  0.72897100  0.00008900  0.33173100  1
  H  H23  1  0.72897100  0.50008900  0.66826900  1
  H  H24  1  0.74077500  0.83098800  0.51114600  1
  H  H25  1  0.74077500  0.33098800  0.48885400  1
  H  H26  1  0.75783400  0.98841000  0.58516300  1
  H  H27  1  0.75783400  0.48841000  0.41483700  1
  H  H28  1  0.74216600  0.98841000  0.08516300  1
  H  H29  1  0.74216600  0.48841000  0.91483700  1
  H  H30  1  0.75922500  0.83098800  0.01114600  1
  H  H31  1  0.75922500  0.33098800  0.98885400  1
  H  H32  1  0.77102900  0.50008900  0.16826900  1
  H  H33  1  0.77102900  0.00008900  0.83173100  1
  H  H34  1  0.80156200  0.64850700  0.24598900  1
  H  H35  1  0.80156200  0.14850700  0.75401100  1
  N  N36  1  0.13872100  0.88921700  0.18964500  1
  N  N37  1  0.13872100  0.38921700  0.81035500  1
  N  N38  1  0.17164700  0.62524600  0.06574800  1
  N  N39  1  0.17164700  0.12524600  0.93425200  1
  N  N40  1  0.32835300  0.12524600  0.43425200  1
  N  N41  1  0.32835300  0.62524600  0.56574800  1
  N  N42  1  0.36127900  0.38921700  0.31035500  1
  N  N43  1  0.36127900  0.88921700  0.68964500  1
  N  N44  1  0.63872100  0.11078300  0.31035500  1
  N  N45  1  0.63872100  0.61078300  0.68964500  1
  N  N46  1  0.67164700  0.87475400  0.56574800  1
  N  N47  1  0.67164700  0.37475400  0.43425200  1
  N  N48  1  0.82835300  0.87475400  0.06574800  1
  N  N49  1  0.82835300  0.37475400  0.93425200  1
  N  N50  1  0.86127900  0.11078300  0.81035500  1
  N  N51  1  0.86127900  0.61078300  0.18964500  1
  Cl  Cl52  1  0.00000000  0.75000000  0.38546000  1
  Cl  Cl53  1  0.00000000  0.25000000  0.61454000  1
  Cl  Cl54  1  0.50000000  0.25000000  0.11454000  1
  Cl  Cl55  1  0.50000000  0.75000000  0.88546000  1
