# generated using pymatgen
data_RbAl(SO10)2
_symmetry_space_group_name_H-M   'P 1'
_cell_length_a   11.35827100
_cell_length_b   11.35827100
_cell_length_c   11.35827100
_cell_angle_alpha   90.00000000
_cell_angle_beta   90.00000000
_cell_angle_gamma   90.00000000
_symmetry_Int_Tables_number   1
_chemical_formula_structural   RbAl(SO10)2
_chemical_formula_sum   'Rb4 Al4 S8 O80'
_cell_volume   1465.33417760
_cell_formula_units_Z   4
loop_
 _symmetry_equiv_pos_site_id
 _symmetry_equiv_pos_as_xyz
  1  'x, y, z'
loop_
 _atom_site_type_symbol
 _atom_site_label
 _atom_site_symmetry_multiplicity
 _atom_site_fract_x
 _atom_site_fract_y
 _atom_site_fract_z
 _atom_site_occupancy
  Rb  Rb0  1  0.00000000  0.00000000  0.50000000  1
  Rb  Rb1  1  0.00000000  0.50000000  0.00000000  1
  Rb  Rb2  1  0.50000000  0.00000000  0.00000000  1
  Rb  Rb3  1  0.50000000  0.50000000  0.50000000  1
  Al  Al4  1  0.50000000  0.50000000  0.00000000  1
  Al  Al5  1  0.50000000  0.00000000  0.50000000  1
  Al  Al6  1  0.00000000  0.50000000  0.50000000  1
  Al  Al7  1  0.00000000  0.00000000  0.00000000  1
  S  S8  1  0.19606500  0.80393500  0.30393500  1
  S  S9  1  0.80393500  0.30393500  0.19606500  1
  S  S10  1  0.30393500  0.19606500  0.80393500  1
  S  S11  1  0.69606500  0.69606500  0.69606500  1
  S  S12  1  0.80393500  0.19606500  0.69606500  1
  S  S13  1  0.19606500  0.69606500  0.80393500  1
  S  S14  1  0.69606500  0.80393500  0.19606500  1
  S  S15  1  0.30393500  0.30393500  0.30393500  1
  O  O16  1  0.27451100  0.72548900  0.22548900  1
  O  O17  1  0.72548900  0.22548900  0.27451100  1
  O  O18  1  0.22548900  0.27451100  0.72548900  1
  O  O19  1  0.77451100  0.77451100  0.77451100  1
  O  O20  1  0.72548900  0.27451100  0.77451100  1
  O  O21  1  0.27451100  0.77451100  0.72548900  1
  O  O22  1  0.77451100  0.72548900  0.27451100  1
  O  O23  1  0.22548900  0.22548900  0.22548900  1
  O  O24  1  0.07544100  0.80474700  0.25537600  1
  O  O25  1  0.92455900  0.30474700  0.24462400  1
  O  O26  1  0.42455900  0.19525300  0.75537600  1
  O  O27  1  0.57544100  0.69525300  0.74462400  1
  O  O28  1  0.25537600  0.07544100  0.80474700  1
  O  O29  1  0.24462400  0.92455900  0.30474700  1
  O  O30  1  0.75537600  0.42455900  0.19525300  1
  O  O31  1  0.74462400  0.57544100  0.69525300  1
  O  O32  1  0.80474700  0.25537600  0.07544100  1
  O  O33  1  0.30474700  0.24462400  0.92455900  1
  O  O34  1  0.19525300  0.75537600  0.42455900  1
  O  O35  1  0.69525300  0.74462400  0.57544100  1
  O  O36  1  0.92455900  0.19525300  0.74462400  1
  O  O37  1  0.07544100  0.69525300  0.75537600  1
  O  O38  1  0.57544100  0.80474700  0.24462400  1
  O  O39  1  0.42455900  0.30474700  0.25537600  1
  O  O40  1  0.74462400  0.92455900  0.19525300  1
  O  O41  1  0.75537600  0.07544100  0.69525300  1
  O  O42  1  0.24462400  0.57544100  0.80474700  1
  O  O43  1  0.25537600  0.42455900  0.30474700  1
  O  O44  1  0.19525300  0.74462400  0.92455900  1
  O  O45  1  0.69525300  0.75537600  0.07544100  1
  O  O46  1  0.80474700  0.24462400  0.57544100  1
  O  O47  1  0.30474700  0.25537600  0.42455900  1
  O  O48  1  0.21856200  0.55009300  0.15666400  1
  O  O49  1  0.78143800  0.05009300  0.34333600  1
  O  O50  1  0.28143800  0.44990700  0.65666400  1
  O  O51  1  0.71856200  0.94990700  0.84333600  1
  O  O52  1  0.15666400  0.21856200  0.55009300  1
  O  O53  1  0.34333600  0.78143800  0.05009300  1
  O  O54  1  0.65666400  0.28143800  0.44990700  1
  O  O55  1  0.84333600  0.71856200  0.94990700  1
  O  O56  1  0.55009300  0.15666400  0.21856200  1
  O  O57  1  0.05009300  0.34333600  0.78143800  1
  O  O58  1  0.44990700  0.65666400  0.28143800  1
  O  O59  1  0.94990700  0.84333600  0.71856200  1
  O  O60  1  0.78143800  0.44990700  0.84333600  1
  O  O61  1  0.21856200  0.94990700  0.65666400  1
  O  O62  1  0.71856200  0.55009300  0.34333600  1
  O  O63  1  0.28143800  0.05009300  0.15666400  1
  O  O64  1  0.84333600  0.78143800  0.44990700  1
  O  O65  1  0.65666400  0.21856200  0.94990700  1
  O  O66  1  0.34333600  0.71856200  0.55009300  1
  O  O67  1  0.15666400  0.28143800  0.05009300  1
  O  O68  1  0.44990700  0.84333600  0.78143800  1
  O  O69  1  0.94990700  0.65666400  0.21856200  1
  O  O70  1  0.55009300  0.34333600  0.71856200  1
  O  O71  1  0.05009300  0.15666400  0.28143800  1
  O  O72  1  0.33795200  0.51103800  0.02513100  1
  O  O73  1  0.66204800  0.01103800  0.47486900  1
  O  O74  1  0.16204800  0.48896200  0.52513100  1
  O  O75  1  0.83795200  0.98896200  0.97486900  1
  O  O76  1  0.02513100  0.33795200  0.51103800  1
  O  O77  1  0.47486900  0.66204800  0.01103800  1
  O  O78  1  0.52513100  0.16204800  0.48896200  1
  O  O79  1  0.97486900  0.83795200  0.98896200  1
  O  O80  1  0.51103800  0.02513100  0.33795200  1
  O  O81  1  0.01103800  0.47486900  0.66204800  1
  O  O82  1  0.48896200  0.52513100  0.16204800  1
  O  O83  1  0.98896200  0.97486900  0.83795200  1
  O  O84  1  0.66204800  0.48896200  0.97486900  1
  O  O85  1  0.33795200  0.98896200  0.52513100  1
  O  O86  1  0.83795200  0.51103800  0.47486900  1
  O  O87  1  0.16204800  0.01103800  0.02513100  1
  O  O88  1  0.97486900  0.66204800  0.48896200  1
  O  O89  1  0.52513100  0.33795200  0.98896200  1
  O  O90  1  0.47486900  0.83795200  0.51103800  1
  O  O91  1  0.02513100  0.16204800  0.01103800  1
  O  O92  1  0.48896200  0.97486900  0.66204800  1
  O  O93  1  0.98896200  0.52513100  0.33795200  1
  O  O94  1  0.51103800  0.47486900  0.83795200  1
  O  O95  1  0.01103800  0.02513100  0.16204800  1
