# generated using pymatgen
data_Ti3O5
_symmetry_space_group_name_H-M   'P 1'
_cell_length_a   5.29929513
_cell_length_b   5.29929513
_cell_length_c   10.07120800
_cell_angle_alpha   90.00000000
_cell_angle_beta   90.00000000
_cell_angle_gamma   138.01972282
_symmetry_Int_Tables_number   1
_chemical_formula_structural   Ti3O5
_chemical_formula_sum   'Ti6 O10'
_cell_volume   189.17449594
_cell_formula_units_Z   2
loop_
 _symmetry_equiv_pos_site_id
 _symmetry_equiv_pos_as_xyz
  1  'x, y, z'
loop_
 _atom_site_type_symbol
 _atom_site_label
 _atom_site_symmetry_multiplicity
 _atom_site_fract_x
 _atom_site_fract_y
 _atom_site_fract_z
 _atom_site_occupancy
  Ti  Ti0  1  0.69828800  0.30171200  0.25000000  1
  Ti  Ti1  1  0.30171200  0.69828800  0.75000000  1
  Ti  Ti2  1  0.36939800  0.63060200  0.05727700  1
  Ti  Ti3  1  0.63060200  0.36939800  0.94272300  1
  Ti  Ti4  1  0.63060200  0.36939800  0.55727700  1
  Ti  Ti5  1  0.36939800  0.63060200  0.44272300  1
  O  O6  1  0.73251700  0.26748300  0.75000000  1
  O  O7  1  0.26748300  0.73251700  0.25000000  1
  O  O8  1  0.44851700  0.55148300  0.87731300  1
  O  O9  1  0.55148300  0.44851700  0.12268700  1
  O  O10  1  0.55148300  0.44851700  0.37731300  1
  O  O11  1  0.44851700  0.55148300  0.62268700  1
  O  O12  1  0.81707200  0.18292800  0.43098000  1
  O  O13  1  0.18292800  0.81707200  0.56902000  1
  O  O14  1  0.18292800  0.81707200  0.93098000  1
  O  O15  1  0.81707200  0.18292800  0.06902000  1
