# generated using pymatgen
data_V2N4O11
_symmetry_space_group_name_H-M   'P 1'
_cell_length_a   11.11051500
_cell_length_b   7.46177400
_cell_length_c   17.36492377
_cell_angle_alpha   87.42449691
_cell_angle_beta   90.00000000
_cell_angle_gamma   90.00000000
_symmetry_Int_Tables_number   1
_chemical_formula_structural   V2N4O11
_chemical_formula_sum   'V8 N16 O44'
_cell_volume   1438.17007623
_cell_formula_units_Z   4
loop_
 _symmetry_equiv_pos_site_id
 _symmetry_equiv_pos_as_xyz
  1  'x, y, z'
loop_
 _atom_site_type_symbol
 _atom_site_label
 _atom_site_symmetry_multiplicity
 _atom_site_fract_x
 _atom_site_fract_y
 _atom_site_fract_z
 _atom_site_occupancy
  V  V0  1  0.80707200  0.76179800  0.53637200  1
  V  V1  1  0.30707200  0.23820200  0.96362800  1
  V  V2  1  0.19292800  0.23820200  0.46362800  1
  V  V3  1  0.69292800  0.76179800  0.03637200  1
  V  V4  1  0.61610900  0.75991100  0.67910100  1
  V  V5  1  0.11610900  0.24008900  0.82089900  1
  V  V6  1  0.38389100  0.24008900  0.32089900  1
  V  V7  1  0.88389100  0.75991100  0.17910100  1
  N  N8  1  0.41446200  0.77791700  0.48513000  1
  N  N9  1  0.91446200  0.22208300  0.01487000  1
  N  N10  1  0.58553800  0.22208300  0.51487000  1
  N  N11  1  0.08553800  0.77791700  0.98513000  1
  N  N12  1  0.20184100  0.76699000  0.63634700  1
  N  N13  1  0.70184100  0.23301000  0.86365300  1
  N  N14  1  0.79815900  0.23301000  0.36365300  1
  N  N15  1  0.29815900  0.76699000  0.13634700  1
  N  N16  1  0.93289700  0.71003900  0.81474200  1
  N  N17  1  0.43289700  0.28996100  0.68525800  1
  N  N18  1  0.06710300  0.28996100  0.18525800  1
  N  N19  1  0.56710300  0.71003900  0.31474200  1
  N  N20  1  0.90963500  0.22972800  0.62529800  1
  N  N21  1  0.40963500  0.77027200  0.87470200  1
  N  N22  1  0.09036500  0.77027200  0.37470200  1
  N  N23  1  0.59036500  0.22972800  0.12529800  1
  O  O24  1  0.71730600  0.60408600  0.46458400  1
  O  O25  1  0.21730600  0.39591400  0.03541600  1
  O  O26  1  0.28269400  0.39591400  0.53541600  1
  O  O27  1  0.78269400  0.60408600  0.96458400  1
  O  O28  1  0.82124600  0.53037100  0.48604300  1
  O  O29  1  0.32124600  0.46962900  0.01395700  1
  O  O30  1  0.17875400  0.46962900  0.51395700  1
  O  O31  1  0.67875400  0.53037100  0.98604300  1
  O  O32  1  0.88338600  0.81340900  0.63860800  1
  O  O33  1  0.38338600  0.18659100  0.86139200  1
  O  O34  1  0.11661400  0.18659100  0.36139200  1
  O  O35  1  0.61661400  0.81340900  0.13860800  1
  O  O36  1  0.93992600  0.67941700  0.60563500  1
  O  O37  1  0.43992600  0.32058300  0.89436500  1
  O  O38  1  0.06007400  0.32058300  0.39436500  1
  O  O39  1  0.56007400  0.67941700  0.10563500  1
  O  O40  1  0.64759800  0.01256700  0.71083300  1
  O  O41  1  0.14759800  0.98743300  0.78916700  1
  O  O42  1  0.35240200  0.98743300  0.28916700  1
  O  O43  1  0.85240200  0.01256700  0.21083300  1
  O  O44  1  0.67632700  0.89373800  0.76703500  1
  O  O45  1  0.17632700  0.10626200  0.73296500  1
  O  O46  1  0.32367300  0.10626200  0.23296500  1
  O  O47  1  0.82367300  0.89373800  0.26703500  1
  O  O48  1  0.66941900  0.50785300  0.65711000  1
  O  O49  1  0.16941900  0.49214700  0.84289000  1
  O  O50  1  0.33058100  0.49214700  0.34289000  1
  O  O51  1  0.83058100  0.50785300  0.15711000  1
  O  O52  1  0.68609100  0.54222000  0.73094900  1
  O  O53  1  0.18609100  0.45778000  0.76905100  1
  O  O54  1  0.31390900  0.45778000  0.26905100  1
  O  O55  1  0.81390900  0.54222000  0.23094900  1
  O  O56  1  0.86025400  0.91469500  0.47758800  1
  O  O57  1  0.36025400  0.08530500  0.02241200  1
  O  O58  1  0.13974600  0.08530500  0.52241200  1
  O  O59  1  0.63974600  0.91469500  0.97758800  1
  O  O60  1  0.66285400  0.82504100  0.57980000  1
  O  O61  1  0.16285400  0.17495900  0.92020000  1
  O  O62  1  0.33714600  0.17495900  0.42020000  1
  O  O63  1  0.83714600  0.82504100  0.07980000  1
  O  O64  1  0.47279000  0.74346500  0.68850800  1
  O  O65  1  0.97279000  0.25653500  0.81149200  1
  O  O66  1  0.52721000  0.25653500  0.31149200  1
  O  O67  1  0.02721000  0.74346500  0.18850800  1
