# generated using pymatgen
data_La2Ti2O7
_symmetry_space_group_name_H-M   'P 1'
_cell_length_a   13.07035309
_cell_length_b   13.07035309
_cell_length_c   5.67660600
_cell_angle_alpha   90.00000000
_cell_angle_beta   90.00000000
_cell_angle_gamma   162.82111855
_symmetry_Int_Tables_number   1
_chemical_formula_structural   La2Ti2O7
_chemical_formula_sum   'La4 Ti4 O14'
_cell_volume   286.42378561
_cell_formula_units_Z   2
loop_
 _symmetry_equiv_pos_site_id
 _symmetry_equiv_pos_as_xyz
  1  'x, y, z'
loop_
 _atom_site_type_symbol
 _atom_site_label
 _atom_site_symmetry_multiplicity
 _atom_site_fract_x
 _atom_site_fract_y
 _atom_site_fract_z
 _atom_site_occupancy
  La  La0  1  0.29707900  0.70292100  0.65125400  1
  La  La1  1  0.70292100  0.29707900  0.15125400  1
  La  La2  1  0.44918200  0.55081800  0.23253000  1
  La  La3  1  0.55081800  0.44918200  0.73253000  1
  Ti  Ti4  1  0.83731300  0.16268700  0.19796500  1
  Ti  Ti5  1  0.16268700  0.83731300  0.69796500  1
  Ti  Ti6  1  0.93755500  0.06244500  0.73828800  1
  Ti  Ti7  1  0.06244500  0.93755500  0.23828800  1
  O  O8  1  0.77998300  0.22001700  0.41021800  1
  O  O9  1  0.22001700  0.77998300  0.91021800  1
  O  O10  1  0.88044200  0.11955800  0.56399700  1
  O  O11  1  0.11955800  0.88044200  0.06399700  1
  O  O12  1  0.34735600  0.65264400  0.24852600  1
  O  O13  1  0.65264400  0.34735600  0.74852600  1
  O  O14  1  0.45053800  0.54946200  0.78012300  1
  O  O15  1  0.54946200  0.45053800  0.28012300  1
  O  O16  1  0.98666800  0.01333200  0.48278600  1
  O  O17  1  0.01333200  0.98666800  0.98278600  1
  O  O18  1  0.09148500  0.90851500  0.56496100  1
  O  O19  1  0.90851500  0.09148500  0.06496100  1
  O  O20  1  0.20144900  0.79855100  0.43375200  1
  O  O21  1  0.79855100  0.20144900  0.93375200  1
