# generated using pymatgen
data_LaOF
_symmetry_space_group_name_H-M   'P 1'
_cell_length_a   7.18136282
_cell_length_b   7.18136282
_cell_length_c   7.18136363
_cell_angle_alpha   32.85413905
_cell_angle_beta   32.85413905
_cell_angle_gamma   32.85413867
_symmetry_Int_Tables_number   1
_chemical_formula_structural   LaOF
_chemical_formula_sum   'La2 O2 F2'
_cell_volume   96.97711258
_cell_formula_units_Z   2
loop_
 _symmetry_equiv_pos_site_id
 _symmetry_equiv_pos_as_xyz
  1  'x, y, z'
loop_
 _atom_site_type_symbol
 _atom_site_label
 _atom_site_symmetry_multiplicity
 _atom_site_fract_x
 _atom_site_fract_y
 _atom_site_fract_z
 _atom_site_occupancy
  La  La0  1  0.74127100  0.74127100  0.74127100  1
  La  La1  1  0.25872900  0.25872900  0.25872900  1
  O  O2  1  0.62333000  0.62333000  0.62333000  1
  O  O3  1  0.37667000  0.37667000  0.37667000  1
  F  F4  1  0.12875800  0.12875800  0.12875800  1
  F  F5  1  0.87124200  0.87124200  0.87124200  1
