# generated using pymatgen
data_Th2Fe17
_symmetry_space_group_name_H-M   'P 1'
_cell_length_a   6.45619395
_cell_length_b   6.45619395
_cell_length_c   6.45619362
_cell_angle_alpha   82.52092726
_cell_angle_beta   82.52092726
_cell_angle_gamma   82.52093066
_symmetry_Int_Tables_number   1
_chemical_formula_structural   Th2Fe17
_chemical_formula_sum   'Th2 Fe17'
_cell_volume   262.79000748
_cell_formula_units_Z   1
loop_
 _symmetry_equiv_pos_site_id
 _symmetry_equiv_pos_as_xyz
  1  'x, y, z'
loop_
 _atom_site_type_symbol
 _atom_site_label
 _atom_site_symmetry_multiplicity
 _atom_site_fract_x
 _atom_site_fract_y
 _atom_site_fract_z
 _atom_site_occupancy
  Th  Th0  1  0.65866300  0.65866300  0.65866300  1
  Th  Th1  1  0.34133700  0.34133700  0.34133700  1
  Fe  Fe2  1  0.00000000  0.00000000  0.50000000  1
  Fe  Fe3  1  0.50000000  0.00000000  0.00000000  1
  Fe  Fe4  1  0.00000000  0.50000000  0.00000000  1
  Fe  Fe5  1  0.70988400  0.29011600  0.00000000  1
  Fe  Fe6  1  0.00000000  0.70988400  0.29011600  1
  Fe  Fe7  1  0.29011600  0.00000000  0.70988400  1
  Fe  Fe8  1  0.00000000  0.29011600  0.70988400  1
  Fe  Fe9  1  0.70988400  0.00000000  0.29011600  1
  Fe  Fe10  1  0.29011600  0.70988400  0.00000000  1
  Fe  Fe11  1  0.34171100  0.34171100  0.84365600  1
  Fe  Fe12  1  0.84365600  0.34171100  0.34171100  1
  Fe  Fe13  1  0.34171100  0.84365600  0.34171100  1
  Fe  Fe14  1  0.65828900  0.65828900  0.15634400  1
  Fe  Fe15  1  0.15634400  0.65828900  0.65828900  1
  Fe  Fe16  1  0.65828900  0.15634400  0.65828900  1
  Fe  Fe17  1  0.90444200  0.90444200  0.90444200  1
  Fe  Fe18  1  0.09555800  0.09555800  0.09555800  1
