# generated using pymatgen
data_S
_symmetry_space_group_name_H-M   'P 1'
_cell_length_a   6.67754000
_cell_length_b   16.64397400
_cell_length_c   22.92695601
_cell_angle_alpha   46.67063082
_cell_angle_beta   90.00000000
_cell_angle_gamma   90.00000000
_symmetry_Int_Tables_number   1
_chemical_formula_structural   S
_chemical_formula_sum   S56
_cell_volume   1853.55650708
_cell_formula_units_Z   56
loop_
 _symmetry_equiv_pos_site_id
 _symmetry_equiv_pos_as_xyz
  1  'x, y, z'
loop_
 _atom_site_type_symbol
 _atom_site_label
 _atom_site_symmetry_multiplicity
 _atom_site_fract_x
 _atom_site_fract_y
 _atom_site_fract_z
 _atom_site_occupancy
  S  S0  1  0.08437900  0.69709300  0.78651400  1
  S  S1  1  0.58437900  0.30290700  0.71348600  1
  S  S2  1  0.91562100  0.30290700  0.21348600  1
  S  S3  1  0.41562100  0.69709300  0.28651400  1
  S  S4  1  0.81380800  0.95575700  0.42685500  1
  S  S5  1  0.31380800  0.04424300  0.07314500  1
  S  S6  1  0.18619200  0.04424300  0.57314500  1
  S  S7  1  0.68619200  0.95575700  0.92685500  1
  S  S8  1  0.12519000  0.76116600  0.41738400  1
  S  S9  1  0.62519000  0.23883400  0.08261600  1
  S  S10  1  0.87481000  0.23883400  0.58261600  1
  S  S11  1  0.37481000  0.76116600  0.91738400  1
  S  S12  1  0.13141500  0.94160700  0.44183200  1
  S  S13  1  0.63141500  0.05839300  0.05816800  1
  S  S14  1  0.86858500  0.05839300  0.55816800  1
  S  S15  1  0.36858500  0.94160700  0.94183200  1
  S  S16  1  0.24517100  0.90030400  0.31946000  1
  S  S17  1  0.74517100  0.09969600  0.18054000  1
  S  S18  1  0.75482900  0.09969600  0.68054000  1
  S  S19  1  0.25482900  0.90030400  0.81946000  1
  S  S20  1  0.25117900  0.01798200  0.33601300  1
  S  S21  1  0.75117900  0.98201800  0.16398700  1
  S  S22  1  0.74882100  0.98201800  0.66398700  1
  S  S23  1  0.24882100  0.01798200  0.83601300  1
  S  S24  1  0.17334700  0.54065800  0.88617200  1
  S  S25  1  0.67334700  0.45934200  0.61382800  1
  S  S26  1  0.82665300  0.45934200  0.11382800  1
  S  S27  1  0.32665300  0.54065800  0.38617200  1
  S  S28  1  0.14905100  0.71933100  0.68880100  1
  S  S29  1  0.64905100  0.28066900  0.81119900  1
  S  S30  1  0.85094900  0.28066900  0.31119900  1
  S  S31  1  0.35094900  0.71933100  0.18880100  1
  S  S32  1  0.49168600  0.55653200  0.88267800  1
  S  S33  1  0.99168600  0.44346800  0.61732200  1
  S  S34  1  0.50831400  0.44346800  0.11732200  1
  S  S35  1  0.00831400  0.55653200  0.38267800  1
  S  S36  1  0.46664700  0.74177000  0.67829300  1
  S  S37  1  0.96664700  0.25823000  0.82170700  1
  S  S38  1  0.53335300  0.25823000  0.32170700  1
  S  S39  1  0.03335300  0.74177000  0.17829300  1
  S  S40  1  0.60363300  0.48359900  0.84905300  1
  S  S41  1  0.10363300  0.51640100  0.65094700  1
  S  S42  1  0.39636700  0.51640100  0.15094700  1
  S  S43  1  0.89636700  0.48359900  0.34905300  1
  S  S44  1  0.58781600  0.60493200  0.71528900  1
  S  S45  1  0.08781600  0.39506800  0.78471100  1
  S  S46  1  0.41218400  0.39506800  0.28471100  1
  S  S47  1  0.91218400  0.60493200  0.21528900  1
  S  S48  1  0.73105100  0.79950400  0.48062500  1
  S  S49  1  0.23105100  0.20049600  0.01937500  1
  S  S50  1  0.26894900  0.20049600  0.51937500  1
  S  S51  1  0.76894900  0.79950400  0.98062500  1
  S  S52  1  0.80725300  0.78065300  0.40398800  1
  S  S53  1  0.30725300  0.21934700  0.09601200  1
  S  S54  1  0.19274700  0.21934700  0.59601200  1
  S  S55  1  0.69274700  0.78065300  0.90398800  1
