# generated using pymatgen
data_LaYbS3
_symmetry_space_group_name_H-M   'P 1'
_cell_length_a   7.26855023
_cell_length_b   7.26855023
_cell_length_c   8.87231700
_cell_angle_alpha   90.00000000
_cell_angle_beta   90.00000000
_cell_angle_gamma   147.54061212
_symmetry_Int_Tables_number   1
_chemical_formula_structural   LaYbS3
_chemical_formula_sum   'La2 Yb2 S6'
_cell_volume   251.57390140
_cell_formula_units_Z   2
loop_
 _symmetry_equiv_pos_site_id
 _symmetry_equiv_pos_as_xyz
  1  'x, y, z'
loop_
 _atom_site_type_symbol
 _atom_site_label
 _atom_site_symmetry_multiplicity
 _atom_site_fract_x
 _atom_site_fract_y
 _atom_site_fract_z
 _atom_site_occupancy
  La  La0  1  0.25304000  0.74696000  0.75000000  1
  La  La1  1  0.74696000  0.25304000  0.25000000  1
  Yb  Yb2  1  0.00000000  0.00000000  0.00000000  1
  Yb  Yb3  1  0.00000000  0.00000000  0.50000000  1
  S  S4  1  0.10860700  0.89139300  0.25000000  1
  S  S5  1  0.89139300  0.10860700  0.75000000  1
  S  S6  1  0.63657700  0.36342300  0.58510100  1
  S  S7  1  0.36342300  0.63657700  0.41489900  1
  S  S8  1  0.63657700  0.36342300  0.91489900  1
  S  S9  1  0.36342300  0.63657700  0.08510100  1
