# generated using pymatgen
data_NaV10O15
_symmetry_space_group_name_H-M   'P 1'
_cell_length_a   7.86244136
_cell_length_b   7.86244136
_cell_length_c   9.72592200
_cell_angle_alpha   90.00000000
_cell_angle_beta   90.00000000
_cell_angle_gamma   97.51042508
_symmetry_Int_Tables_number   1
_chemical_formula_structural   NaV10O15
_chemical_formula_sum   'Na2 V20 O30'
_cell_volume   596.07893811
_cell_formula_units_Z   2
loop_
 _symmetry_equiv_pos_site_id
 _symmetry_equiv_pos_as_xyz
  1  'x, y, z'
loop_
 _atom_site_type_symbol
 _atom_site_label
 _atom_site_symmetry_multiplicity
 _atom_site_fract_x
 _atom_site_fract_y
 _atom_site_fract_z
 _atom_site_occupancy
  Na  Na0  1  0.00000000  0.00000000  0.00000000  1
  Na  Na1  1  0.50000000  0.50000000  0.50000000  1
  V  V2  1  0.18414400  0.18414400  0.63246500  1
  V  V3  1  0.31585600  0.31585600  0.13246500  1
  V  V4  1  0.07913100  0.59861500  0.11548400  1
  V  V5  1  0.09861500  0.57913100  0.38451600  1
  V  V6  1  0.57913100  0.09861500  0.38451600  1
  V  V7  1  0.59861500  0.07913100  0.11548400  1
  V  V8  1  0.28894600  0.54112100  0.85493900  1
  V  V9  1  0.04112100  0.78894600  0.64506100  1
  V  V10  1  0.78894600  0.04112100  0.64506100  1
  V  V11  1  0.54112100  0.28894600  0.85493900  1
  V  V12  1  0.71105400  0.45887900  0.14506100  1
  V  V13  1  0.21105400  0.95887900  0.35493900  1
  V  V14  1  0.95887900  0.21105400  0.35493900  1
  V  V15  1  0.45887900  0.71105400  0.14506100  1
  V  V16  1  0.40138500  0.92086900  0.88451600  1
  V  V17  1  0.92086900  0.40138500  0.88451600  1
  V  V18  1  0.90138500  0.42086900  0.61548400  1
  V  V19  1  0.42086900  0.90138500  0.61548400  1
  V  V20  1  0.68414400  0.68414400  0.86753500  1
  V  V21  1  0.81585600  0.81585600  0.36753500  1
  O  O22  1  0.15483000  0.15483000  0.24431900  1
  O  O23  1  0.13842500  0.39354300  0.99521500  1
  O  O24  1  0.39354300  0.13842500  0.99521500  1
  O  O25  1  0.10645700  0.36157500  0.49521500  1
  O  O26  1  0.36157500  0.10645700  0.49521500  1
  O  O27  1  0.56866500  0.06866500  0.75000000  1
  O  O28  1  0.06866500  0.56866500  0.75000000  1
  O  O29  1  0.34517000  0.34517000  0.74431900  1
  O  O30  1  0.03823200  0.78213700  0.26367400  1
  O  O31  1  0.28213700  0.53823200  0.23632600  1
  O  O32  1  0.53823200  0.28213700  0.23632600  1
  O  O33  1  0.78213700  0.03823200  0.26367400  1
  O  O34  1  0.25977200  0.74022800  0.00000000  1
  O  O35  1  0.74022800  0.25977200  0.00000000  1
  O  O36  1  0.00000000  0.00000000  0.50000000  1
  O  O37  1  0.50000000  0.50000000  0.00000000  1
  O  O38  1  0.75977200  0.24022800  0.50000000  1
  O  O39  1  0.24022800  0.75977200  0.50000000  1
  O  O40  1  0.96176800  0.21786300  0.73632600  1
  O  O41  1  0.71786300  0.46176800  0.76367400  1
  O  O42  1  0.46176800  0.71786300  0.76367400  1
  O  O43  1  0.21786300  0.96176800  0.73632600  1
  O  O44  1  0.65483000  0.65483000  0.25568100  1
  O  O45  1  0.43133500  0.93133500  0.25000000  1
  O  O46  1  0.93133500  0.43133500  0.25000000  1
  O  O47  1  0.89354300  0.63842500  0.50478500  1
  O  O48  1  0.63842500  0.89354300  0.50478500  1
  O  O49  1  0.86157500  0.60645700  0.00478500  1
  O  O50  1  0.60645700  0.86157500  0.00478500  1
  O  O51  1  0.84517000  0.84517000  0.75568100  1
