# generated using pymatgen
data_Ni2S
_symmetry_space_group_name_H-M   'P 1'
_cell_length_a   4.67009467
_cell_length_b   4.67009467
_cell_length_c   4.67009467
_cell_angle_alpha   144.29066312
_cell_angle_beta   144.29066312
_cell_angle_gamma   51.39287004
_symmetry_Int_Tables_number   1
_chemical_formula_structural   Ni2S
_chemical_formula_sum   'Ni2 S1'
_cell_volume   34.51171659
_cell_formula_units_Z   1
loop_
 _symmetry_equiv_pos_site_id
 _symmetry_equiv_pos_as_xyz
  1  'x, y, z'
loop_
 _atom_site_type_symbol
 _atom_site_label
 _atom_site_symmetry_multiplicity
 _atom_site_fract_x
 _atom_site_fract_y
 _atom_site_fract_z
 _atom_site_occupancy
  Ni  Ni0  1  0.15144400  0.15144400  0.00000000  1
  Ni  Ni1  1  0.84855600  0.84855600  0.00000000  1
  S  S2  1  0.50000000  0.50000000  0.00000000  1
