# generated using pymatgen
data_Ni3OF5
_symmetry_space_group_name_H-M   'P 1'
_cell_length_a   5.62176300
_cell_length_b   5.62569940
_cell_length_c   7.32502022
_cell_angle_alpha   72.28285671
_cell_angle_beta   72.25820578
_cell_angle_gamma   72.36261123
_symmetry_Int_Tables_number   1
_chemical_formula_structural   Ni3OF5
_chemical_formula_sum   'Ni6 O2 F10'
_cell_volume   204.45845965
_cell_formula_units_Z   2
loop_
 _symmetry_equiv_pos_site_id
 _symmetry_equiv_pos_as_xyz
  1  'x, y, z'
loop_
 _atom_site_type_symbol
 _atom_site_label
 _atom_site_symmetry_multiplicity
 _atom_site_fract_x
 _atom_site_fract_y
 _atom_site_fract_z
 _atom_site_occupancy
  Ni  Ni0  1  0.33319500  0.34266500  0.16209900  1
  Ni  Ni1  1  0.32939500  0.33245300  0.66530400  1
  Ni  Ni2  1  0.67237100  0.67492800  0.33506900  1
  Ni  Ni3  1  0.65706400  0.66773500  0.83752900  1
  Ni  Ni4  1  0.99599600  0.99755600  0.49495600  1
  Ni  Ni5  1  0.00894700  0.98774500  0.00627100  1
  O  O6  1  0.90234500  0.89791600  0.29659200  1
  O  O7  1  0.30484300  0.69467400  0.00102700  1
  F  F8  1  0.36364600  0.97680000  0.33052700  1
  F  F9  1  0.02477400  0.63616200  0.66995500  1
  F  F10  1  0.09822700  0.09693000  0.70221100  1
  F  F11  1  0.43821600  0.43997700  0.36735900  1
  F  F12  1  0.76707300  0.76549000  0.03587300  1
  F  F13  1  0.23329600  0.23258100  0.96278500  1
  F  F14  1  0.56276800  0.56473800  0.63218400  1
  F  F15  1  0.63398100  0.03067700  0.66639400  1
  F  F16  1  0.97094300  0.36495500  0.33400100  1
  F  F17  1  0.70292200  0.29601900  0.99986300  1
