# generated using pymatgen
data_Cr5S8
_symmetry_space_group_name_H-M   'P 1'
_cell_length_a   6.80617200
_cell_length_b   11.08275950
_cell_length_c   6.72977111
_cell_angle_alpha   91.22713050
_cell_angle_beta   120.37625939
_cell_angle_gamma   90.00000000
_symmetry_Int_Tables_number   1
_chemical_formula_structural   Cr5S8
_chemical_formula_sum   'Cr10 S16'
_cell_volume   437.81313447
_cell_formula_units_Z   2
loop_
 _symmetry_equiv_pos_site_id
 _symmetry_equiv_pos_as_xyz
  1  'x, y, z'
loop_
 _atom_site_type_symbol
 _atom_site_label
 _atom_site_symmetry_multiplicity
 _atom_site_fract_x
 _atom_site_fract_y
 _atom_site_fract_z
 _atom_site_occupancy
  Cr  Cr0  1  0.99929800  0.99911200  0.99859700  1
  Cr  Cr1  1  0.50093100  0.49512500  0.00186200  1
  Cr  Cr2  1  0.01336500  0.73588400  0.02673000  1
  Cr  Cr3  1  0.98729800  0.26123000  0.97459600  1
  Cr  Cr4  1  0.48716200  0.76471400  0.97432300  1
  Cr  Cr5  1  0.50652400  0.24364800  0.01304800  1
  Cr  Cr6  1  0.48240000  0.74983000  0.49994300  1
  Cr  Cr7  1  0.01754300  0.74983000  0.49994300  1
  Cr  Cr8  1  0.52372100  0.24934300  0.50615700  1
  Cr  Cr9  1  0.98243600  0.24934300  0.50615700  1
  S  S10  1  0.16124000  0.13975100  0.32248000  1
  S  S11  1  0.82921900  0.38184200  0.65843900  1
  S  S12  1  0.17340600  0.61879200  0.34681100  1
  S  S13  1  0.66024800  0.63952400  0.32049600  1
  S  S14  1  0.33756400  0.36058600  0.67512800  1
  S  S15  1  0.66772800  0.12359300  0.33545500  1
  S  S16  1  0.32634400  0.88098200  0.65268800  1
  S  S17  1  0.17536700  0.62721700  0.83512300  1
  S  S18  1  0.65975600  0.62721700  0.83512300  1
  S  S19  1  0.83172700  0.37259900  0.17103900  1
  S  S20  1  0.33931200  0.37259900  0.17103900  1
  S  S21  1  0.16127300  0.12523900  0.83232100  1
  S  S22  1  0.67104800  0.12523900  0.83232100  1
  S  S23  1  0.84012900  0.87328100  0.16623200  1
  S  S24  1  0.32610300  0.87328100  0.16623200  1
  S  S25  1  0.83885900  0.86020000  0.67771800  1
