# generated using pymatgen
data_V3(O2F)2
_symmetry_space_group_name_H-M   'P 1'
_cell_length_a   10.46643444
_cell_length_b   10.46643444
_cell_length_c   3.06537600
_cell_angle_alpha   90.00000000
_cell_angle_beta   90.00000000
_cell_angle_gamma   143.44607130
_symmetry_Int_Tables_number   1
_chemical_formula_structural   V3(O2F)2
_chemical_formula_sum   'V6 O8 F4'
_cell_volume   199.99574055
_cell_formula_units_Z   2
loop_
 _symmetry_equiv_pos_site_id
 _symmetry_equiv_pos_as_xyz
  1  'x, y, z'
loop_
 _atom_site_type_symbol
 _atom_site_label
 _atom_site_symmetry_multiplicity
 _atom_site_fract_x
 _atom_site_fract_y
 _atom_site_fract_z
 _atom_site_occupancy
  V  V0  1  0.00667000  0.99333000  0.00000000  1
  V  V1  1  0.16591800  0.83408200  0.50000000  1
  V  V2  1  0.50704000  0.49296000  0.50000000  1
  V  V3  1  0.66706600  0.33293400  0.00000000  1
  V  V4  1  0.32634600  0.67365400  0.00000000  1
  V  V5  1  0.82772500  0.17227500  0.50000000  1
  O  O6  1  0.06973800  0.93026200  0.50000000  1
  O  O7  1  0.69475400  0.69392200  0.00000000  1
  O  O8  1  0.30607800  0.30524600  0.00000000  1
  O  O9  1  0.61997600  0.95475500  0.00000000  1
  O  O10  1  0.60142700  0.39857300  0.50000000  1
  O  O11  1  0.26531300  0.73468700  0.50000000  1
  O  O12  1  0.72989500  0.27010500  0.50000000  1
  O  O13  1  0.04524500  0.38002400  0.00000000  1
  F  F14  1  0.97201300  0.63805400  0.00000000  1
  F  F15  1  0.39856300  0.60143700  0.50000000  1
  F  F16  1  0.36194600  0.02798700  0.00000000  1
  F  F17  1  0.93399100  0.06600900  0.50000000  1
