# generated using pymatgen
data_Co6O7F5
_symmetry_space_group_name_H-M   'P 1'
_cell_length_a   4.63506500
_cell_length_b   5.48031417
_cell_length_c   7.46039188
_cell_angle_alpha   83.77057063
_cell_angle_beta   85.36716443
_cell_angle_gamma   83.52740164
_symmetry_Int_Tables_number   1
_chemical_formula_structural   Co6O7F5
_chemical_formula_sum   'Co6 O7 F5'
_cell_volume   186.73505875
_cell_formula_units_Z   1
loop_
 _symmetry_equiv_pos_site_id
 _symmetry_equiv_pos_as_xyz
  1  'x, y, z'
loop_
 _atom_site_type_symbol
 _atom_site_label
 _atom_site_symmetry_multiplicity
 _atom_site_fract_x
 _atom_site_fract_y
 _atom_site_fract_z
 _atom_site_occupancy
  Co  Co0  1  0.54315400  0.53228300  0.01632200  1
  Co  Co1  1  0.49929200  0.16615500  0.33061500  1
  Co  Co2  1  0.49444900  0.82844300  0.66406300  1
  Co  Co3  1  0.00127400  0.33354900  0.66925300  1
  Co  Co4  1  0.99116400  0.66702300  0.32373000  1
  Co  Co5  1  0.99264100  0.98846200  0.00193400  1
  O  O6  1  0.81507500  0.71333800  0.10676100  1
  O  O7  1  0.69110400  0.53800800  0.77318000  1
  O  O8  1  0.69434100  0.20481800  0.10444700  1
  O  O9  1  0.69096500  0.87301200  0.43030300  1
  O  O10  1  0.31213300  0.12868600  0.56057200  1
  O  O11  1  0.30519300  0.46549400  0.22959100  1
  O  O12  1  0.30487200  0.78787300  0.90024500  1
  F  F13  1  0.81038100  0.38471800  0.42730400  1
  F  F14  1  0.81032400  0.02670500  0.77841100  1
  F  F15  1  0.18030700  0.95341800  0.22818100  1
  F  F16  1  0.18068200  0.27164000  0.90582800  1
  F  F17  1  0.18264600  0.63637700  0.54926100  1
