# generated using pymatgen
data_YNb2NO5
_symmetry_space_group_name_H-M   'P 1'
_cell_length_a   14.99130100
_cell_length_b   5.27082500
_cell_length_c   5.95722461
_cell_angle_alpha   89.68926451
_cell_angle_beta   90.00000000
_cell_angle_gamma   90.00000000
_symmetry_Int_Tables_number   1
_chemical_formula_structural   YNb2NO5
_chemical_formula_sum   'Y4 Nb8 N4 O20'
_cell_volume   470.71225929
_cell_formula_units_Z   4
loop_
 _symmetry_equiv_pos_site_id
 _symmetry_equiv_pos_as_xyz
  1  'x, y, z'
loop_
 _atom_site_type_symbol
 _atom_site_label
 _atom_site_symmetry_multiplicity
 _atom_site_fract_x
 _atom_site_fract_y
 _atom_site_fract_z
 _atom_site_occupancy
  Y  Y0  1  0.25178100  0.73548300  0.70544700  1
  Y  Y1  1  0.25190600  0.25492800  0.29810800  1
  Y  Y2  1  0.74809400  0.25492800  0.79810800  1
  Y  Y3  1  0.74821900  0.73548300  0.20544700  1
  Nb  Nb4  1  0.42390900  0.25439900  0.81566700  1
  Nb  Nb5  1  0.41748100  0.77587300  0.18326800  1
  Nb  Nb6  1  0.58251900  0.77587300  0.68326800  1
  Nb  Nb7  1  0.57609100  0.25439900  0.31566700  1
  Nb  Nb8  1  0.91311400  0.72691800  0.68836800  1
  Nb  Nb9  1  0.91795400  0.22625500  0.31694700  1
  Nb  Nb10  1  0.08204600  0.22625500  0.81694700  1
  Nb  Nb11  1  0.08688600  0.72691800  0.18836800  1
  N  N12  1  0.49339000  0.09264100  0.11864400  1
  N  N13  1  0.50661000  0.09264100  0.61864400  1
  N  N14  1  0.83209500  0.60746300  0.88997700  1
  N  N15  1  0.16790500  0.60746300  0.38997700  1
  O  O16  1  0.33446800  0.89786100  0.39137800  1
  O  O17  1  0.33368300  0.39076500  0.61649100  1
  O  O18  1  0.34775000  0.96092300  0.91489800  1
  O  O19  1  0.34768200  0.47483800  0.08326600  1
  O  O20  1  0.49475600  0.59028400  0.86577700  1
  O  O21  1  0.50524400  0.59028400  0.36577700  1
  O  O22  1  0.65231800  0.47483800  0.58326600  1
  O  O23  1  0.65225000  0.96092300  0.41489800  1
  O  O24  1  0.66553200  0.89786100  0.89137800  1
  O  O25  1  0.66631700  0.39076500  0.11649100  1
  O  O26  1  0.83213100  0.10343900  0.11890400  1
  O  O27  1  0.84923000  0.04436300  0.58516800  1
  O  O28  1  0.85247500  0.53930800  0.41204200  1
  O  O29  1  0.99426500  0.40331900  0.63180300  1
  O  O30  1  0.99533400  0.92094000  0.36384700  1
  O  O31  1  0.00466600  0.92094000  0.86384700  1
  O  O32  1  0.00573500  0.40331900  0.13180300  1
  O  O33  1  0.14752500  0.53930800  0.91204200  1
  O  O34  1  0.15077000  0.04436300  0.08516800  1
  O  O35  1  0.16786900  0.10343900  0.61890400  1
