# generated using pymatgen
data_Cr3S4
_symmetry_space_group_name_H-M   'P 1'
_cell_length_a   3.44326906
_cell_length_b   5.94757233
_cell_length_c   11.09505679
_cell_angle_alpha   88.76586814
_cell_angle_beta   89.99998768
_cell_angle_gamma   90.00001234
_symmetry_Int_Tables_number   1
_chemical_formula_structural   Cr3S4
_chemical_formula_sum   'Cr6 S8'
_cell_volume   227.16397883
_cell_formula_units_Z   2
loop_
 _symmetry_equiv_pos_site_id
 _symmetry_equiv_pos_as_xyz
  1  'x, y, z'
loop_
 _atom_site_type_symbol
 _atom_site_label
 _atom_site_symmetry_multiplicity
 _atom_site_fract_x
 _atom_site_fract_y
 _atom_site_fract_z
 _atom_site_occupancy
  Cr  Cr0  1  0.00000000  0.99780300  0.00017200  1
  Cr  Cr1  1  0.50000000  0.50308900  0.50386900  1
  Cr  Cr2  1  0.50000000  0.46839600  0.23873700  1
  Cr  Cr3  1  0.00000000  0.98582900  0.74173400  1
  Cr  Cr4  1  0.00000000  0.03154900  0.25738400  1
  Cr  Cr5  1  0.50000000  0.51393000  0.75722500  1
  S  S6  1  0.00000000  0.33186900  0.11831500  1
  S  S7  1  0.50000000  0.83201900  0.62535900  1
  S  S8  1  0.50000000  0.84316200  0.13753800  1
  S  S9  1  0.00000000  0.34122800  0.63612300  1
  S  S10  1  0.00000000  0.65902600  0.36455300  1
  S  S11  1  0.50000000  0.15784800  0.86465700  1
  S  S12  1  0.50000000  0.16600800  0.38007800  1
  S  S13  1  0.00000000  0.66824300  0.87425500  1
