# generated using pymatgen
data_Sr2SmNbO6
_symmetry_space_group_name_H-M   'P 1'
_cell_length_a   6.03565000
_cell_length_b   5.89447600
_cell_length_c   10.24870961
_cell_angle_alpha   55.15869545
_cell_angle_beta   90.00000000
_cell_angle_gamma   90.00000000
_symmetry_Int_Tables_number   1
_chemical_formula_structural   Sr2SmNbO6
_chemical_formula_sum   'Sr4 Sm2 Nb2 O12'
_cell_volume   299.25592119
_cell_formula_units_Z   2
loop_
 _symmetry_equiv_pos_site_id
 _symmetry_equiv_pos_as_xyz
  1  'x, y, z'
loop_
 _atom_site_type_symbol
 _atom_site_label
 _atom_site_symmetry_multiplicity
 _atom_site_fract_x
 _atom_site_fract_y
 _atom_site_fract_z
 _atom_site_occupancy
  Sr  Sr0  1  0.95640900  0.74032500  0.74865700  1
  Sr  Sr1  1  0.45640900  0.25967500  0.75134300  1
  Sr  Sr2  1  0.04359100  0.25967500  0.25134300  1
  Sr  Sr3  1  0.54359100  0.74032500  0.24865700  1
  Sm  Sm4  1  0.50000000  0.00000000  0.50000000  1
  Sm  Sm5  1  0.00000000  0.00000000  0.00000000  1
  Nb  Nb6  1  0.50000000  0.50000000  0.00000000  1
  Nb  Nb7  1  0.00000000  0.50000000  0.50000000  1
  O  O8  1  0.22415000  0.36590900  0.94735700  1
  O  O9  1  0.72415000  0.63409100  0.55264300  1
  O  O10  1  0.77585000  0.63409100  0.05264300  1
  O  O11  1  0.27585000  0.36590900  0.44735700  1
  O  O12  1  0.96699100  0.82344300  0.26838600  1
  O  O13  1  0.46699100  0.17655700  0.23161400  1
  O  O14  1  0.03300900  0.17655700  0.73161400  1
  O  O15  1  0.53300900  0.82344300  0.76838600  1
  O  O16  1  0.30985800  0.73080400  0.04562100  1
  O  O17  1  0.80985800  0.26919600  0.45437900  1
  O  O18  1  0.69014200  0.26919600  0.95437900  1
  O  O19  1  0.19014200  0.73080400  0.54562100  1
