# generated using pymatgen
data_SrTaNO2
_symmetry_space_group_name_H-M   'P 1'
_cell_length_a   5.73540529
_cell_length_b   5.73540529
_cell_length_c   8.17597519
_cell_angle_alpha   89.95063945
_cell_angle_beta   89.95063945
_cell_angle_gamma   91.14223473
_symmetry_Int_Tables_number   1
_chemical_formula_structural   SrTaNO2
_chemical_formula_sum   'Sr4 Ta4 N4 O8'
_cell_volume   268.89402626
_cell_formula_units_Z   4
loop_
 _symmetry_equiv_pos_site_id
 _symmetry_equiv_pos_as_xyz
  1  'x, y, z'
loop_
 _atom_site_type_symbol
 _atom_site_label
 _atom_site_symmetry_multiplicity
 _atom_site_fract_x
 _atom_site_fract_y
 _atom_site_fract_z
 _atom_site_occupancy
  Sr  Sr0  1  0.00151600  0.99848400  0.50000000  1
  Sr  Sr1  1  0.50956400  0.49043600  0.50000000  1
  Sr  Sr2  1  0.49966300  0.50033700  0.00000000  1
  Sr  Sr3  1  0.99382800  0.00617200  0.00000000  1
  Ta  Ta4  1  0.48936200  0.00600000  0.24313200  1
  Ta  Ta5  1  0.50756600  0.99014700  0.75522400  1
  Ta  Ta6  1  0.99400000  0.51063800  0.75686800  1
  Ta  Ta7  1  0.00985300  0.49243400  0.24477600  1
  N  N8  1  0.77032000  0.77096600  0.74587000  1
  N  N9  1  0.47684500  0.97484500  0.00018700  1
  N  N10  1  0.02515500  0.52315500  0.99981300  1
  N  N11  1  0.22903400  0.22968000  0.25413000  1
  O  O12  1  0.77673800  0.77733000  0.25899100  1
  O  O13  1  0.96974000  0.47460700  0.49962400  1
  O  O14  1  0.27277200  0.72455100  0.71733400  1
  O  O15  1  0.72662300  0.27609300  0.23151800  1
  O  O16  1  0.27544900  0.72722800  0.28266600  1
  O  O17  1  0.72390700  0.27337700  0.76848200  1
  O  O18  1  0.52539300  0.03026000  0.50037600  1
  O  O19  1  0.22267000  0.22326200  0.74100900  1
