# generated using pymatgen
data_Li5Mn4(P2O7)4
_symmetry_space_group_name_H-M   'P 1'
_cell_length_a   9.71042603
_cell_length_b   9.71920964
_cell_length_c   11.26777943
_cell_angle_alpha   90.19477807
_cell_angle_beta   102.66668805
_cell_angle_gamma   89.40213088
_symmetry_Int_Tables_number   1
_chemical_formula_structural   Li5Mn4(P2O7)4
_chemical_formula_sum   'Li10 Mn8 P16 O56'
_cell_volume   1037.48809984
_cell_formula_units_Z   2
loop_
 _symmetry_equiv_pos_site_id
 _symmetry_equiv_pos_as_xyz
  1  'x, y, z'
loop_
 _atom_site_type_symbol
 _atom_site_label
 _atom_site_symmetry_multiplicity
 _atom_site_fract_x
 _atom_site_fract_y
 _atom_site_fract_z
 _atom_site_occupancy
  Li  Li0  1  0.17040900  0.42436500  0.54009800  1
  Li  Li1  1  0.40895000  0.60846600  0.97368600  1
  Li  Li2  1  0.33727900  0.92216400  0.46087000  1
  Li  Li3  1  0.64667800  0.06070200  0.52610400  1
  Li  Li4  1  0.58950100  0.39260200  0.03053700  1
  Li  Li5  1  0.85278000  0.58727700  0.95683100  1
  Li  Li6  1  0.64926600  0.08904800  0.04409500  1
  Li  Li7  1  0.91843800  0.90603200  0.97233100  1
  Li  Li8  1  0.82518900  0.58743700  0.45318200  1
  Li  Li9  1  0.88349300  0.28068600  0.54813900  1
  Mn  Mn10  1  0.19950000  0.92372800  0.67251800  1
  Mn  Mn11  1  0.25970000  0.21186100  0.82956600  1
  Mn  Mn12  1  0.23267100  0.72074600  0.17235500  1
  Mn  Mn13  1  0.29975200  0.42526600  0.32392700  1
  Mn  Mn14  1  0.70071700  0.57672300  0.67271100  1
  Mn  Mn15  1  0.76612500  0.27848500  0.83155000  1
  Mn  Mn16  1  0.74026800  0.78536500  0.17433100  1
  Mn  Mn17  1  0.79989400  0.07472800  0.32491300  1
  P  P18  1  0.02876200  0.44632600  0.75764100  1
  P  P19  1  0.11886700  0.71276000  0.88756100  1
  P  P20  1  0.06646700  0.92677800  0.24250300  1
  P  P21  1  0.12349700  0.14838900  0.42562300  1
  P  P22  1  0.37776800  0.64620700  0.57491800  1
  P  P23  1  0.43684900  0.42821000  0.75927100  1
  P  P24  1  0.52137600  0.05424300  0.75597100  1
  P  P25  1  0.37773400  0.21029500  0.11047700  1
  P  P26  1  0.61531200  0.79256400  0.89286400  1
  P  P27  1  0.47253800  0.94471100  0.24506200  1
  P  P28  1  0.56361800  0.57284000  0.23973500  1
  P  P29  1  0.62087200  0.35087500  0.41866000  1
  P  P30  1  0.87884000  0.85036400  0.57941100  1
  P  P31  1  0.93226100  0.07244800  0.75758300  1
  P  P32  1  0.89107900  0.28852000  0.10817900  1
  P  P33  1  0.97554700  0.55216700  0.24596500  1
  O  O34  1  0.01970600  0.41901100  0.62403300  1
  O  O35  1  0.03527200  0.84156000  0.57342700  1
  O  O36  1  0.08032200  0.08487100  0.72917600  1
  O  O37  1  0.11640500  0.34089200  0.84503800  1
  O  O38  1  0.10558700  0.58980200  0.78716100  1
  O  O39  1  0.17739300  0.82988300  0.82516200  1
  O  O40  1  0.22594800  0.65970500  0.00370700  1
  O  O41  1  0.02858600  0.26528700  0.07692000  1
  O  O42  1  0.12197300  0.07399600  0.29582900  1
  O  O43  1  0.06808000  0.91538500  0.10938700  1
  O  O44  1  0.12874200  0.55068400  0.21753300  1
  O  O45  1  0.18282300  0.29088300  0.41326900  1
  O  O46  1  0.17962900  0.81953900  0.30865600  1
  O  O47  1  0.21313300  0.05464400  0.52239900  1
  O  O48  1  0.28841700  0.55704300  0.47550100  1
  O  O49  1  0.32696500  0.31724300  0.70205100  1
  O  O50  1  0.32084500  0.79166300  0.58830100  1
  O  O51  1  0.36662600  0.04663900  0.78183100  1
  O  O52  1  0.36991400  0.57197000  0.70197100  1
  O  O53  1  0.44176200  0.43708500  0.89403700  1
  O  O54  1  0.47603300  0.76923400  0.92286100  1
  O  O55  1  0.27438100  0.15941600  0.99405000  1
  O  O56  1  0.32158100  0.33127000  0.17389300  1
  O  O57  1  0.39446100  0.08871500  0.21024500  1
  O  O58  1  0.41973100  0.59076900  0.27279900  1
  O  O59  1  0.38553300  0.83783600  0.15995300  1
  O  O60  1  0.52142100  0.08322000  0.62660300  1
  O  O61  1  0.46650300  0.34537000  0.42712400  1
  O  O62  1  0.53463200  0.65382000  0.57025900  1
  O  O63  1  0.48654800  0.92932000  0.37925300  1
  O  O64  1  0.60949300  0.15099600  0.85358400  1
  O  O65  1  0.58373600  0.41290900  0.72653600  1
  O  O66  1  0.59483100  0.90493700  0.78425900  1
  O  O67  1  0.68761300  0.67058700  0.84308200  1
  O  O68  1  0.72459000  0.85968400  0.00497500  1
  O  O69  1  0.52374600  0.22909700  0.08643500  1
  O  O70  1  0.56440200  0.56689900  0.10587900  1
  O  O71  1  0.62796000  0.42566500  0.29275900  1
  O  O72  1  0.62384500  0.95067000  0.20956400  1
  O  O73  1  0.68229800  0.20510800  0.41025000  1
  O  O74  1  0.67580400  0.68080400  0.30085500  1
  O  O75  1  0.72146900  0.43264500  0.51744900  1
  O  O76  1  0.78924400  0.93895200  0.47998500  1
  O  O77  1  0.83033700  0.18604200  0.68812500  1
  O  O78  1  0.82250100  0.70497900  0.59249800  1
  O  O79  1  0.87622800  0.45855400  0.78702000  1
  O  O80  1  0.91725300  0.07837600  0.88815800  1
  O  O81  1  0.87101100  0.92562800  0.70647900  1
  O  O82  1  0.97472100  0.73111300  0.91514900  1
  O  O83  1  0.77715700  0.35632900  0.99788100  1
  O  O84  1  0.81572600  0.17083000  0.16036000  1
  O  O85  1  0.90628600  0.40426000  0.21697100  1
  O  O86  1  0.88179700  0.65058600  0.14939900  1
  O  O87  1  0.91760000  0.91126200  0.27150500  1
  O  O88  1  0.96863900  0.16166400  0.43724300  1
  O  O89  1  0.97617000  0.58032200  0.37640500  1
