# generated using pymatgen
data_CsCrH24(SO10)2
_symmetry_space_group_name_H-M   'P 1'
_cell_length_a   12.47477562
_cell_length_b   12.47477562
_cell_length_c   12.47477562
_cell_angle_alpha   90.00000000
_cell_angle_beta   90.00000000
_cell_angle_gamma   90.00000000
_symmetry_Int_Tables_number   1
_chemical_formula_structural   CsCrH24(SO10)2
_chemical_formula_sum   'Cs4 Cr4 H96 S8 O80'
_cell_volume   1941.32491593
_cell_formula_units_Z   4
loop_
 _symmetry_equiv_pos_site_id
 _symmetry_equiv_pos_as_xyz
  1  'x, y, z'
loop_
 _atom_site_type_symbol
 _atom_site_label
 _atom_site_symmetry_multiplicity
 _atom_site_fract_x
 _atom_site_fract_y
 _atom_site_fract_z
 _atom_site_occupancy
  Cs  Cs0  1  0.00000000  0.00000000  0.50000000  1
  Cs  Cs1  1  0.00000000  0.50000000  0.00000000  1
  Cs  Cs2  1  0.50000000  0.50000000  0.50000000  1
  Cs  Cs3  1  0.50000000  0.00000000  0.00000000  1
  Cr  Cr4  1  0.00000000  0.00000000  0.00000000  1
  Cr  Cr5  1  0.00000000  0.50000000  0.50000000  1
  Cr  Cr6  1  0.50000000  0.00000000  0.50000000  1
  Cr  Cr7  1  0.50000000  0.50000000  0.00000000  1
  H  H8  1  0.01956005  0.29264670  0.43405199  1
  H  H9  1  0.01956005  0.20735330  0.93405199  1
  H  H10  1  0.02379486  0.70364846  0.43942703  1
  H  H11  1  0.02379486  0.79635154  0.93942703  1
  H  H12  1  0.00597067  0.23178195  0.27744332  1
  H  H13  1  0.00597067  0.26821805  0.77744332  1
  H  H14  1  0.06057297  0.97620514  0.20364846  1
  H  H15  1  0.06057297  0.52379486  0.70364846  1
  H  H16  1  0.06594801  0.51956005  0.29264670  1
  H  H17  1  0.06594801  0.98043995  0.79264670  1
  H  H18  1  0.12347418  0.22261759  0.32011929  1
  H  H19  1  0.12347418  0.27738241  0.82011929  1
  H  H20  1  0.17988071  0.62347418  0.22261759  1
  H  H21  1  0.17988071  0.87652582  0.72261759  1
  H  H22  1  0.20735330  0.56594801  0.51956005  1
  H  H23  1  0.20735330  0.93405199  0.01956005  1
  H  H24  1  0.20364846  0.06057297  0.97620514  1
  H  H25  1  0.20364846  0.43942703  0.47620514  1
  H  H26  1  0.22255668  0.50597067  0.23178195  1
  H  H27  1  0.22255668  0.99402933  0.73178195  1
  H  H28  1  0.22261759  0.17988071  0.62347418  1
  H  H29  1  0.22261759  0.32011929  0.12347418  1
  H  H30  1  0.23178195  0.27744332  0.00597067  1
  H  H31  1  0.23178195  0.22255668  0.50597067  1
  H  H32  1  0.26821805  0.72255668  0.50597067  1
  H  H33  1  0.26821805  0.77744332  0.00597067  1
  H  H34  1  0.27738241  0.82011929  0.12347418  1
  H  H35  1  0.27738241  0.67988071  0.62347418  1
  H  H36  1  0.27744332  0.00597067  0.23178195  1
  H  H37  1  0.27744332  0.49402933  0.73178195  1
  H  H38  1  0.29635154  0.56057297  0.97620514  1
  H  H39  1  0.29635154  0.93942703  0.47620514  1
  H  H40  1  0.29264670  0.06594801  0.51956005  1
  H  H41  1  0.29264670  0.43405199  0.01956005  1
  H  H42  1  0.32011929  0.12347418  0.22261759  1
  H  H43  1  0.32011929  0.37652582  0.72261759  1
  H  H44  1  0.37652582  0.72261759  0.32011929  1
  H  H45  1  0.37652582  0.77738241  0.82011929  1
  H  H46  1  0.43405199  0.01956005  0.29264670  1
  H  H47  1  0.43405199  0.48043995  0.79264670  1
  H  H48  1  0.43942703  0.47620514  0.20364846  1
  H  H49  1  0.43942703  0.02379486  0.70364846  1
  H  H50  1  0.49402933  0.73178195  0.27744332  1
  H  H51  1  0.49402933  0.76821805  0.77744332  1
  H  H52  1  0.47620514  0.20364846  0.43942703  1
  H  H53  1  0.47620514  0.29635154  0.93942703  1
  H  H54  1  0.48043995  0.79264670  0.43405199  1
  H  H55  1  0.48043995  0.70735330  0.93405199  1
  H  H56  1  0.51956005  0.20735330  0.56594801  1
  H  H57  1  0.51956005  0.29264670  0.06594801  1
  H  H58  1  0.52379486  0.70364846  0.06057297  1
  H  H59  1  0.52379486  0.79635154  0.56057297  1
  H  H60  1  0.50597067  0.23178195  0.22255668  1
  H  H61  1  0.50597067  0.26821805  0.72255668  1
  H  H62  1  0.56057297  0.97620514  0.29635154  1
  H  H63  1  0.56057297  0.52379486  0.79635154  1
  H  H64  1  0.56594801  0.51956005  0.20735330  1
  H  H65  1  0.56594801  0.98043995  0.70735330  1
  H  H66  1  0.62347418  0.22261759  0.17988071  1
  H  H67  1  0.62347418  0.27738241  0.67988071  1
  H  H68  1  0.67988071  0.62347418  0.27738241  1
  H  H69  1  0.67988071  0.87652582  0.77738241  1
  H  H70  1  0.70735330  0.56594801  0.98043995  1
  H  H71  1  0.70735330  0.93405199  0.48043995  1
  H  H72  1  0.70364846  0.06057297  0.52379486  1
  H  H73  1  0.70364846  0.43942703  0.02379486  1
  H  H74  1  0.72255668  0.99402933  0.76821805  1
  H  H75  1  0.72255668  0.50597067  0.26821805  1
  H  H76  1  0.72261759  0.17988071  0.87652582  1
  H  H77  1  0.72261759  0.32011929  0.37652582  1
  H  H78  1  0.73178195  0.22255668  0.99402933  1
  H  H79  1  0.73178195  0.27744332  0.49402933  1
  H  H80  1  0.76821805  0.72255668  0.99402933  1
  H  H81  1  0.76821805  0.77744332  0.49402933  1
  H  H82  1  0.77738241  0.67988071  0.87652582  1
  H  H83  1  0.77738241  0.82011929  0.37652582  1
  H  H84  1  0.77744332  0.00597067  0.26821805  1
  H  H85  1  0.77744332  0.49402933  0.76821805  1
  H  H86  1  0.79635154  0.93942703  0.02379486  1
  H  H87  1  0.79635154  0.56057297  0.52379486  1
  H  H88  1  0.79264670  0.06594801  0.98043995  1
  H  H89  1  0.79264670  0.43405199  0.48043995  1
  H  H90  1  0.82011929  0.12347418  0.27738241  1
  H  H91  1  0.82011929  0.37652582  0.77738241  1
  H  H92  1  0.87652582  0.72261759  0.17988071  1
  H  H93  1  0.87652582  0.77738241  0.67988071  1
  H  H94  1  0.93405199  0.01956005  0.20735330  1
  H  H95  1  0.93405199  0.48043995  0.70735330  1
  H  H96  1  0.93942703  0.02379486  0.79635154  1
  H  H97  1  0.93942703  0.47620514  0.29635154  1
  H  H98  1  0.99402933  0.73178195  0.22255668  1
  H  H99  1  0.99402933  0.76821805  0.72255668  1
  H  H100  1  0.97620514  0.20364846  0.06057297  1
  H  H101  1  0.97620514  0.29635154  0.56057297  1
  H  H102  1  0.98043995  0.70735330  0.56594801  1
  H  H103  1  0.98043995  0.79264670  0.06594801  1
  S  S104  1  0.17289207  0.67289207  0.82710793  1
  S  S105  1  0.17289207  0.82710793  0.32710793  1
  S  S106  1  0.32710793  0.32710793  0.32710793  1
  S  S107  1  0.32710793  0.17289207  0.82710793  1
  S  S108  1  0.67289207  0.67289207  0.67289207  1
  S  S109  1  0.67289207  0.82710793  0.17289207  1
  S  S110  1  0.82710793  0.17289207  0.67289207  1
  S  S111  1  0.82710793  0.32710793  0.17289207  1
  O  O112  1  0.00074135  0.84013906  0.00228110  1
  O  O113  1  0.00074135  0.65986094  0.50228110  1
  O  O114  1  0.99925865  0.34013906  0.49771890  1
  O  O115  1  0.99925865  0.15986094  0.99771890  1
  O  O116  1  0.00228110  0.00074135  0.84013906  1
  O  O117  1  0.00228110  0.49925865  0.34013906  1
  O  O118  1  0.04806403  0.21242948  0.34216703  1
  O  O119  1  0.04806403  0.28757052  0.84216703  1
  O  O120  1  0.06329636  0.77925159  0.33645268  1
  O  O121  1  0.06329636  0.72074841  0.83645268  1
  O  O122  1  0.15986094  0.99771890  0.99925865  1
  O  O123  1  0.15986094  0.50228110  0.49925865  1
  O  O124  1  0.15783297  0.95193597  0.71242948  1
  O  O125  1  0.15783297  0.54806403  0.21242948  1
  O  O126  1  0.16354732  0.56329636  0.77925159  1
  O  O127  1  0.16354732  0.93670364  0.27925159  1
  O  O128  1  0.21242948  0.15783297  0.54806403  1
  O  O129  1  0.21242948  0.34216703  0.04806403  1
  O  O130  1  0.22074841  0.83645268  0.43670364  1
  O  O131  1  0.22074841  0.66354732  0.93670364  1
  O  O132  1  0.24212411  0.75787589  0.25787589  1
  O  O133  1  0.24212411  0.74212411  0.75787589  1
  O  O134  1  0.25787589  0.24212411  0.75787589  1
  O  O135  1  0.25787589  0.25787589  0.25787589  1
  O  O136  1  0.27925159  0.16354732  0.93670364  1
  O  O137  1  0.27925159  0.33645268  0.43670364  1
  O  O138  1  0.28757052  0.65783297  0.54806403  1
  O  O139  1  0.28757052  0.84216703  0.04806403  1
  O  O140  1  0.33645268  0.43670364  0.27925159  1
  O  O141  1  0.33645268  0.06329636  0.77925159  1
  O  O142  1  0.34216703  0.04806403  0.21242948  1
  O  O143  1  0.34216703  0.45193597  0.71242948  1
  O  O144  1  0.34013906  0.00228110  0.49925865  1
  O  O145  1  0.34013906  0.49771890  0.99925865  1
  O  O146  1  0.43670364  0.27925159  0.33645268  1
  O  O147  1  0.43670364  0.22074841  0.83645268  1
  O  O148  1  0.45193597  0.71242948  0.34216703  1
  O  O149  1  0.45193597  0.78757052  0.84216703  1
  O  O150  1  0.49771890  0.99925865  0.34013906  1
  O  O151  1  0.49771890  0.50074135  0.84013906  1
  O  O152  1  0.50074135  0.84013906  0.49771890  1
  O  O153  1  0.50074135  0.65986094  0.99771890  1
  O  O154  1  0.49925865  0.15986094  0.50228110  1
  O  O155  1  0.49925865  0.34013906  0.00228110  1
  O  O156  1  0.50228110  0.49925865  0.15986094  1
  O  O157  1  0.50228110  0.00074135  0.65986094  1
  O  O158  1  0.54806403  0.21242948  0.15783297  1
  O  O159  1  0.54806403  0.28757052  0.65783297  1
  O  O160  1  0.56329636  0.77925159  0.16354732  1
  O  O161  1  0.56329636  0.72074841  0.66354732  1
  O  O162  1  0.65986094  0.99771890  0.50074135  1
  O  O163  1  0.65986094  0.50228110  0.00074135  1
  O  O164  1  0.65783297  0.54806403  0.28757052  1
  O  O165  1  0.65783297  0.95193597  0.78757052  1
  O  O166  1  0.66354732  0.93670364  0.22074841  1
  O  O167  1  0.66354732  0.56329636  0.72074841  1
  O  O168  1  0.71242948  0.15783297  0.95193597  1
  O  O169  1  0.71242948  0.34216703  0.45193597  1
  O  O170  1  0.72074841  0.66354732  0.56329636  1
  O  O171  1  0.72074841  0.83645268  0.06329636  1
  O  O172  1  0.74212411  0.74212411  0.74212411  1
  O  O173  1  0.74212411  0.75787589  0.24212411  1
  O  O174  1  0.75787589  0.24212411  0.74212411  1
  O  O175  1  0.75787589  0.25787589  0.24212411  1
  O  O176  1  0.77925159  0.16354732  0.56329636  1
  O  O177  1  0.77925159  0.33645268  0.06329636  1
  O  O178  1  0.78757052  0.65783297  0.95193597  1
  O  O179  1  0.78757052  0.84216703  0.45193597  1
  O  O180  1  0.83645268  0.06329636  0.72074841  1
  O  O181  1  0.83645268  0.43670364  0.22074841  1
  O  O182  1  0.84216703  0.04806403  0.28757052  1
  O  O183  1  0.84216703  0.45193597  0.78757052  1
  O  O184  1  0.84013906  0.00228110  0.00074135  1
  O  O185  1  0.84013906  0.49771890  0.50074135  1
  O  O186  1  0.93670364  0.22074841  0.66354732  1
  O  O187  1  0.93670364  0.27925159  0.16354732  1
  O  O188  1  0.95193597  0.71242948  0.15783297  1
  O  O189  1  0.95193597  0.78757052  0.65783297  1
  O  O190  1  0.99771890  0.99925865  0.15986094  1
  O  O191  1  0.99771890  0.50074135  0.65986094  1
