# generated using pymatgen
data_V6O11
_symmetry_space_group_name_H-M   'P 1'
_cell_length_a   5.86665524
_cell_length_b   5.86665524
_cell_length_c   13.40120300
_cell_angle_alpha   90.00000000
_cell_angle_beta   90.00000000
_cell_angle_gamma   121.06866724
_symmetry_Int_Tables_number   1
_chemical_formula_structural   V6O11
_chemical_formula_sum   'V12 O22'
_cell_volume   395.07299884
_cell_formula_units_Z   2
loop_
 _symmetry_equiv_pos_site_id
 _symmetry_equiv_pos_as_xyz
  1  'x, y, z'
loop_
 _atom_site_type_symbol
 _atom_site_label
 _atom_site_symmetry_multiplicity
 _atom_site_fract_x
 _atom_site_fract_y
 _atom_site_fract_z
 _atom_site_occupancy
  V  V0  1  0.99935400  0.00064600  0.64878700  1
  V  V1  1  0.99935400  0.00064600  0.85121300  1
  V  V2  1  0.50000000  0.50000000  0.50000000  1
  V  V3  1  0.50000000  0.00000000  0.50000000  1
  V  V4  1  0.00000000  0.50000000  0.50000000  1
  V  V5  1  0.66926400  0.33073600  0.25000000  1
  V  V6  1  0.33073600  0.66926400  0.75000000  1
  V  V7  1  0.00000000  0.50000000  0.00000000  1
  V  V8  1  0.50000000  0.00000000  0.00000000  1
  V  V9  1  0.50000000  0.50000000  0.00000000  1
  V  V10  1  0.00064600  0.99935400  0.35121300  1
  V  V11  1  0.00064600  0.99935400  0.14878700  1
  O  O12  1  0.15632200  0.30150200  0.75000000  1
  O  O13  1  0.84015400  0.15984600  0.25000000  1
  O  O14  1  0.17184100  0.34245500  0.42617400  1
  O  O15  1  0.17184100  0.34245500  0.07382600  1
  O  O16  1  0.82465400  0.17534600  0.57445900  1
  O  O17  1  0.82465400  0.17534600  0.92554100  1
  O  O18  1  0.69849800  0.84367800  0.75000000  1
  O  O19  1  0.65754500  0.82815900  0.42617400  1
  O  O20  1  0.33344700  0.66655300  0.91369600  1
  O  O21  1  0.33344700  0.66655300  0.58630400  1
  O  O22  1  0.65754500  0.82815900  0.07382600  1
  O  O23  1  0.34245500  0.17184100  0.57382600  1
  O  O24  1  0.66655300  0.33344700  0.08630400  1
  O  O25  1  0.66655300  0.33344700  0.41369600  1
  O  O26  1  0.34245500  0.17184100  0.92617400  1
  O  O27  1  0.30150200  0.15632200  0.25000000  1
  O  O28  1  0.17534600  0.82465400  0.42554100  1
  O  O29  1  0.17534600  0.82465400  0.07445900  1
  O  O30  1  0.82815900  0.65754500  0.57382600  1
  O  O31  1  0.82815900  0.65754500  0.92617400  1
  O  O32  1  0.15984600  0.84015400  0.75000000  1
  O  O33  1  0.84367800  0.69849800  0.25000000  1
