# generated using pymatgen
data_Co3P4O15
_symmetry_space_group_name_H-M   'P 1'
_cell_length_a   6.32422800
_cell_length_b   10.58157000
_cell_length_c   17.83846900
_cell_angle_alpha   90.00000000
_cell_angle_beta   90.00000000
_cell_angle_gamma   90.00000000
_symmetry_Int_Tables_number   1
_chemical_formula_structural   Co3P4O15
_chemical_formula_sum   'Co12 P16 O60'
_cell_volume   1193.75500628
_cell_formula_units_Z   4
loop_
 _symmetry_equiv_pos_site_id
 _symmetry_equiv_pos_as_xyz
  1  'x, y, z'
loop_
 _atom_site_type_symbol
 _atom_site_label
 _atom_site_symmetry_multiplicity
 _atom_site_fract_x
 _atom_site_fract_y
 _atom_site_fract_z
 _atom_site_occupancy
  Co  Co0  1  0.08735800  0.50304100  0.12907800  1
  Co  Co1  1  0.10767300  0.99405500  0.16152300  1
  Co  Co2  1  0.81617900  0.25649400  0.23903600  1
  Co  Co3  1  0.31617900  0.75649400  0.26096400  1
  Co  Co4  1  0.60767300  0.49405500  0.33847700  1
  Co  Co5  1  0.58735800  0.00304100  0.37092200  1
  Co  Co6  1  0.08735800  0.99695900  0.62907800  1
  Co  Co7  1  0.10767300  0.50594500  0.66152300  1
  Co  Co8  1  0.81617900  0.24350600  0.73903600  1
  Co  Co9  1  0.31617900  0.74350600  0.76096400  1
  Co  Co10  1  0.60767300  0.00594500  0.83847700  1
  Co  Co11  1  0.58735800  0.49695900  0.87092200  1
  P  P12  1  0.14391300  0.77078500  0.05022100  1
  P  P13  1  0.96266100  0.23379300  0.07257200  1
  P  P14  1  0.58851500  0.52087300  0.18174500  1
  P  P15  1  0.60218200  0.99654600  0.20978200  1
  P  P16  1  0.10218200  0.49654600  0.29021800  1
  P  P17  1  0.08851500  0.02087300  0.31825500  1
  P  P18  1  0.46266100  0.73379300  0.42742800  1
  P  P19  1  0.64391300  0.27078500  0.44977900  1
  P  P20  1  0.14391300  0.72921500  0.55022100  1
  P  P21  1  0.96266100  0.26620700  0.57257200  1
  P  P22  1  0.58851500  0.97912700  0.68174500  1
  P  P23  1  0.60218200  0.50345400  0.70978200  1
  P  P24  1  0.10218200  0.00345400  0.79021800  1
  P  P25  1  0.08851500  0.47912700  0.81825500  1
  P  P26  1  0.46266100  0.76620700  0.92742800  1
  P  P27  1  0.64391300  0.22921500  0.94977900  1
  O  O28  1  0.97123600  0.84245700  0.00943000  1
  O  O29  1  0.36660200  0.79645500  0.00831500  1
  O  O30  1  0.10424700  0.62814600  0.04747100  1
  O  O31  1  0.08223800  0.35819000  0.06303700  1
  O  O32  1  0.10385600  0.11882800  0.08850000  1
  O  O33  1  0.78549100  0.24234800  0.13186900  1
  O  O34  1  0.39459300  0.49856800  0.13259000  1
  O  O35  1  0.18276200  0.81800500  0.13068500  1
  O  O36  1  0.78915600  0.54110400  0.13524800  1
  O  O37  1  0.41486200  0.01889300  0.15923100  1
  O  O38  1  0.79864700  0.96589300  0.16417000  1
  O  O39  1  0.62094100  0.40436900  0.23691400  1
  O  O40  1  0.55446100  0.62967700  0.24061900  1
  O  O41  1  0.05200400  0.39018800  0.22986800  1
  O  O42  1  0.13287800  0.61632900  0.23674100  1
  O  O43  1  0.63287800  0.11632900  0.26325900  1
  O  O44  1  0.55200400  0.89018800  0.27013200  1
  O  O45  1  0.05446100  0.12967700  0.25938100  1
  O  O46  1  0.12094100  0.90436900  0.26308600  1
  O  O47  1  0.29864700  0.46589300  0.33583000  1
  O  O48  1  0.91486200  0.51889300  0.34076900  1
  O  O49  1  0.28915600  0.04110400  0.36475200  1
  O  O50  1  0.68276200  0.31800500  0.36931500  1
  O  O51  1  0.89459300  0.99856800  0.36741000  1
  O  O52  1  0.28549100  0.74234800  0.36813100  1
  O  O53  1  0.60385600  0.61882800  0.41150000  1
  O  O54  1  0.58223800  0.85819000  0.43696300  1
  O  O55  1  0.60424700  0.12814600  0.45252900  1
  O  O56  1  0.86660200  0.29645500  0.49168500  1
  O  O57  1  0.47123600  0.34245700  0.49057000  1
  O  O58  1  0.97123600  0.65754300  0.50943000  1
  O  O59  1  0.36660200  0.70354500  0.50831500  1
  O  O60  1  0.10424700  0.87185400  0.54747100  1
  O  O61  1  0.08223800  0.14181000  0.56303700  1
  O  O62  1  0.10385600  0.38117200  0.58850000  1
  O  O63  1  0.78549100  0.25765200  0.63186900  1
  O  O64  1  0.39459300  0.00143200  0.63259000  1
  O  O65  1  0.18276200  0.68199500  0.63068500  1
  O  O66  1  0.78915600  0.95889600  0.63524800  1
  O  O67  1  0.41486200  0.48110700  0.65923100  1
  O  O68  1  0.79864700  0.53410700  0.66417000  1
  O  O69  1  0.62094100  0.09563100  0.73691400  1
  O  O70  1  0.55446100  0.87032300  0.74061900  1
  O  O71  1  0.05200400  0.10981200  0.72986800  1
  O  O72  1  0.13287800  0.88367100  0.73674100  1
  O  O73  1  0.63287800  0.38367100  0.76325900  1
  O  O74  1  0.55200400  0.60981200  0.77013200  1
  O  O75  1  0.05446100  0.37032300  0.75938100  1
  O  O76  1  0.12094100  0.59563100  0.76308600  1
  O  O77  1  0.29864700  0.03410700  0.83583000  1
  O  O78  1  0.91486200  0.98110700  0.84076900  1
  O  O79  1  0.28915600  0.45889600  0.86475200  1
  O  O80  1  0.68276200  0.18199500  0.86931500  1
  O  O81  1  0.89459300  0.50143200  0.86741000  1
  O  O82  1  0.28549100  0.75765200  0.86813100  1
  O  O83  1  0.60385600  0.88117200  0.91150000  1
  O  O84  1  0.58223800  0.64181000  0.93696300  1
  O  O85  1  0.60424700  0.37185400  0.95252900  1
  O  O86  1  0.86660200  0.20354500  0.99168500  1
  O  O87  1  0.47123600  0.15754300  0.99057000  1
