# generated using pymatgen
data_NiH12S2(NO5)2
_symmetry_space_group_name_H-M   'P 1'
_cell_length_a   6.67255713
_cell_length_b   11.47744474
_cell_length_c   13.72645729
_cell_angle_alpha   99.93330082
_cell_angle_beta   88.99395113
_cell_angle_gamma   100.98319741
_symmetry_Int_Tables_number   1
_chemical_formula_structural   NiH12S2(NO5)2
_chemical_formula_sum   'Ni4 H48 S8 N8 O40'
_cell_volume   1016.37311114
_cell_formula_units_Z   4
loop_
 _symmetry_equiv_pos_site_id
 _symmetry_equiv_pos_as_xyz
  1  'x, y, z'
loop_
 _atom_site_type_symbol
 _atom_site_label
 _atom_site_symmetry_multiplicity
 _atom_site_fract_x
 _atom_site_fract_y
 _atom_site_fract_z
 _atom_site_occupancy
  Ni  Ni0  1  0.99968300  0.00022000  0.50006300  1
  Ni  Ni1  1  0.50017700  0.49991600  0.25005200  1
  Ni  Ni2  1  0.00004900  0.00010600  0.00011300  1
  Ni  Ni3  1  0.49994000  0.49987000  0.74992100  1
  H  H4  1  0.39571100  0.10325200  0.07596500  1
  H  H5  1  0.39556400  0.10318500  0.57587900  1
  H  H6  1  0.89573700  0.60321400  0.32597700  1
  H  H7  1  0.89553300  0.60318600  0.82594200  1
  H  H8  1  0.10429800  0.39673700  0.67404500  1
  H  H9  1  0.10449700  0.39681600  0.17412500  1
  H  H10  1  0.60446800  0.89680300  0.92406700  1
  H  H11  1  0.60432800  0.89677900  0.42402700  1
  H  H12  1  0.82054000  0.12188600  0.15295200  1
  H  H13  1  0.82043500  0.12181500  0.65296900  1
  H  H14  1  0.32067800  0.62172700  0.40291200  1
  H  H15  1  0.32060500  0.62162900  0.90287900  1
  H  H16  1  0.67944300  0.37809200  0.59704500  1
  H  H17  1  0.67956500  0.37819700  0.09703900  1
  H  H18  1  0.17937000  0.87834800  0.84712000  1
  H  H19  1  0.17931900  0.87829700  0.34709100  1
  H  H20  1  0.38848000  0.09154500  0.45919400  1
  H  H21  1  0.38857700  0.09155400  0.95927400  1
  H  H22  1  0.88850900  0.59157200  0.70925100  1
  H  H23  1  0.88855400  0.59161000  0.20928500  1
  H  H24  1  0.11155200  0.40846600  0.29082000  1
  H  H25  1  0.11145500  0.40845300  0.79073600  1
  H  H26  1  0.61146500  0.90838500  0.54072300  1
  H  H27  1  0.61152000  0.90844300  0.04075900  1
  H  H28  1  0.05388300  0.12598200  0.18201300  1
  H  H29  1  0.05382500  0.12591400  0.68199200  1
  H  H30  1  0.55394900  0.62591000  0.43204100  1
  H  H31  1  0.55392100  0.62586000  0.93196500  1
  H  H32  1  0.44611600  0.37401200  0.56799600  1
  H  H33  1  0.44617900  0.37407900  0.06803100  1
  H  H34  1  0.94607600  0.87412600  0.81804300  1
  H  H35  1  0.94607500  0.87411300  0.31799200  1
  H  H36  1  0.80878300  0.13554600  0.40400400  1
  H  H37  1  0.80888100  0.13552600  0.90406500  1
  H  H38  1  0.30876500  0.63552300  0.65411200  1
  H  H39  1  0.30888100  0.63545100  0.15410300  1
  H  H40  1  0.69125300  0.36446000  0.34597900  1
  H  H41  1  0.69110700  0.36446100  0.84594900  1
  H  H42  1  0.19114600  0.86452500  0.59587000  1
  H  H43  1  0.19122900  0.86448200  0.09590700  1
  H  H44  1  0.04756100  0.13707500  0.36520500  1
  H  H45  1  0.04765500  0.13711900  0.86525000  1
  H  H46  1  0.54750000  0.63705400  0.61528800  1
  H  H47  1  0.54763500  0.63704400  0.11527200  1
  H  H48  1  0.45249100  0.36294300  0.38478200  1
  H  H49  1  0.45230600  0.36287700  0.88473200  1
  H  H50  1  0.95240800  0.86295100  0.63470000  1
  H  H51  1  0.95246900  0.86295600  0.13470200  1
  S  S52  1  0.47329500  0.19818400  0.27809100  1
  S  S53  1  0.47325700  0.19814600  0.77808000  1
  S  S54  1  0.97320600  0.69817700  0.52804800  1
  S  S55  1  0.97318900  0.69816500  0.02803800  1
  S  S56  1  0.02674200  0.30182200  0.47190500  1
  S  S57  1  0.02671300  0.30184600  0.97191100  1
  S  S58  1  0.52684100  0.80183100  0.72195200  1
  S  S59  1  0.52674500  0.80180000  0.22191200  1
  N  N60  1  0.54030600  0.34908000  0.32243100  1
  N  N61  1  0.54016300  0.34902400  0.82239500  1
  N  N62  1  0.04019500  0.84910100  0.57233500  1
  N  N63  1  0.04029100  0.84909500  0.07235200  1
  N  N64  1  0.95973100  0.15093800  0.42755200  1
  N  N65  1  0.95983900  0.15096600  0.92760100  1
  N  N66  1  0.45971400  0.65090600  0.67765000  1
  N  N67  1  0.45983900  0.65089100  0.17762900  1
  O  O68  1  0.25125600  0.17783200  0.26529900  1
  O  O69  1  0.25123300  0.17780000  0.76529000  1
  O  O70  1  0.75117200  0.67782400  0.51531000  1
  O  O71  1  0.75116600  0.67785500  0.01531800  1
  O  O72  1  0.24874300  0.32216900  0.48469800  1
  O  O73  1  0.24874900  0.32222300  0.98469300  1
  O  O74  1  0.74886100  0.82212700  0.73465500  1
  O  O75  1  0.74876100  0.82218400  0.23470200  1
  O  O76  1  0.93602300  0.07921300  0.14086600  1
  O  O77  1  0.93595400  0.07917400  0.64084500  1
  O  O78  1  0.43625100  0.57911100  0.39079800  1
  O  O79  1  0.43615600  0.57901500  0.89078500  1
  O  O80  1  0.56398400  0.42078400  0.60913900  1
  O  O81  1  0.56405100  0.42083600  0.10917000  1
  O  O82  1  0.06387100  0.92097400  0.85922500  1
  O  O83  1  0.06377200  0.92092500  0.35922000  1
  O  O84  1  0.58078100  0.17756900  0.18443500  1
  O  O85  1  0.58077900  0.17755200  0.68441300  1
  O  O86  1  0.08049600  0.67744200  0.43431700  1
  O  O87  1  0.08042900  0.67742200  0.93430300  1
  O  O88  1  0.91922500  0.32243000  0.56556900  1
  O  O89  1  0.91921500  0.32244100  0.06558200  1
  O  O90  1  0.41958100  0.82257900  0.81569900  1
  O  O91  1  0.41921100  0.82244200  0.31557500  1
  O  O92  1  0.31442200  0.06294900  0.51615000  1
  O  O93  1  0.31459600  0.06295000  0.01623500  1
  O  O94  1  0.81446400  0.56293800  0.76617900  1
  O  O95  1  0.81461100  0.56293600  0.26622600  1
  O  O96  1  0.18560000  0.43706400  0.23386300  1
  O  O97  1  0.18541900  0.43704500  0.73377700  1
  O  O98  1  0.68536800  0.93707100  0.48377400  1
  O  O99  1  0.68554900  0.93706300  0.98383000  1
  O  O100  1  0.53731500  0.13637000  0.35424900  1
  O  O101  1  0.53735300  0.13633500  0.85421900  1
  O  O102  1  0.03725400  0.63639500  0.60423500  1
  O  O103  1  0.03724800  0.63639300  0.10422900  1
  O  O104  1  0.96272600  0.36363300  0.39574800  1
  O  O105  1  0.96265900  0.36365200  0.89575900  1
  O  O106  1  0.46276300  0.86360800  0.64577200  1
  O  O107  1  0.46272300  0.86361700  0.14574500  1
