# generated using pymatgen
data_Li3Ti2Cu3O10
_symmetry_space_group_name_H-M   'P 1'
_cell_length_a   5.13238304
_cell_length_b   5.31639157
_cell_length_c   7.72914503
_cell_angle_alpha   108.38343907
_cell_angle_beta   98.14914850
_cell_angle_gamma   104.26349796
_symmetry_Int_Tables_number   1
_chemical_formula_structural   Li3Ti2Cu3O10
_chemical_formula_sum   'Li3 Ti2 Cu3 O10'
_cell_volume   188.36091689
_cell_formula_units_Z   1
loop_
 _symmetry_equiv_pos_site_id
 _symmetry_equiv_pos_as_xyz
  1  'x, y, z'
loop_
 _atom_site_type_symbol
 _atom_site_label
 _atom_site_symmetry_multiplicity
 _atom_site_fract_x
 _atom_site_fract_y
 _atom_site_fract_z
 _atom_site_occupancy
  Li  Li0  1  0.20752600  0.91033900  0.38501600  1
  Li  Li1  1  0.50000000  0.50000000  0.50000000  1
  Li  Li2  1  0.79247400  0.08966100  0.61498400  1
  Ti  Ti3  1  0.12338000  0.69843600  0.68963100  1
  Ti  Ti4  1  0.87662000  0.30156400  0.31036900  1
  Cu  Cu5  1  0.00000000  0.50000000  0.00000000  1
  Cu  Cu6  1  0.70353200  0.87551000  0.90843600  1
  Cu  Cu7  1  0.29646800  0.12449000  0.09156400  1
  O  O8  1  0.04725300  0.05141700  0.84370300  1
  O  O9  1  0.31523700  0.73526600  0.95201100  1
  O  O10  1  0.10025800  0.31516200  0.53180100  1
  O  O11  1  0.20207300  0.47830400  0.21213700  1
  O  O12  1  0.47072500  0.85229400  0.66386100  1
  O  O13  1  0.52927500  0.14770600  0.33613900  1
  O  O14  1  0.79792700  0.52169600  0.78786300  1
  O  O15  1  0.89974200  0.68483800  0.46819900  1
  O  O16  1  0.68476300  0.26473400  0.04798900  1
  O  O17  1  0.95274700  0.94858200  0.15629700  1
