# generated using pymatgen
data_Mn3OF8
_symmetry_space_group_name_H-M   'P 1'
_cell_length_a   5.16248900
_cell_length_b   5.17460529
_cell_length_c   26.95172096
_cell_angle_alpha   89.11960463
_cell_angle_beta   88.98947404
_cell_angle_gamma   60.20883051
_symmetry_Int_Tables_number   1
_chemical_formula_structural   Mn3OF8
_chemical_formula_sum   'Mn12 O4 F32'
_cell_volume   624.71714899
_cell_formula_units_Z   4
loop_
 _symmetry_equiv_pos_site_id
 _symmetry_equiv_pos_as_xyz
  1  'x, y, z'
loop_
 _atom_site_type_symbol
 _atom_site_label
 _atom_site_symmetry_multiplicity
 _atom_site_fract_x
 _atom_site_fract_y
 _atom_site_fract_z
 _atom_site_occupancy
  Mn  Mn0  1  0.00675100  0.01413500  0.99716600  1
  Mn  Mn1  1  0.00360400  0.02026800  0.24763200  1
  Mn  Mn2  1  0.96928100  0.00716700  0.74712100  1
  Mn  Mn3  1  0.01755600  0.96872100  0.49727300  1
  Mn  Mn4  1  0.35979100  0.32172900  0.66948700  1
  Mn  Mn5  1  0.32574900  0.31756600  0.16941600  1
  Mn  Mn6  1  0.32965000  0.35939000  0.41950200  1
  Mn  Mn7  1  0.32264300  0.32255300  0.91916900  1
  Mn  Mn8  1  0.68432600  0.64510200  0.58370600  1
  Mn  Mn9  1  0.66254100  0.67018200  0.08341800  1
  Mn  Mn10  1  0.64929400  0.66222200  0.83307800  1
  Mn  Mn11  1  0.66268300  0.68982200  0.33364400  1
  O  O12  1  0.29526500  0.66160900  0.45796600  1
  O  O13  1  0.04392200  0.28386600  0.95726100  1
  O  O14  1  0.28950200  0.04973400  0.20872100  1
  O  O15  1  0.66134800  0.28636300  0.70802800  1
  F  F16  1  0.06090900  0.65569800  0.70598400  1
  F  F17  1  0.06888300  0.64682500  0.20620000  1
  F  F18  1  0.01095400  0.58206600  0.87670500  1
  F  F19  1  0.01534600  0.61097200  0.37771100  1
  F  F20  1  0.26773200  0.65855800  0.95789500  1
  F  F21  1  0.39713800  0.60129100  0.62602600  1
  F  F22  1  0.40121600  0.59785500  0.12435200  1
  F  F23  1  0.06705800  0.28150900  0.45678800  1
  F  F24  1  0.28281300  0.06292400  0.70682300  1
  F  F25  1  0.59543800  0.38324600  0.87490100  1
  F  F26  1  0.60572500  0.40326500  0.37628000  1
  F  F27  1  0.66028800  0.27994900  0.20585700  1
  F  F28  1  0.36449300  0.90449100  0.54287400  1
  F  F29  1  0.32156800  0.94834800  0.03895100  1
  F  F30  1  0.39496000  0.98012700  0.87707900  1
  F  F31  1  0.40100500  0.01586300  0.37437100  1
  F  F32  1  0.60458700  0.01262500  0.62725200  1
  F  F33  1  0.59879200  0.00328200  0.12500100  1
  F  F34  1  0.66113200  0.06127600  0.95922800  1
  F  F35  1  0.65829900  0.06235800  0.45619900  1
  F  F36  1  0.29260200  0.75152100  0.78892100  1
  F  F37  1  0.31833900  0.75072000  0.29070100  1
  F  F38  1  0.73155500  0.95875800  0.29055300  1
  F  F39  1  0.70107600  0.93700900  0.79287300  1
  F  F40  1  0.92955600  0.74141000  0.04291800  1
  F  F41  1  0.95718700  0.69590700  0.54230200  1
  F  F42  1  0.76412700  0.28735800  0.54007400  1
  F  F43  1  0.72890100  0.34454700  0.04348200  1
  F  F44  1  0.00694900  0.39560100  0.62606900  1
  F  F45  1  0.01498700  0.38963800  0.12835700  1
  F  F46  1  0.91954600  0.37015800  0.29361200  1
  F  F47  1  0.91292900  0.34441800  0.79107500  1
