# generated using pymatgen
data_Mn6OF11
_symmetry_space_group_name_H-M   'P 1'
_cell_length_a   4.95868200
_cell_length_b   5.88843049
_cell_length_c   16.23695947
_cell_angle_alpha   90.32656561
_cell_angle_beta   90.47215593
_cell_angle_gamma   90.84375815
_symmetry_Int_Tables_number   1
_chemical_formula_structural   Mn6OF11
_chemical_formula_sum   'Mn12 O2 F22'
_cell_volume   474.02507681
_cell_formula_units_Z   2
loop_
 _symmetry_equiv_pos_site_id
 _symmetry_equiv_pos_as_xyz
  1  'x, y, z'
loop_
 _atom_site_type_symbol
 _atom_site_label
 _atom_site_symmetry_multiplicity
 _atom_site_fract_x
 _atom_site_fract_y
 _atom_site_fract_z
 _atom_site_occupancy
  Mn  Mn0  1  0.01558900  0.16972500  0.41112700  1
  Mn  Mn1  1  0.01023300  0.85367200  0.25339700  1
  Mn  Mn2  1  0.99946400  0.17067900  0.08418500  1
  Mn  Mn3  1  0.01478500  0.16796400  0.74388600  1
  Mn  Mn4  1  0.00918000  0.85720800  0.58454300  1
  Mn  Mn5  1  0.00494500  0.83286600  0.91624700  1
  Mn  Mn6  1  0.48516800  0.31350400  0.58607800  1
  Mn  Mn7  1  0.50693900  0.33055100  0.91521400  1
  Mn  Mn8  1  0.48152000  0.31881000  0.25556600  1
  Mn  Mn9  1  0.50730700  0.66849300  0.08677400  1
  Mn  Mn10  1  0.50553100  0.66890800  0.42021900  1
  Mn  Mn11  1  0.49382800  0.66973600  0.74780800  1
  O  O12  1  0.21002400  0.09139800  0.30162500  1
  O  O13  1  0.21118300  0.08996800  0.63405400  1
  F  F14  1  0.23336000  0.10852500  0.97569400  1
  F  F15  1  0.21686000  0.88492300  0.14257100  1
  F  F16  1  0.22260300  0.88569800  0.47625100  1
  F  F17  1  0.23558900  0.89588900  0.80793000  1
  F  F18  1  0.28181500  0.39261700  0.14188300  1
  F  F19  1  0.26233300  0.60966400  0.30740300  1
  F  F20  1  0.28012000  0.39396300  0.47371300  1
  F  F21  1  0.25767800  0.60643600  0.63697600  1
  F  F22  1  0.26709000  0.39849900  0.80759300  1
  F  F23  1  0.27487600  0.60641100  0.97529600  1
  F  F24  1  0.73265300  0.39770100  0.02776400  1
  F  F25  1  0.74888800  0.62167400  0.20081500  1
  F  F26  1  0.71696300  0.38883700  0.36261500  1
  F  F27  1  0.74761500  0.62724000  0.53273100  1
  F  F28  1  0.72797200  0.60950700  0.85837500  1
  F  F29  1  0.71305800  0.38507000  0.69382900  1
  F  F30  1  0.76165600  0.10428800  0.19276500  1
  F  F31  1  0.77114700  0.10996300  0.52001100  1
  F  F32  1  0.77177700  0.88130800  0.35664300  1
  F  F33  1  0.76820700  0.89631200  0.02570000  1
  F  F34  1  0.78044500  0.10987300  0.85551100  1
  F  F35  1  0.77160100  0.88212300  0.68720900  1
