# generated using pymatgen
data_Na7V2O6
_symmetry_space_group_name_H-M   'P 1'
_cell_length_a   8.16193235
_cell_length_b   8.16193235
_cell_length_c   10.69702024
_cell_angle_alpha   76.37890847
_cell_angle_beta   76.37890847
_cell_angle_gamma   41.86833641
_symmetry_Int_Tables_number   1
_chemical_formula_structural   Na7V2O6
_chemical_formula_sum   'Na14 V4 O12'
_cell_volume   460.24060895
_cell_formula_units_Z   2
loop_
 _symmetry_equiv_pos_site_id
 _symmetry_equiv_pos_as_xyz
  1  'x, y, z'
loop_
 _atom_site_type_symbol
 _atom_site_label
 _atom_site_symmetry_multiplicity
 _atom_site_fract_x
 _atom_site_fract_y
 _atom_site_fract_z
 _atom_site_occupancy
  Na  Na0  1  0.30283100  0.57425000  0.14997900  1
  Na  Na1  1  0.42397100  0.23790000  0.40642500  1
  Na  Na2  1  0.57425000  0.30283100  0.64997900  1
  Na  Na3  1  0.81200700  0.73494800  0.30764400  1
  Na  Na4  1  0.23790000  0.42397100  0.90642500  1
  Na  Na5  1  0.26505200  0.18799300  0.19235600  1
  Na  Na6  1  0.73494800  0.81200700  0.80764400  1
  Na  Na7  1  0.76210000  0.57602900  0.09357500  1
  Na  Na8  1  0.18799300  0.26505200  0.69235600  1
  Na  Na9  1  0.42575000  0.69716900  0.35002100  1
  Na  Na10  1  0.57602900  0.76210000  0.59357500  1
  Na  Na11  1  0.92195900  0.07804100  0.25000000  1
  Na  Na12  1  0.69716900  0.42575000  0.85002100  1
  Na  Na13  1  0.07804100  0.92195900  0.75000000  1
  V  V14  1  0.77090200  0.99250700  0.03552200  1
  V  V15  1  0.99250700  0.77090200  0.53552200  1
  V  V16  1  0.00749300  0.22909800  0.46447800  1
  V  V17  1  0.22909800  0.00749300  0.96447800  1
  O  O18  1  0.14181100  0.67197600  0.37453600  1
  O  O19  1  0.60582100  0.14591600  0.18948100  1
  O  O20  1  0.67197600  0.14181100  0.87453600  1
  O  O21  1  0.99091600  0.65676100  0.08422700  1
  O  O22  1  0.14591600  0.60582100  0.68948100  1
  O  O23  1  0.34323900  0.00908400  0.41577300  1
  O  O24  1  0.65676100  0.99091600  0.58422700  1
  O  O25  1  0.85408400  0.39417900  0.31051900  1
  O  O26  1  0.00908400  0.34323900  0.91577300  1
  O  O27  1  0.32802400  0.85818900  0.12546400  1
  O  O28  1  0.39417900  0.85408400  0.81051900  1
  O  O29  1  0.85818900  0.32802400  0.62546400  1
