# generated using pymatgen
data_Na2Ti9O19
_symmetry_space_group_name_H-M   'P 1'
_cell_length_a   6.54900436
_cell_length_b   6.54900436
_cell_length_c   15.89394799
_cell_angle_alpha   76.42587735
_cell_angle_beta   76.42587735
_cell_angle_gamma   33.65985493
_symmetry_Int_Tables_number   1
_chemical_formula_structural   Na2Ti9O19
_chemical_formula_sum   'Na2 Ti9 O19'
_cell_volume   366.29569881
_cell_formula_units_Z   1
loop_
 _symmetry_equiv_pos_site_id
 _symmetry_equiv_pos_as_xyz
  1  'x, y, z'
loop_
 _atom_site_type_symbol
 _atom_site_label
 _atom_site_symmetry_multiplicity
 _atom_site_fract_x
 _atom_site_fract_y
 _atom_site_fract_z
 _atom_site_occupancy
  Na  Na0  1  0.00031400  0.00031400  0.00030000  1
  Na  Na1  1  0.71176700  0.71176700  0.50138800  1
  Ti  Ti2  1  0.78663900  0.78663900  0.70248200  1
  Ti  Ti3  1  0.20050600  0.20050600  0.88040100  1
  Ti  Ti4  1  0.91633000  0.91633000  0.29924300  1
  Ti  Ti5  1  0.10625900  0.10625900  0.13199300  1
  Ti  Ti6  1  0.99651700  0.99651700  0.50017300  1
  Ti  Ti7  1  0.89513700  0.89513700  0.86817600  1
  Ti  Ti8  1  0.08687200  0.08687200  0.69953400  1
  Ti  Ti9  1  0.80029300  0.80029300  0.11960100  1
  Ti  Ti10  1  0.21632300  0.21632300  0.29857200  1
  O  O11  1  0.16293300  0.16293300  0.99604400  1
  O  O12  1  0.37759000  0.37759000  0.29239800  1
  O  O13  1  0.24666100  0.24666100  0.73062800  1
  O  O14  1  0.95497600  0.95497600  0.14019600  1
  O  O15  1  0.73171300  0.73171300  0.85309000  1
  O  O16  1  0.90934000  0.90934000  0.41148700  1
  O  O17  1  0.85284900  0.85284900  0.59081400  1
  O  O18  1  0.36208700  0.36208700  0.87409500  1
  O  O19  1  0.92860100  0.92860100  0.74153900  1
  O  O20  1  0.50835300  0.50835300  0.49983700  1
  O  O21  1  0.83783600  0.83783600  0.00388200  1
  O  O22  1  0.07398600  0.07398600  0.25836300  1
  O  O23  1  0.63897000  0.63897000  0.12578000  1
  O  O24  1  0.15322800  0.15322800  0.40991300  1
  O  O25  1  0.09573100  0.09573100  0.58785300  1
  O  O26  1  0.26977300  0.26977300  0.14613000  1
  O  O27  1  0.04615400  0.04615400  0.86037000  1
  O  O28  1  0.75556000  0.75556000  0.27017600  1
  O  O29  1  0.62668500  0.62668500  0.70554300  1
