# generated using pymatgen
data_Na3NiO2
_symmetry_space_group_name_H-M   'P 1'
_cell_length_a   6.63078334
_cell_length_b   6.63078334
_cell_length_c   6.63078334
_cell_angle_alpha   132.76461227
_cell_angle_beta   125.39976325
_cell_angle_gamma   75.03281409
_symmetry_Int_Tables_number   1
_chemical_formula_structural   Na3NiO2
_chemical_formula_sum   'Na6 Ni2 O4'
_cell_volume   169.96286948
_cell_formula_units_Z   2
loop_
 _symmetry_equiv_pos_site_id
 _symmetry_equiv_pos_as_xyz
  1  'x, y, z'
loop_
 _atom_site_type_symbol
 _atom_site_label
 _atom_site_symmetry_multiplicity
 _atom_site_fract_x
 _atom_site_fract_y
 _atom_site_fract_z
 _atom_site_occupancy
  Na  Na0  1  0.48758500  0.23758500  0.25000000  1
  Na  Na1  1  0.75000000  0.50000000  0.25000000  1
  Na  Na2  1  0.25000000  0.50000000  0.75000000  1
  Na  Na3  1  0.98758500  0.23758500  0.75000000  1
  Na  Na4  1  0.51241500  0.76241500  0.75000000  1
  Na  Na5  1  0.01241500  0.76241500  0.25000000  1
  Ni  Ni6  1  0.00000000  0.00000000  0.00000000  1
  Ni  Ni7  1  0.50000000  0.00000000  0.50000000  1
  O  O8  1  0.37469700  0.12575000  0.75105300  1
  O  O9  1  0.87469700  0.62364400  0.74894700  1
  O  O10  1  0.12530300  0.37635600  0.25105300  1
  O  O11  1  0.62530300  0.87425000  0.24894700  1
