# generated using pymatgen
data_Na6(NiO2)7
_symmetry_space_group_name_H-M   'P 1'
_cell_length_a   6.98543820
_cell_length_b   6.98543820
_cell_length_c   6.98543794
_cell_angle_alpha   67.90541157
_cell_angle_beta   67.90541157
_cell_angle_gamma   67.90541434
_symmetry_Int_Tables_number   1
_chemical_formula_structural   Na6(NiO2)7
_chemical_formula_sum   'Na6 Ni7 O14'
_cell_volume   281.49540152
_cell_formula_units_Z   1
loop_
 _symmetry_equiv_pos_site_id
 _symmetry_equiv_pos_as_xyz
  1  'x, y, z'
loop_
 _atom_site_type_symbol
 _atom_site_label
 _atom_site_symmetry_multiplicity
 _atom_site_fract_x
 _atom_site_fract_y
 _atom_site_fract_z
 _atom_site_occupancy
  Na  Na0  1  0.72441200  0.86595800  0.41888400  1
  Na  Na1  1  0.13404200  0.58111600  0.27558800  1
  Na  Na2  1  0.41888400  0.72441200  0.86595800  1
  Na  Na3  1  0.58111600  0.27558800  0.13404200  1
  Na  Na4  1  0.86595800  0.41888400  0.72441200  1
  Na  Na5  1  0.27558800  0.13404200  0.58111600  1
  Ni  Ni6  1  0.35434900  0.92382500  0.21880200  1
  Ni  Ni7  1  0.78119800  0.64565100  0.07617500  1
  Ni  Ni8  1  0.07617500  0.78119800  0.64565100  1
  Ni  Ni9  1  0.50000000  0.50000000  0.50000000  1
  Ni  Ni10  1  0.92382500  0.21880200  0.35434900  1
  Ni  Ni11  1  0.21880200  0.35434900  0.92382500  1
  Ni  Ni12  1  0.64565100  0.07617500  0.78119800  1
  O  O13  1  0.06616600  0.89957800  0.35119900  1
  O  O14  1  0.64880100  0.93383400  0.10042200  1
  O  O15  1  0.46831100  0.61978300  0.21521900  1
  O  O16  1  0.38021700  0.78478100  0.53168900  1
  O  O17  1  0.23047500  0.23047500  0.23047500  1
  O  O18  1  0.78478100  0.53168900  0.38021700  1
  O  O19  1  0.21521900  0.46831100  0.61978300  1
  O  O20  1  0.10042200  0.64880100  0.93383400  1
  O  O21  1  0.89957800  0.35119900  0.06616600  1
  O  O22  1  0.76952500  0.76952500  0.76952500  1
  O  O23  1  0.53168900  0.38021700  0.78478100  1
  O  O24  1  0.61978300  0.21521900  0.46831100  1
  O  O25  1  0.35119900  0.06616600  0.89957800  1
  O  O26  1  0.93383400  0.10042200  0.64880100  1
