# generated using pymatgen
data_GaPb3
_symmetry_space_group_name_H-M   'P 1'
_cell_length_a   6.09029724
_cell_length_b   6.09029724
_cell_length_c   6.09029724
_cell_angle_alpha   133.36194804
_cell_angle_beta   133.36194804
_cell_angle_gamma   68.08629947
_symmetry_Int_Tables_number   1
_chemical_formula_structural   GaPb3
_chemical_formula_sum   'Ga1 Pb3'
_cell_volume   117.32517296
_cell_formula_units_Z   1
loop_
 _symmetry_equiv_pos_site_id
 _symmetry_equiv_pos_as_xyz
  1  'x, y, z'
loop_
 _atom_site_type_symbol
 _atom_site_label
 _atom_site_symmetry_multiplicity
 _atom_site_fract_x
 _atom_site_fract_y
 _atom_site_fract_z
 _atom_site_occupancy
  Ga  Ga0  1  0.00000000  0.00000000  0.00000000  1
  Pb  Pb1  1  0.75000000  0.25000000  0.50000000  1
  Pb  Pb2  1  0.25000000  0.75000000  0.50000000  1
  Pb  Pb3  1  0.50000000  0.50000000  0.00000000  1
