# generated using pymatgen
data_Te2MoW2(SeS)2
_symmetry_space_group_name_H-M   'P 1'
_cell_length_a   3.34516983
_cell_length_b   3.34516983
_cell_length_c   31.00815100
_cell_angle_alpha   90.00000000
_cell_angle_beta   90.00000000
_cell_angle_gamma   119.99999657
_symmetry_Int_Tables_number   1
_chemical_formula_structural   Te2MoW2(SeS)2
_chemical_formula_sum   'Te2 Mo1 W2 Se2 S2'
_cell_volume   300.49888064
_cell_formula_units_Z   1
loop_
 _symmetry_equiv_pos_site_id
 _symmetry_equiv_pos_as_xyz
  1  'x, y, z'
loop_
 _atom_site_type_symbol
 _atom_site_label
 _atom_site_symmetry_multiplicity
 _atom_site_fract_x
 _atom_site_fract_y
 _atom_site_fract_z
 _atom_site_occupancy
  Te  Te0  1  0.33333300  0.66666700  0.40801800  1
  Te  Te1  1  0.33333300  0.66666700  0.28586400  1
  Mo  Mo2  1  0.66666700  0.33333300  0.34698600  1
  W  W3  1  0.33333300  0.66666700  0.11564700  1
  W  W4  1  0.33333300  0.66666700  0.57836800  1
  Se  Se5  1  0.66666700  0.33333300  0.52438700  1
  Se  Se6  1  0.66666700  0.33333300  0.63229400  1
  S  S7  1  0.66666700  0.33333300  0.06655600  1
  S  S8  1  0.66666700  0.33333300  0.16472200  1
