# generated using pymatgen
data_Fe4O3F5
_symmetry_space_group_name_H-M   'P 1'
_cell_length_a   10.07937357
_cell_length_b   10.07937357
_cell_length_c   4.80012502
_cell_angle_alpha   86.09769322
_cell_angle_beta   86.09769322
_cell_angle_gamma   35.73693416
_symmetry_Int_Tables_number   1
_chemical_formula_structural   Fe4O3F5
_chemical_formula_sum   'Fe8 O6 F10'
_cell_volume   284.09749092
_cell_formula_units_Z   2
loop_
 _symmetry_equiv_pos_site_id
 _symmetry_equiv_pos_as_xyz
  1  'x, y, z'
loop_
 _atom_site_type_symbol
 _atom_site_label
 _atom_site_symmetry_multiplicity
 _atom_site_fract_x
 _atom_site_fract_y
 _atom_site_fract_z
 _atom_site_occupancy
  Fe  Fe0  1  0.88010500  0.36435700  0.51122100  1
  Fe  Fe1  1  0.60841700  0.13578400  0.51053400  1
  Fe  Fe2  1  0.13578400  0.60841700  0.51053400  1
  Fe  Fe3  1  0.36435700  0.88010500  0.51122100  1
  Fe  Fe4  1  0.49988800  0.49988800  0.99945400  1
  Fe  Fe5  1  0.24726300  0.24726300  0.00889800  1
  Fe  Fe6  1  0.00255600  0.00255600  0.98960600  1
  Fe  Fe7  1  0.75669600  0.75669600  0.97599800  1
  O  O8  1  0.57640600  0.57640600  0.69829300  1
  O  O9  1  0.83180300  0.83180300  0.67479500  1
  O  O10  1  0.07603900  0.07603900  0.68865700  1
  O  O11  1  0.32229000  0.32229000  0.70857300  1
  O  O12  1  0.42426300  0.42426300  0.30158500  1
  O  O13  1  0.17385300  0.17385300  0.30052900  1
  F  F14  1  0.95594100  0.44199700  0.80161300  1
  F  F15  1  0.44199700  0.95594100  0.80161300  1
  F  F16  1  0.68722400  0.21163900  0.80008700  1
  F  F17  1  0.21163900  0.68722400  0.80008700  1
  F  F18  1  0.92599900  0.92599900  0.29591500  1
  F  F19  1  0.67642800  0.67642800  0.30005200  1
  F  F20  1  0.53940600  0.05891400  0.20438300  1
  F  F21  1  0.31420800  0.78695300  0.20103800  1
  F  F22  1  0.05891400  0.53940600  0.20438300  1
  F  F23  1  0.78695300  0.31420800  0.20103800  1
