# generated using pymatgen
data_NaCrH22N6(Cl2O)2
_symmetry_space_group_name_H-M   'P 1'
_cell_length_a   7.14630600
_cell_length_b   9.27510000
_cell_length_c   22.85414700
_cell_angle_alpha   90.00000000
_cell_angle_beta   90.00000000
_cell_angle_gamma   90.00000000
_symmetry_Int_Tables_number   1
_chemical_formula_structural   NaCrH22N6(Cl2O)2
_chemical_formula_sum   'Na4 Cr4 H88 N24 Cl16 O8'
_cell_volume   1514.83463291
_cell_formula_units_Z   4
loop_
 _symmetry_equiv_pos_site_id
 _symmetry_equiv_pos_as_xyz
  1  'x, y, z'
loop_
 _atom_site_type_symbol
 _atom_site_label
 _atom_site_symmetry_multiplicity
 _atom_site_fract_x
 _atom_site_fract_y
 _atom_site_fract_z
 _atom_site_occupancy
  Na  Na0  1  0.10307900  0.09340900  0.87372600  1
  Na  Na1  1  0.39692100  0.90659100  0.37372600  1
  Na  Na2  1  0.60307900  0.40659100  0.12627400  1
  Na  Na3  1  0.89692100  0.59340900  0.62627400  1
  Cr  Cr4  1  0.09907600  0.90336000  0.12161600  1
  Cr  Cr5  1  0.40092400  0.09664000  0.62161600  1
  Cr  Cr6  1  0.59907600  0.59664000  0.87838400  1
  Cr  Cr7  1  0.90092400  0.40336000  0.37838400  1
  H  H8  1  0.00776800  0.63046000  0.09539100  1
  H  H9  1  0.04270500  0.64709800  0.33602700  1
  H  H10  1  0.04668900  0.83530800  0.44022600  1
  H  H11  1  0.06403200  0.36627100  0.27693400  1
  H  H12  1  0.07431700  0.49472600  0.47744200  1
  H  H13  1  0.08362300  0.71661900  0.03559800  1
  H  H14  1  0.08380900  0.08952500  0.67901700  1
  H  H15  1  0.10334100  0.46532000  0.73171600  1
  H  H16  1  0.08656400  0.10742500  0.56184100  1
  H  H17  1  0.12943900  0.09287400  0.20651800  1
  H  H18  1  0.12949400  0.22702500  0.31847000  1
  H  H19  1  0.13668800  0.93247100  0.57232400  1
  H  H20  1  0.13862000  0.26519300  0.67220100  1
  H  H21  1  0.17633200  0.18059900  0.14374500  1
  H  H22  1  0.18302700  0.56071800  0.41968100  1
  H  H23  1  0.21278400  0.38902100  0.43841000  1
  H  H24  1  0.20992500  0.77432500  0.47907800  1
  H  H25  1  0.22964200  0.39132800  0.32612300  1
  H  H26  1  0.23428300  0.65204100  0.08367400  1
  H  H27  1  0.23835000  0.16452700  0.72320800  1
  H  H28  1  0.24178700  0.02509300  0.51980000  1
  H  H29  1  0.24453300  0.52071500  0.68439400  1
  H  H30  1  0.25546700  0.47928500  0.18439400  1
  H  H31  1  0.25821300  0.97490700  0.01980000  1
  H  H32  1  0.26165000  0.83547300  0.22320800  1
  H  H33  1  0.26571700  0.34795900  0.58367400  1
  H  H34  1  0.27035800  0.60867200  0.82612300  1
  H  H35  1  0.29007500  0.22567500  0.97907800  1
  H  H36  1  0.28721600  0.61097900  0.93841000  1
  H  H37  1  0.31697300  0.43928200  0.91968100  1
  H  H38  1  0.32366800  0.81940100  0.64374500  1
  H  H39  1  0.36138000  0.73480700  0.17220100  1
  H  H40  1  0.36331200  0.06752900  0.07232400  1
  H  H41  1  0.37050600  0.77297500  0.81847000  1
  H  H42  1  0.37056100  0.90712600  0.70651800  1
  H  H43  1  0.41343600  0.89257500  0.06184100  1
  H  H44  1  0.39665900  0.53468000  0.23171600  1
  H  H45  1  0.41619100  0.91047500  0.17901700  1
  H  H46  1  0.41637700  0.28338100  0.53559800  1
  H  H47  1  0.42568300  0.50527400  0.97744200  1
  H  H48  1  0.43596800  0.63372900  0.77693400  1
  H  H49  1  0.45331100  0.16469200  0.94022600  1
  H  H50  1  0.45729500  0.35290200  0.83602700  1
  H  H51  1  0.49223200  0.36954000  0.59539100  1
  H  H52  1  0.50776800  0.86954000  0.90460900  1
  H  H53  1  0.54270500  0.85290200  0.66397300  1
  H  H54  1  0.54668900  0.66469200  0.55977400  1
  H  H55  1  0.56403200  0.13372900  0.72306600  1
  H  H56  1  0.57431700  0.00527400  0.52255800  1
  H  H57  1  0.58362300  0.78338100  0.96440200  1
  H  H58  1  0.58380900  0.41047500  0.32098300  1
  H  H59  1  0.60334100  0.03468000  0.26828400  1
  H  H60  1  0.58656400  0.39257500  0.43815900  1
  H  H61  1  0.62943900  0.40712600  0.79348200  1
  H  H62  1  0.62949400  0.27297500  0.68153000  1
  H  H63  1  0.63668800  0.56752900  0.42767600  1
  H  H64  1  0.63862000  0.23480700  0.32779900  1
  H  H65  1  0.67633200  0.31940100  0.85625500  1
  H  H66  1  0.68302700  0.93928200  0.58031900  1
  H  H67  1  0.71278400  0.11097900  0.56159000  1
  H  H68  1  0.70992500  0.72567500  0.52092200  1
  H  H69  1  0.72964200  0.10867200  0.67387700  1
  H  H70  1  0.73428300  0.84795900  0.91632600  1
  H  H71  1  0.73835000  0.33547300  0.27679200  1
  H  H72  1  0.74178700  0.47490700  0.48020000  1
  H  H73  1  0.74453300  0.97928500  0.31560600  1
  H  H74  1  0.75546700  0.02071500  0.81560600  1
  H  H75  1  0.75821300  0.52509300  0.98020000  1
  H  H76  1  0.76165000  0.66452700  0.77679200  1
  H  H77  1  0.76571700  0.15204100  0.41632600  1
  H  H78  1  0.77035800  0.89132800  0.17387700  1
  H  H79  1  0.79007500  0.27432500  0.02092200  1
  H  H80  1  0.78721600  0.88902100  0.06159000  1
  H  H81  1  0.81697300  0.06071800  0.08031900  1
  H  H82  1  0.82366800  0.68059900  0.35625500  1
  H  H83  1  0.86138000  0.76519300  0.82779900  1
  H  H84  1  0.86331200  0.43247100  0.92767600  1
  H  H85  1  0.87050600  0.72702500  0.18153000  1
  H  H86  1  0.87056100  0.59287400  0.29348200  1
  H  H87  1  0.91343600  0.60742500  0.93815900  1
  H  H88  1  0.89665900  0.96532000  0.76828400  1
  H  H89  1  0.91619100  0.58952500  0.82098300  1
  H  H90  1  0.91637700  0.21661900  0.46440200  1
  H  H91  1  0.92568300  0.99472600  0.02255800  1
  H  H92  1  0.93596800  0.86627100  0.22306600  1
  H  H93  1  0.95331100  0.33530800  0.05977400  1
  H  H94  1  0.95729500  0.14709800  0.16397300  1
  H  H95  1  0.99223200  0.13046000  0.40460900  1
  N  N96  1  0.09087600  0.10527200  0.16343300  1
  N  N97  1  0.10609700  0.70160900  0.07977200  1
  N  N98  1  0.10620800  0.33695900  0.31849000  1
  N  N99  1  0.11473500  0.47107100  0.43540000  1
  N  N100  1  0.19185800  0.16387700  0.68064300  1
  N  N101  1  0.19283200  0.03139200  0.56196100  1
  N  N102  1  0.30716800  0.96860800  0.06196100  1
  N  N103  1  0.30814200  0.83612300  0.18064300  1
  N  N104  1  0.38526500  0.52892900  0.93540000  1
  N  N105  1  0.39379200  0.66304100  0.81849000  1
  N  N106  1  0.39390300  0.29839100  0.57977200  1
  N  N107  1  0.40912400  0.89472800  0.66343300  1
  N  N108  1  0.59087600  0.39472800  0.83656700  1
  N  N109  1  0.60609700  0.79839100  0.92022800  1
  N  N110  1  0.60620800  0.16304100  0.68151000  1
  N  N111  1  0.61473500  0.02892900  0.56460000  1
  N  N112  1  0.69185800  0.33612300  0.31935700  1
  N  N113  1  0.69283200  0.46860800  0.43803900  1
  N  N114  1  0.80716800  0.53139200  0.93803900  1
  N  N115  1  0.80814200  0.66387700  0.81935700  1
  N  N116  1  0.88526500  0.97107100  0.06460000  1
  N  N117  1  0.89379200  0.83695900  0.18151000  1
  N  N118  1  0.89390300  0.20160900  0.42022800  1
  N  N119  1  0.90912400  0.60527200  0.33656700  1
  Cl  Cl120  1  0.07852000  0.97968300  0.30285300  1
  Cl  Cl121  1  0.09922200  0.38912800  0.82347400  1
  Cl  Cl122  1  0.09774800  0.80767000  0.93863500  1
  Cl  Cl123  1  0.23241200  0.66329000  0.56118200  1
  Cl  Cl124  1  0.26758800  0.33671000  0.06118200  1
  Cl  Cl125  1  0.40225200  0.19233000  0.43863500  1
  Cl  Cl126  1  0.40077800  0.61087200  0.32347400  1
  Cl  Cl127  1  0.42148000  0.02031700  0.80285300  1
  Cl  Cl128  1  0.57852000  0.52031700  0.69714700  1
  Cl  Cl129  1  0.59922200  0.11087200  0.17652600  1
  Cl  Cl130  1  0.59774800  0.69233000  0.06136500  1
  Cl  Cl131  1  0.73241200  0.83671000  0.43881800  1
  Cl  Cl132  1  0.76758800  0.16329000  0.93881800  1
  Cl  Cl133  1  0.90225200  0.30767000  0.56136500  1
  Cl  Cl134  1  0.90077800  0.88912800  0.67652600  1
  Cl  Cl135  1  0.92148000  0.47968300  0.19714700  1
  O  O136  1  0.11374000  0.48926000  0.68973400  1
  O  O137  1  0.18420000  0.82390400  0.44158700  1
  O  O138  1  0.31580000  0.17609600  0.94158700  1
  O  O139  1  0.38626000  0.51074000  0.18973400  1
  O  O140  1  0.61374000  0.01074000  0.31026600  1
  O  O141  1  0.68420000  0.67609600  0.55841300  1
  O  O142  1  0.81580000  0.32390400  0.05841300  1
  O  O143  1  0.88626000  0.98926000  0.81026600  1
