# generated using pymatgen
data_K2MnP4(HO2)8
_symmetry_space_group_name_H-M   'P 1'
_cell_length_a   9.88116100
_cell_length_b   11.31825700
_cell_length_c   13.48064100
_cell_angle_alpha   90.00000000
_cell_angle_beta   90.00000000
_cell_angle_gamma   90.00000000
_symmetry_Int_Tables_number   1
_chemical_formula_structural   K2MnP4(HO2)8
_chemical_formula_sum   'K8 Mn4 P16 H32 O64'
_cell_volume   1507.64145282
_cell_formula_units_Z   4
loop_
 _symmetry_equiv_pos_site_id
 _symmetry_equiv_pos_as_xyz
  1  'x, y, z'
loop_
 _atom_site_type_symbol
 _atom_site_label
 _atom_site_symmetry_multiplicity
 _atom_site_fract_x
 _atom_site_fract_y
 _atom_site_fract_z
 _atom_site_occupancy
  K  K0  1  0.05577300  0.75000000  0.60213300  1
  K  K1  1  0.24717600  0.75000000  0.13229600  1
  K  K2  1  0.25282400  0.25000000  0.63229600  1
  K  K3  1  0.44422700  0.25000000  0.10213300  1
  K  K4  1  0.55577300  0.75000000  0.89786700  1
  K  K5  1  0.74717600  0.75000000  0.36770400  1
  K  K6  1  0.75282400  0.25000000  0.86770400  1
  K  K7  1  0.94422700  0.25000000  0.39786700  1
  Mn  Mn8  1  0.16607600  0.75000000  0.86176000  1
  Mn  Mn9  1  0.33392400  0.25000000  0.36176000  1
  Mn  Mn10  1  0.66607600  0.75000000  0.63824000  1
  Mn  Mn11  1  0.83392400  0.25000000  0.13824000  1
  P  P12  1  0.05813000  0.01863000  0.77691900  1
  P  P13  1  0.05813000  0.48137000  0.77691900  1
  P  P14  1  0.24753700  0.51759200  0.44305200  1
  P  P15  1  0.24753700  0.98240800  0.44305200  1
  P  P16  1  0.25246300  0.01759200  0.94305200  1
  P  P17  1  0.25246300  0.48240800  0.94305200  1
  P  P18  1  0.44187000  0.51863000  0.27691900  1
  P  P19  1  0.44187000  0.98137000  0.27691900  1
  P  P20  1  0.55813000  0.01863000  0.72308100  1
  P  P21  1  0.55813000  0.48137000  0.72308100  1
  P  P22  1  0.74753700  0.51759200  0.05694800  1
  P  P23  1  0.74753700  0.98240800  0.05694800  1
  P  P24  1  0.75246300  0.01759200  0.55694800  1
  P  P25  1  0.75246300  0.48240800  0.55694800  1
  P  P26  1  0.94187000  0.98137000  0.22308100  1
  P  P27  1  0.94187000  0.51863000  0.22308100  1
  H  H28  1  0.04161800  0.17978300  0.01362300  1
  H  H29  1  0.04161800  0.32021700  0.01362300  1
  H  H30  1  0.04113100  0.58229000  0.39842400  1
  H  H31  1  0.04113100  0.91771000  0.39842400  1
  H  H32  1  0.10041200  0.51990900  0.10622700  1
  H  H33  1  0.10041200  0.98009100  0.10622700  1
  H  H34  1  0.13448700  0.31777000  0.21732300  1
  H  H35  1  0.13448700  0.18223000  0.21732300  1
  H  H36  1  0.36551300  0.68223000  0.71732300  1
  H  H37  1  0.36551300  0.81777000  0.71732300  1
  H  H38  1  0.39958800  0.01990900  0.60622700  1
  H  H39  1  0.39958800  0.48009100  0.60622700  1
  H  H40  1  0.45886900  0.08229000  0.89842400  1
  H  H41  1  0.45886900  0.41771000  0.89842400  1
  H  H42  1  0.45838200  0.67978300  0.51362300  1
  H  H43  1  0.45838200  0.82021700  0.51362300  1
  H  H44  1  0.54161800  0.17978300  0.48637700  1
  H  H45  1  0.54161800  0.32021700  0.48637700  1
  H  H46  1  0.54113000  0.58229000  0.10157600  1
  H  H47  1  0.54113000  0.91771000  0.10157600  1
  H  H48  1  0.60041200  0.51990900  0.39377300  1
  H  H49  1  0.60041200  0.98009100  0.39377300  1
  H  H50  1  0.63448700  0.18223000  0.28267700  1
  H  H51  1  0.63448700  0.31777000  0.28267700  1
  H  H52  1  0.86551300  0.68223000  0.78267700  1
  H  H53  1  0.86551300  0.81777000  0.78267700  1
  H  H54  1  0.89958800  0.01990900  0.89377300  1
  H  H55  1  0.89958800  0.48009100  0.89377300  1
  H  H56  1  0.95887000  0.08229000  0.60157600  1
  H  H57  1  0.95887000  0.41771000  0.60157600  1
  H  H58  1  0.95838200  0.67978300  0.98637700  1
  H  H59  1  0.95838200  0.82021700  0.98637700  1
  O  O60  1  0.01875900  0.75000000  0.98430700  1
  O  O61  1  0.05015900  0.61601500  0.77992000  1
  O  O62  1  0.05015900  0.88398500  0.77992000  1
  O  O63  1  0.06589400  0.57169000  0.16467600  1
  O  O64  1  0.06589400  0.92831000  0.16467600  1
  O  O65  1  0.06991800  0.07583500  0.67624900  1
  O  O66  1  0.06991800  0.42416500  0.67624900  1
  O  O67  1  0.11563500  0.59395400  0.45251100  1
  O  O68  1  0.11563500  0.90604600  0.45251100  1
  O  O69  1  0.15363600  0.05568900  0.02319300  1
  O  O70  1  0.15363600  0.44431100  0.02319300  1
  O  O71  1  0.19633300  0.25000000  0.22540400  1
  O  O72  1  0.19277500  0.06155400  0.83611100  1
  O  O73  1  0.19277500  0.43844600  0.83611100  1
  O  O74  1  0.21702400  0.11385800  0.43622500  1
  O  O75  1  0.21702400  0.38614200  0.43622500  1
  O  O76  1  0.28297600  0.61385800  0.93622500  1
  O  O77  1  0.28297600  0.88614200  0.93622500  1
  O  O78  1  0.30722500  0.56155400  0.33611100  1
  O  O79  1  0.30722500  0.93844600  0.33611100  1
  O  O80  1  0.30366700  0.75000000  0.72540400  1
  O  O81  1  0.34636400  0.55568900  0.52319300  1
  O  O82  1  0.34636400  0.94431100  0.52319300  1
  O  O83  1  0.38436500  0.09395400  0.95251100  1
  O  O84  1  0.38436500  0.40604600  0.95251100  1
  O  O85  1  0.43008200  0.57583500  0.17624900  1
  O  O86  1  0.43008200  0.92416500  0.17624900  1
  O  O87  1  0.43410600  0.42831000  0.66467600  1
  O  O88  1  0.43410600  0.07169000  0.66467600  1
  O  O89  1  0.44984100  0.11601500  0.27992000  1
  O  O90  1  0.44984100  0.38398500  0.27992000  1
  O  O91  1  0.48124100  0.25000000  0.48430700  1
  O  O92  1  0.51875900  0.75000000  0.51569300  1
  O  O93  1  0.55015900  0.61601500  0.72008000  1
  O  O94  1  0.55015900  0.88398500  0.72008000  1
  O  O95  1  0.56589400  0.57169000  0.33532400  1
  O  O96  1  0.56589400  0.92831000  0.33532400  1
  O  O97  1  0.56991800  0.07583500  0.82375100  1
  O  O98  1  0.56991800  0.42416500  0.82375100  1
  O  O99  1  0.61563500  0.59395400  0.04748900  1
  O  O100  1  0.61563500  0.90604600  0.04748900  1
  O  O101  1  0.65363600  0.05568900  0.47680700  1
  O  O102  1  0.65363600  0.44431100  0.47680700  1
  O  O103  1  0.69633300  0.25000000  0.27459600  1
  O  O104  1  0.69277500  0.06155400  0.66388900  1
  O  O105  1  0.69277500  0.43844600  0.66388900  1
  O  O106  1  0.71702400  0.11385800  0.06377500  1
  O  O107  1  0.71702400  0.38614200  0.06377500  1
  O  O108  1  0.78297600  0.61385800  0.56377500  1
  O  O109  1  0.78297600  0.88614200  0.56377500  1
  O  O110  1  0.80722500  0.56155400  0.16388900  1
  O  O111  1  0.80722500  0.93844600  0.16388900  1
  O  O112  1  0.80366700  0.75000000  0.77459600  1
  O  O113  1  0.84636400  0.55568900  0.97680700  1
  O  O114  1  0.84636400  0.94431100  0.97680700  1
  O  O115  1  0.88436500  0.09395400  0.54748900  1
  O  O116  1  0.88436500  0.40604600  0.54748900  1
  O  O117  1  0.93008200  0.57583500  0.32375100  1
  O  O118  1  0.93008200  0.92416500  0.32375100  1
  O  O119  1  0.93410600  0.07169000  0.83532400  1
  O  O120  1  0.93410600  0.42831000  0.83532400  1
  O  O121  1  0.94984100  0.11601500  0.22008000  1
  O  O122  1  0.94984100  0.38398500  0.22008000  1
  O  O123  1  0.98124100  0.25000000  0.01569300  1
