# generated using pymatgen
data_CoPO4
_symmetry_space_group_name_H-M   'P 1'
_cell_length_a   10.38209747
_cell_length_b   10.38209747
_cell_length_c   24.72789300
_cell_angle_alpha   90.00000000
_cell_angle_beta   90.00000000
_cell_angle_gamma   119.99999662
_symmetry_Int_Tables_number   1
_chemical_formula_structural   CoPO4
_chemical_formula_sum   'Co24 P24 O96'
_cell_volume   2308.27720584
_cell_formula_units_Z   24
loop_
 _symmetry_equiv_pos_site_id
 _symmetry_equiv_pos_as_xyz
  1  'x, y, z'
loop_
 _atom_site_type_symbol
 _atom_site_label
 _atom_site_symmetry_multiplicity
 _atom_site_fract_x
 _atom_site_fract_y
 _atom_site_fract_z
 _atom_site_occupancy
  Co  Co0  1  0.30493000  0.11473900  0.15355200  1
  Co  Co1  1  0.14824500  0.31515500  0.31621800  1
  Co  Co2  1  0.31515500  0.16691000  0.48288400  1
  Co  Co3  1  0.19019100  0.30493000  0.98688500  1
  Co  Co4  1  0.16526000  0.36729600  0.62245800  1
  Co  Co5  1  0.36729600  0.20203500  0.78912500  1
  Co  Co6  1  0.11473900  0.80980900  0.32021800  1
  Co  Co7  1  0.79796500  0.16526000  0.45579100  1
  Co  Co8  1  0.83309000  0.14824500  0.14955100  1
  Co  Co9  1  0.65393600  0.33441900  0.34440900  1
  Co  Co10  1  0.31951700  0.65393600  0.17774200  1
  Co  Co11  1  0.33441900  0.68048300  0.51107600  1
  Co  Co12  1  0.66558100  0.31951700  0.01107600  1
  Co  Co13  1  0.68048300  0.34606400  0.67774200  1
  Co  Co14  1  0.34606400  0.66558100  0.84440900  1
  Co  Co15  1  0.16691000  0.85175500  0.64955100  1
  Co  Co16  1  0.20203500  0.83474000  0.95579100  1
  Co  Co17  1  0.88526100  0.19019100  0.82021800  1
  Co  Co18  1  0.63270400  0.79796500  0.28912500  1
  Co  Co19  1  0.83474000  0.63270400  0.12245800  1
  Co  Co20  1  0.80980900  0.69507000  0.48688500  1
  Co  Co21  1  0.68484500  0.83309000  0.98288400  1
  Co  Co22  1  0.85175500  0.68484500  0.81621800  1
  Co  Co23  1  0.69507000  0.88526100  0.65355200  1
  P  P24  1  0.32537300  0.11589500  0.02680700  1
  P  P25  1  0.30518800  0.14424600  0.35677400  1
  P  P26  1  0.16094300  0.30518800  0.19010700  1
  P  P27  1  0.13096800  0.34533300  0.49608800  1
  P  P28  1  0.20947800  0.32537300  0.86014100  1
  P  P29  1  0.34533300  0.21436500  0.66275500  1
  P  P30  1  0.11589500  0.79052200  0.19347400  1
  P  P31  1  0.78563500  0.13096800  0.32942200  1
  P  P32  1  0.64632300  0.31841100  0.14522000  1
  P  P33  1  0.32791200  0.64632300  0.97855400  1
  P  P34  1  0.14424600  0.83905700  0.52344000  1
  P  P35  1  0.31841100  0.67208800  0.31188700  1
  P  P36  1  0.68158900  0.32791200  0.81188700  1
  P  P37  1  0.85575400  0.16094300  0.02344000  1
  P  P38  1  0.67208800  0.35367700  0.47855400  1
  P  P39  1  0.35367700  0.68158900  0.64522000  1
  P  P40  1  0.21436500  0.86903200  0.82942200  1
  P  P41  1  0.88410500  0.20947800  0.69347400  1
  P  P42  1  0.65466700  0.78563500  0.16275500  1
  P  P43  1  0.79052200  0.67462700  0.36014100  1
  P  P44  1  0.86903200  0.65466700  0.99608800  1
  P  P45  1  0.83905700  0.69481200  0.69010700  1
  P  P46  1  0.69481200  0.85575400  0.85677400  1
  P  P47  1  0.67462700  0.88410500  0.52680700  1
  O  O48  1  0.18224600  0.01288400  0.32417000  1
  O  O49  1  0.20074200  0.99260900  0.99223000  1
  O  O50  1  0.22171300  0.04924200  0.66096200  1
  O  O51  1  0.99534600  0.26476000  0.19475500  1
  O  O52  1  0.16936200  0.18224600  0.15750300  1
  O  O53  1  0.00002900  0.30836900  0.45701600  1
  O  O54  1  0.17247100  0.22171300  0.49429500  1
  O  O55  1  0.32540900  0.05647300  0.08445700  1
  O  O56  1  0.20813300  0.20074200  0.82556400  1
  O  O57  1  0.04807800  0.29649200  0.86531500  1
  O  O58  1  0.31472100  0.09105500  0.41457500  1
  O  O59  1  0.08575500  0.36195900  0.55465800  1
  O  O60  1  0.22366600  0.31472100  0.24790900  1
  O  O61  1  0.26476000  0.26941400  0.36142200  1
  O  O62  1  0.26893600  0.32540900  0.91779000  1
  O  O63  1  0.29649200  0.24841400  0.03198200  1
  O  O64  1  0.47617100  0.16360900  0.99843200  1
  O  O65  1  0.30836900  0.30833900  0.62368300  1
  O  O66  1  0.45592300  0.20236800  0.32733500  1
  O  O67  1  0.19181900  0.51054900  0.32185000  1
  O  O68  1  0.36195900  0.27620400  0.72132500  1
  O  O69  1  0.49608400  0.23081800  0.64430400  1
  O  O70  1  0.69166100  0.00002900  0.29034900  1
  O  O71  1  0.22195000  0.49355800  0.00428900  1
  O  O72  1  0.73058600  0.99534600  0.02808900  1
  O  O73  1  0.25355500  0.45592300  0.16066800  1
  O  O74  1  0.23281900  0.53130000  0.67000300  1
  O  O75  1  0.26526600  0.49608400  0.47763700  1
  O  O76  1  0.05647300  0.73106400  0.25112400  1
  O  O77  1  0.49355800  0.27160800  0.17095600  1
  O  O78  1  0.72379600  0.08575500  0.38799200  1
  O  O79  1  0.75158600  0.04807800  0.69864900  1
  O  O80  1  0.31256200  0.47617100  0.83176600  1
  O  O81  1  0.16360900  0.68743800  0.16509900  1
  O  O82  1  0.68127000  0.19181900  0.15518300  1
  O  O83  1  0.99260900  0.79186700  0.15889700  1
  O  O84  1  0.09105500  0.77633400  0.58124200  1
  O  O85  1  0.51054900  0.31873000  0.48851600  1
  O  O86  1  0.53130000  0.29848100  0.83666900  1
  O  O87  1  0.70151900  0.23281900  0.50333600  1
  O  O88  1  0.01288400  0.83063800  0.49083600  1
  O  O89  1  0.29067800  0.64318200  0.91751700  1
  O  O90  1  0.64749600  0.29067800  0.75085000  1
  O  O91  1  0.04924200  0.82752900  0.82762900  1
  O  O92  1  0.20236800  0.74644500  0.49400100  1
  O  O93  1  0.23081800  0.73473400  0.81097000  1
  O  O94  1  0.72839200  0.22195000  0.83762300  1
  O  O95  1  0.64318200  0.35250400  0.08418400  1
  O  O96  1  0.35681800  0.64749600  0.58418400  1
  O  O97  1  0.27160800  0.77805000  0.33762300  1
  O  O98  1  0.76918200  0.26526600  0.31097000  1
  O  O99  1  0.79763200  0.25355500  0.99400100  1
  O  O100  1  0.95075800  0.17247100  0.32762900  1
  O  O101  1  0.35250400  0.70932200  0.25085000  1
  O  O102  1  0.70932200  0.35681800  0.41751700  1
  O  O103  1  0.98711600  0.16936200  0.99083600  1
  O  O104  1  0.29848100  0.76718100  0.00333600  1
  O  O105  1  0.46870000  0.70151900  0.33666900  1
  O  O106  1  0.48945100  0.68127000  0.98851600  1
  O  O107  1  0.90894500  0.22366600  0.08124200  1
  O  O108  1  0.00739100  0.20813300  0.65889700  1
  O  O109  1  0.31873000  0.80818100  0.65518300  1
  O  O110  1  0.83639100  0.31256200  0.66509900  1
  O  O111  1  0.68743800  0.52382900  0.33176600  1
  O  O112  1  0.24841400  0.95192200  0.19864900  1
  O  O113  1  0.27620400  0.91424500  0.88799200  1
  O  O114  1  0.50644200  0.72839200  0.67095600  1
  O  O115  1  0.94352700  0.26893600  0.75112400  1
  O  O116  1  0.73473400  0.50391600  0.97763700  1
  O  O117  1  0.76718100  0.46870000  0.17000300  1
  O  O118  1  0.74644500  0.54407700  0.66066800  1
  O  O119  1  0.26941400  0.00465400  0.52808900  1
  O  O120  1  0.77805000  0.50644200  0.50428900  1
  O  O121  1  0.30833900  0.99997100  0.79034900  1
  O  O122  1  0.50391600  0.76918200  0.14430400  1
  O  O123  1  0.63804100  0.72379600  0.22132500  1
  O  O124  1  0.80818100  0.48945100  0.82185000  1
  O  O125  1  0.54407700  0.79763200  0.82733500  1
  O  O126  1  0.69163100  0.69166100  0.12368300  1
  O  O127  1  0.52382900  0.83639100  0.49843200  1
  O  O128  1  0.70350800  0.75158600  0.53198200  1
  O  O129  1  0.73106400  0.67459100  0.41779000  1
  O  O130  1  0.73524000  0.73058600  0.86142200  1
  O  O131  1  0.77633400  0.68527900  0.74790900  1
  O  O132  1  0.91424500  0.63804100  0.05465800  1
  O  O133  1  0.68527900  0.90894500  0.91457500  1
  O  O134  1  0.95192200  0.70350800  0.36531500  1
  O  O135  1  0.79186700  0.79925800  0.32556400  1
  O  O136  1  0.67459100  0.94352700  0.58445700  1
  O  O137  1  0.82752900  0.77828700  0.99429500  1
  O  O138  1  0.99997100  0.69163100  0.95701600  1
  O  O139  1  0.83063800  0.81775400  0.65750300  1
  O  O140  1  0.00465400  0.73524000  0.69475500  1
  O  O141  1  0.77828700  0.95075800  0.16096200  1
  O  O142  1  0.79925800  0.00739100  0.49223000  1
  O  O143  1  0.81775400  0.98711600  0.82417000  1
