# generated using pymatgen
data_Mn6O7F5
_symmetry_space_group_name_H-M   'P 1'
_cell_length_a   4.67392700
_cell_length_b   5.69043457
_cell_length_c   15.19510311
_cell_angle_alpha   89.73003197
_cell_angle_beta   89.86500221
_cell_angle_gamma   85.61255855
_symmetry_Int_Tables_number   1
_chemical_formula_structural   Mn6O7F5
_chemical_formula_sum   'Mn12 O14 F10'
_cell_volume   402.94963832
_cell_formula_units_Z   2
loop_
 _symmetry_equiv_pos_site_id
 _symmetry_equiv_pos_as_xyz
  1  'x, y, z'
loop_
 _atom_site_type_symbol
 _atom_site_label
 _atom_site_symmetry_multiplicity
 _atom_site_fract_x
 _atom_site_fract_y
 _atom_site_fract_z
 _atom_site_occupancy
  Mn  Mn0  1  0.98195700  0.83109500  0.42171800  1
  Mn  Mn1  1  0.97419800  0.14641400  0.24521200  1
  Mn  Mn2  1  0.01335100  0.85071100  0.08360600  1
  Mn  Mn3  1  0.98013400  0.83153300  0.74767000  1
  Mn  Mn4  1  0.97878800  0.15802900  0.58317900  1
  Mn  Mn5  1  0.96676300  0.14416900  0.91223200  1
  Mn  Mn6  1  0.53169900  0.65760900  0.59037600  1
  Mn  Mn7  1  0.53264700  0.65841400  0.92345600  1
  Mn  Mn8  1  0.46715000  0.64819300  0.25536600  1
  Mn  Mn9  1  0.51788600  0.35117200  0.07839500  1
  Mn  Mn10  1  0.52212900  0.36000400  0.41629400  1
  Mn  Mn11  1  0.51296000  0.36898600  0.75191000  1
  O  O12  1  0.78906100  0.88891500  0.63828800  1
  O  O13  1  0.79397200  0.89120900  0.97228900  1
  O  O14  1  0.77121600  0.11522000  0.13493700  1
  O  O15  1  0.77529100  0.11288100  0.47333600  1
  O  O16  1  0.76327200  0.11184400  0.80543600  1
  O  O17  1  0.71568200  0.38611100  0.30447200  1
  O  O18  1  0.72784800  0.60827100  0.48029100  1
  O  O19  1  0.73043300  0.39169700  0.64542700  1
  O  O20  1  0.71496100  0.60349300  0.81112600  1
  O  O21  1  0.74045200  0.38452900  0.97261100  1
  O  O22  1  0.29543900  0.62276600  0.02658100  1
  O  O23  1  0.26027600  0.60404600  0.36423300  1
  O  O24  1  0.28244800  0.62172900  0.69338100  1
  O  O25  1  0.21725700  0.88509500  0.19476200  1
  F  F26  1  0.74350800  0.88649900  0.30979700  1
  F  F27  1  0.72573400  0.61950500  0.14994300  1
  F  F28  1  0.26430500  0.37843300  0.18295500  1
  F  F29  1  0.27014900  0.37717200  0.52598300  1
  F  F30  1  0.25220000  0.37027900  0.85687100  1
  F  F31  1  0.25831300  0.88675000  0.53101800  1
  F  F32  1  0.21512100  0.10810600  0.35688100  1
  F  F33  1  0.23495700  0.12633200  0.01147500  1
  F  F34  1  0.23390100  0.87513200  0.85667400  1
  F  F35  1  0.24454400  0.13765500  0.69181600  1
