# generated using pymatgen
data_Li2Mn3(BO3)3
_symmetry_space_group_name_H-M   'P 1'
_cell_length_a   9.01831964
_cell_length_b   7.87540513
_cell_length_c   6.14577807
_cell_angle_alpha   80.68503634
_cell_angle_beta   76.74436541
_cell_angle_gamma   114.06981050
_symmetry_Int_Tables_number   1
_chemical_formula_structural   Li2Mn3(BO3)3
_chemical_formula_sum   'Li4 Mn6 B6 O18'
_cell_volume   371.55853971
_cell_formula_units_Z   2
loop_
 _symmetry_equiv_pos_site_id
 _symmetry_equiv_pos_as_xyz
  1  'x, y, z'
loop_
 _atom_site_type_symbol
 _atom_site_label
 _atom_site_symmetry_multiplicity
 _atom_site_fract_x
 _atom_site_fract_y
 _atom_site_fract_z
 _atom_site_occupancy
  Li  Li0  1  0.61981400  0.16182300  0.16672200  1
  Li  Li1  1  0.04685200  0.17151000  0.49994500  1
  Li  Li2  1  0.27062900  0.48545700  0.83042900  1
  Li  Li3  1  0.39603800  0.84787600  0.83623700  1
  Mn  Mn4  1  0.25700800  0.11851100  0.12090400  1
  Mn  Mn5  1  0.40965900  0.21482200  0.54576300  1
  Mn  Mn6  1  0.04764400  0.53452100  0.21668100  1
  Mn  Mn7  1  0.92971800  0.49005100  0.75653500  1
  Mn  Mn8  1  0.61902200  0.79881200  0.44998500  1
  Mn  Mn9  1  0.73694800  0.84328200  0.91013200  1
  B  B10  1  0.93421900  0.14105300  0.10253300  1
  B  B11  1  0.73244800  0.19228000  0.56413400  1
  B  B12  1  0.38759300  0.53034000  0.20941500  1
  B  B13  1  0.59632000  0.46334500  0.81187200  1
  B  B14  1  0.27907400  0.80299400  0.45725200  1
  B  B15  1  0.07034600  0.86998900  0.85479500  1
  O  O16  1  0.00442400  0.06396100  0.23745700  1
  O  O17  1  0.76214100  0.01937300  0.11328100  1
  O  O18  1  0.65375800  0.99706400  0.68754800  1
  O  O19  1  0.30116300  0.33684500  0.34427000  1
  O  O20  1  0.66224300  0.26937300  0.42921000  1
  O  O21  1  0.31204400  0.61147800  0.08547100  1
  O  O22  1  0.90452600  0.31396000  0.55338600  1
  O  O23  1  0.55938300  0.64024200  0.19435900  1
  O  O24  1  0.98216100  0.66760400  0.95313300  1
  O  O25  1  0.01290800  0.33626900  0.97911900  1
  O  O26  1  0.42752700  0.36507200  0.81490900  1
  O  O27  1  0.10728300  0.69309100  0.47230700  1
  O  O28  1  0.67574100  0.36515800  0.89688100  1
  O  O29  1  0.35462200  0.72185500  0.58119600  1
  O  O30  1  0.68450500  0.66573000  0.71353400  1
  O  O31  1  0.36550300  0.99648800  0.32239700  1
  O  O32  1  0.23914000  0.96826100  0.85175800  1
  O  O33  1  0.99092500  0.96817500  0.76978500  1
