# generated using pymatgen
data_VOF2
_symmetry_space_group_name_H-M   'P 1'
_cell_length_a   5.23707100
_cell_length_b   5.37944665
_cell_length_c   12.80873227
_cell_angle_alpha   90.80645014
_cell_angle_beta   91.29079640
_cell_angle_gamma   118.59912279
_symmetry_Int_Tables_number   1
_chemical_formula_structural   VOF2
_chemical_formula_sum   'V6 O6 F12'
_cell_volume   316.61938097
_cell_formula_units_Z   6
loop_
 _symmetry_equiv_pos_site_id
 _symmetry_equiv_pos_as_xyz
  1  'x, y, z'
loop_
 _atom_site_type_symbol
 _atom_site_label
 _atom_site_symmetry_multiplicity
 _atom_site_fract_x
 _atom_site_fract_y
 _atom_site_fract_z
 _atom_site_occupancy
  V  V0  1  0.16884700  0.38898100  0.33582200  1
  V  V1  1  0.17284000  0.30987400  0.83833800  1
  V  V2  1  0.50000000  0.00000000  0.50000000  1
  V  V3  1  0.50000000  0.00000000  0.00000000  1
  V  V4  1  0.82716000  0.69012600  0.16166200  1
  V  V5  1  0.83115300  0.61101900  0.66417800  1
  O  O6  1  0.30378800  0.19664300  0.93741300  1
  O  O7  1  0.69621200  0.80335700  0.06258700  1
  O  O8  1  0.02135700  0.46940300  0.72084700  1
  O  O9  1  0.97864300  0.53059700  0.27915300  1
  O  O10  1  0.40573500  0.66060700  0.41546200  1
  O  O11  1  0.59426500  0.33939300  0.58453800  1
  F  F12  1  0.56872100  0.53594000  0.77734800  1
  F  F13  1  0.43127900  0.46406000  0.22265200  1
  F  F14  1  0.09025600  0.99329100  0.74336700  1
  F  F15  1  0.90974400  0.00670900  0.25663300  1
  F  F16  1  0.91080700  0.20094800  0.44563800  1
  F  F17  1  0.63647700  0.85261900  0.61459700  1
  F  F18  1  0.76846500  0.12129000  0.88163600  1
  F  F19  1  0.76826000  0.34356900  0.08207800  1
  F  F20  1  0.23174000  0.65643100  0.91792200  1
  F  F21  1  0.23153500  0.87871000  0.11836400  1
  F  F22  1  0.36352300  0.14738100  0.38540300  1
  F  F23  1  0.08919300  0.79905200  0.55436200  1
