# generated using pymatgen
data_Eu2Co2O5
_symmetry_space_group_name_H-M   'P 1'
_cell_length_a   3.89145600
_cell_length_b   3.89145600
_cell_length_c   7.55327200
_cell_angle_alpha   90.00000000
_cell_angle_beta   90.00000000
_cell_angle_gamma   90.00000000
_symmetry_Int_Tables_number   1
_chemical_formula_structural   Eu2Co2O5
_chemical_formula_sum   'Eu2 Co2 O5'
_cell_volume   114.38244429
_cell_formula_units_Z   1
loop_
 _symmetry_equiv_pos_site_id
 _symmetry_equiv_pos_as_xyz
  1  'x, y, z'
loop_
 _atom_site_type_symbol
 _atom_site_label
 _atom_site_symmetry_multiplicity
 _atom_site_fract_x
 _atom_site_fract_y
 _atom_site_fract_z
 _atom_site_occupancy
  Eu  Eu0  1  0.00000000  0.00000000  0.00000000  1
  Eu  Eu1  1  0.00000000  0.00000000  0.50000000  1
  Co  Co2  1  0.50000000  0.50000000  0.23909100  1
  Co  Co3  1  0.50000000  0.50000000  0.76090900  1
  O  O4  1  0.50000000  0.00000000  0.21144600  1
  O  O5  1  0.50000000  0.00000000  0.78855400  1
  O  O6  1  0.50000000  0.50000000  0.50000000  1
  O  O7  1  0.00000000  0.50000000  0.21144600  1
  O  O8  1  0.00000000  0.50000000  0.78855400  1
