# generated using pymatgen
data_Li5Ti3V2(PO4)6
_symmetry_space_group_name_H-M   'P 1'
_cell_length_a   8.50057300
_cell_length_b   8.54157068
_cell_length_c   8.56864084
_cell_angle_alpha   62.87600006
_cell_angle_beta   63.30359355
_cell_angle_gamma   63.33918749
_symmetry_Int_Tables_number   1
_chemical_formula_structural   Li5Ti3V2(PO4)6
_chemical_formula_sum   'Li5 Ti3 V2 P6 O24'
_cell_volume   470.85917151
_cell_formula_units_Z   1
loop_
 _symmetry_equiv_pos_site_id
 _symmetry_equiv_pos_as_xyz
  1  'x, y, z'
loop_
 _atom_site_type_symbol
 _atom_site_label
 _atom_site_symmetry_multiplicity
 _atom_site_fract_x
 _atom_site_fract_y
 _atom_site_fract_z
 _atom_site_occupancy
  Li  Li0  1  0.84232500  0.83877000  0.84272100  1
  Li  Li1  1  0.75415000  0.14246300  0.35701100  1
  Li  Li2  1  0.19493500  0.85333900  0.66694900  1
  Li  Li3  1  0.66600000  0.19477200  0.85498900  1
  Li  Li4  1  0.85566600  0.66423100  0.19442900  1
  Ti  Ti5  1  0.35479000  0.35846500  0.35561700  1
  Ti  Ti6  1  0.14859800  0.14790900  0.14247600  1
  Ti  Ti7  1  0.64955700  0.65000900  0.65273600  1
  V  V8  1  0.00370400  0.99894800  0.99518200  1
  V  V9  1  0.49278400  0.50153600  0.49895700  1
  P  P10  1  0.05509300  0.75236300  0.44892700  1
  P  P11  1  0.44805100  0.05410200  0.75636000  1
  P  P12  1  0.75384800  0.44847100  0.05475500  1
  P  P13  1  0.25367600  0.54748200  0.95435400  1
  P  P14  1  0.55288700  0.95533000  0.25465400  1
  P  P15  1  0.94768400  0.25183500  0.54557700  1
  O  O16  1  0.48829800  0.89309400  0.69163700  1
  O  O17  1  0.68782700  0.48596200  0.89673100  1
  O  O18  1  0.89272300  0.68661600  0.49139900  1
  O  O19  1  0.05680000  0.91330000  0.25839500  1
  O  O20  1  0.03126900  0.81515900  0.59996900  1
  O  O21  1  0.24563400  0.59778400  0.42053000  1
  O  O22  1  0.25336700  0.07132200  0.90570500  1
  O  O23  1  0.43486900  0.24169800  0.59084400  1
  O  O24  1  0.18350400  0.39039700  0.99360200  1
  O  O25  1  0.60189400  0.41846800  0.25133500  1
  O  O26  1  0.09945200  0.73652900  0.94546600  1
  O  O27  1  0.38795900  0.00243700  0.19529300  1
  O  O28  1  0.60109600  0.02812100  0.81993700  1
  O  O29  1  0.90072000  0.24960100  0.07587300  1
  O  O30  1  0.40046300  0.57299600  0.75607900  1
  O  O31  1  0.81828000  0.59984200  0.02942000  1
  O  O32  1  0.57179800  0.75743700  0.40514700  1
  O  O33  1  0.74130200  0.94004000  0.09798300  1
  O  O34  1  0.75085400  0.40247900  0.57827600  1
  O  O35  1  0.96418100  0.19072900  0.39300800  1
  O  O36  1  0.94582700  0.09652200  0.73449900  1
  O  O37  1  0.10778900  0.32482500  0.48536300  1
  O  O38  1  0.33455600  0.49651700  0.10448600  1
  O  O39  1  0.52579000  0.10509800  0.32633300  1
