# generated using pymatgen
data_Fe3(O2F)2
_symmetry_space_group_name_H-M   'P 1'
_cell_length_a   4.65634400
_cell_length_b   4.65871800
_cell_length_c   10.25937904
_cell_angle_alpha   63.50661143
_cell_angle_beta   90.00000000
_cell_angle_gamma   90.00000000
_symmetry_Int_Tables_number   1
_chemical_formula_structural   Fe3(O2F)2
_chemical_formula_sum   'Fe6 O8 F4'
_cell_volume   199.18137281
_cell_formula_units_Z   2
loop_
 _symmetry_equiv_pos_site_id
 _symmetry_equiv_pos_as_xyz
  1  'x, y, z'
loop_
 _atom_site_type_symbol
 _atom_site_label
 _atom_site_symmetry_multiplicity
 _atom_site_fract_x
 _atom_site_fract_y
 _atom_site_fract_z
 _atom_site_occupancy
  Fe  Fe0  1  0.50000000  0.00000000  0.50000000  1
  Fe  Fe1  1  0.52134400  0.69032100  0.84215300  1
  Fe  Fe2  1  0.47865600  0.30967900  0.15784700  1
  Fe  Fe3  1  0.02134400  0.30967900  0.65784700  1
  Fe  Fe4  1  0.97865600  0.69032100  0.34215300  1
  Fe  Fe5  1  0.00000000  0.00000000  0.00000000  1
  O  O6  1  0.70184000  0.30120900  0.99739700  1
  O  O7  1  0.66882200  0.98120900  0.33491600  1
  O  O8  1  0.20184000  0.69879100  0.50260300  1
  O  O9  1  0.16882200  0.01879100  0.16508400  1
  O  O10  1  0.79816000  0.30120900  0.49739700  1
  O  O11  1  0.83117800  0.98120900  0.83491600  1
  O  O12  1  0.33117800  0.01879100  0.66508400  1
  O  O13  1  0.29816000  0.69879100  0.00260300  1
  F  F14  1  0.71456300  0.63019400  0.67059600  1
  F  F15  1  0.21456300  0.36980600  0.82940400  1
  F  F16  1  0.78543700  0.63019400  0.17059600  1
  F  F17  1  0.28543700  0.36980600  0.32940400  1
