# generated using pymatgen
data_Ti3VFe2(PO4)6
_symmetry_space_group_name_H-M   'P 1'
_cell_length_a   8.58176019
_cell_length_b   8.58176019
_cell_length_c   8.58176001
_cell_angle_alpha   60.81038029
_cell_angle_beta   60.81038029
_cell_angle_gamma   60.81038190
_symmetry_Int_Tables_number   1
_chemical_formula_structural   Ti3VFe2(PO4)6
_chemical_formula_sum   'Ti3 V1 Fe2 P6 O24'
_cell_volume   455.07193838
_cell_formula_units_Z   1
loop_
 _symmetry_equiv_pos_site_id
 _symmetry_equiv_pos_as_xyz
  1  'x, y, z'
loop_
 _atom_site_type_symbol
 _atom_site_label
 _atom_site_symmetry_multiplicity
 _atom_site_fract_x
 _atom_site_fract_y
 _atom_site_fract_z
 _atom_site_occupancy
  Ti  Ti0  1  0.64458100  0.64458100  0.64458100  1
  Ti  Ti1  1  0.85680300  0.85680300  0.85680300  1
  Ti  Ti2  1  0.35448300  0.35448300  0.35448300  1
  V  V3  1  0.14076300  0.14076300  0.14076300  1
  Fe  Fe4  1  0.00121000  0.00121000  0.00121000  1
  Fe  Fe5  1  0.50083800  0.50083800  0.50083800  1
  P  P6  1  0.54336200  0.95542800  0.24897800  1
  P  P7  1  0.24897800  0.54336200  0.95542800  1
  P  P8  1  0.95542800  0.24897800  0.54336200  1
  P  P9  1  0.04362400  0.74785800  0.45797600  1
  P  P10  1  0.74785800  0.45797600  0.04362400  1
  P  P11  1  0.45797600  0.04362400  0.74785800  1
  O  O12  1  0.31514400  0.49696200  0.11844600  1
  O  O13  1  0.11844600  0.31514400  0.49696200  1
  O  O14  1  0.49696200  0.11844600  0.31514400  1
  O  O15  1  0.74064200  0.94313600  0.08995000  1
  O  O16  1  0.39105300  0.98972300  0.18681300  1
  O  O17  1  0.56425400  0.76102600  0.41325600  1
  O  O18  1  0.08995000  0.74064200  0.94313600  1
  O  O19  1  0.41325600  0.56425400  0.76102600  1
  O  O20  1  0.99777100  0.81449700  0.61844800  1
  O  O21  1  0.76102600  0.41325600  0.56425400  1
  O  O22  1  0.05217000  0.90279700  0.26429900  1
  O  O23  1  0.81449700  0.61844800  0.99777100  1
  O  O24  1  0.18681300  0.39105300  0.98972300  1
  O  O25  1  0.94313600  0.08995000  0.74064200  1
  O  O26  1  0.23820800  0.58604000  0.44748900  1
  O  O27  1  0.98972300  0.18681300  0.39105300  1
  O  O28  1  0.58604000  0.44748900  0.23820800  1
  O  O29  1  0.90279700  0.26429900  0.05217000  1
  O  O30  1  0.44748900  0.23820800  0.58604000  1
  O  O31  1  0.61844800  0.99777100  0.81449700  1
  O  O32  1  0.26429900  0.05217000  0.90279700  1
  O  O33  1  0.51056200  0.88381100  0.67758700  1
  O  O34  1  0.88381100  0.67758700  0.51056200  1
  O  O35  1  0.67758700  0.51056200  0.88381100  1
