# generated using pymatgen
data_BaSb2F12
_symmetry_space_group_name_H-M   'P 1'
_cell_length_a   5.34953000
_cell_length_b   5.70952975
_cell_length_c   9.47594243
_cell_angle_alpha   91.62097701
_cell_angle_beta   104.43422406
_cell_angle_gamma   117.55709721
_symmetry_Int_Tables_number   1
_chemical_formula_structural   BaSb2F12
_chemical_formula_sum   'Ba1 Sb2 F12'
_cell_volume   244.99102218
_cell_formula_units_Z   1
loop_
 _symmetry_equiv_pos_site_id
 _symmetry_equiv_pos_as_xyz
  1  'x, y, z'
loop_
 _atom_site_type_symbol
 _atom_site_label
 _atom_site_symmetry_multiplicity
 _atom_site_fract_x
 _atom_site_fract_y
 _atom_site_fract_z
 _atom_site_occupancy
  Ba  Ba0  1  0.03871900  0.97560800  0.89651400  1
  Sb  Sb1  1  0.12338900  0.50155900  0.57512600  1
  Sb  Sb2  1  0.46862900  0.68742100  0.15612500  1
  F  F3  1  0.12555700  0.52012500  0.97634200  1
  F  F4  1  0.43635800  0.70811300  0.76254800  1
  F  F5  1  0.90140900  0.25043700  0.69010900  1
  F  F6  1  0.95498600  0.71589700  0.62906200  1
  F  F7  1  0.30655100  0.28596700  0.57186800  1
  F  F8  1  0.36577900  0.76144600  0.47986400  1
  F  F9  1  0.81464400  0.32794700  0.39655700  1
  F  F10  1  0.80830100  0.84321300  0.32038000  1
  F  F11  1  0.26689700  0.37120300  0.23106900  1
  F  F12  1  0.27321700  0.87825700  0.19536100  1
  F  F13  1  0.64918300  0.97800500  0.04741500  1
  F  F14  1  0.61437500  0.50479700  0.04966100  1
