# generated using pymatgen
data_NaNiCSO7
_symmetry_space_group_name_H-M   'P 1'
_cell_length_a   6.55335100
_cell_length_b   5.18278900
_cell_length_c   9.05199673
_cell_angle_alpha   87.85702231
_cell_angle_beta   90.00000000
_cell_angle_gamma   90.00000000
_symmetry_Int_Tables_number   1
_chemical_formula_structural   NaNiCSO7
_chemical_formula_sum   'Na2 Ni2 C2 S2 O14'
_cell_volume   307.23274833
_cell_formula_units_Z   2
loop_
 _symmetry_equiv_pos_site_id
 _symmetry_equiv_pos_as_xyz
  1  'x, y, z'
loop_
 _atom_site_type_symbol
 _atom_site_label
 _atom_site_symmetry_multiplicity
 _atom_site_fract_x
 _atom_site_fract_y
 _atom_site_fract_z
 _atom_site_occupancy
  Na  Na0  1  0.52408900  0.76123400  0.76082300  1
  Na  Na1  1  0.02408900  0.23876600  0.23917700  1
  Ni  Ni2  1  0.23670200  0.21706900  0.64858300  1
  Ni  Ni3  1  0.73670200  0.78293100  0.35141700  1
  C  C4  1  0.25557400  0.27648700  0.91750100  1
  C  C5  1  0.75557400  0.72351300  0.08249900  1
  S  S6  1  0.74585800  0.27701400  0.57430100  1
  S  S7  1  0.24585800  0.72298600  0.42569900  1
  O  O8  1  0.75612600  0.69245900  0.94558200  1
  O  O9  1  0.25344300  0.05092800  0.86026000  1
  O  O10  1  0.25571200  0.46712700  0.82021600  1
  O  O11  1  0.92567700  0.21569500  0.66658600  1
  O  O12  1  0.56242500  0.19708200  0.66155300  1
  O  O13  1  0.25450800  0.85559400  0.56906400  1
  O  O14  1  0.73203700  0.56306700  0.54095300  1
  O  O15  1  0.23203700  0.43693300  0.45904700  1
  O  O16  1  0.75450800  0.14440600  0.43093600  1
  O  O17  1  0.06242500  0.80291800  0.33844700  1
  O  O18  1  0.42567700  0.78430500  0.33341400  1
  O  O19  1  0.75571200  0.53287300  0.17978400  1
  O  O20  1  0.75344300  0.94907200  0.13974000  1
  O  O21  1  0.25612600  0.30754100  0.05441800  1
