# generated using pymatgen
data_NbBiO4
_symmetry_space_group_name_H-M   'P 1'
_cell_length_a   4.19743302
_cell_length_b   4.19743302
_cell_length_c   6.05526211
_cell_angle_alpha   73.85086327
_cell_angle_beta   73.85086327
_cell_angle_gamma   88.96162728
_symmetry_Int_Tables_number   1
_chemical_formula_structural   NbBiO4
_chemical_formula_sum   'Nb1 Bi1 O4'
_cell_volume   98.22799244
_cell_formula_units_Z   1
loop_
 _symmetry_equiv_pos_site_id
 _symmetry_equiv_pos_as_xyz
  1  'x, y, z'
loop_
 _atom_site_type_symbol
 _atom_site_label
 _atom_site_symmetry_multiplicity
 _atom_site_fract_x
 _atom_site_fract_y
 _atom_site_fract_z
 _atom_site_occupancy
  Nb  Nb0  1  0.05324500  0.94675500  0.00000000  1
  Bi  Bi1  1  0.70812400  0.29187600  0.50000000  1
  O  O2  1  0.99691300  0.48669700  0.04938500  1
  O  O3  1  0.13472400  0.16452000  0.65175000  1
  O  O4  1  0.83548000  0.86527600  0.34825000  1
  O  O5  1  0.51330300  0.00308700  0.95061500  1
