# generated using pymatgen
data_PaP3
_symmetry_space_group_name_H-M   'P 1'
_cell_length_a   5.55766965
_cell_length_b   5.55766965
_cell_length_c   5.46204900
_cell_angle_alpha   90.00000000
_cell_angle_beta   90.00000000
_cell_angle_gamma   119.99999582
_symmetry_Int_Tables_number   1
_chemical_formula_structural   PaP3
_chemical_formula_sum   'Pa2 P6'
_cell_volume   146.10722718
_cell_formula_units_Z   2
loop_
 _symmetry_equiv_pos_site_id
 _symmetry_equiv_pos_as_xyz
  1  'x, y, z'
loop_
 _atom_site_type_symbol
 _atom_site_label
 _atom_site_symmetry_multiplicity
 _atom_site_fract_x
 _atom_site_fract_y
 _atom_site_fract_z
 _atom_site_occupancy
  Pa  Pa0  1  0.33333300  0.66666700  0.75000000  1
  Pa  Pa1  1  0.66666700  0.33333300  0.25000000  1
  P  P2  1  0.18987900  0.37975800  0.25000000  1
  P  P3  1  0.62024200  0.81012100  0.25000000  1
  P  P4  1  0.18987900  0.81012100  0.25000000  1
  P  P5  1  0.81012100  0.62024200  0.75000000  1
  P  P6  1  0.37975800  0.18987900  0.75000000  1
  P  P7  1  0.81012100  0.18987900  0.75000000  1
