# generated using pymatgen
data_NaAl6Fe3Si6B3H3O30F
_symmetry_space_group_name_H-M   'P 1'
_cell_length_a   9.59169321
_cell_length_b   9.59169321
_cell_length_c   9.59169275
_cell_angle_alpha   113.84691733
_cell_angle_beta   113.84691733
_cell_angle_gamma   113.84692016
_symmetry_Int_Tables_number   1
_chemical_formula_structural   NaAl6Fe3Si6B3H3O30F
_chemical_formula_sum   'Na1 Al6 Fe3 Si6 B3 H3 O30 F1'
_cell_volume   542.16022317
_cell_formula_units_Z   1
loop_
 _symmetry_equiv_pos_site_id
 _symmetry_equiv_pos_as_xyz
  1  'x, y, z'
loop_
 _atom_site_type_symbol
 _atom_site_label
 _atom_site_symmetry_multiplicity
 _atom_site_fract_x
 _atom_site_fract_y
 _atom_site_fract_z
 _atom_site_occupancy
  Na  Na0  1  0.21919300  0.21919300  0.21919300  1
  Al  Al1  1  0.90640500  0.57286000  0.34926300  1
  Al  Al2  1  0.34926300  0.90640500  0.57286000  1
  Al  Al3  1  0.57286000  0.34926300  0.90640500  1
  Al  Al4  1  0.34926300  0.57286000  0.90640500  1
  Al  Al5  1  0.90640500  0.34926300  0.57286000  1
  Al  Al6  1  0.57286000  0.90640500  0.34926300  1
  Fe  Fe7  1  0.57669300  0.74364800  0.57669300  1
  Fe  Fe8  1  0.57669300  0.57669300  0.74364800  1
  Fe  Fe9  1  0.74364800  0.57669300  0.57669300  1
  Si  Si10  1  0.18773500  0.99407200  0.80532200  1
  Si  Si11  1  0.80532200  0.18773500  0.99407200  1
  Si  Si12  1  0.99407200  0.80532200  0.18773500  1
  Si  Si13  1  0.80532200  0.99407200  0.18773500  1
  Si  Si14  1  0.18773500  0.80532200  0.99407200  1
  Si  Si15  1  0.99407200  0.18773500  0.80532200  1
  B  B16  1  0.56019300  0.22657500  0.56019300  1
  B  B17  1  0.56019300  0.56019300  0.22657500  1
  B  B18  1  0.22657500  0.56019300  0.56019300  1
  H  H19  1  0.24506600  0.64283400  0.24506600  1
  H  H20  1  0.24506600  0.24506600  0.64283400  1
  H  H21  1  0.64283400  0.24506600  0.24506600  1
  O  O22  1  0.52830400  0.34208700  0.52830300  1
  O  O23  1  0.52830400  0.52830400  0.34208700  1
  O  O24  1  0.34208700  0.52830400  0.52830400  1
  O  O25  1  0.37559400  0.78193400  0.37559400  1
  O  O26  1  0.37559400  0.37559400  0.78193400  1
  O  O27  1  0.78193400  0.37559400  0.37559400  1
  O  O28  1  0.16021300  0.88070500  0.16021300  1
  O  O29  1  0.16021300  0.16021300  0.88070500  1
  O  O30  1  0.88070500  0.16021300  0.16021300  1
  O  O31  1  0.99316900  0.27316600  0.99316900  1
  O  O32  1  0.99316900  0.99316900  0.27316600  1
  O  O33  1  0.27316600  0.99316900  0.99316900  1
  O  O34  1  0.96922000  0.76545100  0.58535600  1
  O  O35  1  0.58535600  0.96922000  0.76545100  1
  O  O36  1  0.76545100  0.58535600  0.96922000  1
  O  O37  1  0.58535600  0.76545100  0.96922000  1
  O  O38  1  0.96922000  0.58535600  0.76545100  1
  O  O39  1  0.76545100  0.96922000  0.58535600  1
  O  O40  1  0.36417800  0.07873600  0.79300600  1
  O  O41  1  0.79300600  0.36417800  0.07873600  1
  O  O42  1  0.07873600  0.79300600  0.36417800  1
  O  O43  1  0.79300600  0.07873600  0.36417800  1
  O  O44  1  0.36417800  0.79300600  0.07873600  1
  O  O45  1  0.07873600  0.36417800  0.79300600  1
  O  O46  1  0.65184200  0.50260600  0.16836900  1
  O  O47  1  0.16836900  0.65184200  0.50260600  1
  O  O48  1  0.50260600  0.16836900  0.65184200  1
  O  O49  1  0.16836900  0.50260600  0.65184200  1
  O  O50  1  0.65184200  0.16836900  0.50260600  1
  O  O51  1  0.50260600  0.65184200  0.16836900  1
  F  F52  1  0.84942200  0.84942200  0.84942200  1
