# generated using pymatgen
data_Dy2Y2O5
_symmetry_space_group_name_H-M   'P 1'
_cell_length_a   3.89739200
_cell_length_b   3.89739200
_cell_length_c   9.86219900
_cell_angle_alpha   90.00000000
_cell_angle_beta   90.00000000
_cell_angle_gamma   90.00000000
_symmetry_Int_Tables_number   1
_chemical_formula_structural   Dy2Y2O5
_chemical_formula_sum   'Dy2 Y2 O5'
_cell_volume   149.80349307
_cell_formula_units_Z   1
loop_
 _symmetry_equiv_pos_site_id
 _symmetry_equiv_pos_as_xyz
  1  'x, y, z'
loop_
 _atom_site_type_symbol
 _atom_site_label
 _atom_site_symmetry_multiplicity
 _atom_site_fract_x
 _atom_site_fract_y
 _atom_site_fract_z
 _atom_site_occupancy
  Dy  Dy0  1  0.00000000  0.00000000  0.00000000  1
  Dy  Dy1  1  0.00000000  0.00000000  0.50000000  1
  Y  Y2  1  0.50000000  0.50000000  0.23644600  1
  Y  Y3  1  0.50000000  0.50000000  0.76355400  1
  O  O4  1  0.50000000  0.00000000  0.14067200  1
  O  O5  1  0.50000000  0.00000000  0.85932800  1
  O  O6  1  0.50000000  0.50000000  0.50000000  1
  O  O7  1  0.00000000  0.50000000  0.14067200  1
  O  O8  1  0.00000000  0.50000000  0.85932800  1
