# generated using pymatgen
data_FeO3
_symmetry_space_group_name_H-M   'P 1'
_cell_length_a   7.86556134
_cell_length_b   7.86556134
_cell_length_c   5.96375385
_cell_angle_alpha   69.25187287
_cell_angle_beta   69.25187287
_cell_angle_gamma   20.92750962
_symmetry_Int_Tables_number   1
_chemical_formula_structural   FeO3
_chemical_formula_sum   'Fe2 O6'
_cell_volume   122.93865160
_cell_formula_units_Z   2
loop_
 _symmetry_equiv_pos_site_id
 _symmetry_equiv_pos_as_xyz
  1  'x, y, z'
loop_
 _atom_site_type_symbol
 _atom_site_label
 _atom_site_symmetry_multiplicity
 _atom_site_fract_x
 _atom_site_fract_y
 _atom_site_fract_z
 _atom_site_occupancy
  Fe  Fe0  1  0.18749900  0.18749900  0.71829700  1
  Fe  Fe1  1  0.81250100  0.81250100  0.28170300  1
  O  O2  1  0.67874000  0.67874000  0.92333100  1
  O  O3  1  0.32520500  0.32520500  0.48504500  1
  O  O4  1  0.32126000  0.32126000  0.07666900  1
  O  O5  1  0.98165200  0.98165200  0.11057700  1
  O  O6  1  0.01834800  0.01834800  0.88942300  1
  O  O7  1  0.67479500  0.67479500  0.51495500  1
