# generated using pymatgen
data_Na3HfF8
_symmetry_space_group_name_H-M   'P 1'
_cell_length_a   6.59915990
_cell_length_b   6.59915990
_cell_length_c   6.59915990
_cell_angle_alpha   131.89292809
_cell_angle_beta   131.89292809
_cell_angle_gamma   70.39818798
_symmetry_Int_Tables_number   1
_chemical_formula_structural   Na3HfF8
_chemical_formula_sum   'Na3 Hf1 F8'
_cell_volume   156.05476694
_cell_formula_units_Z   1
loop_
 _symmetry_equiv_pos_site_id
 _symmetry_equiv_pos_as_xyz
  1  'x, y, z'
loop_
 _atom_site_type_symbol
 _atom_site_label
 _atom_site_symmetry_multiplicity
 _atom_site_fract_x
 _atom_site_fract_y
 _atom_site_fract_z
 _atom_site_occupancy
  Na  Na0  1  0.50000000  0.50000000  0.00000000  1
  Na  Na1  1  0.25000000  0.75000000  0.50000000  1
  Na  Na2  1  0.75000000  0.25000000  0.50000000  1
  Hf  Hf3  1  0.00000000  0.00000000  0.00000000  1
  F  F4  1  0.88686500  0.88686500  0.54597700  1
  F  F5  1  0.88686500  0.34088800  0.00000000  1
  F  F6  1  0.34088800  0.88686500  0.00000000  1
  F  F7  1  0.34088800  0.34088800  0.45402300  1
  F  F8  1  0.65911200  0.65911200  0.54597700  1
  F  F9  1  0.65911200  0.11313500  0.00000000  1
  F  F10  1  0.11313500  0.65911200  0.00000000  1
  F  F11  1  0.11313500  0.11313500  0.45402300  1
