# generated using pymatgen
data_Mg3Ag
_symmetry_space_group_name_H-M   'P 1'
_cell_length_a   6.16754196
_cell_length_b   6.16754196
_cell_length_c   4.91620600
_cell_angle_alpha   90.00000000
_cell_angle_beta   90.00000000
_cell_angle_gamma   119.99999953
_symmetry_Int_Tables_number   1
_chemical_formula_structural   Mg3Ag
_chemical_formula_sum   'Mg6 Ag2'
_cell_volume   161.95148380
_cell_formula_units_Z   2
loop_
 _symmetry_equiv_pos_site_id
 _symmetry_equiv_pos_as_xyz
  1  'x, y, z'
loop_
 _atom_site_type_symbol
 _atom_site_label
 _atom_site_symmetry_multiplicity
 _atom_site_fract_x
 _atom_site_fract_y
 _atom_site_fract_z
 _atom_site_occupancy
  Mg  Mg0  1  0.17045100  0.34090200  0.25000000  1
  Mg  Mg1  1  0.17045100  0.82954900  0.25000000  1
  Mg  Mg2  1  0.65909800  0.82954900  0.25000000  1
  Mg  Mg3  1  0.34090200  0.17045100  0.75000000  1
  Mg  Mg4  1  0.82954900  0.17045100  0.75000000  1
  Mg  Mg5  1  0.82954900  0.65909800  0.75000000  1
  Ag  Ag6  1  0.66666700  0.33333300  0.25000000  1
  Ag  Ag7  1  0.33333300  0.66666700  0.75000000  1
