# generated using pymatgen
data_Gd2Mg
_symmetry_space_group_name_H-M   'P 1'
_cell_length_a   3.73102400
_cell_length_b   8.88947589
_cell_length_c   5.56492958
_cell_angle_alpha   90.00000000
_cell_angle_beta   90.00000000
_cell_angle_gamma   77.88607223
_symmetry_Int_Tables_number   1
_chemical_formula_structural   Gd2Mg
_chemical_formula_sum   'Gd4 Mg2'
_cell_volume   180.46118873
_cell_formula_units_Z   2
loop_
 _symmetry_equiv_pos_site_id
 _symmetry_equiv_pos_as_xyz
  1  'x, y, z'
loop_
 _atom_site_type_symbol
 _atom_site_label
 _atom_site_symmetry_multiplicity
 _atom_site_fract_x
 _atom_site_fract_y
 _atom_site_fract_z
 _atom_site_occupancy
  Gd  Gd0  1  0.98034763  0.03930674  0.00000000  1
  Gd  Gd1  1  0.66188480  0.67623340  0.00000000  1
  Gd  Gd2  1  0.79743237  0.40513726  0.50000000  1
  Gd  Gd3  1  0.11589320  0.76821260  0.50000000  1
  Mg  Mg4  1  0.32213626  0.35572648  0.00000000  1
  Mg  Mg5  1  0.45564074  0.08871752  0.50000000  1
