# generated using pymatgen
data_Mo3(Se2S)2
_symmetry_space_group_name_H-M   'P 1'
_cell_length_a   3.27844332
_cell_length_b   3.27844332
_cell_length_c   30.14447900
_cell_angle_alpha   90.00000000
_cell_angle_beta   90.00000000
_cell_angle_gamma   119.99998621
_symmetry_Int_Tables_number   1
_chemical_formula_structural   Mo3(Se2S)2
_chemical_formula_sum   'Mo3 Se4 S2'
_cell_volume   280.59106194
_cell_formula_units_Z   1
loop_
 _symmetry_equiv_pos_site_id
 _symmetry_equiv_pos_as_xyz
  1  'x, y, z'
loop_
 _atom_site_type_symbol
 _atom_site_label
 _atom_site_symmetry_multiplicity
 _atom_site_fract_x
 _atom_site_fract_y
 _atom_site_fract_z
 _atom_site_occupancy
  Mo  Mo0  1  0.00000000  0.00000000  0.76865100  1
  Mo  Mo1  1  0.00000000  0.00000000  0.23134900  1
  Mo  Mo2  1  0.33333300  0.66666700  0.00000000  1
  Se  Se3  1  0.33333300  0.66666700  0.71264600  1
  Se  Se4  1  0.33333300  0.66666700  0.17532800  1
  Se  Se5  1  0.33333300  0.66666700  0.82467200  1
  Se  Se6  1  0.33333300  0.66666700  0.28735400  1
  S  S7  1  0.00000000  0.00000000  0.05094200  1
  S  S8  1  0.00000000  0.00000000  0.94905800  1
