# generated using pymatgen
data_BaMgTe2O7
_symmetry_space_group_name_H-M   'P 1'
_cell_length_a   8.57271683
_cell_length_b   8.57271683
_cell_length_c   5.65639400
_cell_angle_alpha   90.00000000
_cell_angle_beta   90.00000000
_cell_angle_gamma   128.89069034
_symmetry_Int_Tables_number   1
_chemical_formula_structural   BaMgTe2O7
_chemical_formula_sum   'Ba2 Mg2 Te4 O14'
_cell_volume   323.55554409
_cell_formula_units_Z   2
loop_
 _symmetry_equiv_pos_site_id
 _symmetry_equiv_pos_as_xyz
  1  'x, y, z'
loop_
 _atom_site_type_symbol
 _atom_site_label
 _atom_site_symmetry_multiplicity
 _atom_site_fract_x
 _atom_site_fract_y
 _atom_site_fract_z
 _atom_site_occupancy
  Ba  Ba0  1  0.33603600  0.92030700  0.75000000  1
  Ba  Ba1  1  0.92030700  0.33603600  0.25000000  1
  Mg  Mg2  1  0.76054700  0.52564100  0.75000000  1
  Mg  Mg3  1  0.52564100  0.76054700  0.25000000  1
  Te  Te4  1  0.44749900  0.29980900  0.25000000  1
  Te  Te5  1  0.96768400  0.81133600  0.25000000  1
  Te  Te6  1  0.81133600  0.96768400  0.75000000  1
  Te  Te7  1  0.29980900  0.44749900  0.75000000  1
  O  O8  1  0.00548200  0.00548200  0.50000000  1
  O  O9  1  0.00548200  0.00548200  0.00000000  1
  O  O10  1  0.67734500  0.64834100  0.25000000  1
  O  O11  1  0.26793200  0.99392900  0.25000000  1
  O  O12  1  0.58298400  0.29544300  0.99319200  1
  O  O13  1  0.58298400  0.29544300  0.50680800  1
  O  O14  1  0.97517200  0.66209200  0.49340300  1
  O  O15  1  0.97517200  0.66209200  0.00659700  1
  O  O16  1  0.66209200  0.97517200  0.99340300  1
  O  O17  1  0.66209200  0.97517200  0.50659700  1
  O  O18  1  0.29544300  0.58298400  0.49319200  1
  O  O19  1  0.29544300  0.58298400  0.00680800  1
  O  O20  1  0.99392900  0.26793200  0.75000000  1
  O  O21  1  0.64834100  0.67734500  0.75000000  1
