# generated using pymatgen
data_LuCuPbSe3
_symmetry_space_group_name_H-M   'P 1'
_cell_length_a   7.09158652
_cell_length_b   7.09158652
_cell_length_c   10.44859900
_cell_angle_alpha   90.00000000
_cell_angle_beta   90.00000000
_cell_angle_gamma   146.92492001
_symmetry_Int_Tables_number   1
_chemical_formula_structural   LuCuPbSe3
_chemical_formula_sum   'Lu2 Cu2 Pb2 Se6'
_cell_volume   286.76669705
_cell_formula_units_Z   2
loop_
 _symmetry_equiv_pos_site_id
 _symmetry_equiv_pos_as_xyz
  1  'x, y, z'
loop_
 _atom_site_type_symbol
 _atom_site_label
 _atom_site_symmetry_multiplicity
 _atom_site_fract_x
 _atom_site_fract_y
 _atom_site_fract_z
 _atom_site_occupancy
  Lu  Lu0  1  0.49863000  0.50137000  0.49446200  1
  Lu  Lu1  1  0.50137000  0.49863000  0.99446200  1
  Cu  Cu2  1  0.96639200  0.03360800  0.24496200  1
  Cu  Cu3  1  0.03360800  0.96639200  0.74496200  1
  Pb  Pb4  1  0.25439100  0.74560900  0.23635800  1
  Pb  Pb5  1  0.74560900  0.25439100  0.73635800  1
  Se  Se6  1  0.13875200  0.86124800  0.55402000  1
  Se  Se7  1  0.13938500  0.86061500  0.93470300  1
  Se  Se8  1  0.42279600  0.57720400  0.74685200  1
  Se  Se9  1  0.57720400  0.42279600  0.24685200  1
  Se  Se10  1  0.86061500  0.13938500  0.43470300  1
  Se  Se11  1  0.86124800  0.13875200  0.05402000  1
