# generated using pymatgen
data_Y2Mg
_symmetry_space_group_name_H-M   'P 1'
_cell_length_a   8.83105833
_cell_length_b   8.83105833
_cell_length_c   5.49557100
_cell_angle_alpha   90.00000000
_cell_angle_beta   90.00000000
_cell_angle_gamma   155.79673212
_symmetry_Int_Tables_number   1
_chemical_formula_structural   Y2Mg
_chemical_formula_sum   'Y4 Mg2'
_cell_volume   175.70971057
_cell_formula_units_Z   2
loop_
 _symmetry_equiv_pos_site_id
 _symmetry_equiv_pos_as_xyz
  1  'x, y, z'
loop_
 _atom_site_type_symbol
 _atom_site_label
 _atom_site_symmetry_multiplicity
 _atom_site_fract_x
 _atom_site_fract_y
 _atom_site_fract_z
 _atom_site_occupancy
  Y  Y0  1  0.59161700  0.40838300  0.75000000  1
  Y  Y1  1  0.27393900  0.72606100  0.75000000  1
  Y  Y2  1  0.40838300  0.59161700  0.25000000  1
  Y  Y3  1  0.72606100  0.27393900  0.25000000  1
  Mg  Mg4  1  0.93381600  0.06618400  0.75000000  1
  Mg  Mg5  1  0.06618400  0.93381600  0.25000000  1
