# generated using pymatgen
data_Mo2W(Se2S)2
_symmetry_space_group_name_H-M   'P 1'
_cell_length_a   3.27858037
_cell_length_b   3.27858037
_cell_length_c   30.17307500
_cell_angle_alpha   90.00000000
_cell_angle_beta   90.00000000
_cell_angle_gamma   120.00000754
_symmetry_Int_Tables_number   1
_chemical_formula_structural   Mo2W(Se2S)2
_chemical_formula_sum   'Mo2 W1 Se4 S2'
_cell_volume   280.88066232
_cell_formula_units_Z   1
loop_
 _symmetry_equiv_pos_site_id
 _symmetry_equiv_pos_as_xyz
  1  'x, y, z'
loop_
 _atom_site_type_symbol
 _atom_site_label
 _atom_site_symmetry_multiplicity
 _atom_site_fract_x
 _atom_site_fract_y
 _atom_site_fract_z
 _atom_site_occupancy
  Mo  Mo0  1  0.00000000  0.00000000  0.11563600  1
  Mo  Mo1  1  0.33333300  0.66666700  0.34698700  1
  W  W2  1  0.00000000  0.00000000  0.57833400  1
  Se  Se3  1  0.33333300  0.66666700  0.05970000  1
  Se  Se4  1  0.33333300  0.66666700  0.52205500  1
  Se  Se5  1  0.33333300  0.66666700  0.17158700  1
  Se  Se6  1  0.33333300  0.66666700  0.63459000  1
  S  S7  1  0.00000000  0.00000000  0.39786700  1
  S  S8  1  0.00000000  0.00000000  0.29608400  1
