# generated using pymatgen
data_CdAg3
_symmetry_space_group_name_H-M   'P 1'
_cell_length_a   5.94963161
_cell_length_b   5.94963161
_cell_length_c   4.87952100
_cell_angle_alpha   90.00000000
_cell_angle_beta   90.00000000
_cell_angle_gamma   119.99999562
_symmetry_Int_Tables_number   1
_chemical_formula_structural   CdAg3
_chemical_formula_sum   'Cd2 Ag6'
_cell_volume   149.58498196
_cell_formula_units_Z   2
loop_
 _symmetry_equiv_pos_site_id
 _symmetry_equiv_pos_as_xyz
  1  'x, y, z'
loop_
 _atom_site_type_symbol
 _atom_site_label
 _atom_site_symmetry_multiplicity
 _atom_site_fract_x
 _atom_site_fract_y
 _atom_site_fract_z
 _atom_site_occupancy
  Cd  Cd0  1  0.33333300  0.66666700  0.75000000  1
  Cd  Cd1  1  0.66666700  0.33333300  0.25000000  1
  Ag  Ag2  1  0.16553800  0.33107500  0.25000000  1
  Ag  Ag3  1  0.66892500  0.83446200  0.25000000  1
  Ag  Ag4  1  0.16553800  0.83446200  0.25000000  1
  Ag  Ag5  1  0.83446200  0.66892500  0.75000000  1
  Ag  Ag6  1  0.33107500  0.16553800  0.75000000  1
  Ag  Ag7  1  0.83446200  0.16553800  0.75000000  1
