# generated using pymatgen
data_IrCl3
_symmetry_space_group_name_H-M   'P 1'
_cell_length_a   9.65894497
_cell_length_b   9.65894497
_cell_length_c   3.39331900
_cell_angle_alpha   90.00000000
_cell_angle_beta   90.00000000
_cell_angle_gamma   120.00000666
_symmetry_Int_Tables_number   1
_chemical_formula_structural   IrCl3
_chemical_formula_sum   'Ir2 Cl6'
_cell_volume   274.16668131
_cell_formula_units_Z   2
loop_
 _symmetry_equiv_pos_site_id
 _symmetry_equiv_pos_as_xyz
  1  'x, y, z'
loop_
 _atom_site_type_symbol
 _atom_site_label
 _atom_site_symmetry_multiplicity
 _atom_site_fract_x
 _atom_site_fract_y
 _atom_site_fract_z
 _atom_site_occupancy
  Ir  Ir0  1  0.33333300  0.66666700  0.75000000  1
  Ir  Ir1  1  0.66666700  0.33333300  0.25000000  1
  Cl  Cl2  1  0.23102400  0.46204800  0.25000000  1
  Cl  Cl3  1  0.53795200  0.76897600  0.25000000  1
  Cl  Cl4  1  0.23102400  0.76897600  0.25000000  1
  Cl  Cl5  1  0.76897600  0.53795200  0.75000000  1
  Cl  Cl6  1  0.46204800  0.23102400  0.75000000  1
  Cl  Cl7  1  0.76897600  0.23102400  0.75000000  1
