# generated using pymatgen
data_ErMg5
_symmetry_space_group_name_H-M   'P 1'
_cell_length_a   8.68349555
_cell_length_b   8.68349555
_cell_length_c   5.36977600
_cell_angle_alpha   90.00000000
_cell_angle_beta   90.00000000
_cell_angle_gamma   158.65944128
_symmetry_Int_Tables_number   1
_chemical_formula_structural   ErMg5
_chemical_formula_sum   'Er1 Mg5'
_cell_volume   147.34660320
_cell_formula_units_Z   1
loop_
 _symmetry_equiv_pos_site_id
 _symmetry_equiv_pos_as_xyz
  1  'x, y, z'
loop_
 _atom_site_type_symbol
 _atom_site_label
 _atom_site_symmetry_multiplicity
 _atom_site_fract_x
 _atom_site_fract_y
 _atom_site_fract_z
 _atom_site_occupancy
  Er  Er0  1  0.22067100  0.77932900  0.00000000  1
  Mg  Mg1  1  0.00142300  0.99857700  0.50000000  1
  Mg  Mg2  1  0.66364200  0.33635800  0.50000000  1
  Mg  Mg3  1  0.33598500  0.66401500  0.50000000  1
  Mg  Mg4  1  0.55248000  0.44752000  0.00000000  1
  Mg  Mg5  1  0.89246600  0.10753400  0.00000000  1
