# generated using pymatgen
data_CaSn2S5
_symmetry_space_group_name_H-M   'P 1'
_cell_length_a   7.13742700
_cell_length_b   10.51244300
_cell_length_c   12.88164306
_cell_angle_alpha   72.54443871
_cell_angle_beta   90.00000000
_cell_angle_gamma   90.00000000
_symmetry_Int_Tables_number   1
_chemical_formula_structural   CaSn2S5
_chemical_formula_sum   'Ca4 Sn8 S20'
_cell_volume   922.02385492
_cell_formula_units_Z   4
loop_
 _symmetry_equiv_pos_site_id
 _symmetry_equiv_pos_as_xyz
  1  'x, y, z'
loop_
 _atom_site_type_symbol
 _atom_site_label
 _atom_site_symmetry_multiplicity
 _atom_site_fract_x
 _atom_site_fract_y
 _atom_site_fract_z
 _atom_site_occupancy
  Ca  Ca0  1  0.70893500  0.05681900  0.82696800  1
  Ca  Ca1  1  0.20893500  0.94318100  0.67303200  1
  Ca  Ca2  1  0.29106500  0.94318100  0.17303200  1
  Ca  Ca3  1  0.79106500  0.05681900  0.32696800  1
  Sn  Sn4  1  0.10903300  0.36825000  0.69370100  1
  Sn  Sn5  1  0.60903300  0.63175000  0.80629900  1
  Sn  Sn6  1  0.89096700  0.63175000  0.30629900  1
  Sn  Sn7  1  0.39096700  0.36825000  0.19370100  1
  Sn  Sn8  1  0.93731100  0.32389500  0.03404200  1
  Sn  Sn9  1  0.43731100  0.67610500  0.46595800  1
  Sn  Sn10  1  0.06268900  0.67610500  0.96595800  1
  Sn  Sn11  1  0.56268900  0.32389500  0.53404200  1
  S  S12  1  0.88473200  0.20524600  0.62640100  1
  S  S13  1  0.38473200  0.79475400  0.87359900  1
  S  S14  1  0.11526800  0.79475400  0.37359900  1
  S  S15  1  0.61526800  0.20524600  0.12640100  1
  S  S16  1  0.48660300  0.09819200  0.00125400  1
  S  S17  1  0.98660300  0.90180800  0.49874600  1
  S  S18  1  0.51339700  0.90180800  0.99874600  1
  S  S19  1  0.01339700  0.09819200  0.50125400  1
  S  S20  1  0.94007900  0.22873400  0.88378600  1
  S  S21  1  0.44007900  0.77126600  0.61621400  1
  S  S22  1  0.05992100  0.77126600  0.11621400  1
  S  S23  1  0.55992100  0.22873400  0.38378600  1
  S  S24  1  0.39318300  0.18482900  0.69781800  1
  S  S25  1  0.89318300  0.81517100  0.80218200  1
  S  S26  1  0.60681700  0.81517100  0.30218200  1
  S  S27  1  0.10681700  0.18482900  0.19781800  1
  S  S28  1  0.22555900  0.47236500  0.95806100  1
  S  S29  1  0.72555900  0.52763500  0.54193900  1
  S  S30  1  0.77444100  0.52763500  0.04193900  1
  S  S31  1  0.27444100  0.47236500  0.45806100  1
