# generated using pymatgen
data_Ca3SnS5
_symmetry_space_group_name_H-M   'P 1'
_cell_length_a   8.07177371
_cell_length_b   8.07177371
_cell_length_c   7.14378200
_cell_angle_alpha   90.00000000
_cell_angle_beta   90.00000000
_cell_angle_gamma   119.99999760
_symmetry_Int_Tables_number   1
_chemical_formula_structural   Ca3SnS5
_chemical_formula_sum   'Ca6 Sn2 S10'
_cell_volume   403.08514307
_cell_formula_units_Z   2
loop_
 _symmetry_equiv_pos_site_id
 _symmetry_equiv_pos_as_xyz
  1  'x, y, z'
loop_
 _atom_site_type_symbol
 _atom_site_label
 _atom_site_symmetry_multiplicity
 _atom_site_fract_x
 _atom_site_fract_y
 _atom_site_fract_z
 _atom_site_occupancy
  Ca  Ca0  1  0.57784600  0.57784600  0.67153500  1
  Ca  Ca1  1  0.00000000  0.42215400  0.67153500  1
  Ca  Ca2  1  0.42215400  0.00000000  0.67153500  1
  Ca  Ca3  1  0.42215400  0.42215400  0.17153500  1
  Ca  Ca4  1  0.00000000  0.57784600  0.17153500  1
  Ca  Ca5  1  0.57784600  0.00000000  0.17153500  1
  Sn  Sn6  1  0.00000000  0.00000000  0.40570000  1
  Sn  Sn7  1  0.00000000  0.00000000  0.90570000  1
  S  S8  1  0.66666700  0.33333300  0.41530900  1
  S  S9  1  0.33333300  0.66666700  0.41530900  1
  S  S10  1  0.33333300  0.66666700  0.91530900  1
  S  S11  1  0.66666700  0.33333300  0.91530900  1
  S  S12  1  0.76342000  0.00000000  0.65604000  1
  S  S13  1  0.23658000  0.23658000  0.65604000  1
  S  S14  1  0.00000000  0.76342000  0.65604000  1
  S  S15  1  0.23658000  0.00000000  0.15604000  1
  S  S16  1  0.76342000  0.76342000  0.15604000  1
  S  S17  1  0.00000000  0.23658000  0.15604000  1
