# generated using pymatgen
data_CaSnS3
_symmetry_space_group_name_H-M   'P 1'
_cell_length_a   13.21277600
_cell_length_b   14.58180300
_cell_length_c   14.58180300
_cell_angle_alpha   90.00000000
_cell_angle_beta   90.00000000
_cell_angle_gamma   90.00000000
_symmetry_Int_Tables_number   1
_chemical_formula_structural   CaSnS3
_chemical_formula_sum   'Ca20 Sn20 S60'
_cell_volume   2809.41906708
_cell_formula_units_Z   20
loop_
 _symmetry_equiv_pos_site_id
 _symmetry_equiv_pos_as_xyz
  1  'x, y, z'
loop_
 _atom_site_type_symbol
 _atom_site_label
 _atom_site_symmetry_multiplicity
 _atom_site_fract_x
 _atom_site_fract_y
 _atom_site_fract_z
 _atom_site_occupancy
  Ca  Ca0  1  0.44462700  0.75295000  0.26793900  1
  Ca  Ca1  1  0.94462700  0.24705000  0.73206100  1
  Ca  Ca2  1  0.19462700  0.26793900  0.24705000  1
  Ca  Ca3  1  0.69462700  0.73206100  0.75295000  1
  Ca  Ca4  1  0.70911100  0.26974600  0.28738000  1
  Ca  Ca5  1  0.20911100  0.73025400  0.71262100  1
  Ca  Ca6  1  0.45911100  0.28738000  0.73025400  1
  Ca  Ca7  1  0.95911100  0.71262100  0.26974600  1
  Ca  Ca8  1  0.48888300  0.83721800  0.55539800  1
  Ca  Ca9  1  0.98888300  0.16278200  0.44460200  1
  Ca  Ca10  1  0.23888300  0.55539800  0.16278200  1
  Ca  Ca11  1  0.73888300  0.44460200  0.83721800  1
  Ca  Ca12  1  0.69447800  0.96599300  0.33993800  1
  Ca  Ca13  1  0.19447800  0.03400700  0.66006200  1
  Ca  Ca14  1  0.44447800  0.33993800  0.03400700  1
  Ca  Ca15  1  0.94447800  0.66006200  0.96599300  1
  Ca  Ca16  1  0.70329000  0.53767600  0.12341500  1
  Ca  Ca17  1  0.20329000  0.46232400  0.87658500  1
  Ca  Ca18  1  0.45329000  0.12341500  0.46232400  1
  Ca  Ca19  1  0.95329000  0.87658500  0.53767600  1
  Sn  Sn20  1  0.75569500  0.72969900  0.43585100  1
  Sn  Sn21  1  0.25569500  0.27030100  0.56414900  1
  Sn  Sn22  1  0.50569500  0.43585100  0.27030100  1
  Sn  Sn23  1  0.00569500  0.56414900  0.72969900  1
  Sn  Sn24  1  0.22655700  0.80375600  0.09234400  1
  Sn  Sn25  1  0.72655700  0.19624400  0.90765600  1
  Sn  Sn26  1  0.97655700  0.09234400  0.19624400  1
  Sn  Sn27  1  0.47655700  0.90765600  0.80375600  1
  Sn  Sn28  1  0.45146900  0.62904300  0.93665500  1
  Sn  Sn29  1  0.95146900  0.37095700  0.06334500  1
  Sn  Sn30  1  0.20146900  0.93665500  0.37095700  1
  Sn  Sn31  1  0.70146900  0.06334500  0.62904300  1
  Sn  Sn32  1  0.81251100  0.87592200  0.07311400  1
  Sn  Sn33  1  0.31251100  0.12407800  0.92688600  1
  Sn  Sn34  1  0.56251100  0.07311400  0.12407800  1
  Sn  Sn35  1  0.06251100  0.92688600  0.87592200  1
  Sn  Sn36  1  0.19329900  0.64224500  0.43904000  1
  Sn  Sn37  1  0.69329900  0.35775500  0.56096000  1
  Sn  Sn38  1  0.94329900  0.43904000  0.35775500  1
  Sn  Sn39  1  0.44329900  0.56096000  0.64224500  1
  S  S40  1  0.35016800  0.50561400  0.00390800  1
  S  S41  1  0.85016800  0.49438600  0.99609200  1
  S  S42  1  0.10016800  0.00390800  0.49438600  1
  S  S43  1  0.60016800  0.99609200  0.50561400  1
  S  S44  1  0.62167400  0.57242500  0.94281400  1
  S  S45  1  0.12167400  0.42757500  0.05718600  1
  S  S46  1  0.37167400  0.94281400  0.42757500  1
  S  S47  1  0.87167400  0.05718600  0.57242500  1
  S  S48  1  0.09182800  0.69777800  0.11436700  1
  S  S49  1  0.59182800  0.30222200  0.88563300  1
  S  S50  1  0.84182800  0.11436700  0.30222200  1
  S  S51  1  0.34182800  0.88563300  0.69777800  1
  S  S52  1  0.38608400  0.71930600  0.08342900  1
  S  S53  1  0.88608400  0.28069400  0.91657100  1
  S  S54  1  0.13608400  0.08342900  0.28069400  1
  S  S55  1  0.63608400  0.91657100  0.71930600  1
  S  S56  1  0.22402000  0.87515600  0.94108300  1
  S  S57  1  0.72402000  0.12484400  0.05891700  1
  S  S58  1  0.97402000  0.94108300  0.12484400  1
  S  S59  1  0.47402000  0.05891700  0.87515600  1
  S  S60  1  0.55568300  0.59079200  0.24352800  1
  S  S61  1  0.05568300  0.40920800  0.75647200  1
  S  S62  1  0.30568300  0.24352800  0.40920800  1
  S  S63  1  0.80568300  0.75647200  0.59079200  1
  S  S64  1  0.85956600  0.85115500  0.36186900  1
  S  S65  1  0.35956600  0.14884500  0.63813100  1
  S  S66  1  0.60956600  0.36186900  0.14884500  1
  S  S67  1  0.10956600  0.63813100  0.85115500  1
  S  S68  1  0.59473300  0.79663800  0.38894700  1
  S  S69  1  0.09473300  0.20336200  0.61105300  1
  S  S70  1  0.34473300  0.38894700  0.20336200  1
  S  S71  1  0.84473300  0.61105300  0.79663800  1
  S  S72  1  0.81032300  0.59022500  0.35403500  1
  S  S73  1  0.31032300  0.40977500  0.64596500  1
  S  S74  1  0.56032300  0.35403500  0.40977500  1
  S  S75  1  0.06032300  0.64596500  0.59022500  1
  S  S76  1  0.81519700  0.71723900  0.11643400  1
  S  S77  1  0.31519700  0.28276100  0.88356600  1
  S  S78  1  0.56519700  0.11643400  0.28276100  1
  S  S79  1  0.06519700  0.88356600  0.71723900  1
  S  S80  1  0.54398500  0.78179600  0.89282100  1
  S  S81  1  0.04398500  0.21820400  0.10717900  1
  S  S82  1  0.29398500  0.89282100  0.21820400  1
  S  S83  1  0.79398500  0.10717900  0.78179600  1
  S  S84  1  0.63686000  0.91168200  0.13906300  1
  S  S85  1  0.13686000  0.08831800  0.86093700  1
  S  S86  1  0.38686000  0.13906300  0.08831800  1
  S  S87  1  0.88686000  0.86093700  0.91168200  1
  S  S88  1  0.10439300  0.78894400  0.40399700  1
  S  S89  1  0.60439300  0.21105600  0.59600300  1
  S  S90  1  0.85439300  0.40399700  0.21105600  1
  S  S91  1  0.35439300  0.59600300  0.78894400  1
  S  S92  1  0.32703500  0.67680400  0.55764200  1
  S  S93  1  0.82703500  0.32319600  0.44235800  1
  S  S94  1  0.07703500  0.55764200  0.32319600  1
  S  S95  1  0.57703500  0.44235800  0.67680400  1
  S  S96  1  0.32411200  0.61431800  0.32677500  1
  S  S97  1  0.82411200  0.38568200  0.67322500  1
  S  S98  1  0.07411200  0.32677500  0.38568200  1
  S  S99  1  0.57411200  0.67322500  0.61431800  1
