# generated using pymatgen
data_Ca2SnS4
_symmetry_space_group_name_H-M   'P 1'
_cell_length_a   8.92552000
_cell_length_b   9.95644400
_cell_length_c   10.22828500
_cell_angle_alpha   90.00000000
_cell_angle_beta   90.00000000
_cell_angle_gamma   90.00000000
_symmetry_Int_Tables_number   1
_chemical_formula_structural   Ca2SnS4
_chemical_formula_sum   'Ca8 Sn4 S16'
_cell_volume   908.95127578
_cell_formula_units_Z   4
loop_
 _symmetry_equiv_pos_site_id
 _symmetry_equiv_pos_as_xyz
  1  'x, y, z'
loop_
 _atom_site_type_symbol
 _atom_site_label
 _atom_site_symmetry_multiplicity
 _atom_site_fract_x
 _atom_site_fract_y
 _atom_site_fract_z
 _atom_site_occupancy
  Ca  Ca0  1  0.00000000  0.69600700  0.35264200  1
  Ca  Ca1  1  0.00000000  0.30399300  0.64735800  1
  Ca  Ca2  1  0.00000000  0.80399300  0.85264200  1
  Ca  Ca3  1  0.00000000  0.19600700  0.14735800  1
  Ca  Ca4  1  0.50000000  0.35936300  0.29957600  1
  Ca  Ca5  1  0.50000000  0.64063700  0.70042400  1
  Ca  Ca6  1  0.50000000  0.14063700  0.79957600  1
  Ca  Ca7  1  0.50000000  0.85936300  0.20042400  1
  Sn  Sn8  1  0.75046500  0.00000000  0.50000000  1
  Sn  Sn9  1  0.24953500  0.50000000  0.00000000  1
  Sn  Sn10  1  0.24953500  0.00000000  0.50000000  1
  Sn  Sn11  1  0.75046500  0.50000000  0.00000000  1
  S  S12  1  0.74883200  0.67384700  0.82932300  1
  S  S13  1  0.74883200  0.32615300  0.17067700  1
  S  S14  1  0.25116800  0.82615300  0.32932300  1
  S  S15  1  0.25116800  0.17384700  0.67067700  1
  S  S16  1  0.25116800  0.32615300  0.17067700  1
  S  S17  1  0.25116800  0.67384700  0.82932300  1
  S  S18  1  0.74883200  0.17384700  0.67067700  1
  S  S19  1  0.74883200  0.82615300  0.32932300  1
  S  S20  1  0.00000000  0.14353000  0.40780100  1
  S  S21  1  0.00000000  0.85647000  0.59219900  1
  S  S22  1  0.00000000  0.35647000  0.90780100  1
  S  S23  1  0.00000000  0.64353000  0.09219900  1
  S  S24  1  0.50000000  0.09562000  0.36183400  1
  S  S25  1  0.50000000  0.90438000  0.63816600  1
  S  S26  1  0.50000000  0.40438000  0.86183400  1
  S  S27  1  0.50000000  0.59562000  0.13816600  1
