# generated using pymatgen
data_Ca3Sn4S11
_symmetry_space_group_name_H-M   'P 1'
_cell_length_a   9.89065300
_cell_length_b   10.06299814
_cell_length_c   10.26034072
_cell_angle_alpha   94.95721407
_cell_angle_beta   114.30745358
_cell_angle_gamma   104.03004863
_symmetry_Int_Tables_number   1
_chemical_formula_structural   Ca3Sn4S11
_chemical_formula_sum   'Ca6 Sn8 S22'
_cell_volume   882.66402096
_cell_formula_units_Z   2
loop_
 _symmetry_equiv_pos_site_id
 _symmetry_equiv_pos_as_xyz
  1  'x, y, z'
loop_
 _atom_site_type_symbol
 _atom_site_label
 _atom_site_symmetry_multiplicity
 _atom_site_fract_x
 _atom_site_fract_y
 _atom_site_fract_z
 _atom_site_occupancy
  Ca  Ca0  1  0.48530800  0.68875800  0.67686500  1
  Ca  Ca1  1  0.90656700  0.62574200  0.48292600  1
  Ca  Ca2  1  0.54536500  0.25870800  0.18165200  1
  Ca  Ca3  1  0.71910000  0.79439400  0.09833500  1
  Ca  Ca4  1  0.09082200  0.14355000  0.40418000  1
  Ca  Ca5  1  0.14630800  0.71581200  0.93030000  1
  Sn  Sn6  1  0.98646800  0.03735400  0.92517400  1
  Sn  Sn7  1  0.83569200  0.38252500  0.04501400  1
  Sn  Sn8  1  0.39834600  0.03368000  0.73712400  1
  Sn  Sn9  1  0.70478700  0.36935800  0.67927100  1
  Sn  Sn10  1  0.25293300  0.38450100  0.83328100  1
  Sn  Sn11  1  0.27462600  0.86409100  0.33681100  1
  Sn  Sn12  1  0.35728000  0.52897900  0.28481700  1
  Sn  Sn13  1  0.79677800  0.03663100  0.53938500  1
  S  S14  1  0.22724500  0.79340600  0.57012200  1
  S  S15  1  0.87132500  0.77401900  0.74231900  1
  S  S16  1  0.60134800  0.45734600  0.43404300  1
  S  S17  1  0.11943000  0.12840200  0.69848000  1
  S  S18  1  0.28647400  0.00424000  0.96287000  1
  S  S19  1  0.87710900  0.88640400  0.39905400  1
  S  S20  1  0.20641700  0.45541900  0.43085900  1
  S  S21  1  0.51376600  0.77721800  0.42103600  1
  S  S22  1  0.12381500  0.61885100  0.16937400  1
  S  S23  1  0.63459600  0.95669300  0.85714200  1
  S  S24  1  0.41656700  0.94336100  0.15534700  1
  S  S25  1  0.00389900  0.46499200  0.71527100  1
  S  S26  1  0.25590900  0.32341400  0.07902500  1
  S  S27  1  0.39837600  0.10363900  0.50081800  1
  S  S28  1  0.84447000  0.25173100  0.39723000  1
  S  S29  1  0.79535200  0.16092300  0.18239500  1
  S  S30  1  0.03911900  0.93946500  0.16033300  1
  S  S31  1  0.74835700  0.52866000  0.18253700  1
  S  S32  1  0.77259700  0.63466000  0.84451700  1
  S  S33  1  0.50898900  0.28289600  0.88739200  1
  S  S34  1  0.40183700  0.63453900  0.93747700  1
  S  S35  1  0.34772100  0.39393900  0.61632500  1
