# generated using pymatgen
data_TiMnH12(OF)6
_symmetry_space_group_name_H-M   'P 1'
_cell_length_a   6.60166283
_cell_length_b   6.60062360
_cell_length_c   6.60172327
_cell_angle_alpha   97.57027160
_cell_angle_beta   97.56788778
_cell_angle_gamma   97.56971108
_symmetry_Int_Tables_number   1
_chemical_formula_structural   TiMnH12(OF)6
_chemical_formula_sum   'Ti1 Mn1 H12 O6 F6'
_cell_volume   279.40722391
_cell_formula_units_Z   1
loop_
 _symmetry_equiv_pos_site_id
 _symmetry_equiv_pos_as_xyz
  1  'x, y, z'
loop_
 _atom_site_type_symbol
 _atom_site_label
 _atom_site_symmetry_multiplicity
 _atom_site_fract_x
 _atom_site_fract_y
 _atom_site_fract_z
 _atom_site_occupancy
  Ti  Ti0  1  0.50003600  0.49996800  0.49996300  1
  Mn  Mn1  1  0.00004100  0.99986400  0.99949900  1
  H  H2  1  0.69015400  0.66237600  0.97699000  1
  H  H3  1  0.30999600  0.33783600  0.02299200  1
  H  H4  1  0.78564100  0.23640200  0.26288400  1
  H  H5  1  0.76358300  0.73707100  0.21429100  1
  H  H6  1  0.26296000  0.78568600  0.23646900  1
  H  H7  1  0.02288800  0.30994800  0.33776300  1
  H  H8  1  0.33777700  0.02293900  0.31004100  1
  H  H9  1  0.66222500  0.97698600  0.69028300  1
  H  H10  1  0.97696900  0.69022700  0.66237900  1
  H  H11  1  0.73708000  0.21434300  0.76375400  1
  H  H12  1  0.23636400  0.26292800  0.78572300  1
  H  H13  1  0.21431800  0.76372800  0.73705700  1
  O  O14  1  0.74636200  0.78566100  0.07936000  1
  O  O15  1  0.92066100  0.25357000  0.21444100  1
  O  O16  1  0.21449000  0.92059300  0.25365500  1
  O  O17  1  0.78557200  0.07935100  0.74658100  1
  O  O18  1  0.07934900  0.74646400  0.78563400  1
  O  O19  1  0.25360800  0.21447700  0.92066600  1
  F  F20  1  0.37400600  0.54822000  0.23910600  1
  F  F21  1  0.54817400  0.23881800  0.37361300  1
  F  F22  1  0.76090400  0.62599800  0.45183900  1
  F  F23  1  0.23902400  0.37387300  0.54815700  1
  F  F24  1  0.45179900  0.76088800  0.62593500  1
  F  F25  1  0.62601600  0.45178600  0.76092400  1
