# generated using pymatgen
data_Ca2SnS4
_symmetry_space_group_name_H-M   'P 1'
_cell_length_a   3.97592600
_cell_length_b   7.08499200
_cell_length_c   11.51915400
_cell_angle_alpha   90.00000000
_cell_angle_beta   90.00000000
_cell_angle_gamma   90.00000000
_symmetry_Int_Tables_number   1
_chemical_formula_structural   Ca2SnS4
_chemical_formula_sum   'Ca4 Sn2 S8'
_cell_volume   324.48770164
_cell_formula_units_Z   2
loop_
 _symmetry_equiv_pos_site_id
 _symmetry_equiv_pos_as_xyz
  1  'x, y, z'
loop_
 _atom_site_type_symbol
 _atom_site_label
 _atom_site_symmetry_multiplicity
 _atom_site_fract_x
 _atom_site_fract_y
 _atom_site_fract_z
 _atom_site_occupancy
  Ca  Ca0  1  0.50000000  0.41463800  0.81489900  1
  Ca  Ca1  1  0.50000000  0.58536200  0.18510100  1
  Ca  Ca2  1  0.50000000  0.91463800  0.68510100  1
  Ca  Ca3  1  0.50000000  0.08536200  0.31489900  1
  Sn  Sn4  1  0.00000000  0.50000000  0.50000000  1
  Sn  Sn5  1  0.00000000  0.00000000  0.00000000  1
  S  S6  1  0.50000000  0.26477100  0.55236000  1
  S  S7  1  0.50000000  0.73522900  0.44764000  1
  S  S8  1  0.50000000  0.76477100  0.94764000  1
  S  S9  1  0.50000000  0.23522900  0.05236000  1
  S  S10  1  0.00000000  0.13228700  0.79795700  1
  S  S11  1  0.00000000  0.86771300  0.20204300  1
  S  S12  1  0.00000000  0.63228700  0.70204300  1
  S  S13  1  0.00000000  0.36771300  0.29795700  1
