# generated using pymatgen
data_TbAgH2C2SO9
_symmetry_space_group_name_H-M   'P 1'
_cell_length_a   7.73775683
_cell_length_b   7.73775683
_cell_length_c   9.08942092
_cell_angle_alpha   66.10216762
_cell_angle_beta   66.10216762
_cell_angle_gamma   53.40908184
_symmetry_Int_Tables_number   1
_chemical_formula_structural   TbAgH2C2SO9
_chemical_formula_sum   'Tb2 Ag2 H4 C4 S2 O18'
_cell_volume   389.44189631
_cell_formula_units_Z   2
loop_
 _symmetry_equiv_pos_site_id
 _symmetry_equiv_pos_as_xyz
  1  'x, y, z'
loop_
 _atom_site_type_symbol
 _atom_site_label
 _atom_site_symmetry_multiplicity
 _atom_site_fract_x
 _atom_site_fract_y
 _atom_site_fract_z
 _atom_site_occupancy
  Tb  Tb0  1  0.75724600  0.75724600  0.26828700  1
  Tb  Tb1  1  0.24275400  0.24275400  0.73171300  1
  Ag  Ag2  1  0.91364400  0.91364400  0.66848100  1
  Ag  Ag3  1  0.08635600  0.08635600  0.33151900  1
  H  H4  1  0.69895300  0.69895300  0.98828600  1
  H  H5  1  0.30104700  0.30104700  0.01171400  1
  H  H6  1  0.58480400  0.58480400  0.14704200  1
  H  H7  1  0.41519600  0.41519600  0.85295800  1
  C  C8  1  0.98276100  0.98276100  0.93013200  1
  C  C9  1  0.01723900  0.01723900  0.06986800  1
  C  C10  1  0.39023000  0.60977000  0.50000000  1
  C  C11  1  0.60977000  0.39023000  0.50000000  1
  S  S12  1  0.66633400  0.66633400  0.71641300  1
  S  S13  1  0.33366600  0.33366600  0.28358700  1
  O  O14  1  0.66435700  0.66435700  0.10883200  1
  O  O15  1  0.33564300  0.33564300  0.89116800  1
  O  O16  1  0.55157500  0.55157500  0.75283900  1
  O  O17  1  0.44842500  0.44842500  0.24716100  1
  O  O18  1  0.52020900  0.86542300  0.79080300  1
  O  O19  1  0.13457700  0.47979100  0.20919700  1
  O  O20  1  0.47979100  0.13457700  0.20919700  1
  O  O21  1  0.86542300  0.52020900  0.79080300  1
  O  O22  1  0.73876800  0.73876800  0.53454900  1
  O  O23  1  0.26123200  0.26123200  0.46545100  1
  O  O24  1  0.39833000  0.78289800  0.41798900  1
  O  O25  1  0.21710200  0.60167000  0.58201100  1
  O  O26  1  0.60167000  0.21710200  0.58201100  1
  O  O27  1  0.78289800  0.39833000  0.41798900  1
  O  O28  1  0.05632200  0.05632200  0.78225000  1
  O  O29  1  0.94367800  0.94367800  0.21775000  1
  O  O30  1  0.88172300  0.88172300  0.97237200  1
  O  O31  1  0.11827700  0.11827700  0.02762800  1
