# generated using pymatgen
data_K2TeH6SeO10
_symmetry_space_group_name_H-M   'P 1'
_cell_length_a   6.70553107
_cell_length_b   6.70553107
_cell_length_c   13.99733196
_cell_angle_alpha   75.63564530
_cell_angle_beta   75.63564530
_cell_angle_gamma   58.23385731
_symmetry_Int_Tables_number   1
_chemical_formula_structural   K2TeH6SeO10
_chemical_formula_sum   'K4 Te2 H12 Se2 O20'
_cell_volume   513.07082818
_cell_formula_units_Z   2
loop_
 _symmetry_equiv_pos_site_id
 _symmetry_equiv_pos_as_xyz
  1  'x, y, z'
loop_
 _atom_site_type_symbol
 _atom_site_label
 _atom_site_symmetry_multiplicity
 _atom_site_fract_x
 _atom_site_fract_y
 _atom_site_fract_z
 _atom_site_occupancy
  K  K0  1  0.36672400  0.75662300  0.61655600  1
  K  K1  1  0.75662300  0.36672400  0.11655600  1
  K  K2  1  0.04972600  0.47577900  0.40196800  1
  K  K3  1  0.47577900  0.04972600  0.90196800  1
  Te  Te4  1  0.41199100  0.91462300  0.26203400  1
  Te  Te5  1  0.91462300  0.41199100  0.76203400  1
  H  H6  1  0.31511900  0.29572100  0.15632900  1
  H  H7  1  0.29572100  0.31511900  0.65632900  1
  H  H8  1  0.27573400  0.87647700  0.12392700  1
  H  H9  1  0.87647700  0.27573400  0.62392700  1
  H  H10  1  0.98498100  0.02681400  0.32816000  1
  H  H11  1  0.02681400  0.98498100  0.82816000  1
  H  H12  1  0.83670100  0.79782300  0.19278500  1
  H  H13  1  0.79782300  0.83670100  0.69278500  1
  H  H14  1  0.54606500  0.95733000  0.40104300  1
  H  H15  1  0.95733000  0.54606500  0.90104300  1
  H  H16  1  0.50527500  0.53462800  0.37045300  1
  H  H17  1  0.53462800  0.50527500  0.87045300  1
  Se  Se18  1  0.69543200  0.12985900  0.51245400  1
  Se  Se19  1  0.12985900  0.69543200  0.01245400  1
  O  O20  1  0.42120700  0.20897800  0.21029400  1
  O  O21  1  0.20897800  0.42120700  0.71029400  1
  O  O22  1  0.42654300  0.86920100  0.12646100  1
  O  O23  1  0.86920100  0.42654300  0.62646100  1
  O  O24  1  0.06656000  0.09527300  0.27168900  1
  O  O25  1  0.09527300  0.06656000  0.77168900  1
  O  O26  1  0.75771900  0.72701500  0.24941000  1
  O  O27  1  0.72701500  0.75771900  0.74941000  1
  O  O28  1  0.39836600  0.95898600  0.39739000  1
  O  O29  1  0.95898600  0.39836600  0.89739000  1
  O  O30  1  0.40014500  0.62287000  0.31619000  1
  O  O31  1  0.62287000  0.40014500  0.81619000  1
  O  O32  1  0.66195200  0.39806600  0.46430700  1
  O  O33  1  0.39806600  0.66195200  0.96430700  1
  O  O34  1  0.88293900  0.01411400  0.59698200  1
  O  O35  1  0.01411400  0.88293900  0.09698200  1
  O  O36  1  0.80031800  0.95604000  0.42239100  1
  O  O37  1  0.95604000  0.80031800  0.92239100  1
  O  O38  1  0.43362800  0.15325700  0.56527600  1
  O  O39  1  0.15325700  0.43362800  0.06527600  1
