# generated using pymatgen
data_CaSnS3
_symmetry_space_group_name_H-M   'P 1'
_cell_length_a   6.73063800
_cell_length_b   7.06358000
_cell_length_c   9.63491800
_cell_angle_alpha   90.00000000
_cell_angle_beta   90.00000000
_cell_angle_gamma   90.00000000
_symmetry_Int_Tables_number   1
_chemical_formula_structural   CaSnS3
_chemical_formula_sum   'Ca4 Sn4 S12'
_cell_volume   458.06712518
_cell_formula_units_Z   4
loop_
 _symmetry_equiv_pos_site_id
 _symmetry_equiv_pos_as_xyz
  1  'x, y, z'
loop_
 _atom_site_type_symbol
 _atom_site_label
 _atom_site_symmetry_multiplicity
 _atom_site_fract_x
 _atom_site_fract_y
 _atom_site_fract_z
 _atom_site_occupancy
  Ca  Ca0  1  0.46857200  0.91196400  0.25000000  1
  Ca  Ca1  1  0.03142800  0.41196400  0.25000000  1
  Ca  Ca2  1  0.53142800  0.08803600  0.75000000  1
  Ca  Ca3  1  0.96857200  0.58803600  0.75000000  1
  Sn  Sn4  1  0.50000000  0.50000000  0.00000000  1
  Sn  Sn5  1  0.00000000  0.00000000  0.50000000  1
  Sn  Sn6  1  0.50000000  0.50000000  0.50000000  1
  Sn  Sn7  1  0.00000000  0.00000000  0.00000000  1
  S  S8  1  0.63313300  0.54838600  0.25000000  1
  S  S9  1  0.86686700  0.04838600  0.25000000  1
  S  S10  1  0.36686700  0.45161400  0.75000000  1
  S  S11  1  0.13313300  0.95161400  0.75000000  1
  S  S12  1  0.18597700  0.69105200  0.43507700  1
  S  S13  1  0.31402300  0.19105200  0.06492300  1
  S  S14  1  0.81402300  0.30894800  0.93507700  1
  S  S15  1  0.68597700  0.80894800  0.56492300  1
  S  S16  1  0.81402300  0.30894800  0.56492300  1
  S  S17  1  0.68597700  0.80894800  0.93507700  1
  S  S18  1  0.18597700  0.69105200  0.06492300  1
  S  S19  1  0.31402300  0.19105200  0.43507700  1
