# generated using pymatgen
data_CaSnS3
_symmetry_space_group_name_H-M   'P 1'
_cell_length_a   6.99394100
_cell_length_b   10.74142788
_cell_length_c   12.55781037
_cell_angle_alpha   110.22866317
_cell_angle_beta   90.25348304
_cell_angle_gamma   92.72687907
_symmetry_Int_Tables_number   1
_chemical_formula_structural   CaSnS3
_chemical_formula_sum   'Ca6 Sn6 S18'
_cell_volume   883.99370331
_cell_formula_units_Z   6
loop_
 _symmetry_equiv_pos_site_id
 _symmetry_equiv_pos_as_xyz
  1  'x, y, z'
loop_
 _atom_site_type_symbol
 _atom_site_label
 _atom_site_symmetry_multiplicity
 _atom_site_fract_x
 _atom_site_fract_y
 _atom_site_fract_z
 _atom_site_occupancy
  Ca  Ca0  1  0.85650400  0.45472900  0.88379700  1
  Ca  Ca1  1  0.04087800  0.46400300  0.21289300  1
  Ca  Ca2  1  0.54039800  0.64773700  0.43690700  1
  Ca  Ca3  1  0.03383600  0.94895700  0.70284600  1
  Ca  Ca4  1  0.45451800  0.64979900  0.75331600  1
  Ca  Ca5  1  0.38039700  0.26886700  0.98827700  1
  Sn  Sn6  1  0.17645400  0.05422700  0.11128700  1
  Sn  Sn7  1  0.52338100  0.25319200  0.37784100  1
  Sn  Sn8  1  0.09777300  0.86440300  0.35484300  1
  Sn  Sn9  1  0.49995800  0.63945200  0.08867900  1
  Sn  Sn10  1  0.01811600  0.56165600  0.54550800  1
  Sn  Sn11  1  0.28288500  0.26419600  0.67167600  1
  S  S12  1  0.52093100  0.94999800  0.87044000  1
  S  S13  1  0.23255100  0.90385800  0.89850400  1
  S  S14  1  0.01056800  0.21627700  0.06445100  1
  S  S15  1  0.79824900  0.45047600  0.38122000  1
  S  S16  1  0.50375800  0.13466600  0.15524500  1
  S  S17  1  0.27739200  0.43178200  0.38724100  1
  S  S18  1  0.44623300  0.78169500  0.28615800  1
  S  S19  1  0.28266900  0.04998500  0.51944600  1
  S  S20  1  0.96694700  0.96592000  0.22024100  1
  S  S21  1  0.67131600  0.70767600  0.95345600  1
  S  S22  1  0.19550000  0.52242100  0.02787500  1
  S  S23  1  0.68544000  0.45449600  0.09251200  1
  S  S24  1  0.26132600  0.74601000  0.59075600  1
  S  S25  1  0.09460900  0.47197000  0.69587500  1
  S  S26  1  0.77080300  0.72490600  0.64028700  1
  S  S27  1  0.56586600  0.09346200  0.79818700  1
  S  S28  1  0.08820200  0.21906400  0.81250300  1
  S  S29  1  0.58834200  0.37961500  0.69333300  1
