# generated using pymatgen
data_Ca2SnS4
_symmetry_space_group_name_H-M   'P 1'
_cell_length_a   7.91639055
_cell_length_b   7.91639055
_cell_length_c   7.91639055
_cell_angle_alpha   143.21531661
_cell_angle_beta   143.21531661
_cell_angle_gamma   53.00230074
_symmetry_Int_Tables_number   1
_chemical_formula_structural   Ca2SnS4
_chemical_formula_sum   'Ca2 Sn1 S4'
_cell_volume   176.80246598
_cell_formula_units_Z   1
loop_
 _symmetry_equiv_pos_site_id
 _symmetry_equiv_pos_as_xyz
  1  'x, y, z'
loop_
 _atom_site_type_symbol
 _atom_site_label
 _atom_site_symmetry_multiplicity
 _atom_site_fract_x
 _atom_site_fract_y
 _atom_site_fract_z
 _atom_site_occupancy
  Ca  Ca0  1  0.36440100  0.36440100  0.00000000  1
  Ca  Ca1  1  0.63559900  0.63559900  0.00000000  1
  Sn  Sn2  1  0.00000000  0.00000000  0.00000000  1
  S  S3  1  0.00000000  0.50000000  0.50000000  1
  S  S4  1  0.50000000  0.00000000  0.50000000  1
  S  S5  1  0.17519000  0.17519000  0.00000000  1
  S  S6  1  0.82481000  0.82481000  0.00000000  1
