# generated using pymatgen
data_CaSnS3
_symmetry_space_group_name_H-M   'P 1'
_cell_length_a   6.48447465
_cell_length_b   6.48447465
_cell_length_c   9.42174500
_cell_angle_alpha   90.00000000
_cell_angle_beta   90.00000000
_cell_angle_gamma   146.04445646
_symmetry_Int_Tables_number   1
_chemical_formula_structural   CaSnS3
_chemical_formula_sum   'Ca2 Sn2 S6'
_cell_volume   221.28021667
_cell_formula_units_Z   2
loop_
 _symmetry_equiv_pos_site_id
 _symmetry_equiv_pos_as_xyz
  1  'x, y, z'
loop_
 _atom_site_type_symbol
 _atom_site_label
 _atom_site_symmetry_multiplicity
 _atom_site_fract_x
 _atom_site_fract_y
 _atom_site_fract_z
 _atom_site_occupancy
  Ca  Ca0  1  0.25519500  0.74480500  0.75000000  1
  Ca  Ca1  1  0.74480500  0.25519500  0.25000000  1
  Sn  Sn2  1  0.00000000  0.00000000  0.50000000  1
  Sn  Sn3  1  0.00000000  0.00000000  0.00000000  1
  S  S4  1  0.91980000  0.08020000  0.75000000  1
  S  S5  1  0.08020000  0.91980000  0.25000000  1
  S  S6  1  0.64197600  0.35802400  0.54736100  1
  S  S7  1  0.35802400  0.64197600  0.45263900  1
  S  S8  1  0.64197600  0.35802400  0.95263900  1
  S  S9  1  0.35802400  0.64197600  0.04736100  1
