# generated using pymatgen
data_CaSn2S5
_symmetry_space_group_name_H-M   'P 1'
_cell_length_a   10.84292175
_cell_length_b   10.84292175
_cell_length_c   10.84292175
_cell_angle_alpha   60.00000000
_cell_angle_beta   60.00000431
_cell_angle_gamma   59.99999569
_symmetry_Int_Tables_number   1
_chemical_formula_structural   CaSn2S5
_chemical_formula_sum   'Ca4 Sn8 S20'
_cell_volume   901.41332459
_cell_formula_units_Z   4
loop_
 _symmetry_equiv_pos_site_id
 _symmetry_equiv_pos_as_xyz
  1  'x, y, z'
loop_
 _atom_site_type_symbol
 _atom_site_label
 _atom_site_symmetry_multiplicity
 _atom_site_fract_x
 _atom_site_fract_y
 _atom_site_fract_z
 _atom_site_occupancy
  Ca  Ca0  1  0.62500000  0.12500000  0.12500000  1
  Ca  Ca1  1  0.12500000  0.62500000  0.12500000  1
  Ca  Ca2  1  0.12500000  0.12500000  0.62500000  1
  Ca  Ca3  1  0.12500000  0.12500000  0.12500000  1
  Sn  Sn4  1  0.48575600  0.83808100  0.83808100  1
  Sn  Sn5  1  0.83808100  0.48575600  0.83808100  1
  Sn  Sn6  1  0.83808100  0.83808100  0.48575600  1
  Sn  Sn7  1  0.83808100  0.83808100  0.83808100  1
  Sn  Sn8  1  0.76424400  0.41191900  0.41191900  1
  Sn  Sn9  1  0.41191900  0.76424400  0.41191900  1
  Sn  Sn10  1  0.41191900  0.41191900  0.76424400  1
  Sn  Sn11  1  0.41191900  0.41191900  0.41191900  1
  S  S12  1  0.22196900  0.92601000  0.92601000  1
  S  S13  1  0.92601000  0.22196900  0.92601000  1
  S  S14  1  0.92601000  0.92601000  0.22196900  1
  S  S15  1  0.92601000  0.92601000  0.92601000  1
  S  S16  1  0.02803100  0.32399000  0.32399000  1
  S  S17  1  0.32399000  0.02803100  0.32399000  1
  S  S18  1  0.32399000  0.32399000  0.02803100  1
  S  S19  1  0.32399000  0.32399000  0.32399000  1
  S  S20  1  0.56437000  0.93563000  0.93563000  1
  S  S21  1  0.93563000  0.56437000  0.56437000  1
  S  S22  1  0.93563000  0.93563000  0.56437000  1
  S  S23  1  0.56437000  0.56437000  0.93563000  1
  S  S24  1  0.93563000  0.56437000  0.93563000  1
  S  S25  1  0.56437000  0.93563000  0.56437000  1
  S  S26  1  0.68563000  0.31437000  0.31437000  1
  S  S27  1  0.31437000  0.68563000  0.68563000  1
  S  S28  1  0.31437000  0.31437000  0.68563000  1
  S  S29  1  0.68563000  0.68563000  0.31437000  1
  S  S30  1  0.31437000  0.68563000  0.31437000  1
  S  S31  1  0.68563000  0.31437000  0.68563000  1
