# generated using pymatgen
data_Mn3As(HO2)4
_symmetry_space_group_name_H-M   'P 1'
_cell_length_a   5.43925900
_cell_length_b   9.62566500
_cell_length_c   13.34383500
_cell_angle_alpha   90.00000000
_cell_angle_beta   90.00000000
_cell_angle_gamma   90.00000000
_symmetry_Int_Tables_number   1
_chemical_formula_structural   Mn3As(HO2)4
_chemical_formula_sum   'Mn12 As4 H16 O32'
_cell_volume   698.63629678
_cell_formula_units_Z   4
loop_
 _symmetry_equiv_pos_site_id
 _symmetry_equiv_pos_as_xyz
  1  'x, y, z'
loop_
 _atom_site_type_symbol
 _atom_site_label
 _atom_site_symmetry_multiplicity
 _atom_site_fract_x
 _atom_site_fract_y
 _atom_site_fract_z
 _atom_site_occupancy
  Mn  Mn0  1  0.48328200  0.02191400  0.12970700  1
  Mn  Mn1  1  0.48328200  0.02191400  0.37029300  1
  Mn  Mn2  1  0.98328200  0.47808600  0.62970700  1
  Mn  Mn3  1  0.98328200  0.47808600  0.87029300  1
  Mn  Mn4  1  0.01671800  0.52191400  0.12970700  1
  Mn  Mn5  1  0.01671800  0.52191400  0.37029300  1
  Mn  Mn6  1  0.51671800  0.97808600  0.87029300  1
  Mn  Mn7  1  0.51671800  0.97808600  0.62970700  1
  Mn  Mn8  1  0.00000000  0.00000000  0.00000000  1
  Mn  Mn9  1  0.00000000  0.00000000  0.50000000  1
  Mn  Mn10  1  0.50000000  0.50000000  0.50000000  1
  Mn  Mn11  1  0.50000000  0.50000000  0.00000000  1
  As  As12  1  0.02544000  0.15191400  0.75000000  1
  As  As13  1  0.52544000  0.34808600  0.25000000  1
  As  As14  1  0.47456000  0.65191400  0.75000000  1
  As  As15  1  0.97456000  0.84808600  0.25000000  1
  H  H16  1  0.04671400  0.17151000  0.13517600  1
  H  H17  1  0.04671400  0.17151000  0.36482400  1
  H  H18  1  0.69341400  0.20064800  0.52253500  1
  H  H19  1  0.69341400  0.20064800  0.97746500  1
  H  H20  1  0.19341400  0.29935200  0.02253500  1
  H  H21  1  0.19341400  0.29935200  0.47746500  1
  H  H22  1  0.54671400  0.32849000  0.63517600  1
  H  H23  1  0.54671400  0.32849000  0.86482400  1
  H  H24  1  0.45328600  0.67151000  0.13517600  1
  H  H25  1  0.45328600  0.67151000  0.36482400  1
  H  H26  1  0.80658600  0.70064800  0.52253500  1
  H  H27  1  0.80658600  0.70064800  0.97746500  1
  H  H28  1  0.30658600  0.79935200  0.02253500  1
  H  H29  1  0.30658600  0.79935200  0.47746500  1
  H  H30  1  0.95328600  0.82849000  0.86482400  1
  H  H31  1  0.95328600  0.82849000  0.63517600  1
  O  O32  1  0.17271100  0.09079000  0.64407200  1
  O  O33  1  0.17271100  0.09079000  0.85592800  1
  O  O34  1  0.68638600  0.09918900  0.50521500  1
  O  O35  1  0.68638600  0.09918900  0.99478500  1
  O  O36  1  0.71970700  0.09983800  0.75000000  1
  O  O37  1  0.15883200  0.14380000  0.08159000  1
  O  O38  1  0.15883200  0.14380000  0.41841000  1
  O  O39  1  0.55462500  0.16831400  0.25000000  1
  O  O40  1  0.05462500  0.33168600  0.75000000  1
  O  O41  1  0.65883200  0.35620000  0.58159000  1
  O  O42  1  0.65883200  0.35620000  0.91841000  1
  O  O43  1  0.21970700  0.40016200  0.25000000  1
  O  O44  1  0.18638600  0.40081100  0.00521500  1
  O  O45  1  0.18638600  0.40081100  0.49478500  1
  O  O46  1  0.67271100  0.40921000  0.14407200  1
  O  O47  1  0.67271100  0.40921000  0.35592800  1
  O  O48  1  0.32728900  0.59079000  0.85592800  1
  O  O49  1  0.32728900  0.59079000  0.64407200  1
  O  O50  1  0.81361400  0.59918900  0.50521500  1
  O  O51  1  0.81361400  0.59918900  0.99478500  1
  O  O52  1  0.78029300  0.59983800  0.75000000  1
  O  O53  1  0.34116800  0.64380000  0.08159000  1
  O  O54  1  0.34116800  0.64380000  0.41841000  1
  O  O55  1  0.94537500  0.66831400  0.25000000  1
  O  O56  1  0.44537500  0.83168600  0.75000000  1
  O  O57  1  0.84116800  0.85620000  0.58159000  1
  O  O58  1  0.84116800  0.85620000  0.91841000  1
  O  O59  1  0.28029300  0.90016200  0.25000000  1
  O  O60  1  0.31361400  0.90081100  0.00521500  1
  O  O61  1  0.31361400  0.90081100  0.49478500  1
  O  O62  1  0.82728900  0.90921000  0.14407200  1
  O  O63  1  0.82728900  0.90921000  0.35592800  1
