# generated using pymatgen
data_MoS2
_symmetry_space_group_name_H-M   'P 1'
_cell_length_a   3.19031539
_cell_length_b   3.19031539
_cell_length_c   32.31850600
_cell_angle_alpha   90.00000000
_cell_angle_beta   90.00000000
_cell_angle_gamma   119.99998739
_symmetry_Int_Tables_number   1
_chemical_formula_structural   MoS2
_chemical_formula_sum   'Mo3 S6'
_cell_volume   284.87163061
_cell_formula_units_Z   3
loop_
 _symmetry_equiv_pos_site_id
 _symmetry_equiv_pos_as_xyz
  1  'x, y, z'
loop_
 _atom_site_type_symbol
 _atom_site_label
 _atom_site_symmetry_multiplicity
 _atom_site_fract_x
 _atom_site_fract_y
 _atom_site_fract_z
 _atom_site_occupancy
  Mo  Mo0  1  0.66666700  0.33333300  0.00000000  1
  Mo  Mo1  1  0.33333300  0.66666700  0.76980700  1
  Mo  Mo2  1  0.33333300  0.66666700  0.23019300  1
  S  S3  1  0.33333300  0.66666700  0.04842100  1
  S  S4  1  0.66666700  0.33333300  0.81822700  1
  S  S5  1  0.66666700  0.33333300  0.27861400  1
  S  S6  1  0.33333300  0.66666700  0.95157900  1
  S  S7  1  0.66666700  0.33333300  0.72138600  1
  S  S8  1  0.66666700  0.33333300  0.18177300  1
