# generated using pymatgen
data_MoH18C5(NO)4
_symmetry_space_group_name_H-M   'P 1'
_cell_length_a   11.02646600
_cell_length_b   11.02646600
_cell_length_c   11.02646600
_cell_angle_alpha   90.00000000
_cell_angle_beta   90.00000000
_cell_angle_gamma   90.00000000
_symmetry_Int_Tables_number   1
_chemical_formula_structural   MoH18C5(NO)4
_chemical_formula_sum   'Mo4 H72 C20 N16 O16'
_cell_volume   1340.63029136
_cell_formula_units_Z   4
loop_
 _symmetry_equiv_pos_site_id
 _symmetry_equiv_pos_as_xyz
  1  'x, y, z'
loop_
 _atom_site_type_symbol
 _atom_site_label
 _atom_site_symmetry_multiplicity
 _atom_site_fract_x
 _atom_site_fract_y
 _atom_site_fract_z
 _atom_site_occupancy
  Mo  Mo0  1  0.49872200  0.99872200  0.50127800  1
  Mo  Mo1  1  0.99872200  0.50127800  0.49872200  1
  Mo  Mo2  1  0.50127800  0.49872200  0.99872200  1
  Mo  Mo3  1  0.00127800  0.00127800  0.00127800  1
  H  H4  1  0.33531000  0.23510300  0.49740100  1
  H  H5  1  0.50259900  0.83531000  0.26489700  1
  H  H6  1  0.73510300  0.00259900  0.66469000  1
  H  H7  1  0.83531000  0.26489700  0.50259900  1
  H  H8  1  0.00259900  0.66469000  0.73510300  1
  H  H9  1  0.23510300  0.49740100  0.33531000  1
  H  H10  1  0.66469000  0.73510300  0.00259900  1
  H  H11  1  0.49740100  0.33531000  0.23510300  1
  H  H12  1  0.26489700  0.50259900  0.83531000  1
  H  H13  1  0.16469000  0.76489700  0.99740100  1
  H  H14  1  0.99740100  0.16469000  0.76489700  1
  H  H15  1  0.76489700  0.99740100  0.16469000  1
  H  H16  1  0.23057200  0.35553500  0.49779200  1
  H  H17  1  0.50220800  0.73057200  0.14446500  1
  H  H18  1  0.85553500  0.00220800  0.76942800  1
  H  H19  1  0.73057200  0.14446500  0.50220800  1
  H  H20  1  0.00220800  0.76942800  0.85553500  1
  H  H21  1  0.35553500  0.49779200  0.23057200  1
  H  H22  1  0.76942800  0.85553500  0.00220800  1
  H  H23  1  0.49779200  0.23057200  0.35553500  1
  H  H24  1  0.14446500  0.50220800  0.73057200  1
  H  H25  1  0.26942800  0.64446500  0.99779200  1
  H  H26  1  0.99779200  0.26942800  0.64446500  1
  H  H27  1  0.64446500  0.99779200  0.26942800  1
  H  H28  1  0.75399000  0.64483600  0.63233000  1
  H  H29  1  0.36767000  0.25399000  0.85516400  1
  H  H30  1  0.14483600  0.86767000  0.24601000  1
  H  H31  1  0.25399000  0.85516400  0.36767000  1
  H  H32  1  0.86767000  0.24601000  0.14483600  1
  H  H33  1  0.64483600  0.63233000  0.75399000  1
  H  H34  1  0.24601000  0.14483600  0.86767000  1
  H  H35  1  0.63233000  0.75399000  0.64483600  1
  H  H36  1  0.85516400  0.36767000  0.25399000  1
  H  H37  1  0.74601000  0.35516400  0.13233000  1
  H  H38  1  0.13233000  0.74601000  0.35516400  1
  H  H39  1  0.35516400  0.13233000  0.74601000  1
  H  H40  1  0.39420300  0.55175200  0.54478100  1
  H  H41  1  0.45521900  0.89420300  0.94824800  1
  H  H42  1  0.05175200  0.95521900  0.60579700  1
  H  H43  1  0.89420300  0.94824800  0.45521900  1
  H  H44  1  0.95521900  0.60579700  0.05175200  1
  H  H45  1  0.55175200  0.54478100  0.39420300  1
  H  H46  1  0.60579700  0.05175200  0.95521900  1
  H  H47  1  0.54478100  0.39420300  0.55175200  1
  H  H48  1  0.94824800  0.45521900  0.89420300  1
  H  H49  1  0.10579700  0.44824800  0.04478100  1
  H  H50  1  0.04478100  0.10579700  0.44824800  1
  H  H51  1  0.44824800  0.04478100  0.10579700  1
  H  H52  1  0.43743300  0.70669600  0.57046300  1
  H  H53  1  0.42953700  0.93743300  0.79330400  1
  H  H54  1  0.20669600  0.92953700  0.56256700  1
  H  H55  1  0.93743300  0.79330400  0.42953700  1
  H  H56  1  0.92953700  0.56256700  0.20669600  1
  H  H57  1  0.70669600  0.57046300  0.43743300  1
  H  H58  1  0.56256700  0.20669600  0.92953700  1
  H  H59  1  0.57046300  0.43743300  0.70669600  1
  H  H60  1  0.79330400  0.42953700  0.93743300  1
  H  H61  1  0.06256700  0.29330400  0.07046300  1
  H  H62  1  0.07046300  0.06256700  0.29330400  1
  H  H63  1  0.29330400  0.07046300  0.06256700  1
  H  H64  1  0.42945100  0.59876100  0.69636200  1
  H  H65  1  0.30363800  0.92945100  0.90123900  1
  H  H66  1  0.09876100  0.80363800  0.57054900  1
  H  H67  1  0.92945100  0.90123900  0.30363800  1
  H  H68  1  0.80363800  0.57054900  0.09876100  1
  H  H69  1  0.59876100  0.69636200  0.42945100  1
  H  H70  1  0.57054900  0.09876100  0.80363800  1
  H  H71  1  0.69636200  0.42945100  0.59876100  1
  H  H72  1  0.90123900  0.30363800  0.92945100  1
  H  H73  1  0.07054900  0.40123900  0.19636200  1
  H  H74  1  0.19636200  0.07054900  0.40123900  1
  H  H75  1  0.40123900  0.19636200  0.07054900  1
  C  C76  1  0.36203100  0.36203100  0.36203100  1
  C  C77  1  0.63796900  0.86203100  0.13796900  1
  C  C78  1  0.86203100  0.13796900  0.63796900  1
  C  C79  1  0.13796900  0.63796900  0.86203100  1
  C  C80  1  0.65909600  0.65909600  0.65909600  1
  C  C81  1  0.34090400  0.15909600  0.84090400  1
  C  C82  1  0.15909600  0.84090400  0.34090400  1
  C  C83  1  0.84090400  0.34090400  0.15909600  1
  C  C84  1  0.44990400  0.61260600  0.60009100  1
  C  C85  1  0.39990900  0.94990400  0.88739400  1
  C  C86  1  0.11260600  0.89990900  0.55009600  1
  C  C87  1  0.94990400  0.88739400  0.39990900  1
  C  C88  1  0.89990900  0.55009600  0.11260600  1
  C  C89  1  0.61260600  0.60009100  0.44990400  1
  C  C90  1  0.55009600  0.11260600  0.89990900  1
  C  C91  1  0.60009100  0.44990400  0.61260600  1
  C  C92  1  0.88739400  0.39990900  0.94990400  1
  C  C93  1  0.05009600  0.38739400  0.10009100  1
  C  C94  1  0.10009100  0.05009600  0.38739400  1
  C  C95  1  0.38739400  0.10009100  0.05009600  1
  N  N96  1  0.30876800  0.31833800  0.46241000  1
  N  N97  1  0.53759000  0.80876800  0.18166200  1
  N  N98  1  0.81833800  0.03759000  0.69123200  1
  N  N99  1  0.80876800  0.18166200  0.53759000  1
  N  N100  1  0.03759000  0.69123200  0.81833800  1
  N  N101  1  0.31833800  0.46241000  0.30876800  1
  N  N102  1  0.69123200  0.81833800  0.03759000  1
  N  N103  1  0.46241000  0.30876800  0.31833800  1
  N  N104  1  0.18166200  0.53759000  0.80876800  1
  N  N105  1  0.19123200  0.68166200  0.96241000  1
  N  N106  1  0.96241000  0.19123200  0.68166200  1
  N  N107  1  0.68166200  0.96241000  0.19123200  1
  N  N108  1  0.58034900  0.58034900  0.58034900  1
  N  N109  1  0.41965100  0.08034900  0.91965100  1
  N  N110  1  0.08034900  0.91965100  0.41965100  1
  N  N111  1  0.91965100  0.41965100  0.08034900  1
  O  O112  1  0.59357300  0.09357300  0.40642700  1
  O  O113  1  0.09357300  0.40642700  0.59357300  1
  O  O114  1  0.40642700  0.59357300  0.09357300  1
  O  O115  1  0.90642700  0.90642700  0.90642700  1
  O  O116  1  0.36606400  0.08286900  0.54456700  1
  O  O117  1  0.45543300  0.86606400  0.41713100  1
  O  O118  1  0.58286900  0.95543300  0.63393600  1
  O  O119  1  0.86606400  0.41713100  0.45543300  1
  O  O120  1  0.95543300  0.63393600  0.58286900  1
  O  O121  1  0.08286900  0.54456700  0.36606400  1
  O  O122  1  0.63393600  0.58286900  0.95543300  1
  O  O123  1  0.54456700  0.36606400  0.08286900  1
  O  O124  1  0.41713100  0.45543300  0.86606400  1
  O  O125  1  0.13393600  0.91713100  0.04456700  1
  O  O126  1  0.04456700  0.13393600  0.91713100  1
  O  O127  1  0.91713100  0.04456700  0.13393600  1
