# generated using pymatgen
data_AgSbO3
_symmetry_space_group_name_H-M   'P 1'
_cell_length_a   8.16570664
_cell_length_b   8.16570664
_cell_length_c   9.51710234
_cell_angle_alpha   55.48285219
_cell_angle_beta   55.48285219
_cell_angle_gamma   71.23888223
_symmetry_Int_Tables_number   1
_chemical_formula_structural   AgSbO3
_chemical_formula_sum   'Ag6 Sb6 O18'
_cell_volume   430.82496833
_cell_formula_units_Z   6
loop_
 _symmetry_equiv_pos_site_id
 _symmetry_equiv_pos_as_xyz
  1  'x, y, z'
loop_
 _atom_site_type_symbol
 _atom_site_label
 _atom_site_symmetry_multiplicity
 _atom_site_fract_x
 _atom_site_fract_y
 _atom_site_fract_z
 _atom_site_occupancy
  Ag  Ag0  1  0.38080800  0.99745000  0.00038400  1
  Ag  Ag1  1  0.71854100  0.01517200  0.26809100  1
  Ag  Ag2  1  0.98482800  0.28145900  0.73190900  1
  Ag  Ag3  1  0.36912100  0.00398300  0.63310400  1
  Ag  Ag4  1  0.99601700  0.63087900  0.36689600  1
  Ag  Ag5  1  0.00255000  0.61919200  0.99961600  1
  Sb  Sb6  1  0.49868900  0.49650100  0.66380900  1
  Sb  Sb7  1  0.34573100  0.33131700  0.15778100  1
  Sb  Sb8  1  0.84047800  0.15952200  0.50000000  1
  Sb  Sb9  1  0.16172900  0.83827100  0.50000000  1
  Sb  Sb10  1  0.50349900  0.50131100  0.33619100  1
  Sb  Sb11  1  0.66868300  0.65426900  0.84221900  1
  O  O12  1  0.38463700  0.03964700  0.28859700  1
  O  O13  1  0.35793300  0.36349500  0.63384400  1
  O  O14  1  0.63650500  0.64206700  0.36615600  1
  O  O15  1  0.99531200  0.99348900  0.36627900  1
  O  O16  1  0.00651100  0.00468800  0.63372100  1
  O  O17  1  0.66820800  0.66553500  0.62317900  1
  O  O18  1  0.33662200  0.32567700  0.95254000  1
  O  O19  1  0.05031700  0.37987100  0.28096100  1
  O  O20  1  0.28552900  0.71234500  0.33010600  1
  O  O21  1  0.28765500  0.71447100  0.66989400  1
  O  O22  1  0.70700300  0.27935700  0.34049900  1
  O  O23  1  0.72064300  0.29299700  0.65950100  1
  O  O24  1  0.96035300  0.61536300  0.71140300  1
  O  O25  1  0.64840500  0.35159500  0.00000000  1
  O  O26  1  0.33446500  0.33179200  0.37682100  1
  O  O27  1  0.67432300  0.66337800  0.04746000  1
  O  O28  1  0.36897100  0.63102900  0.00000000  1
  O  O29  1  0.62012900  0.94968300  0.71903900  1
