# generated using pymatgen
data_Mn7(OF3)3
_symmetry_space_group_name_H-M   'P 1'
_cell_length_a   6.31961700
_cell_length_b   6.36859739
_cell_length_c   6.47183273
_cell_angle_alpha   89.80964627
_cell_angle_beta   89.10617252
_cell_angle_gamma   89.38792207
_symmetry_Int_Tables_number   1
_chemical_formula_structural   Mn7(OF3)3
_chemical_formula_sum   'Mn7 O3 F9'
_cell_volume   260.42462299
_cell_formula_units_Z   1
loop_
 _symmetry_equiv_pos_site_id
 _symmetry_equiv_pos_as_xyz
  1  'x, y, z'
loop_
 _atom_site_type_symbol
 _atom_site_label
 _atom_site_symmetry_multiplicity
 _atom_site_fract_x
 _atom_site_fract_y
 _atom_site_fract_z
 _atom_site_occupancy
  Mn  Mn0  1  0.93271000  0.75735700  0.43637200  1
  Mn  Mn1  1  0.75688000  0.45586700  0.08298800  1
  Mn  Mn2  1  0.56320600  0.93109800  0.73358600  1
  Mn  Mn3  1  0.42878000  0.05862800  0.23846700  1
  Mn  Mn4  1  0.25990400  0.57821600  0.94381100  1
  Mn  Mn5  1  0.04765900  0.24756400  0.57564800  1
  Mn  Mn6  1  0.01372900  0.96944000  0.97531200  1
  O  O7  1  0.97248300  0.70006700  0.10562500  1
  O  O8  1  0.88816600  0.97335800  0.68093300  1
  O  O9  1  0.31600200  0.91299100  0.95795100  1
  F  F10  1  0.82644200  0.42242000  0.40129100  1
  F  F11  1  0.71667600  0.10396400  0.05708100  1
  F  F12  1  0.59335400  0.59538700  0.83206000  1
  F  F13  1  0.58893000  0.82006900  0.40286500  1
  F  F14  1  0.42591900  0.39181400  0.16259500  1
  F  F15  1  0.38387300  0.15839400  0.56602700  1
  F  F16  1  0.15302800  0.57305200  0.62066000  1
  F  F17  1  0.09004800  0.06123400  0.30007100  1
  F  F18  1  0.05062700  0.29902300  0.91987200  1
