# generated using pymatgen
data_CrSbO4
_symmetry_space_group_name_H-M   'P 1'
_cell_length_a   6.13951391
_cell_length_b   6.13951391
_cell_length_c   6.13951391
_cell_angle_alpha   120.76753997
_cell_angle_beta   118.71499739
_cell_angle_gamma   90.45784228
_symmetry_Int_Tables_number   1
_chemical_formula_structural   CrSbO4
_chemical_formula_sum   'Cr2 Sb2 O8'
_cell_volume   164.20808203
_cell_formula_units_Z   2
loop_
 _symmetry_equiv_pos_site_id
 _symmetry_equiv_pos_as_xyz
  1  'x, y, z'
loop_
 _atom_site_type_symbol
 _atom_site_label
 _atom_site_symmetry_multiplicity
 _atom_site_fract_x
 _atom_site_fract_y
 _atom_site_fract_z
 _atom_site_occupancy
  Cr  Cr0  1  0.00000000  0.00000000  0.50000000  1
  Cr  Cr1  1  0.00000000  0.50000000  0.00000000  1
  Sb  Sb2  1  0.00000000  0.50000000  0.50000000  1
  Sb  Sb3  1  0.50000000  0.50000000  0.00000000  1
  O  O4  1  0.19440700  0.72942000  0.46498600  1
  O  O5  1  0.76084600  0.73423900  0.47339200  1
  O  O6  1  0.76084600  0.28745400  0.02660800  1
  O  O7  1  0.76443400  0.72942000  0.03501400  1
  O  O8  1  0.23556600  0.27058000  0.96498600  1
  O  O9  1  0.23915400  0.26576100  0.52660800  1
  O  O10  1  0.23915400  0.71254600  0.97339200  1
  O  O11  1  0.80559300  0.27058000  0.53501400  1
