# generated using pymatgen
data_LaMgI5
_symmetry_space_group_name_H-M   'P 1'
_cell_length_a   8.19752521
_cell_length_b   8.19752521
_cell_length_c   12.09335191
_cell_angle_alpha   68.56101049
_cell_angle_beta   68.56101049
_cell_angle_gamma   84.50502619
_symmetry_Int_Tables_number   1
_chemical_formula_structural   LaMgI5
_chemical_formula_sum   'La2 Mg2 I10'
_cell_volume   703.42401186
_cell_formula_units_Z   2
loop_
 _symmetry_equiv_pos_site_id
 _symmetry_equiv_pos_as_xyz
  1  'x, y, z'
loop_
 _atom_site_type_symbol
 _atom_site_label
 _atom_site_symmetry_multiplicity
 _atom_site_fract_x
 _atom_site_fract_y
 _atom_site_fract_z
 _atom_site_occupancy
  La  La0  1  0.49585200  0.99465000  0.49364700  1
  La  La1  1  0.99465000  0.49585200  0.99364700  1
  Mg  Mg2  1  0.35080200  0.64801600  0.24352700  1
  Mg  Mg3  1  0.64801600  0.35080200  0.74352700  1
  I  I4  1  0.29703500  0.92125300  0.33378600  1
  I  I5  1  0.64965600  0.71644900  0.03100100  1
  I  I6  1  0.92125300  0.29703500  0.83378600  1
  I  I7  1  0.82135400  0.16516400  0.24122400  1
  I  I8  1  0.29565600  0.35201600  0.45691500  1
  I  I9  1  0.71644900  0.64965600  0.53100100  1
  I  I10  1  0.16516400  0.82135400  0.74122400  1
  I  I11  1  0.07793200  0.68616700  0.15470200  1
  I  I12  1  0.35201600  0.29565600  0.95691500  1
  I  I13  1  0.68616700  0.07793200  0.65470200  1
