# generated using pymatgen
data_VOF
_symmetry_space_group_name_H-M   'P 1'
_cell_length_a   7.92228011
_cell_length_b   7.92228011
_cell_length_c   7.92228061
_cell_angle_alpha   24.30037762
_cell_angle_beta   24.30037762
_cell_angle_gamma   24.30038118
_symmetry_Int_Tables_number   1
_chemical_formula_structural   VOF
_chemical_formula_sum   'V2 O2 F2'
_cell_volume   74.01534133
_cell_formula_units_Z   2
loop_
 _symmetry_equiv_pos_site_id
 _symmetry_equiv_pos_as_xyz
  1  'x, y, z'
loop_
 _atom_site_type_symbol
 _atom_site_label
 _atom_site_symmetry_multiplicity
 _atom_site_fract_x
 _atom_site_fract_y
 _atom_site_fract_z
 _atom_site_occupancy
  V  V0  1  0.60831800  0.60831800  0.60831800  1
  V  V1  1  0.39168200  0.39168200  0.39168200  1
  O  O2  1  0.30041200  0.30041200  0.30041200  1
  O  O3  1  0.69958800  0.69958800  0.69958800  1
  F  F4  1  0.10571200  0.10571200  0.10571200  1
  F  F5  1  0.89428800  0.89428800  0.89428800  1
