# generated using pymatgen
data_NaV8O20
_symmetry_space_group_name_H-M   'P 1'
_cell_length_a   9.60722100
_cell_length_b   10.78487145
_cell_length_c   12.08063184
_cell_angle_alpha   66.68831963
_cell_angle_beta   84.11982892
_cell_angle_gamma   76.18654585
_symmetry_Int_Tables_number   1
_chemical_formula_structural   NaV8O20
_chemical_formula_sum   'Na3 V24 O60'
_cell_volume   1116.23331960
_cell_formula_units_Z   3
loop_
 _symmetry_equiv_pos_site_id
 _symmetry_equiv_pos_as_xyz
  1  'x, y, z'
loop_
 _atom_site_type_symbol
 _atom_site_label
 _atom_site_symmetry_multiplicity
 _atom_site_fract_x
 _atom_site_fract_y
 _atom_site_fract_z
 _atom_site_occupancy
  Na  Na0  1  0.55138500  0.40392600  0.04884800  1
  Na  Na1  1  0.05065000  0.40145000  0.54998400  1
  Na  Na2  1  0.19817900  0.60011700  0.19719600  1
  V  V3  1  0.91190000  0.88061700  0.97096500  1
  V  V4  1  0.84553900  0.59016400  0.98993000  1
  V  V5  1  0.88113000  0.89665900  0.54956500  1
  V  V6  1  0.62979600  0.89484200  0.80040400  1
  V  V7  1  0.87184900  0.10248000  0.69943700  1
  V  V8  1  0.61838800  0.10169900  0.95090400  1
  V  V9  1  0.90462700  0.40884700  0.26162600  1
  V  V10  1  0.65564600  0.41030800  0.51041300  1
  V  V11  1  0.40530500  0.41018600  0.76128300  1
  V  V12  1  0.66292300  0.88228000  0.21997900  1
  V  V13  1  0.16149800  0.88388800  0.72120800  1
  V  V14  1  0.41256200  0.88436100  0.47189400  1
  V  V15  1  0.58715100  0.11528700  0.52976200  1
  V  V16  1  0.83607900  0.11469000  0.27849200  1
  V  V17  1  0.33611600  0.11350200  0.78008600  1
  V  V18  1  0.59568000  0.59101700  0.23892900  1
  V  V19  1  0.34678600  0.59129100  0.48938500  1
  V  V20  1  0.09568800  0.58946000  0.73956100  1
  V  V21  1  0.37856700  0.89671400  0.04766400  1
  V  V22  1  0.13160800  0.89924700  0.29660500  1
  V  V23  1  0.36752600  0.10179300  0.20241400  1
  V  V24  1  0.12078300  0.10454100  0.45207000  1
  V  V25  1  0.15334300  0.40811600  0.01061600  1
  V  V26  1  0.08456600  0.11534300  0.02672600  1
  O  O27  1  0.99884900  0.92796400  0.80922300  1
  O  O28  1  0.78317800  0.77739900  0.91331700  1
  O  O29  1  0.99941900  0.27182300  0.94560100  1
  O  O30  1  0.99523200  0.52746300  0.68523900  1
  O  O31  1  0.73801200  0.52721900  0.94314600  1
  O  O32  1  0.75892300  0.94649100  0.66596000  1
  O  O33  1  0.51275400  0.94701800  0.91196500  1
  O  O34  1  0.81646600  0.78141900  0.53271600  1
  O  O35  1  0.56437300  0.78022300  0.78375600  1
  O  O36  1  0.93776600  0.22189000  0.71000000  1
  O  O37  1  0.67663700  0.22044700  0.97036300  1
  O  O38  1  0.98596500  0.05383400  0.58617200  1
  O  O39  1  0.74480700  0.05400200  0.83666100  1
  O  O40  1  0.76540200  0.46938800  0.55810500  1
  O  O41  1  0.50634200  0.46923000  0.81766600  1
  O  O42  1  0.50052800  0.99973400  0.49977900  1
  O  O43  1  0.74861600  0.00115100  0.25138600  1
  O  O44  1  0.00074900  0.00379800  0.00017200  1
  O  O45  1  0.25188600  0.00076900  0.74844200  1
  O  O46  1  0.75177200  0.73027400  0.30349800  1
  O  O47  1  0.24799200  0.73031500  0.80438900  1
  O  O48  1  0.49918200  0.73020200  0.55350800  1
  O  O49  1  0.71660000  0.22203400  0.58707700  1
  O  O50  1  0.96358200  0.22560200  0.33408900  1
  O  O51  1  0.46857500  0.22151600  0.83558300  1
  O  O52  1  0.74205300  0.92790400  0.06499800  1
  O  O53  1  0.49449400  0.92585000  0.31117200  1
  O  O54  1  0.24582500  0.92435200  0.56202900  1
  O  O55  1  0.73136000  0.42692100  0.35437100  1
  O  O56  1  0.98375200  0.42671300  0.10375400  1
  O  O57  1  0.23187600  0.42608400  0.85348200  1
  O  O58  1  0.48309100  0.42885800  0.60467700  1
  O  O59  1  0.76775900  0.57256300  0.14581900  1
  O  O60  1  0.51671400  0.57457500  0.39655700  1
  O  O61  1  0.26846800  0.57376200  0.64619900  1
  O  O62  1  0.01734000  0.57194200  0.89508000  1
  O  O63  1  0.75559000  0.07408700  0.43934900  1
  O  O64  1  0.25526300  0.07558800  0.93514200  1
  O  O65  1  0.50697100  0.07387300  0.68754400  1
  O  O66  1  0.53600900  0.77512500  0.16669200  1
  O  O67  1  0.28215400  0.77866900  0.41477400  1
  O  O68  1  0.03288700  0.77830300  0.66379400  1
  O  O69  1  0.74807400  0.26985700  0.19472800  1
  O  O70  1  0.50142900  0.26900600  0.44695700  1
  O  O71  1  0.25012900  0.26962800  0.69588900  1
  O  O72  1  0.48902800  0.52869100  0.18831000  1
  O  O73  1  0.24024500  0.53000300  0.43797200  1
  O  O74  1  0.25690200  0.94647600  0.17071200  1
  O  O75  1  0.00828800  0.94768200  0.41614600  1
  O  O76  1  0.31174500  0.77460200  0.04018200  1
  O  O77  1  0.07171100  0.77866400  0.28091100  1
  O  O78  1  0.43671600  0.22140000  0.21085700  1
  O  O79  1  0.17875600  0.22564000  0.47034000  1
  O  O80  1  0.48887700  0.05213800  0.08230300  1
  O  O81  1  0.24316900  0.05754700  0.32918900  1
  O  O82  1  0.26073000  0.46961900  0.06123600  1
  O  O83  1  0.01058600  0.47149700  0.31257600  1
  O  O84  1  0.00163900  0.72586100  0.05637000  1
  O  O85  1  0.21815100  0.22208900  0.08485800  1
  O  O86  1  0.00274800  0.07408100  0.19018900  1
