# generated using pymatgen
data_Mn11ZnO16
_symmetry_space_group_name_H-M   'P 1'
_cell_length_a   6.32545300
_cell_length_b   6.32545300
_cell_length_c   8.33730300
_cell_angle_alpha   90.00000000
_cell_angle_beta   90.00000000
_cell_angle_gamma   97.52216516
_symmetry_Int_Tables_number   1
_chemical_formula_structural   Mn11ZnO16
_chemical_formula_sum   'Mn11 Zn1 O16'
_cell_volume   330.71604551
_cell_formula_units_Z   1
loop_
 _symmetry_equiv_pos_site_id
 _symmetry_equiv_pos_as_xyz
  1  'x, y, z'
loop_
 _atom_site_type_symbol
 _atom_site_label
 _atom_site_symmetry_multiplicity
 _atom_site_fract_x
 _atom_site_fract_y
 _atom_site_fract_z
 _atom_site_occupancy
  Mn  Mn0  1  0.75191700  0.00040500  0.62696700  1
  Mn  Mn1  1  0.24808300  0.99959500  0.62696700  1
  Mn  Mn2  1  0.49806700  0.24890100  0.87658700  1
  Mn  Mn3  1  0.50193300  0.75109900  0.87658700  1
  Mn  Mn4  1  0.75109900  0.50193300  0.12341300  1
  Mn  Mn5  1  0.00000000  0.50000000  0.75054300  1
  Mn  Mn6  1  0.50000000  0.00000000  0.24945700  1
  Mn  Mn7  1  0.24890100  0.49806700  0.12341300  1
  Mn  Mn8  1  0.99959500  0.24808300  0.37303300  1
  Mn  Mn9  1  0.00040500  0.75191700  0.37303300  1
  Mn  Mn10  1  0.50000000  0.50000000  0.50000000  1
  Zn  Zn11  1  0.00000000  0.00000000  0.00000000  1
  O  O12  1  0.49326000  0.22692900  0.64045600  1
  O  O13  1  0.72675700  0.49358600  0.88813700  1
  O  O14  1  0.50674000  0.77307100  0.64045600  1
  O  O15  1  0.73369100  0.99423400  0.86473000  1
  O  O16  1  0.26630900  0.00576600  0.86473000  1
  O  O17  1  0.50641400  0.27324300  0.11186300  1
  O  O18  1  0.27324300  0.50641400  0.88813700  1
  O  O19  1  0.00576600  0.26630900  0.13527000  1
  O  O20  1  0.49358600  0.72675700  0.11186300  1
  O  O21  1  0.22692900  0.49326000  0.35954400  1
  O  O22  1  0.99423400  0.73369100  0.13527000  1
  O  O23  1  0.22863200  0.99460000  0.38982100  1
  O  O24  1  0.99460000  0.22863200  0.61017900  1
  O  O25  1  0.77136800  0.00540000  0.38982100  1
  O  O26  1  0.77307100  0.50674000  0.35954400  1
  O  O27  1  0.00540000  0.77136800  0.61017900  1
