# generated using pymatgen
data_Ca2SiB5O14
_symmetry_space_group_name_H-M   'P 1'
_cell_length_a   9.44477500
_cell_length_b   8.66451200
_cell_length_c   13.20904420
_cell_angle_alpha   74.81834925
_cell_angle_beta   90.00000000
_cell_angle_gamma   90.00000000
_symmetry_Int_Tables_number   1
_chemical_formula_structural   Ca2SiB5O14
_chemical_formula_sum   'Ca8 Si4 B20 O56'
_cell_volume   1043.22892096
_cell_formula_units_Z   4
loop_
 _symmetry_equiv_pos_site_id
 _symmetry_equiv_pos_as_xyz
  1  'x, y, z'
loop_
 _atom_site_type_symbol
 _atom_site_label
 _atom_site_symmetry_multiplicity
 _atom_site_fract_x
 _atom_site_fract_y
 _atom_site_fract_z
 _atom_site_occupancy
  Ca  Ca0  1  0.68163200  0.35400900  0.11491100  1
  Ca  Ca1  1  0.18163200  0.14599100  0.88508900  1
  Ca  Ca2  1  0.31836800  0.64599100  0.88508900  1
  Ca  Ca3  1  0.81836800  0.85400900  0.11491100  1
  Ca  Ca4  1  0.30776200  0.99722800  0.40104700  1
  Ca  Ca5  1  0.80776200  0.50277200  0.59895300  1
  Ca  Ca6  1  0.69223800  0.00277200  0.59895300  1
  Ca  Ca7  1  0.19223800  0.49722800  0.40104700  1
  Si  Si8  1  0.05739100  0.49223700  0.14098600  1
  Si  Si9  1  0.55739100  0.00776300  0.85901400  1
  Si  Si10  1  0.94260900  0.50776300  0.85901400  1
  Si  Si11  1  0.44260900  0.99223700  0.14098600  1
  B  B12  1  0.96820100  0.24796300  0.03920700  1
  B  B13  1  0.46820100  0.25203700  0.96079300  1
  B  B14  1  0.03179900  0.75203700  0.96079300  1
  B  B15  1  0.53179900  0.74796300  0.03920700  1
  B  B16  1  0.88662500  0.47616800  0.31617500  1
  B  B17  1  0.38662500  0.02383200  0.68382500  1
  B  B18  1  0.11337500  0.52383200  0.68382500  1
  B  B19  1  0.61337500  0.97616800  0.31617500  1
  B  B20  1  0.90190400  0.25055000  0.49001100  1
  B  B21  1  0.40190400  0.24945000  0.50998900  1
  B  B22  1  0.09809600  0.74945000  0.50998900  1
  B  B23  1  0.59809600  0.75055000  0.49001100  1
  B  B24  1  0.76045000  0.21566100  0.33898600  1
  B  B25  1  0.26045000  0.28433900  0.66101400  1
  B  B26  1  0.23955000  0.78433900  0.66101400  1
  B  B27  1  0.73955000  0.71566100  0.33898600  1
  B  B28  1  0.15408700  0.03335100  0.15797200  1
  B  B29  1  0.65408700  0.46664900  0.84202800  1
  B  B30  1  0.84591300  0.96664900  0.84202800  1
  B  B31  1  0.34591300  0.53335100  0.15797200  1
  O  O32  1  0.01366600  0.67622600  0.07454900  1
  O  O33  1  0.51366600  0.82377400  0.92545100  1
  O  O34  1  0.98633400  0.32377400  0.92545100  1
  O  O35  1  0.48633400  0.17622600  0.07454900  1
  O  O36  1  0.22323200  0.45825000  0.12572700  1
  O  O37  1  0.72323200  0.04175000  0.87427300  1
  O  O38  1  0.77676800  0.54175000  0.87427300  1
  O  O39  1  0.27676800  0.95825000  0.12572700  1
  O  O40  1  0.95580700  0.36751100  0.10018700  1
  O  O41  1  0.45580700  0.13248900  0.89981300  1
  O  O42  1  0.04419300  0.63248900  0.89981300  1
  O  O43  1  0.54419300  0.86751100  0.10018700  1
  O  O44  1  0.02633200  0.47853300  0.26533600  1
  O  O45  1  0.52633200  0.02146700  0.73466400  1
  O  O46  1  0.97366800  0.52146700  0.73466400  1
  O  O47  1  0.47366800  0.97853300  0.26533600  1
  O  O48  1  0.09277000  0.14208200  0.06273500  1
  O  O49  1  0.59277000  0.35791800  0.93726500  1
  O  O50  1  0.90723000  0.85791800  0.93726500  1
  O  O51  1  0.40723000  0.64208200  0.06273500  1
  O  O52  1  0.91160800  0.42248200  0.43150300  1
  O  O53  1  0.41160800  0.07751800  0.56849700  1
  O  O54  1  0.08839200  0.57751800  0.56849700  1
  O  O55  1  0.58839200  0.92248200  0.43150300  1
  O  O56  1  0.67114600  0.13850000  0.28790000  1
  O  O57  1  0.17114600  0.36150000  0.71210000  1
  O  O58  1  0.32885400  0.86150000  0.71210000  1
  O  O59  1  0.82885400  0.63850000  0.28790000  1
  O  O60  1  0.78826000  0.36983300  0.28220900  1
  O  O61  1  0.28826000  0.13016700  0.71779100  1
  O  O62  1  0.21174000  0.63016700  0.71779100  1
  O  O63  1  0.71174000  0.86983300  0.28220900  1
  O  O64  1  0.82008600  0.15034100  0.43642000  1
  O  O65  1  0.32008600  0.34965900  0.56358000  1
  O  O66  1  0.17991400  0.84965900  0.56358000  1
  O  O67  1  0.67991400  0.65034100  0.43642000  1
  O  O68  1  0.05240100  0.21768500  0.50308600  1
  O  O69  1  0.55240100  0.28231500  0.49691400  1
  O  O70  1  0.94759900  0.78231500  0.49691400  1
  O  O71  1  0.44759900  0.71768500  0.50308600  1
  O  O72  1  0.84929700  0.23240000  0.59407600  1
  O  O73  1  0.34929700  0.26760000  0.40592400  1
  O  O74  1  0.15070300  0.76760000  0.40592400  1
  O  O75  1  0.65070300  0.73240000  0.59407600  1
  O  O76  1  0.17094200  0.09475500  0.24803600  1
  O  O77  1  0.67094200  0.40524500  0.75196400  1
  O  O78  1  0.82905800  0.90524500  0.75196400  1
  O  O79  1  0.32905800  0.59475500  0.24803600  1
  O  O80  1  0.03128300  0.93084800  0.19072200  1
  O  O81  1  0.53128300  0.56915200  0.80927800  1
  O  O82  1  0.96871700  0.06915200  0.80927800  1
  O  O83  1  0.46871700  0.43084800  0.19072200  1
  O  O84  1  0.83849300  0.15143100  0.06089200  1
  O  O85  1  0.33849300  0.34856900  0.93910800  1
  O  O86  1  0.16150700  0.84856900  0.93910800  1
  O  O87  1  0.66150700  0.65143100  0.06089200  1
