# generated using pymatgen
data_V2Si4O11
_symmetry_space_group_name_H-M   'P 1'
_cell_length_a   6.99337400
_cell_length_b   7.37980882
_cell_length_c   8.61795287
_cell_angle_alpha   99.35267692
_cell_angle_beta   101.28152796
_cell_angle_gamma   104.84766606
_symmetry_Int_Tables_number   1
_chemical_formula_structural   V2Si4O11
_chemical_formula_sum   'V4 Si8 O22'
_cell_volume   410.86819636
_cell_formula_units_Z   2
loop_
 _symmetry_equiv_pos_site_id
 _symmetry_equiv_pos_as_xyz
  1  'x, y, z'
loop_
 _atom_site_type_symbol
 _atom_site_label
 _atom_site_symmetry_multiplicity
 _atom_site_fract_x
 _atom_site_fract_y
 _atom_site_fract_z
 _atom_site_occupancy
  V  V0  1  0.11522400  0.37678600  0.61390800  1
  V  V1  1  0.61268400  0.37514500  0.61482000  1
  V  V2  1  0.38731600  0.62485500  0.38518000  1
  V  V3  1  0.88477600  0.62321400  0.38609200  1
  Si  Si4  1  0.76961600  0.61974700  0.97728300  1
  Si  Si5  1  0.04244800  0.78206800  0.77672900  1
  Si  Si6  1  0.48018200  0.77883900  0.77922400  1
  Si  Si7  1  0.22825100  0.01845200  0.39605200  1
  Si  Si8  1  0.77174900  0.98154800  0.60394800  1
  Si  Si9  1  0.51981800  0.22116100  0.22077600  1
  Si  Si10  1  0.95755200  0.21793200  0.22327100  1
  Si  Si11  1  0.23038400  0.38025300  0.02271700  1
  O  O12  1  0.18853800  0.40754200  0.83951500  1
  O  O13  1  0.60405700  0.74129100  0.94315400  1
  O  O14  1  0.69549900  0.41913300  0.83981400  1
  O  O15  1  0.97675100  0.75559800  0.94247900  1
  O  O16  1  0.28568400  0.83661000  0.81521100  1
  O  O17  1  0.60669600  0.95783300  0.71492600  1
  O  O18  1  0.41231200  0.58164000  0.62668400  1
  O  O19  1  0.32022700  0.20269200  0.55515600  1
  O  O20  1  0.82027800  0.19957000  0.57096200  1
  O  O21  1  0.98430200  0.95805500  0.70453200  1
  O  O22  1  0.93134800  0.58310000  0.62689700  1
  O  O23  1  0.06865200  0.41690000  0.37310300  1
  O  O24  1  0.01569800  0.04194500  0.29546800  1
  O  O25  1  0.17972200  0.80043000  0.42903800  1
  O  O26  1  0.67977300  0.79730800  0.44484400  1
  O  O27  1  0.58768800  0.41836000  0.37331600  1
  O  O28  1  0.39330400  0.04216700  0.28507400  1
  O  O29  1  0.71431600  0.16339000  0.18478900  1
  O  O30  1  0.02324900  0.24440200  0.05752100  1
  O  O31  1  0.30450100  0.58086700  0.16018600  1
  O  O32  1  0.39594300  0.25870900  0.05684600  1
  O  O33  1  0.81146200  0.59245800  0.16048500  1
