# generated using pymatgen
data_Rb3CO3F
_symmetry_space_group_name_H-M   'P 1'
_cell_length_a   7.39180079
_cell_length_b   7.39180079
_cell_length_c   7.39180078
_cell_angle_alpha   65.41879073
_cell_angle_beta   65.41879073
_cell_angle_gamma   65.41879491
_symmetry_Int_Tables_number   1
_chemical_formula_structural   Rb3CO3F
_chemical_formula_sum   'Rb6 C2 O6 F2'
_cell_volume   319.25314210
_cell_formula_units_Z   2
loop_
 _symmetry_equiv_pos_site_id
 _symmetry_equiv_pos_as_xyz
  1  'x, y, z'
loop_
 _atom_site_type_symbol
 _atom_site_label
 _atom_site_symmetry_multiplicity
 _atom_site_fract_x
 _atom_site_fract_y
 _atom_site_fract_z
 _atom_site_occupancy
  Rb  Rb0  1  0.32922900  0.75000000  0.17077100  1
  Rb  Rb1  1  0.17077100  0.32922900  0.75000000  1
  Rb  Rb2  1  0.75000000  0.17077100  0.32922900  1
  Rb  Rb3  1  0.67077100  0.25000000  0.82922900  1
  Rb  Rb4  1  0.82922900  0.67077100  0.25000000  1
  Rb  Rb5  1  0.25000000  0.82922900  0.67077100  1
  C  C6  1  0.25000000  0.25000000  0.25000000  1
  C  C7  1  0.75000000  0.75000000  0.75000000  1
  O  O8  1  0.91402000  0.75000000  0.58598000  1
  O  O9  1  0.58598000  0.91402000  0.75000000  1
  O  O10  1  0.75000000  0.58598000  0.91402000  1
  O  O11  1  0.08598000  0.25000000  0.41402000  1
  O  O12  1  0.25000000  0.41402000  0.08598000  1
  O  O13  1  0.41402000  0.08598000  0.25000000  1
  F  F14  1  0.00000000  0.00000000  0.00000000  1
  F  F15  1  0.50000000  0.50000000  0.50000000  1
