# generated using pymatgen
data_Sc3RuC4
_symmetry_space_group_name_H-M   'P 1'
_cell_length_a   6.81640997
_cell_length_b   6.81640997
_cell_length_c   6.81640997
_cell_angle_alpha   151.69801294
_cell_angle_beta   141.41611252
_cell_angle_gamma   48.53542937
_symmetry_Int_Tables_number   1
_chemical_formula_structural   Sc3RuC4
_chemical_formula_sum   'Sc3 Ru1 C4'
_cell_volume   93.28332802
_cell_formula_units_Z   1
loop_
 _symmetry_equiv_pos_site_id
 _symmetry_equiv_pos_as_xyz
  1  'x, y, z'
loop_
 _atom_site_type_symbol
 _atom_site_label
 _atom_site_symmetry_multiplicity
 _atom_site_fract_x
 _atom_site_fract_y
 _atom_site_fract_z
 _atom_site_occupancy
  Sc  Sc0  1  0.81060000  0.81060000  0.00000000  1
  Sc  Sc1  1  0.18940000  0.18940000  0.00000000  1
  Sc  Sc2  1  0.50000000  0.00000000  0.50000000  1
  Ru  Ru3  1  0.00000000  0.50000000  0.50000000  1
  C  C4  1  0.78780900  0.62913400  0.15867500  1
  C  C5  1  0.21219100  0.37086600  0.84132500  1
  C  C6  1  0.52954100  0.37086600  0.15867500  1
  C  C7  1  0.47045900  0.62913400  0.84132500  1
