# generated using pymatgen
data_Ca2B4Rh5
_symmetry_space_group_name_H-M   'P 1'
_cell_length_a   7.48955655
_cell_length_b   6.28241265
_cell_length_c   5.64608248
_cell_angle_alpha   77.58367865
_cell_angle_beta   55.00517759
_cell_angle_gamma   47.41114377
_symmetry_Int_Tables_number   1
_chemical_formula_structural   Ca2B4Rh5
_chemical_formula_sum   'Ca2 B4 Rh5'
_cell_volume   153.48605012
_cell_formula_units_Z   1
loop_
 _symmetry_equiv_pos_site_id
 _symmetry_equiv_pos_as_xyz
  1  'x, y, z'
loop_
 _atom_site_type_symbol
 _atom_site_label
 _atom_site_symmetry_multiplicity
 _atom_site_fract_x
 _atom_site_fract_y
 _atom_site_fract_z
 _atom_site_occupancy
  Ca  Ca0  1  0.85700600  0.85700600  0.14299400  1
  Ca  Ca1  1  0.14299400  0.14299400  0.85700600  1
  B  B2  1  0.79166800  0.46886800  0.53113200  1
  B  B3  1  0.20833200  0.53113200  0.46886800  1
  B  B4  1  0.53113200  0.20833200  0.79166800  1
  B  B5  1  0.46886800  0.79166800  0.20833200  1
  Rh  Rh6  1  0.50000000  0.50000000  0.50000000  1
  Rh  Rh7  1  0.50000000  0.50000000  0.00000000  1
  Rh  Rh8  1  0.00000000  0.00000000  0.50000000  1
  Rh  Rh9  1  0.75000000  0.75000000  0.75000000  1
  Rh  Rh10  1  0.25000000  0.25000000  0.25000000  1
