# generated using pymatgen
data_Ba3Nb5O15
_symmetry_space_group_name_H-M   'P 1'
_cell_length_a   12.82901000
_cell_length_b   12.82901000
_cell_length_c   4.04280000
_cell_angle_alpha   90.00000000
_cell_angle_beta   90.00000000
_cell_angle_gamma   90.00000000
_symmetry_Int_Tables_number   1
_chemical_formula_structural   Ba3Nb5O15
_chemical_formula_sum   'Ba6 Nb10 O30'
_cell_volume   665.37816402
_cell_formula_units_Z   2
loop_
 _symmetry_equiv_pos_site_id
 _symmetry_equiv_pos_as_xyz
  1  'x, y, z'
loop_
 _atom_site_type_symbol
 _atom_site_label
 _atom_site_symmetry_multiplicity
 _atom_site_fract_x
 _atom_site_fract_y
 _atom_site_fract_z
 _atom_site_occupancy
  Ba  Ba0  1  0.33241600  0.83241600  0.00000000  1
  Ba  Ba1  1  0.83241600  0.66758400  0.00000000  1
  Ba  Ba2  1  0.16758400  0.33241600  0.00000000  1
  Ba  Ba3  1  0.66758400  0.16758400  0.00000000  1
  Ba  Ba4  1  0.50000000  0.50000000  0.00000000  1
  Ba  Ba5  1  0.00000000  0.00000000  0.00000000  1
  Nb  Nb6  1  0.42218000  0.28744600  0.50000000  1
  Nb  Nb7  1  0.57782000  0.71255400  0.50000000  1
  Nb  Nb8  1  0.71255400  0.42218000  0.50000000  1
  Nb  Nb9  1  0.28744600  0.57782000  0.50000000  1
  Nb  Nb10  1  0.78744600  0.92218000  0.50000000  1
  Nb  Nb11  1  0.92218000  0.21255400  0.50000000  1
  Nb  Nb12  1  0.07782000  0.78744600  0.50000000  1
  Nb  Nb13  1  0.21255400  0.07782000  0.50000000  1
  Nb  Nb14  1  0.00000000  0.50000000  0.50000000  1
  Nb  Nb15  1  0.50000000  0.00000000  0.50000000  1
  O  O16  1  0.36033300  0.43159100  0.50000000  1
  O  O17  1  0.63966700  0.56840900  0.50000000  1
  O  O18  1  0.56840900  0.36033300  0.50000000  1
  O  O19  1  0.43159100  0.63966700  0.50000000  1
  O  O20  1  0.93159100  0.86033300  0.50000000  1
  O  O21  1  0.86033300  0.06840900  0.50000000  1
  O  O22  1  0.13966700  0.93159100  0.50000000  1
  O  O23  1  0.06840900  0.13966700  0.50000000  1
  O  O24  1  0.15674900  0.49299100  0.50000000  1
  O  O25  1  0.84325100  0.50700900  0.50000000  1
  O  O26  1  0.50700900  0.15674900  0.50000000  1
  O  O27  1  0.49299100  0.84325100  0.50000000  1
  O  O28  1  0.99299100  0.65674900  0.50000000  1
  O  O29  1  0.65674900  0.00700900  0.50000000  1
  O  O30  1  0.34325100  0.99299100  0.50000000  1
  O  O31  1  0.00700900  0.34325100  0.50000000  1
  O  O32  1  0.50000000  0.00000000  0.00000000  1
  O  O33  1  0.00000000  0.50000000  0.00000000  1
  O  O34  1  0.78005700  0.28005700  0.50000000  1
  O  O35  1  0.28005700  0.21994300  0.50000000  1
  O  O36  1  0.71994300  0.78005700  0.50000000  1
  O  O37  1  0.21994300  0.71994300  0.50000000  1
  O  O38  1  0.20826000  0.07814500  0.00000000  1
  O  O39  1  0.07814500  0.79174000  0.00000000  1
  O  O40  1  0.92185500  0.20826000  0.00000000  1
  O  O41  1  0.79174000  0.92185500  0.00000000  1
  O  O42  1  0.29174000  0.57814500  0.00000000  1
  O  O43  1  0.70826000  0.42185500  0.00000000  1
  O  O44  1  0.57814500  0.70826000  0.00000000  1
  O  O45  1  0.42185500  0.29174000  0.00000000  1
