# generated using pymatgen
data_Mo2W(SeS2)2
_symmetry_space_group_name_H-M   'P 1'
_cell_length_a   3.23418939
_cell_length_b   3.23418939
_cell_length_c   29.69324300
_cell_angle_alpha   90.00000000
_cell_angle_beta   90.00000000
_cell_angle_gamma   119.99998759
_symmetry_Int_Tables_number   1
_chemical_formula_structural   Mo2W(SeS2)2
_chemical_formula_sum   'Mo2 W1 Se2 S4'
_cell_volume   268.97952071
_cell_formula_units_Z   1
loop_
 _symmetry_equiv_pos_site_id
 _symmetry_equiv_pos_as_xyz
  1  'x, y, z'
loop_
 _atom_site_type_symbol
 _atom_site_label
 _atom_site_symmetry_multiplicity
 _atom_site_fract_x
 _atom_site_fract_y
 _atom_site_fract_z
 _atom_site_occupancy
  Mo  Mo0  1  0.33333300  0.66666700  0.76864800  1
  Mo  Mo1  1  0.33333300  0.66666700  0.23135200  1
  W  W2  1  0.66666700  0.33333300  0.00000000  1
  Se  Se3  1  0.33333300  0.66666700  0.05779400  1
  Se  Se4  1  0.33333300  0.66666700  0.94220600  1
  S  S5  1  0.66666700  0.33333300  0.71642600  1
  S  S6  1  0.66666700  0.33333300  0.17912400  1
  S  S7  1  0.66666700  0.33333300  0.82087600  1
  S  S8  1  0.66666700  0.33333300  0.28357400  1
