# generated using pymatgen
data_V4SiSb2
_symmetry_space_group_name_H-M   'P 1'
_cell_length_a   7.36103562
_cell_length_b   7.36103562
_cell_length_c   7.36103562
_cell_angle_alpha   95.83168184
_cell_angle_beta   95.83168184
_cell_angle_gamma   142.82438791
_symmetry_Int_Tables_number   1
_chemical_formula_structural   V4SiSb2
_chemical_formula_sum   'V8 Si2 Sb4'
_cell_volume   228.44094104
_cell_formula_units_Z   2
loop_
 _symmetry_equiv_pos_site_id
 _symmetry_equiv_pos_as_xyz
  1  'x, y, z'
loop_
 _atom_site_type_symbol
 _atom_site_label
 _atom_site_symmetry_multiplicity
 _atom_site_fract_x
 _atom_site_fract_y
 _atom_site_fract_z
 _atom_site_occupancy
  V  V0  1  0.91522100  0.79453800  0.70975900  1
  V  V1  1  0.79453800  0.08477900  0.87931700  1
  V  V2  1  0.41522100  0.70546200  0.12068300  1
  V  V3  1  0.58477900  0.29453800  0.87931700  1
  V  V4  1  0.70546200  0.58477900  0.29024100  1
  V  V5  1  0.29453800  0.41522100  0.70975900  1
  V  V6  1  0.20546200  0.91522100  0.12068300  1
  V  V7  1  0.08477900  0.20546200  0.29024100  1
  Si  Si8  1  0.25000000  0.25000000  0.00000000  1
  Si  Si9  1  0.75000000  0.75000000  0.00000000  1
  Sb  Sb10  1  0.64107500  0.85892500  0.50000000  1
  Sb  Sb11  1  0.14107500  0.64107500  0.78214900  1
  Sb  Sb12  1  0.85892500  0.35892500  0.21785000  1
  Sb  Sb13  1  0.35892500  0.14107500  0.50000000  1
