# generated using pymatgen
data_U
_symmetry_space_group_name_H-M   'P 1'
_cell_length_a   10.43395500
_cell_length_b   10.43395500
_cell_length_c   5.65326900
_cell_angle_alpha   90.00000000
_cell_angle_beta   90.00000000
_cell_angle_gamma   90.00000000
_symmetry_Int_Tables_number   1
_chemical_formula_structural   U
_chemical_formula_sum   U30
_cell_volume   615.45679331
_cell_formula_units_Z   30
loop_
 _symmetry_equiv_pos_site_id
 _symmetry_equiv_pos_as_xyz
  1  'x, y, z'
loop_
 _atom_site_type_symbol
 _atom_site_label
 _atom_site_symmetry_multiplicity
 _atom_site_fract_x
 _atom_site_fract_y
 _atom_site_fract_z
 _atom_site_occupancy
  U  U0  1  0.50000000  0.50000000  0.50000000  1
  U  U1  1  0.00000000  0.00000000  0.00000000  1
  U  U2  1  0.88904600  0.11095400  0.50000000  1
  U  U3  1  0.11095400  0.88904600  0.50000000  1
  U  U4  1  0.38904600  0.38904600  0.00000000  1
  U  U5  1  0.61095400  0.61095400  0.00000000  1
  U  U6  1  0.95290000  0.36197000  0.50000000  1
  U  U7  1  0.04710000  0.63803000  0.50000000  1
  U  U8  1  0.45290000  0.13803000  0.00000000  1
  U  U9  1  0.54710000  0.86197000  0.00000000  1
  U  U10  1  0.36197000  0.95290000  0.50000000  1
  U  U11  1  0.63803000  0.04710000  0.50000000  1
  U  U12  1  0.13803000  0.45290000  0.00000000  1
  U  U13  1  0.86197000  0.54710000  0.00000000  1
  U  U14  1  0.23421200  0.44396200  0.50000000  1
  U  U15  1  0.76578800  0.55603800  0.50000000  1
  U  U16  1  0.73421200  0.05603800  0.00000000  1
  U  U17  1  0.26578800  0.94396200  0.00000000  1
  U  U18  1  0.44396200  0.23421200  0.50000000  1
  U  U19  1  0.55603800  0.76578800  0.50000000  1
  U  U20  1  0.05603800  0.73421200  0.00000000  1
  U  U21  1  0.94396200  0.26578800  0.00000000  1
  U  U22  1  0.67972300  0.32027700  0.22569500  1
  U  U23  1  0.32027700  0.67972300  0.22569500  1
  U  U24  1  0.17972300  0.17972300  0.72569500  1
  U  U25  1  0.82027700  0.82027700  0.72569500  1
  U  U26  1  0.32027700  0.67972300  0.77430500  1
  U  U27  1  0.67972300  0.32027700  0.77430500  1
  U  U28  1  0.82027700  0.82027700  0.27430500  1
  U  U29  1  0.17972300  0.17972300  0.27430500  1
