# generated using pymatgen
data_Yb2Cu(GeO3)4
_symmetry_space_group_name_H-M   'P 1'
_cell_length_a   4.87479900
_cell_length_b   7.36132329
_cell_length_c   7.99779506
_cell_angle_alpha   113.67035404
_cell_angle_beta   86.94723739
_cell_angle_gamma   103.88307203
_symmetry_Int_Tables_number   1
_chemical_formula_structural   Yb2Cu(GeO3)4
_chemical_formula_sum   'Yb2 Cu1 Ge4 O12'
_cell_volume   254.87708960
_cell_formula_units_Z   1
loop_
 _symmetry_equiv_pos_site_id
 _symmetry_equiv_pos_as_xyz
  1  'x, y, z'
loop_
 _atom_site_type_symbol
 _atom_site_label
 _atom_site_symmetry_multiplicity
 _atom_site_fract_x
 _atom_site_fract_y
 _atom_site_fract_z
 _atom_site_occupancy
  Yb  Yb0  1  0.93624700  0.76044500  0.54386800  1
  Yb  Yb1  1  0.06375300  0.23955500  0.45613200  1
  Cu  Cu2  1  0.00000000  0.00000000  0.00000000  1
  Ge  Ge3  1  0.46955100  0.82646500  0.22189900  1
  Ge  Ge4  1  0.53044900  0.17353500  0.77810100  1
  Ge  Ge5  1  0.41161200  0.62108000  0.80126200  1
  Ge  Ge6  1  0.58838800  0.37892000  0.19873800  1
  O  O7  1  0.25936700  0.94422100  0.39830200  1
  O  O8  1  0.74063300  0.05577900  0.60169800  1
  O  O9  1  0.23433900  0.59292700  0.60853500  1
  O  O10  1  0.76566100  0.40707300  0.39146500  1
  O  O11  1  0.60123400  0.64793200  0.27267300  1
  O  O12  1  0.39876600  0.35206800  0.72732700  1
  O  O13  1  0.25081400  0.70393500  0.01615600  1
  O  O14  1  0.24263700  0.22248000  0.17846100  1
  O  O15  1  0.75736300  0.77752000  0.82153900  1
  O  O16  1  0.22434800  0.99973000  0.80401200  1
  O  O17  1  0.77565200  0.00027000  0.19598800  1
  O  O18  1  0.74918600  0.29606500  0.98384400  1
