# generated using pymatgen
data_Sr2ZnCu2(SO)2
_symmetry_space_group_name_H-M   'P 1'
_cell_length_a   9.36401861
_cell_length_b   9.36401861
_cell_length_c   9.36401861
_cell_angle_alpha   155.12920977
_cell_angle_beta   155.12920977
_cell_angle_gamma   35.46035955
_symmetry_Int_Tables_number   1
_chemical_formula_structural   Sr2ZnCu2(SO)2
_chemical_formula_sum   'Sr2 Zn1 Cu2 S2 O2'
_cell_volume   145.06286376
_cell_formula_units_Z   1
loop_
 _symmetry_equiv_pos_site_id
 _symmetry_equiv_pos_as_xyz
  1  'x, y, z'
loop_
 _atom_site_type_symbol
 _atom_site_label
 _atom_site_symmetry_multiplicity
 _atom_site_fract_x
 _atom_site_fract_y
 _atom_site_fract_z
 _atom_site_occupancy
  Sr  Sr0  1  0.59239000  0.59239000  0.00000000  1
  Sr  Sr1  1  0.40761000  0.40761000  0.00000000  1
  Zn  Zn2  1  0.00000000  0.00000000  0.00000000  1
  Cu  Cu3  1  0.25000000  0.75000000  0.50000000  1
  Cu  Cu4  1  0.75000000  0.25000000  0.50000000  1
  S  S5  1  0.82604600  0.82604600  0.00000000  1
  S  S6  1  0.17395400  0.17395400  0.00000000  1
  O  O7  1  0.00000000  0.50000000  0.50000000  1
  O  O8  1  0.50000000  0.00000000  0.50000000  1
