# generated using pymatgen
data_Eu3Er
_symmetry_space_group_name_H-M   'P 1'
_cell_length_a   7.65584589
_cell_length_b   7.65584589
_cell_length_c   6.15874000
_cell_angle_alpha   90.00000000
_cell_angle_beta   90.00000000
_cell_angle_gamma   119.99999908
_symmetry_Int_Tables_number   1
_chemical_formula_structural   Eu3Er
_chemical_formula_sum   'Eu6 Er2'
_cell_volume   312.61432252
_cell_formula_units_Z   2
loop_
 _symmetry_equiv_pos_site_id
 _symmetry_equiv_pos_as_xyz
  1  'x, y, z'
loop_
 _atom_site_type_symbol
 _atom_site_label
 _atom_site_symmetry_multiplicity
 _atom_site_fract_x
 _atom_site_fract_y
 _atom_site_fract_z
 _atom_site_occupancy
  Eu  Eu0  1  0.16991000  0.33982000  0.25000000  1
  Eu  Eu1  1  0.66018000  0.83009000  0.25000000  1
  Eu  Eu2  1  0.16991000  0.83009000  0.25000000  1
  Eu  Eu3  1  0.83009000  0.66018000  0.75000000  1
  Eu  Eu4  1  0.33982000  0.16991000  0.75000000  1
  Eu  Eu5  1  0.83009000  0.16991000  0.75000000  1
  Er  Er6  1  0.33333300  0.66666700  0.75000000  1
  Er  Er7  1  0.66666700  0.33333300  0.25000000  1
