# generated using pymatgen
data_Fe3Au
_symmetry_space_group_name_H-M   'P 1'
_cell_length_a   5.39598691
_cell_length_b   5.39598691
_cell_length_c   4.29800600
_cell_angle_alpha   90.00000000
_cell_angle_beta   90.00000000
_cell_angle_gamma   120.00001110
_symmetry_Int_Tables_number   1
_chemical_formula_structural   Fe3Au
_chemical_formula_sum   'Fe6 Au2'
_cell_volume   108.37756140
_cell_formula_units_Z   2
loop_
 _symmetry_equiv_pos_site_id
 _symmetry_equiv_pos_as_xyz
  1  'x, y, z'
loop_
 _atom_site_type_symbol
 _atom_site_label
 _atom_site_symmetry_multiplicity
 _atom_site_fract_x
 _atom_site_fract_y
 _atom_site_fract_z
 _atom_site_occupancy
  Fe  Fe0  1  0.15524800  0.31049700  0.25000000  1
  Fe  Fe1  1  0.68950300  0.84475200  0.25000000  1
  Fe  Fe2  1  0.15524800  0.84475200  0.25000000  1
  Fe  Fe3  1  0.84475200  0.68950300  0.75000000  1
  Fe  Fe4  1  0.31049700  0.15524800  0.75000000  1
  Fe  Fe5  1  0.84475200  0.15524800  0.75000000  1
  Au  Au6  1  0.33333300  0.66666700  0.75000000  1
  Au  Au7  1  0.66666700  0.33333300  0.25000000  1
