# generated using pymatgen
data_Te4Mo(WS)2
_symmetry_space_group_name_H-M   'P 1'
_cell_length_a   3.42005071
_cell_length_b   3.42005071
_cell_length_c   32.59550600
_cell_angle_alpha   90.00000000
_cell_angle_beta   90.00000000
_cell_angle_gamma   120.00001370
_symmetry_Int_Tables_number   1
_chemical_formula_structural   Te4Mo(WS)2
_chemical_formula_sum   'Te4 Mo1 W2 S2'
_cell_volume   330.18199673
_cell_formula_units_Z   1
loop_
 _symmetry_equiv_pos_site_id
 _symmetry_equiv_pos_as_xyz
  1  'x, y, z'
loop_
 _atom_site_type_symbol
 _atom_site_label
 _atom_site_symmetry_multiplicity
 _atom_site_fract_x
 _atom_site_fract_y
 _atom_site_fract_z
 _atom_site_occupancy
  Te  Te0  1  0.33333300  0.66666700  0.40335000  1
  Te  Te1  1  0.66666700  0.33333300  0.52170400  1
  Te  Te2  1  0.66666700  0.33333300  0.63668400  1
  Te  Te3  1  0.33333300  0.66666700  0.28912800  1
  Mo  Mo4  1  0.66666700  0.33333300  0.34618400  1
  W  W5  1  0.33333300  0.66666700  0.11550700  1
  W  W6  1  0.33333300  0.66666700  0.57919500  1
  S  S7  1  0.66666700  0.33333300  0.06944800  1
  S  S8  1  0.66666700  0.33333300  0.16164200  1
