# generated using pymatgen
data_Eu3Re
_symmetry_space_group_name_H-M   'P 1'
_cell_length_a   5.63515270
_cell_length_b   5.63515270
_cell_length_c   5.63515270
_cell_angle_alpha   127.49783031
_cell_angle_beta   127.49783031
_cell_angle_gamma   77.43994709
_symmetry_Int_Tables_number   1
_chemical_formula_structural   Eu3Re
_chemical_formula_sum   'Eu3 Re1'
_cell_volume   109.25339013
_cell_formula_units_Z   1
loop_
 _symmetry_equiv_pos_site_id
 _symmetry_equiv_pos_as_xyz
  1  'x, y, z'
loop_
 _atom_site_type_symbol
 _atom_site_label
 _atom_site_symmetry_multiplicity
 _atom_site_fract_x
 _atom_site_fract_y
 _atom_site_fract_z
 _atom_site_occupancy
  Eu  Eu0  1  0.74999900  0.25000000  0.49999800  1
  Eu  Eu1  1  0.25000000  0.74999900  0.49999800  1
  Eu  Eu2  1  0.50000100  0.50000100  0.00000000  1
  Re  Re3  1  0.00000000  0.00000000  0.00000000  1
