# generated using pymatgen
data_NaMg
_symmetry_space_group_name_H-M   'P 1'
_cell_length_a   3.29095200
_cell_length_b   5.53079100
_cell_length_c   6.20248000
_cell_angle_alpha   90.00000000
_cell_angle_beta   90.00000000
_cell_angle_gamma   90.00000000
_symmetry_Int_Tables_number   1
_chemical_formula_structural   NaMg
_chemical_formula_sum   'Na2 Mg2'
_cell_volume   112.89485965
_cell_formula_units_Z   2
loop_
 _symmetry_equiv_pos_site_id
 _symmetry_equiv_pos_as_xyz
  1  'x, y, z'
loop_
 _atom_site_type_symbol
 _atom_site_label
 _atom_site_symmetry_multiplicity
 _atom_site_fract_x
 _atom_site_fract_y
 _atom_site_fract_z
 _atom_site_occupancy
  Na  Na0  1  0.50000000  0.75000000  0.34919000  1
  Na  Na1  1  0.50000000  0.25000000  0.65081000  1
  Mg  Mg2  1  0.00000000  0.25000000  0.13495000  1
  Mg  Mg3  1  0.00000000  0.75000000  0.86505000  1
