# generated using pymatgen
data_HfCr2
_symmetry_space_group_name_H-M   'P 1'
_cell_length_a   5.03487915
_cell_length_b   5.03487915
_cell_length_c   16.30448100
_cell_angle_alpha   90.00000000
_cell_angle_beta   90.00000000
_cell_angle_gamma   119.99998879
_symmetry_Int_Tables_number   1
_chemical_formula_structural   HfCr2
_chemical_formula_sum   'Hf8 Cr16'
_cell_volume   357.94455543
_cell_formula_units_Z   8
loop_
 _symmetry_equiv_pos_site_id
 _symmetry_equiv_pos_as_xyz
  1  'x, y, z'
loop_
 _atom_site_type_symbol
 _atom_site_label
 _atom_site_symmetry_multiplicity
 _atom_site_fract_x
 _atom_site_fract_y
 _atom_site_fract_z
 _atom_site_occupancy
  Hf  Hf0  1  0.00000000  0.00000000  0.09446500  1
  Hf  Hf1  1  0.00000000  0.00000000  0.59446500  1
  Hf  Hf2  1  0.00000000  0.00000000  0.90553500  1
  Hf  Hf3  1  0.00000000  0.00000000  0.40553500  1
  Hf  Hf4  1  0.33333300  0.66666700  0.84396200  1
  Hf  Hf5  1  0.66666700  0.33333300  0.34396200  1
  Hf  Hf6  1  0.66666700  0.33333300  0.15603800  1
  Hf  Hf7  1  0.33333300  0.66666700  0.65603800  1
  Cr  Cr8  1  0.50000000  0.00000000  0.00000000  1
  Cr  Cr9  1  0.50000000  0.00000000  0.50000000  1
  Cr  Cr10  1  0.00000000  0.50000000  0.00000000  1
  Cr  Cr11  1  0.50000000  0.50000000  0.00000000  1
  Cr  Cr12  1  0.50000000  0.50000000  0.50000000  1
  Cr  Cr13  1  0.00000000  0.50000000  0.50000000  1
  Cr  Cr14  1  0.33333300  0.66666700  0.12343600  1
  Cr  Cr15  1  0.66666700  0.33333300  0.62343600  1
  Cr  Cr16  1  0.66666700  0.33333300  0.87656400  1
  Cr  Cr17  1  0.33333300  0.66666700  0.37656400  1
  Cr  Cr18  1  0.16448300  0.32896500  0.25000000  1
  Cr  Cr19  1  0.83551700  0.67103500  0.75000000  1
  Cr  Cr20  1  0.67103500  0.83551700  0.25000000  1
  Cr  Cr21  1  0.16448300  0.83551700  0.25000000  1
  Cr  Cr22  1  0.83551700  0.16448300  0.75000000  1
  Cr  Cr23  1  0.32896500  0.16448300  0.75000000  1
