# generated using pymatgen
data_NaCd3
_symmetry_space_group_name_H-M   'P 1'
_cell_length_a   6.47799008
_cell_length_b   6.47799008
_cell_length_c   5.26305500
_cell_angle_alpha   90.00000000
_cell_angle_beta   90.00000000
_cell_angle_gamma   120.00000084
_symmetry_Int_Tables_number   1
_chemical_formula_structural   NaCd3
_chemical_formula_sum   'Na2 Cd6'
_cell_volume   191.27098485
_cell_formula_units_Z   2
loop_
 _symmetry_equiv_pos_site_id
 _symmetry_equiv_pos_as_xyz
  1  'x, y, z'
loop_
 _atom_site_type_symbol
 _atom_site_label
 _atom_site_symmetry_multiplicity
 _atom_site_fract_x
 _atom_site_fract_y
 _atom_site_fract_z
 _atom_site_occupancy
  Na  Na0  1  0.33333300  0.66666700  0.75000000  1
  Na  Na1  1  0.66666700  0.33333300  0.25000000  1
  Cd  Cd2  1  0.16546400  0.33092800  0.25000000  1
  Cd  Cd3  1  0.66907200  0.83453600  0.25000000  1
  Cd  Cd4  1  0.16546400  0.83453600  0.25000000  1
  Cd  Cd5  1  0.83453600  0.66907200  0.75000000  1
  Cd  Cd6  1  0.33092800  0.16546400  0.75000000  1
  Cd  Cd7  1  0.83453600  0.16546400  0.75000000  1
