# generated using pymatgen
data_Nd
_symmetry_space_group_name_H-M   'P 1'
_cell_length_a   9.20214567
_cell_length_b   9.20214567
_cell_length_c   9.20214504
_cell_angle_alpha   23.27180097
_cell_angle_beta   23.27180097
_cell_angle_gamma   23.27179986
_symmetry_Int_Tables_number   1
_chemical_formula_structural   Nd
_chemical_formula_sum   Nd3
_cell_volume   106.78848179
_cell_formula_units_Z   3
loop_
 _symmetry_equiv_pos_site_id
 _symmetry_equiv_pos_as_xyz
  1  'x, y, z'
loop_
 _atom_site_type_symbol
 _atom_site_label
 _atom_site_symmetry_multiplicity
 _atom_site_fract_x
 _atom_site_fract_y
 _atom_site_fract_z
 _atom_site_occupancy
  Nd  Nd0  1  0.00000000  0.00000000  0.00000000  1
  Nd  Nd1  1  0.77729000  0.77729000  0.77729000  1
  Nd  Nd2  1  0.22271000  0.22271000  0.22271000  1
