# generated using pymatgen
data_SBr3
_symmetry_space_group_name_H-M   'P 1'
_cell_length_a   8.57226843
_cell_length_b   8.57226843
_cell_length_c   8.57226843
_cell_angle_alpha   153.81917120
_cell_angle_beta   153.81917120
_cell_angle_gamma   37.36248885
_symmetry_Int_Tables_number   1
_chemical_formula_structural   SBr3
_chemical_formula_sum   'S1 Br3'
_cell_volume   122.44288088
_cell_formula_units_Z   1
loop_
 _symmetry_equiv_pos_site_id
 _symmetry_equiv_pos_as_xyz
  1  'x, y, z'
loop_
 _atom_site_type_symbol
 _atom_site_label
 _atom_site_symmetry_multiplicity
 _atom_site_fract_x
 _atom_site_fract_y
 _atom_site_fract_z
 _atom_site_occupancy
  S  S0  1  0.00000000  0.00000000  0.00000000  1
  Br  Br1  1  0.75000000  0.25000000  0.50000000  1
  Br  Br2  1  0.25000000  0.75000000  0.50000000  1
  Br  Br3  1  0.50000000  0.50000000  0.00000000  1
