# generated using pymatgen
data_NdP3
_symmetry_space_group_name_H-M   'P 1'
_cell_length_a   5.58872291
_cell_length_b   5.58872291
_cell_length_c   5.58872291
_cell_angle_alpha   138.05993426
_cell_angle_beta   138.05993426
_cell_angle_gamma   60.81121888
_symmetry_Int_Tables_number   1
_chemical_formula_structural   NdP3
_chemical_formula_sum   'Nd1 P3'
_cell_volume   77.12810906
_cell_formula_units_Z   1
loop_
 _symmetry_equiv_pos_site_id
 _symmetry_equiv_pos_as_xyz
  1  'x, y, z'
loop_
 _atom_site_type_symbol
 _atom_site_label
 _atom_site_symmetry_multiplicity
 _atom_site_fract_x
 _atom_site_fract_y
 _atom_site_fract_z
 _atom_site_occupancy
  Nd  Nd0  1  0.00000000  0.00000000  0.00000000  1
  P  P1  1  0.75000000  0.25000000  0.50000000  1
  P  P2  1  0.25000000  0.75000000  0.50000000  1
  P  P3  1  0.50000000  0.50000000  0.00000000  1
