# generated using pymatgen
data_Rb3Ac
_symmetry_space_group_name_H-M   'P 1'
_cell_length_a   9.30766582
_cell_length_b   9.30766582
_cell_length_c   7.71944000
_cell_angle_alpha   90.00000000
_cell_angle_beta   90.00000000
_cell_angle_gamma   119.99999873
_symmetry_Int_Tables_number   1
_chemical_formula_structural   Rb3Ac
_chemical_formula_sum   'Rb6 Ac2'
_cell_volume   579.15925070
_cell_formula_units_Z   2
loop_
 _symmetry_equiv_pos_site_id
 _symmetry_equiv_pos_as_xyz
  1  'x, y, z'
loop_
 _atom_site_type_symbol
 _atom_site_label
 _atom_site_symmetry_multiplicity
 _atom_site_fract_x
 _atom_site_fract_y
 _atom_site_fract_z
 _atom_site_occupancy
  Rb  Rb0  1  0.17048700  0.34097400  0.25000000  1
  Rb  Rb1  1  0.65902600  0.82951300  0.25000000  1
  Rb  Rb2  1  0.17048700  0.82951300  0.25000000  1
  Rb  Rb3  1  0.82951300  0.65902600  0.75000000  1
  Rb  Rb4  1  0.34097400  0.17048700  0.75000000  1
  Rb  Rb5  1  0.82951300  0.17048700  0.75000000  1
  Ac  Ac6  1  0.33333300  0.66666700  0.75000000  1
  Ac  Ac7  1  0.66666700  0.33333300  0.25000000  1
