# generated using pymatgen
data_Rh2S3
_symmetry_space_group_name_H-M   'P 1'
_cell_length_a   6.34527636
_cell_length_b   6.34527636
_cell_length_c   6.34527698
_cell_angle_alpha   56.69421424
_cell_angle_beta   56.69421424
_cell_angle_gamma   56.69421283
_symmetry_Int_Tables_number   1
_chemical_formula_structural   Rh2S3
_chemical_formula_sum   'Rh4 S6'
_cell_volume   166.85909457
_cell_formula_units_Z   2
loop_
 _symmetry_equiv_pos_site_id
 _symmetry_equiv_pos_as_xyz
  1  'x, y, z'
loop_
 _atom_site_type_symbol
 _atom_site_label
 _atom_site_symmetry_multiplicity
 _atom_site_fract_x
 _atom_site_fract_y
 _atom_site_fract_z
 _atom_site_occupancy
  Rh  Rh0  1  0.35032700  0.35032700  0.35032700  1
  Rh  Rh1  1  0.14967300  0.14967300  0.14967300  1
  Rh  Rh2  1  0.85032700  0.85032700  0.85032700  1
  Rh  Rh3  1  0.64967300  0.64967300  0.64967300  1
  S  S4  1  0.75000000  0.04948700  0.45051300  1
  S  S5  1  0.04948700  0.45051300  0.75000000  1
  S  S6  1  0.45051300  0.75000000  0.04948700  1
  S  S7  1  0.54948700  0.25000000  0.95051300  1
  S  S8  1  0.95051300  0.54948700  0.25000000  1
  S  S9  1  0.25000000  0.95051300  0.54948700  1
