# generated using pymatgen
data_S3Br
_symmetry_space_group_name_H-M   'P 1'
_cell_length_a   8.78575923
_cell_length_b   8.78575923
_cell_length_c   8.78575923
_cell_angle_alpha   156.76868534
_cell_angle_beta   156.76868534
_cell_angle_gamma   33.08729500
_symmetry_Int_Tables_number   1
_chemical_formula_structural   S3Br
_chemical_formula_sum   'S3 Br1'
_cell_volume   105.41951546
_cell_formula_units_Z   1
loop_
 _symmetry_equiv_pos_site_id
 _symmetry_equiv_pos_as_xyz
  1  'x, y, z'
loop_
 _atom_site_type_symbol
 _atom_site_label
 _atom_site_symmetry_multiplicity
 _atom_site_fract_x
 _atom_site_fract_y
 _atom_site_fract_z
 _atom_site_occupancy
  S  S0  1  0.75000000  0.25000000  0.50000000  1
  S  S1  1  0.25000000  0.75000000  0.50000000  1
  S  S2  1  0.50000000  0.50000000  0.00000000  1
  Br  Br3  1  0.00000000  0.00000000  0.00000000  1
