# generated using pymatgen
data_Pb3I2(Cl2O3)2
_symmetry_space_group_name_H-M   'P 1'
_cell_length_a   8.71964746
_cell_length_b   8.71964746
_cell_length_c   12.19578929
_cell_angle_alpha   64.84131125
_cell_angle_beta   64.84131125
_cell_angle_gamma   51.23884703
_symmetry_Int_Tables_number   1
_chemical_formula_structural   Pb3I2(Cl2O3)2
_chemical_formula_sum   'Pb6 I4 Cl8 O12'
_cell_volume   637.64376091
_cell_formula_units_Z   2
loop_
 _symmetry_equiv_pos_site_id
 _symmetry_equiv_pos_as_xyz
  1  'x, y, z'
loop_
 _atom_site_type_symbol
 _atom_site_label
 _atom_site_symmetry_multiplicity
 _atom_site_fract_x
 _atom_site_fract_y
 _atom_site_fract_z
 _atom_site_occupancy
  Pb  Pb0  1  0.16796300  0.83203700  0.75000000  1
  Pb  Pb1  1  0.83203700  0.16796300  0.25000000  1
  Pb  Pb2  1  0.05566300  0.34302100  0.82473600  1
  Pb  Pb3  1  0.65697900  0.94433700  0.67526400  1
  Pb  Pb4  1  0.94433700  0.65697900  0.17526400  1
  Pb  Pb5  1  0.34302100  0.05566300  0.32473600  1
  I  I6  1  0.66473200  0.23283400  0.97293200  1
  I  I7  1  0.76716600  0.33526800  0.52706800  1
  I  I8  1  0.33526800  0.76716600  0.02706800  1
  I  I9  1  0.23283400  0.66473200  0.47293200  1
  Cl  Cl10  1  0.67416400  0.57548900  0.72921800  1
  Cl  Cl11  1  0.42451100  0.32583600  0.77078200  1
  Cl  Cl12  1  0.32583600  0.42451100  0.27078200  1
  Cl  Cl13  1  0.57548900  0.67416400  0.22921800  1
  Cl  Cl14  1  0.25778900  0.15001300  0.61007700  1
  Cl  Cl15  1  0.84998700  0.74221100  0.88992300  1
  Cl  Cl16  1  0.74221100  0.84998700  0.38992300  1
  Cl  Cl17  1  0.15001300  0.25778900  0.11007700  1
  O  O18  1  0.91856700  0.09204000  0.87850400  1
  O  O19  1  0.90796000  0.08143300  0.62149600  1
  O  O20  1  0.08143300  0.90796000  0.12149600  1
  O  O21  1  0.09204000  0.91856700  0.37850400  1
  O  O22  1  0.33340800  0.96198300  0.88425800  1
  O  O23  1  0.03801700  0.66659200  0.61574200  1
  O  O24  1  0.66659200  0.03801700  0.11574200  1
  O  O25  1  0.96198300  0.33340800  0.38425800  1
  O  O26  1  0.27699100  0.63964500  0.97647800  1
  O  O27  1  0.36035500  0.72300900  0.52352200  1
  O  O28  1  0.72300900  0.36035500  0.02352200  1
  O  O29  1  0.63964500  0.27699100  0.47647800  1
