# generated using pymatgen
data_Rb(Mg4Al3)4
_symmetry_space_group_name_H-M   'P 1'
_cell_length_a   9.25868987
_cell_length_b   9.25868987
_cell_length_c   9.25869026
_cell_angle_alpha   109.67109018
_cell_angle_beta   109.67109018
_cell_angle_gamma   109.67109659
_symmetry_Int_Tables_number   1
_chemical_formula_structural   Rb(Mg4Al3)4
_chemical_formula_sum   'Rb1 Mg16 Al12'
_cell_volume   606.41623016
_cell_formula_units_Z   1
loop_
 _symmetry_equiv_pos_site_id
 _symmetry_equiv_pos_as_xyz
  1  'x, y, z'
loop_
 _atom_site_type_symbol
 _atom_site_label
 _atom_site_symmetry_multiplicity
 _atom_site_fract_x
 _atom_site_fract_y
 _atom_site_fract_z
 _atom_site_occupancy
  Rb  Rb0  1  0.62806300  0.62806300  0.62806300  1
  Mg  Mg1  1  0.34616600  0.00192900  0.00192900  1
  Mg  Mg2  1  0.71485800  0.38464800  0.38464800  1
  Mg  Mg3  1  0.28588900  0.68688500  0.68688500  1
  Mg  Mg4  1  0.99978000  0.60418700  0.31638000  1
  Mg  Mg5  1  0.60418700  0.31638000  0.99978000  1
  Mg  Mg6  1  0.38464800  0.71485800  0.38464800  1
  Mg  Mg7  1  0.00192900  0.34616600  0.00192900  1
  Mg  Mg8  1  0.31638000  0.99978000  0.60418700  1
  Mg  Mg9  1  0.68688500  0.68688500  0.28588900  1
  Mg  Mg10  1  0.68688500  0.28588900  0.68688500  1
  Mg  Mg11  1  0.31638000  0.60418700  0.99978000  1
  Mg  Mg12  1  0.00192900  0.00192900  0.34616600  1
  Mg  Mg13  1  0.38464800  0.38464800  0.71485800  1
  Mg  Mg14  1  0.60418700  0.99978000  0.31638000  1
  Mg  Mg15  1  0.99978000  0.31638000  0.60418700  1
  Mg  Mg16  1  0.00462800  0.00462800  0.00462800  1
  Al  Al17  1  0.17677100  0.36420900  0.36420900  1
  Al  Al18  1  0.01094800  0.81955900  0.63706700  1
  Al  Al19  1  0.36420900  0.36420900  0.17677100  1
  Al  Al20  1  0.63706700  0.01094800  0.81955900  1
  Al  Al21  1  0.18537100  0.18537100  0.82170600  1
  Al  Al22  1  0.81955900  0.01094800  0.63706700  1
  Al  Al23  1  0.81955900  0.63706700  0.01094800  1
  Al  Al24  1  0.18537100  0.82170600  0.18537100  1
  Al  Al25  1  0.63706700  0.81955900  0.01094800  1
  Al  Al26  1  0.36420900  0.17677100  0.36420900  1
  Al  Al27  1  0.01094800  0.63706700  0.81955900  1
  Al  Al28  1  0.82170600  0.18537100  0.18537100  1
