# generated using pymatgen
data_Hg3Sb
_symmetry_space_group_name_H-M   'P 1'
_cell_length_a   6.24751317
_cell_length_b   6.24751317
_cell_length_c   6.24751317
_cell_angle_alpha   138.74299975
_cell_angle_beta   138.74299975
_cell_angle_gamma   59.76694432
_symmetry_Int_Tables_number   1
_chemical_formula_structural   Hg3Sb
_chemical_formula_sum   'Hg3 Sb1'
_cell_volume   104.96971285
_cell_formula_units_Z   1
loop_
 _symmetry_equiv_pos_site_id
 _symmetry_equiv_pos_as_xyz
  1  'x, y, z'
loop_
 _atom_site_type_symbol
 _atom_site_label
 _atom_site_symmetry_multiplicity
 _atom_site_fract_x
 _atom_site_fract_y
 _atom_site_fract_z
 _atom_site_occupancy
  Hg  Hg0  1  0.75000000  0.25000000  0.50000000  1
  Hg  Hg1  1  0.25000000  0.75000000  0.50000000  1
  Hg  Hg2  1  0.50000000  0.50000000  0.00000000  1
  Sb  Sb3  1  0.00000000  0.00000000  0.00000000  1
