# generated using pymatgen
data_Pr2Zn17
_symmetry_space_group_name_H-M   'P 1'
_cell_length_a   9.12039186
_cell_length_b   9.12039186
_cell_length_c   8.89736500
_cell_angle_alpha   90.00000000
_cell_angle_beta   90.00000000
_cell_angle_gamma   119.99999897
_symmetry_Int_Tables_number   1
_chemical_formula_structural   Pr2Zn17
_chemical_formula_sum   'Pr4 Zn34'
_cell_volume   640.94245537
_cell_formula_units_Z   2
loop_
 _symmetry_equiv_pos_site_id
 _symmetry_equiv_pos_as_xyz
  1  'x, y, z'
loop_
 _atom_site_type_symbol
 _atom_site_label
 _atom_site_symmetry_multiplicity
 _atom_site_fract_x
 _atom_site_fract_y
 _atom_site_fract_z
 _atom_site_occupancy
  Pr  Pr0  1  0.00000000  0.00000000  0.25000000  1
  Pr  Pr1  1  0.00000000  0.00000000  0.75000000  1
  Pr  Pr2  1  0.33333300  0.66666700  0.75000000  1
  Pr  Pr3  1  0.66666700  0.33333300  0.25000000  1
  Zn  Zn4  1  0.16264200  0.32528400  0.97966900  1
  Zn  Zn5  1  0.83735800  0.67471600  0.47966900  1
  Zn  Zn6  1  0.67471600  0.83735800  0.97966900  1
  Zn  Zn7  1  0.16264200  0.83735800  0.97966900  1
  Zn  Zn8  1  0.83735800  0.16264200  0.47966900  1
  Zn  Zn9  1  0.32528400  0.16264200  0.47966900  1
  Zn  Zn10  1  0.83735800  0.67471600  0.02033100  1
  Zn  Zn11  1  0.83735800  0.16264200  0.02033100  1
  Zn  Zn12  1  0.32528400  0.16264200  0.02033100  1
  Zn  Zn13  1  0.67471600  0.83735800  0.52033100  1
  Zn  Zn14  1  0.16264200  0.83735800  0.52033100  1
  Zn  Zn15  1  0.16264200  0.32528400  0.52033100  1
  Zn  Zn16  1  0.32944300  0.95890400  0.25000000  1
  Zn  Zn17  1  0.67055700  0.04109600  0.75000000  1
  Zn  Zn18  1  0.04109600  0.37053900  0.25000000  1
  Zn  Zn19  1  0.62946100  0.67055700  0.25000000  1
  Zn  Zn20  1  0.37053900  0.32944300  0.75000000  1
  Zn  Zn21  1  0.95890400  0.62946100  0.75000000  1
  Zn  Zn22  1  0.37053900  0.04109600  0.75000000  1
  Zn  Zn23  1  0.67055700  0.62946100  0.75000000  1
  Zn  Zn24  1  0.95890400  0.32944300  0.75000000  1
  Zn  Zn25  1  0.04109600  0.67055700  0.25000000  1
  Zn  Zn26  1  0.32944300  0.37053900  0.25000000  1
  Zn  Zn27  1  0.62946100  0.95890400  0.25000000  1
  Zn  Zn28  1  0.50000000  0.00000000  0.00000000  1
  Zn  Zn29  1  0.50000000  0.00000000  0.50000000  1
  Zn  Zn30  1  0.00000000  0.50000000  0.00000000  1
  Zn  Zn31  1  0.50000000  0.50000000  0.00000000  1
  Zn  Zn32  1  0.50000000  0.50000000  0.50000000  1
  Zn  Zn33  1  0.00000000  0.50000000  0.50000000  1
  Zn  Zn34  1  0.33333300  0.66666700  0.10370500  1
  Zn  Zn35  1  0.66666700  0.33333300  0.60370500  1
  Zn  Zn36  1  0.66666700  0.33333300  0.89629500  1
  Zn  Zn37  1  0.33333300  0.66666700  0.39629500  1
