# generated using pymatgen
data_K3Y
_symmetry_space_group_name_H-M   'P 1'
_cell_length_a   8.58110842
_cell_length_b   8.58110842
_cell_length_c   7.09581700
_cell_angle_alpha   90.00000000
_cell_angle_beta   90.00000000
_cell_angle_gamma   120.00000320
_symmetry_Int_Tables_number   1
_chemical_formula_structural   K3Y
_chemical_formula_sum   'K6 Y2'
_cell_volume   452.50126973
_cell_formula_units_Z   2
loop_
 _symmetry_equiv_pos_site_id
 _symmetry_equiv_pos_as_xyz
  1  'x, y, z'
loop_
 _atom_site_type_symbol
 _atom_site_label
 _atom_site_symmetry_multiplicity
 _atom_site_fract_x
 _atom_site_fract_y
 _atom_site_fract_z
 _atom_site_occupancy
  K  K0  1  0.17199400  0.34398700  0.25000000  1
  K  K1  1  0.65601300  0.82800600  0.25000000  1
  K  K2  1  0.17199400  0.82800600  0.25000000  1
  K  K3  1  0.82800600  0.65601300  0.75000000  1
  K  K4  1  0.34398700  0.17199400  0.75000000  1
  K  K5  1  0.82800600  0.17199400  0.75000000  1
  Y  Y6  1  0.33333300  0.66666700  0.75000000  1
  Y  Y7  1  0.66666700  0.33333300  0.25000000  1
