# generated using pymatgen
data_PW4Cl11
_symmetry_space_group_name_H-M   'P 1'
_cell_length_a   8.70436499
_cell_length_b   8.70436499
_cell_length_c   11.52383900
_cell_angle_alpha   90.00000000
_cell_angle_beta   90.00000000
_cell_angle_gamma   109.53978723
_symmetry_Int_Tables_number   1
_chemical_formula_structural   PW4Cl11
_chemical_formula_sum   'P2 W8 Cl22'
_cell_volume   822.83168513
_cell_formula_units_Z   2
loop_
 _symmetry_equiv_pos_site_id
 _symmetry_equiv_pos_as_xyz
  1  'x, y, z'
loop_
 _atom_site_type_symbol
 _atom_site_label
 _atom_site_symmetry_multiplicity
 _atom_site_fract_x
 _atom_site_fract_y
 _atom_site_fract_z
 _atom_site_occupancy
  P  P0  1  0.67583600  0.32416400  0.25000000  1
  P  P1  1  0.32416400  0.67583600  0.75000000  1
  W  W2  1  0.64466100  0.09490200  0.37214800  1
  W  W3  1  0.09490200  0.64466100  0.62785200  1
  W  W4  1  0.35533900  0.90509800  0.62785200  1
  W  W5  1  0.90509800  0.35533900  0.37214800  1
  W  W6  1  0.64466100  0.09490200  0.12785200  1
  W  W7  1  0.09490200  0.64466100  0.87214800  1
  W  W8  1  0.35533900  0.90509800  0.87214800  1
  W  W9  1  0.90509800  0.35533900  0.12785200  1
  Cl  Cl10  1  0.87001200  0.12998800  0.99392000  1
  Cl  Cl11  1  0.12998800  0.87001200  0.00608000  1
  Cl  Cl12  1  0.48029200  0.17874800  0.98654300  1
  Cl  Cl13  1  0.17874800  0.48029200  0.01345700  1
  Cl  Cl14  1  0.51970800  0.82125200  0.01345700  1
  Cl  Cl15  1  0.82125200  0.51970800  0.98654300  1
  Cl  Cl16  1  0.87001200  0.12998800  0.50608000  1
  Cl  Cl17  1  0.12998800  0.87001200  0.49392000  1
  Cl  Cl18  1  0.48029200  0.17874800  0.51345700  1
  Cl  Cl19  1  0.17874800  0.48029200  0.48654300  1
  Cl  Cl20  1  0.51970800  0.82125200  0.48654300  1
  Cl  Cl21  1  0.82125200  0.51970800  0.51345700  1
  Cl  Cl22  1  0.75499000  0.93121900  0.25000000  1
  Cl  Cl23  1  0.93121900  0.75499000  0.75000000  1
  Cl  Cl24  1  0.24501000  0.06878100  0.75000000  1
  Cl  Cl25  1  0.06878100  0.24501000  0.25000000  1
  Cl  Cl26  1  0.53210300  0.46789700  0.25000000  1
  Cl  Cl27  1  0.46789700  0.53210300  0.75000000  1
  Cl  Cl28  1  0.39491100  0.98905600  0.25000000  1
  Cl  Cl29  1  0.98905600  0.39491100  0.75000000  1
  Cl  Cl30  1  0.60508900  0.01094400  0.75000000  1
  Cl  Cl31  1  0.01094400  0.60508900  0.25000000  1
