# generated using pymatgen
data_Ni3Sb
_symmetry_space_group_name_H-M   'P 1'
_cell_length_a   5.26457329
_cell_length_b   5.26457329
_cell_length_c   4.27341000
_cell_angle_alpha   90.00000000
_cell_angle_beta   90.00000000
_cell_angle_gamma   119.99999103
_symmetry_Int_Tables_number   1
_chemical_formula_structural   Ni3Sb
_chemical_formula_sum   'Ni6 Sb2'
_cell_volume   102.57265202
_cell_formula_units_Z   2
loop_
 _symmetry_equiv_pos_site_id
 _symmetry_equiv_pos_as_xyz
  1  'x, y, z'
loop_
 _atom_site_type_symbol
 _atom_site_label
 _atom_site_symmetry_multiplicity
 _atom_site_fract_x
 _atom_site_fract_y
 _atom_site_fract_z
 _atom_site_occupancy
  Ni  Ni0  1  0.67530700  0.83765400  0.25000000  1
  Ni  Ni1  1  0.16234600  0.83765400  0.25000000  1
  Ni  Ni2  1  0.83765400  0.67530700  0.75000000  1
  Ni  Ni3  1  0.32469300  0.16234600  0.75000000  1
  Ni  Ni4  1  0.83765400  0.16234600  0.75000000  1
  Ni  Ni5  1  0.16234600  0.32469300  0.25000000  1
  Sb  Sb6  1  0.33333300  0.66666700  0.75000000  1
  Sb  Sb7  1  0.66666700  0.33333300  0.25000000  1
