# generated using pymatgen
data_HgPd3
_symmetry_space_group_name_H-M   'P 1'
_cell_length_a   5.74618819
_cell_length_b   5.74618819
_cell_length_c   4.69579000
_cell_angle_alpha   90.00000000
_cell_angle_beta   90.00000000
_cell_angle_gamma   120.00000216
_symmetry_Int_Tables_number   1
_chemical_formula_structural   HgPd3
_chemical_formula_sum   'Hg2 Pd6'
_cell_volume   134.27618043
_cell_formula_units_Z   2
loop_
 _symmetry_equiv_pos_site_id
 _symmetry_equiv_pos_as_xyz
  1  'x, y, z'
loop_
 _atom_site_type_symbol
 _atom_site_label
 _atom_site_symmetry_multiplicity
 _atom_site_fract_x
 _atom_site_fract_y
 _atom_site_fract_z
 _atom_site_occupancy
  Hg  Hg0  1  0.33333300  0.66666700  0.75000000  1
  Hg  Hg1  1  0.66666700  0.33333300  0.25000000  1
  Pd  Pd2  1  0.16465700  0.32931500  0.25000000  1
  Pd  Pd3  1  0.67068500  0.83534300  0.25000000  1
  Pd  Pd4  1  0.16465700  0.83534300  0.25000000  1
  Pd  Pd5  1  0.83534300  0.67068500  0.75000000  1
  Pd  Pd6  1  0.32931500  0.16465700  0.75000000  1
  Pd  Pd7  1  0.83534300  0.16465700  0.75000000  1
