# generated using pymatgen
data_KCe(PO3)4
_symmetry_space_group_name_H-M   'P 1'
_cell_length_a   8.47540700
_cell_length_b   7.26018500
_cell_length_c   8.19760069
_cell_angle_alpha   87.72880087
_cell_angle_beta   90.00000000
_cell_angle_gamma   90.00000000
_symmetry_Int_Tables_number   1
_chemical_formula_structural   KCe(PO3)4
_chemical_formula_sum   'K2 Ce2 P8 O24'
_cell_volume   504.02689633
_cell_formula_units_Z   2
loop_
 _symmetry_equiv_pos_site_id
 _symmetry_equiv_pos_as_xyz
  1  'x, y, z'
loop_
 _atom_site_type_symbol
 _atom_site_label
 _atom_site_symmetry_multiplicity
 _atom_site_fract_x
 _atom_site_fract_y
 _atom_site_fract_z
 _atom_site_occupancy
  K  K0  1  0.75056600  0.79505300  0.77539300  1
  K  K1  1  0.25056600  0.20494700  0.22460700  1
  Ce  Ce2  1  0.49832300  0.26965000  0.74751400  1
  Ce  Ce3  1  0.99832300  0.73035000  0.25248600  1
  P  P4  1  0.12464700  0.05137700  0.60260900  1
  P  P5  1  0.62464700  0.94862300  0.39739100  1
  P  P6  1  0.76329900  0.13445300  0.10467900  1
  P  P7  1  0.26329900  0.86554700  0.89532100  1
  P  P8  1  0.63608800  0.50485900  0.12498000  1
  P  P9  1  0.13608800  0.49514100  0.87502000  1
  P  P10  1  0.92235900  0.38901900  0.59828400  1
  P  P11  1  0.42235900  0.61098100  0.40171600  1
  O  O12  1  0.71033100  0.12202200  0.93049600  1
  O  O13  1  0.21033100  0.87797800  0.06950400  1
  O  O14  1  0.05453000  0.50138100  0.69704800  1
  O  O15  1  0.55453000  0.49861900  0.30295200  1
  O  O16  1  0.62000000  0.05619100  0.22124700  1
  O  O17  1  0.12000000  0.94380900  0.77875300  1
  O  O18  1  0.72231000  0.68452400  0.09849900  1
  O  O19  1  0.22231000  0.31547600  0.90150100  1
  O  O20  1  0.59612500  0.08540800  0.52750400  1
  O  O21  1  0.09612500  0.91459200  0.47249600  1
  O  O22  1  0.26620800  0.17460500  0.57980400  1
  O  O23  1  0.76620800  0.82539500  0.42019600  1
  O  O24  1  0.51957500  0.44186100  0.00052000  1
  O  O25  1  0.01957500  0.55813900  0.99948000  1
  O  O26  1  0.76833400  0.34669500  0.15452200  1
  O  O27  1  0.26833400  0.65330500  0.84547800  1
  O  O28  1  0.44749200  0.54990200  0.57693900  1
  O  O29  1  0.94749200  0.45009800  0.42306100  1
  O  O30  1  0.41703500  0.95275100  0.84394800  1
  O  O31  1  0.91703500  0.04724900  0.15605200  1
  O  O32  1  0.96587100  0.17245200  0.62531700  1
  O  O33  1  0.46587100  0.82754800  0.37468300  1
  O  O34  1  0.76423200  0.41657100  0.67695500  1
  O  O35  1  0.26423200  0.58342900  0.32304500  1
