# generated using pymatgen
data_UTi2O6
_symmetry_space_group_name_H-M   'P 1'
_cell_length_a   5.34244420
_cell_length_b   5.34244420
_cell_length_c   6.91199622
_cell_angle_alpha   62.87368300
_cell_angle_beta   62.87368300
_cell_angle_gamma   41.28707876
_symmetry_Int_Tables_number   1
_chemical_formula_structural   UTi2O6
_chemical_formula_sum   'U1 Ti2 O6'
_cell_volume   113.67502176
_cell_formula_units_Z   1
loop_
 _symmetry_equiv_pos_site_id
 _symmetry_equiv_pos_as_xyz
  1  'x, y, z'
loop_
 _atom_site_type_symbol
 _atom_site_label
 _atom_site_symmetry_multiplicity
 _atom_site_fract_x
 _atom_site_fract_y
 _atom_site_fract_z
 _atom_site_occupancy
  U  U0  1  0.00000000  0.00000000  0.00000000  1
  Ti  Ti1  1  0.17634800  0.17634800  0.39016400  1
  Ti  Ti2  1  0.82365200  0.82365200  0.60983600  1
  O  O3  1  0.72021000  0.72021000  0.40363300  1
  O  O4  1  0.27979000  0.27979000  0.59636700  1
  O  O5  1  0.35294300  0.35294300  0.10075300  1
  O  O6  1  0.97534100  0.97534100  0.69903800  1
  O  O7  1  0.02465900  0.02465900  0.30096200  1
  O  O8  1  0.64705700  0.64705700  0.89924700  1
