# generated using pymatgen
data_Ce2Zn17
_symmetry_space_group_name_H-M   'P 1'
_cell_length_a   8.98707600
_cell_length_b   8.98689254
_cell_length_c   8.80802800
_cell_angle_alpha   90.00226744
_cell_angle_beta   89.99759828
_cell_angle_gamma   119.99958227
_symmetry_Int_Tables_number   1
_chemical_formula_structural   Ce2Zn17
_chemical_formula_sum   'Ce4 Zn34'
_cell_volume   616.08283521
_cell_formula_units_Z   2
loop_
 _symmetry_equiv_pos_site_id
 _symmetry_equiv_pos_as_xyz
  1  'x, y, z'
loop_
 _atom_site_type_symbol
 _atom_site_label
 _atom_site_symmetry_multiplicity
 _atom_site_fract_x
 _atom_site_fract_y
 _atom_site_fract_z
 _atom_site_occupancy
  Ce  Ce0  1  0.33327500  0.66667100  0.74999600  1
  Ce  Ce1  1  0.66670100  0.33331600  0.25000500  1
  Ce  Ce2  1  0.99996000  0.99997000  0.25000900  1
  Ce  Ce3  1  0.00003200  0.00002400  0.74999200  1
  Zn  Zn4  1  0.32984100  0.95966100  0.25000200  1
  Zn  Zn5  1  0.66996800  0.04019700  0.74999400  1
  Zn  Zn6  1  0.04030500  0.37013000  0.24999200  1
  Zn  Zn7  1  0.62983000  0.67012800  0.25001000  1
  Zn  Zn8  1  0.37024700  0.33006700  0.74998400  1
  Zn  Zn9  1  0.95979100  0.62977100  0.75001100  1
  Zn  Zn10  1  0.37023700  0.04018700  0.75000300  1
  Zn  Zn11  1  0.66993500  0.62978000  0.74999200  1
  Zn  Zn12  1  0.95979000  0.33001200  0.75000200  1
  Zn  Zn13  1  0.04031400  0.67016500  0.25000600  1
  Zn  Zn14  1  0.32985500  0.37017700  0.25001100  1
  Zn  Zn15  1  0.62984200  0.95968400  0.24999200  1
  Zn  Zn16  1  0.49997500  0.99996100  0.99991500  1
  Zn  Zn17  1  0.49995500  0.99991800  0.50009000  1
  Zn  Zn18  1  0.00007100  0.50003600  0.99991100  1
  Zn  Zn19  1  0.49995300  0.50004800  0.99990700  1
  Zn  Zn20  1  0.49995800  0.50003600  0.50007700  1
  Zn  Zn21  1  0.00005500  0.50003200  0.50009400  1
  Zn  Zn22  1  0.33333800  0.66668600  0.10066300  1
  Zn  Zn23  1  0.66667100  0.33332400  0.60081000  1
  Zn  Zn24  1  0.66667600  0.33335400  0.89917800  1
  Zn  Zn25  1  0.33331500  0.66666100  0.39935400  1
  Zn  Zn26  1  0.16208700  0.32419200  0.97789600  1
  Zn  Zn27  1  0.83794700  0.67589100  0.47791400  1
  Zn  Zn28  1  0.67581100  0.83792700  0.97791900  1
  Zn  Zn29  1  0.16208100  0.83791200  0.97786800  1
  Zn  Zn30  1  0.83794600  0.16205600  0.47791000  1
  Zn  Zn31  1  0.32412500  0.16205800  0.47791300  1
  Zn  Zn32  1  0.83795800  0.67587200  0.02208200  1
  Zn  Zn33  1  0.83795000  0.16205800  0.02210400  1
  Zn  Zn34  1  0.32412100  0.16204900  0.02207300  1
  Zn  Zn35  1  0.67582100  0.83791000  0.52208600  1
  Zn  Zn36  1  0.16208500  0.83790100  0.52212400  1
  Zn  Zn37  1  0.16207400  0.32417300  0.52211100  1
