# generated using pymatgen
data_Xe
_symmetry_space_group_name_H-M   'P 1'
_cell_length_a   4.69748932
_cell_length_b   4.69748932
_cell_length_c   4.69748937
_cell_angle_alpha   81.29363801
_cell_angle_beta   81.29363801
_cell_angle_gamma   81.29362496
_symmetry_Int_Tables_number   1
_chemical_formula_structural   Xe
_chemical_formula_sum   Xe1
_cell_volume   100.40250473
_cell_formula_units_Z   1
loop_
 _symmetry_equiv_pos_site_id
 _symmetry_equiv_pos_as_xyz
  1  'x, y, z'
loop_
 _atom_site_type_symbol
 _atom_site_label
 _atom_site_symmetry_multiplicity
 _atom_site_fract_x
 _atom_site_fract_y
 _atom_site_fract_z
 _atom_site_occupancy
  Xe  Xe0  1  0.50000000  0.50000000  0.50000000  1
