# generated using pymatgen
data_Sm5Mg
_symmetry_space_group_name_H-M   'P 1'
_cell_length_a   6.73947766
_cell_length_b   6.73947766
_cell_length_c   6.73947780
_cell_angle_alpha   55.29656355
_cell_angle_beta   55.29656355
_cell_angle_gamma   55.29656180
_symmetry_Int_Tables_number   1
_chemical_formula_structural   Sm5Mg
_chemical_formula_sum   'Sm5 Mg1'
_cell_volume   192.79472627
_cell_formula_units_Z   1
loop_
 _symmetry_equiv_pos_site_id
 _symmetry_equiv_pos_as_xyz
  1  'x, y, z'
loop_
 _atom_site_type_symbol
 _atom_site_label
 _atom_site_symmetry_multiplicity
 _atom_site_fract_x
 _atom_site_fract_y
 _atom_site_fract_z
 _atom_site_occupancy
  Sm  Sm0  1  0.50000000  0.15420900  0.84579100  1
  Sm  Sm1  1  0.15420900  0.84579100  0.50000000  1
  Sm  Sm2  1  0.84579100  0.50000000  0.15420900  1
  Sm  Sm3  1  0.33348700  0.33348700  0.33348700  1
  Sm  Sm4  1  0.66651300  0.66651300  0.66651300  1
  Mg  Mg5  1  0.00000000  0.00000000  0.00000000  1
