# generated using pymatgen
data_YMg5
_symmetry_space_group_name_H-M   'P 1'
_cell_length_a   6.26986508
_cell_length_b   6.26986508
_cell_length_c   7.03432104
_cell_angle_alpha   73.09076299
_cell_angle_beta   73.09076299
_cell_angle_gamma   34.12902315
_symmetry_Int_Tables_number   1
_chemical_formula_structural   YMg5
_chemical_formula_sum   'Y1 Mg5'
_cell_volume   147.79287411
_cell_formula_units_Z   1
loop_
 _symmetry_equiv_pos_site_id
 _symmetry_equiv_pos_as_xyz
  1  'x, y, z'
loop_
 _atom_site_type_symbol
 _atom_site_label
 _atom_site_symmetry_multiplicity
 _atom_site_fract_x
 _atom_site_fract_y
 _atom_site_fract_z
 _atom_site_occupancy
  Y  Y0  1  0.50000000  0.50000000  0.50000000  1
  Mg  Mg1  1  0.17531900  0.17531900  0.67173500  1
  Mg  Mg2  1  0.82838300  0.82838300  0.84453900  1
  Mg  Mg3  1  0.50000000  0.50000000  0.00000000  1
  Mg  Mg4  1  0.17161700  0.17161700  0.15546100  1
  Mg  Mg5  1  0.82468100  0.82468100  0.32826500  1
