# generated using pymatgen
data_Pr
_symmetry_space_group_name_H-M   'P 1'
_cell_length_a   9.30888387
_cell_length_b   9.30888387
_cell_length_c   9.30888381
_cell_angle_alpha   23.19866411
_cell_angle_beta   23.19866411
_cell_angle_gamma   23.19866774
_symmetry_Int_Tables_number   1
_chemical_formula_structural   Pr
_chemical_formula_sum   Pr3
_cell_volume   109.88303000
_cell_formula_units_Z   3
loop_
 _symmetry_equiv_pos_site_id
 _symmetry_equiv_pos_as_xyz
  1  'x, y, z'
loop_
 _atom_site_type_symbol
 _atom_site_label
 _atom_site_symmetry_multiplicity
 _atom_site_fract_x
 _atom_site_fract_y
 _atom_site_fract_z
 _atom_site_occupancy
  Pr  Pr0  1  0.00000000  0.00000000  0.00000000  1
  Pr  Pr1  1  0.22271900  0.22271900  0.22271900  1
  Pr  Pr2  1  0.77728100  0.77728100  0.77728100  1
