# generated using pymatgen
data_Lu(Mg4Al3)4
_symmetry_space_group_name_H-M   'P 1'
_cell_length_a   9.11778912
_cell_length_b   9.11778912
_cell_length_c   9.11778912
_cell_angle_alpha   109.47122063
_cell_angle_beta   109.47122063
_cell_angle_gamma   109.47122063
_symmetry_Int_Tables_number   1
_chemical_formula_structural   Lu(Mg4Al3)4
_chemical_formula_sum   'Lu1 Mg16 Al12'
_cell_volume   583.50789814
_cell_formula_units_Z   1
loop_
 _symmetry_equiv_pos_site_id
 _symmetry_equiv_pos_as_xyz
  1  'x, y, z'
loop_
 _atom_site_type_symbol
 _atom_site_label
 _atom_site_symmetry_multiplicity
 _atom_site_fract_x
 _atom_site_fract_y
 _atom_site_fract_z
 _atom_site_occupancy
  Lu  Lu0  1  0.00000000  0.00000000  0.00000000  1
  Mg  Mg1  1  0.00000000  0.35492200  0.00000000  1
  Mg  Mg2  1  0.35492200  0.00000000  0.00000000  1
  Mg  Mg3  1  0.60321400  0.31876100  0.00000000  1
  Mg  Mg4  1  0.31876100  0.60321400  0.00000000  1
  Mg  Mg5  1  0.39678600  0.39678600  0.71554700  1
  Mg  Mg6  1  0.28445300  0.68123900  0.68123900  1
  Mg  Mg7  1  0.68123900  0.28445300  0.68123900  1
  Mg  Mg8  1  0.64507800  0.64507800  0.64507800  1
  Mg  Mg9  1  0.00000000  0.31876100  0.60321400  1
  Mg  Mg10  1  0.31876100  0.00000000  0.60321400  1
  Mg  Mg11  1  0.39678600  0.71554700  0.39678600  1
  Mg  Mg12  1  0.71554700  0.39678600  0.39678600  1
  Mg  Mg13  1  0.00000000  0.00000000  0.35492200  1
  Mg  Mg14  1  0.60321400  0.00000000  0.31876100  1
  Mg  Mg15  1  0.00000000  0.60321400  0.31876100  1
  Mg  Mg16  1  0.68123900  0.68123900  0.28445300  1
  Al  Al17  1  0.81398100  0.63334800  0.00000000  1
  Al  Al18  1  0.63334800  0.81398100  0.00000000  1
  Al  Al19  1  0.18601900  0.18601900  0.81936700  1
  Al  Al20  1  0.00000000  0.63334800  0.81398100  1
  Al  Al21  1  0.63334800  0.00000000  0.81398100  1
  Al  Al22  1  0.81398100  0.00000000  0.63334800  1
  Al  Al23  1  0.00000000  0.81398100  0.63334800  1
  Al  Al24  1  0.36665200  0.18063300  0.36665200  1
  Al  Al25  1  0.18063300  0.36665200  0.36665200  1
  Al  Al26  1  0.18601900  0.81936700  0.18601900  1
  Al  Al27  1  0.81936700  0.18601900  0.18601900  1
  Al  Al28  1  0.36665200  0.36665200  0.18063300  1
