# generated using pymatgen
data_Hf3Be
_symmetry_space_group_name_H-M   'P 1'
_cell_length_a   5.26326301
_cell_length_b   5.26326301
_cell_length_c   5.26326301
_cell_angle_alpha   133.15952062
_cell_angle_beta   133.15952062
_cell_angle_gamma   68.40374127
_symmetry_Int_Tables_number   1
_chemical_formula_structural   Hf3Be
_chemical_formula_sum   'Hf3 Be1'
_cell_volume   76.20379644
_cell_formula_units_Z   1
loop_
 _symmetry_equiv_pos_site_id
 _symmetry_equiv_pos_as_xyz
  1  'x, y, z'
loop_
 _atom_site_type_symbol
 _atom_site_label
 _atom_site_symmetry_multiplicity
 _atom_site_fract_x
 _atom_site_fract_y
 _atom_site_fract_z
 _atom_site_occupancy
  Hf  Hf0  1  0.75000000  0.25000000  0.50000000  1
  Hf  Hf1  1  0.25000000  0.75000000  0.50000000  1
  Hf  Hf2  1  0.50000000  0.50000000  0.00000000  1
  Be  Be3  1  0.00000000  0.00000000  0.00000000  1
