# generated using pymatgen
data_Mo3(SeS2)2
_symmetry_space_group_name_H-M   'P 1'
_cell_length_a   3.23311000
_cell_length_b   3.23314084
_cell_length_c   29.63681700
_cell_angle_alpha   89.99989828
_cell_angle_beta   90.00000000
_cell_angle_gamma   119.99968450
_symmetry_Int_Tables_number   1
_chemical_formula_structural   Mo3(SeS2)2
_chemical_formula_sum   'Mo3 Se2 S4'
_cell_volume   268.29258798
_cell_formula_units_Z   1
loop_
 _symmetry_equiv_pos_site_id
 _symmetry_equiv_pos_as_xyz
  1  'x, y, z'
loop_
 _atom_site_type_symbol
 _atom_site_label
 _atom_site_symmetry_multiplicity
 _atom_site_fract_x
 _atom_site_fract_y
 _atom_site_fract_z
 _atom_site_occupancy
  Mo  Mo0  1  0.33331000  0.66662000  0.11564400  1
  Mo  Mo1  1  0.33331000  0.66662100  0.57833600  1
  Mo  Mo2  1  0.66669300  0.33338700  0.34699300  1
  Se  Se3  1  0.66663000  0.33325900  0.52078500  1
  Se  Se4  1  0.66665100  0.33330200  0.63586000  1
  S  S5  1  0.33335200  0.66670500  0.39924100  1
  S  S6  1  0.66665000  0.33329900  0.06334800  1
  S  S7  1  0.66665000  0.33329900  0.16793900  1
  S  S8  1  0.33335400  0.66670800  0.29469400  1
