# generated using pymatgen
data_Pa3Nb
_symmetry_space_group_name_H-M   'P 1'
_cell_length_a   6.23720837
_cell_length_b   6.23720837
_cell_length_c   5.60916600
_cell_angle_alpha   90.00000000
_cell_angle_beta   90.00000000
_cell_angle_gamma   120.00000389
_symmetry_Int_Tables_number   1
_chemical_formula_structural   Pa3Nb
_chemical_formula_sum   'Pa6 Nb2'
_cell_volume   188.97720139
_cell_formula_units_Z   2
loop_
 _symmetry_equiv_pos_site_id
 _symmetry_equiv_pos_as_xyz
  1  'x, y, z'
loop_
 _atom_site_type_symbol
 _atom_site_label
 _atom_site_symmetry_multiplicity
 _atom_site_fract_x
 _atom_site_fract_y
 _atom_site_fract_z
 _atom_site_occupancy
  Pa  Pa0  1  0.17282100  0.34564200  0.25000000  1
  Pa  Pa1  1  0.65435800  0.82717900  0.25000000  1
  Pa  Pa2  1  0.17282100  0.82717900  0.25000000  1
  Pa  Pa3  1  0.82717900  0.65435800  0.75000000  1
  Pa  Pa4  1  0.34564200  0.17282100  0.75000000  1
  Pa  Pa5  1  0.82717900  0.17282100  0.75000000  1
  Nb  Nb6  1  0.33333300  0.66666700  0.75000000  1
  Nb  Nb7  1  0.66666700  0.33333300  0.25000000  1
