# generated using pymatgen
data_BiH3
_symmetry_space_group_name_H-M   'P 1'
_cell_length_a   4.05871499
_cell_length_b   4.05871499
_cell_length_c   4.05871499
_cell_angle_alpha   128.36145569
_cell_angle_beta   128.36145569
_cell_angle_gamma   76.04021157
_symmetry_Int_Tables_number   1
_chemical_formula_structural   BiH3
_chemical_formula_sum   'Bi1 H3'
_cell_volume   39.96525928
_cell_formula_units_Z   1
loop_
 _symmetry_equiv_pos_site_id
 _symmetry_equiv_pos_as_xyz
  1  'x, y, z'
loop_
 _atom_site_type_symbol
 _atom_site_label
 _atom_site_symmetry_multiplicity
 _atom_site_fract_x
 _atom_site_fract_y
 _atom_site_fract_z
 _atom_site_occupancy
  Bi  Bi0  1  0.00000000  0.00000000  0.00000000  1
  H  H1  1  0.75000000  0.25000000  0.50000000  1
  H  H2  1  0.25000000  0.75000000  0.50000000  1
  H  H3  1  0.50000000  0.50000000  0.00000000  1
