# generated using pymatgen
data_VIr
_symmetry_space_group_name_H-M   'P 1'
_cell_length_a   5.25571283
_cell_length_b   5.25571283
_cell_length_c   4.06332100
_cell_angle_alpha   90.00000000
_cell_angle_beta   90.00000000
_cell_angle_gamma   95.88582874
_symmetry_Int_Tables_number   1
_chemical_formula_structural   VIr
_chemical_formula_sum   'V4 Ir4'
_cell_volume   111.64745388
_cell_formula_units_Z   4
loop_
 _symmetry_equiv_pos_site_id
 _symmetry_equiv_pos_as_xyz
  1  'x, y, z'
loop_
 _atom_site_type_symbol
 _atom_site_label
 _atom_site_symmetry_multiplicity
 _atom_site_fract_x
 _atom_site_fract_y
 _atom_site_fract_z
 _atom_site_occupancy
  V  V0  1  0.59366700  0.40633300  0.75000000  1
  V  V1  1  0.16770900  0.83229100  0.75000000  1
  V  V2  1  0.40633300  0.59366700  0.25000000  1
  V  V3  1  0.83229100  0.16770900  0.25000000  1
  Ir  Ir4  1  0.65649500  0.90453200  0.75000000  1
  Ir  Ir5  1  0.09546800  0.34350500  0.75000000  1
  Ir  Ir6  1  0.34350500  0.09546800  0.25000000  1
  Ir  Ir7  1  0.90453200  0.65649500  0.25000000  1
