# generated using pymatgen
data_Ag3N
_symmetry_space_group_name_H-M   'P 1'
_cell_length_a   4.91796843
_cell_length_b   4.91796843
_cell_length_c   4.91796843
_cell_angle_alpha   132.94049635
_cell_angle_beta   132.94049635
_cell_angle_gamma   68.74761016
_symmetry_Int_Tables_number   1
_chemical_formula_structural   Ag3N
_chemical_formula_sum   'Ag3 N1'
_cell_volume   62.58967608
_cell_formula_units_Z   1
loop_
 _symmetry_equiv_pos_site_id
 _symmetry_equiv_pos_as_xyz
  1  'x, y, z'
loop_
 _atom_site_type_symbol
 _atom_site_label
 _atom_site_symmetry_multiplicity
 _atom_site_fract_x
 _atom_site_fract_y
 _atom_site_fract_z
 _atom_site_occupancy
  Ag  Ag0  1  0.75000000  0.25000000  0.50000000  1
  Ag  Ag1  1  0.25000000  0.75000000  0.50000000  1
  Ag  Ag2  1  0.50000000  0.50000000  0.00000000  1
  N  N3  1  0.00000000  0.00000000  0.00000000  1
