# generated using pymatgen
data_SiO2
_symmetry_space_group_name_H-M   'P 1'
_cell_length_a   8.29554800
_cell_length_b   5.16776600
_cell_length_c   9.56492566
_cell_angle_alpha   59.93243244
_cell_angle_beta   90.00000000
_cell_angle_gamma   90.00000000
_symmetry_Int_Tables_number   1
_chemical_formula_structural   SiO2
_chemical_formula_sum   'Si8 O16'
_cell_volume   354.86572671
_cell_formula_units_Z   8
loop_
 _symmetry_equiv_pos_site_id
 _symmetry_equiv_pos_as_xyz
  1  'x, y, z'
loop_
 _atom_site_type_symbol
 _atom_site_label
 _atom_site_symmetry_multiplicity
 _atom_site_fract_x
 _atom_site_fract_y
 _atom_site_fract_z
 _atom_site_occupancy
  Si  Si0  1  0.24734100  0.65299600  0.39295100  1
  Si  Si1  1  0.10511200  0.28803900  0.74891600  1
  Si  Si2  1  0.25265900  0.65299600  0.89295100  1
  Si  Si3  1  0.60511200  0.71196100  0.75108400  1
  Si  Si4  1  0.74734100  0.34700400  0.10704900  1
  Si  Si5  1  0.75265900  0.34700400  0.60704900  1
  Si  Si6  1  0.39488800  0.28803900  0.24891600  1
  Si  Si7  1  0.89488800  0.71196100  0.25108400  1
  O  O8  1  0.17381500  0.95645600  0.87436700  1
  O  O9  1  0.62287400  0.50325700  0.66925600  1
  O  O10  1  0.08407500  0.73363500  0.28544500  1
  O  O11  1  0.37712600  0.49674300  0.33074400  1
  O  O12  1  0.12287400  0.49674300  0.83074400  1
  O  O13  1  0.41592500  0.73363500  0.78544500  1
  O  O14  1  0.70707600  0.57240200  0.91828600  1
  O  O15  1  0.87712600  0.50325700  0.16925600  1
  O  O16  1  0.82618500  0.04354400  0.12563300  1
  O  O17  1  0.32618500  0.95645600  0.37436700  1
  O  O18  1  0.29292400  0.42759800  0.08171400  1
  O  O19  1  0.79292400  0.57240200  0.41828600  1
  O  O20  1  0.58407500  0.26636500  0.21455500  1
  O  O21  1  0.91592500  0.26636500  0.71455500  1
  O  O22  1  0.67381500  0.04354400  0.62563300  1
  O  O23  1  0.20707600  0.42759800  0.58171400  1
