# generated using pymatgen
data_LuP5
_symmetry_space_group_name_H-M   'P 1'
_cell_length_a   9.32544200
_cell_length_b   4.90548100
_cell_length_c   5.29574069
_cell_angle_alpha   77.57211178
_cell_angle_beta   90.00000000
_cell_angle_gamma   90.00000000
_symmetry_Int_Tables_number   1
_chemical_formula_structural   LuP5
_chemical_formula_sum   'Lu2 P10'
_cell_volume   236.58110988
_cell_formula_units_Z   2
loop_
 _symmetry_equiv_pos_site_id
 _symmetry_equiv_pos_as_xyz
  1  'x, y, z'
loop_
 _atom_site_type_symbol
 _atom_site_label
 _atom_site_symmetry_multiplicity
 _atom_site_fract_x
 _atom_site_fract_y
 _atom_site_fract_z
 _atom_site_occupancy
  Lu  Lu0  1  0.25000000  0.99817600  0.34692200  1
  Lu  Lu1  1  0.75000000  0.00182400  0.65307800  1
  P  P2  1  0.25000000  0.73081700  0.88989500  1
  P  P3  1  0.75000000  0.26918300  0.11010500  1
  P  P4  1  0.40619500  0.38302300  0.95757600  1
  P  P5  1  0.90619500  0.61697700  0.04242400  1
  P  P6  1  0.59380500  0.61697700  0.04242400  1
  P  P7  1  0.09380500  0.38302300  0.95757600  1
  P  P8  1  0.47181800  0.28212800  0.59432700  1
  P  P9  1  0.97181800  0.71787200  0.40567300  1
  P  P10  1  0.52818200  0.71787200  0.40567300  1
  P  P11  1  0.02818200  0.28212800  0.59432700  1
