# generated using pymatgen
data_PmHo3
_symmetry_space_group_name_H-M   'P 1'
_cell_length_a   7.25791632
_cell_length_b   7.25791632
_cell_length_c   5.69297900
_cell_angle_alpha   90.00000000
_cell_angle_beta   90.00000000
_cell_angle_gamma   120.00000289
_symmetry_Int_Tables_number   1
_chemical_formula_structural   PmHo3
_chemical_formula_sum   'Pm2 Ho6'
_cell_volume   259.71325414
_cell_formula_units_Z   2
loop_
 _symmetry_equiv_pos_site_id
 _symmetry_equiv_pos_as_xyz
  1  'x, y, z'
loop_
 _atom_site_type_symbol
 _atom_site_label
 _atom_site_symmetry_multiplicity
 _atom_site_fract_x
 _atom_site_fract_y
 _atom_site_fract_z
 _atom_site_occupancy
  Pm  Pm0  1  0.33333300  0.66666700  0.75000000  1
  Pm  Pm1  1  0.66666700  0.33333300  0.25000000  1
  Ho  Ho2  1  0.16545500  0.33091100  0.25000000  1
  Ho  Ho3  1  0.66908900  0.83454500  0.25000000  1
  Ho  Ho4  1  0.16545500  0.83454500  0.25000000  1
  Ho  Ho5  1  0.83454500  0.66908900  0.75000000  1
  Ho  Ho6  1  0.33091100  0.16545500  0.75000000  1
  Ho  Ho7  1  0.83454500  0.16545500  0.75000000  1
