# generated using pymatgen
data_EuLu2O4
_symmetry_space_group_name_H-M   'P 1'
_cell_length_a   3.34884500
_cell_length_b   9.86387700
_cell_length_c   11.75743000
_cell_angle_alpha   90.00000000
_cell_angle_beta   90.00000000
_cell_angle_gamma   90.00000000
_symmetry_Int_Tables_number   1
_chemical_formula_structural   EuLu2O4
_chemical_formula_sum   'Eu4 Lu8 O16'
_cell_volume   388.37842545
_cell_formula_units_Z   4
loop_
 _symmetry_equiv_pos_site_id
 _symmetry_equiv_pos_as_xyz
  1  'x, y, z'
loop_
 _atom_site_type_symbol
 _atom_site_label
 _atom_site_symmetry_multiplicity
 _atom_site_fract_x
 _atom_site_fract_y
 _atom_site_fract_z
 _atom_site_occupancy
  Eu  Eu0  1  0.75000000  0.74774900  0.64982900  1
  Eu  Eu1  1  0.25000000  0.75225100  0.14982900  1
  Eu  Eu2  1  0.75000000  0.24774900  0.85017100  1
  Eu  Eu3  1  0.25000000  0.25225100  0.35017100  1
  Lu  Lu4  1  0.75000000  0.42759200  0.11127500  1
  Lu  Lu5  1  0.25000000  0.07240800  0.61127500  1
  Lu  Lu6  1  0.75000000  0.92759200  0.38872500  1
  Lu  Lu7  1  0.25000000  0.57240800  0.88872500  1
  Lu  Lu8  1  0.75000000  0.41780500  0.61084800  1
  Lu  Lu9  1  0.25000000  0.08219500  0.11084800  1
  Lu  Lu10  1  0.75000000  0.91780500  0.88915200  1
  Lu  Lu11  1  0.25000000  0.58219500  0.38915200  1
  O  O12  1  0.75000000  0.43048600  0.42189200  1
  O  O13  1  0.25000000  0.06951400  0.92189200  1
  O  O14  1  0.75000000  0.93048600  0.07810800  1
  O  O15  1  0.25000000  0.56951400  0.57810800  1
  O  O16  1  0.75000000  0.50726600  0.78356600  1
  O  O17  1  0.25000000  0.99273400  0.28356600  1
  O  O18  1  0.75000000  0.00726600  0.71643400  1
  O  O19  1  0.25000000  0.49273400  0.21643400  1
  O  O20  1  0.75000000  0.12735400  0.48464500  1
  O  O21  1  0.25000000  0.37264600  0.98464500  1
  O  O22  1  0.75000000  0.62735400  0.01535500  1
  O  O23  1  0.25000000  0.87264600  0.51535500  1
  O  O24  1  0.75000000  0.21673900  0.17458900  1
  O  O25  1  0.25000000  0.28326100  0.67458900  1
  O  O26  1  0.75000000  0.71673900  0.32541100  1
  O  O27  1  0.25000000  0.78326100  0.82541100  1
