# generated using pymatgen
data_SnBrCl
_symmetry_space_group_name_H-M   'P 1'
_cell_length_a   6.07320600
_cell_length_b   6.07320600
_cell_length_c   5.73465400
_cell_angle_alpha   90.00000000
_cell_angle_beta   90.00000000
_cell_angle_gamma   90.00000000
_symmetry_Int_Tables_number   1
_chemical_formula_structural   SnBrCl
_chemical_formula_sum   'Sn2 Br2 Cl2'
_cell_volume   211.51600966
_cell_formula_units_Z   2
loop_
 _symmetry_equiv_pos_site_id
 _symmetry_equiv_pos_as_xyz
  1  'x, y, z'
loop_
 _atom_site_type_symbol
 _atom_site_label
 _atom_site_symmetry_multiplicity
 _atom_site_fract_x
 _atom_site_fract_y
 _atom_site_fract_z
 _atom_site_occupancy
  Sn  Sn0  1  0.50000000  0.00000000  0.87195900  1
  Sn  Sn1  1  0.00000000  0.50000000  0.12804100  1
  Br  Br2  1  0.50000000  0.50000000  0.00000000  1
  Br  Br3  1  0.00000000  0.00000000  0.00000000  1
  Cl  Cl4  1  0.00000000  0.50000000  0.56133200  1
  Cl  Cl5  1  0.50000000  0.00000000  0.43866800  1
