# generated using pymatgen
data_HPd3
_symmetry_space_group_name_H-M   'P 1'
_cell_length_a   4.48659295
_cell_length_b   4.48659295
_cell_length_c   4.48659295
_cell_angle_alpha   128.00494148
_cell_angle_beta   128.00494148
_cell_angle_gamma   76.61702324
_symmetry_Int_Tables_number   1
_chemical_formula_structural   HPd3
_chemical_formula_sum   'H1 Pd3'
_cell_volume   54.46431923
_cell_formula_units_Z   1
loop_
 _symmetry_equiv_pos_site_id
 _symmetry_equiv_pos_as_xyz
  1  'x, y, z'
loop_
 _atom_site_type_symbol
 _atom_site_label
 _atom_site_symmetry_multiplicity
 _atom_site_fract_x
 _atom_site_fract_y
 _atom_site_fract_z
 _atom_site_occupancy
  H  H0  1  0.00000000  0.00000000  0.00000000  1
  Pd  Pd1  1  0.75000000  0.25000000  0.50000000  1
  Pd  Pd2  1  0.25000000  0.75000000  0.50000000  1
  Pd  Pd3  1  0.50000000  0.50000000  0.00000000  1
