# generated using pymatgen
data_H2C
_symmetry_space_group_name_H-M   'P 1'
_cell_length_a   2.56307600
_cell_length_b   4.93778900
_cell_length_c   7.17882900
_cell_angle_alpha   90.00000000
_cell_angle_beta   90.00000000
_cell_angle_gamma   90.00000000
_symmetry_Int_Tables_number   1
_chemical_formula_structural   H2C
_chemical_formula_sum   'H8 C4'
_cell_volume   90.85474639
_cell_formula_units_Z   4
loop_
 _symmetry_equiv_pos_site_id
 _symmetry_equiv_pos_as_xyz
  1  'x, y, z'
loop_
 _atom_site_type_symbol
 _atom_site_label
 _atom_site_symmetry_multiplicity
 _atom_site_fract_x
 _atom_site_fract_y
 _atom_site_fract_z
 _atom_site_occupancy
  H  H0  1  0.25000000  0.53710400  0.69302300  1
  H  H1  1  0.75000000  0.46289600  0.30697700  1
  H  H2  1  0.75000000  0.03710400  0.80697700  1
  H  H3  1  0.25000000  0.96289600  0.19302300  1
  H  H4  1  0.25000000  0.78214200  0.51458300  1
  H  H5  1  0.75000000  0.21785800  0.48541700  1
  H  H6  1  0.75000000  0.28214200  0.98541700  1
  H  H7  1  0.25000000  0.71785800  0.01458300  1
  C  C8  1  0.25000000  0.56156900  0.54024200  1
  C  C9  1  0.75000000  0.43843100  0.45975800  1
  C  C10  1  0.75000000  0.06156900  0.95975800  1
  C  C11  1  0.25000000  0.93843100  0.04024200  1
