# generated using pymatgen
data_Al3Fe
_symmetry_space_group_name_H-M   'P 1'
_cell_length_a   5.37497534
_cell_length_b   5.37497534
_cell_length_c   4.37384900
_cell_angle_alpha   90.00000000
_cell_angle_beta   90.00000000
_cell_angle_gamma   119.99999189
_symmetry_Int_Tables_number   1
_chemical_formula_structural   Al3Fe
_chemical_formula_sum   'Al6 Fe2'
_cell_volume   109.43277323
_cell_formula_units_Z   2
loop_
 _symmetry_equiv_pos_site_id
 _symmetry_equiv_pos_as_xyz
  1  'x, y, z'
loop_
 _atom_site_type_symbol
 _atom_site_label
 _atom_site_symmetry_multiplicity
 _atom_site_fract_x
 _atom_site_fract_y
 _atom_site_fract_z
 _atom_site_occupancy
  Al  Al0  1  0.17130300  0.34260700  0.25000000  1
  Al  Al1  1  0.65739300  0.82869700  0.25000000  1
  Al  Al2  1  0.17130300  0.82869700  0.25000000  1
  Al  Al3  1  0.82869700  0.65739300  0.75000000  1
  Al  Al4  1  0.34260700  0.17130300  0.75000000  1
  Al  Al5  1  0.82869700  0.17130300  0.75000000  1
  Fe  Fe6  1  0.33333300  0.66666700  0.75000000  1
  Fe  Fe7  1  0.66666700  0.33333300  0.25000000  1
