# generated using pymatgen
data_HfH3
_symmetry_space_group_name_H-M   'P 1'
_cell_length_a   4.74926823
_cell_length_b   4.74926823
_cell_length_c   3.20327000
_cell_angle_alpha   90.00000000
_cell_angle_beta   90.00000000
_cell_angle_gamma   120.00000317
_symmetry_Int_Tables_number   1
_chemical_formula_structural   HfH3
_chemical_formula_sum   'Hf2 H6'
_cell_volume   62.57164326
_cell_formula_units_Z   2
loop_
 _symmetry_equiv_pos_site_id
 _symmetry_equiv_pos_as_xyz
  1  'x, y, z'
loop_
 _atom_site_type_symbol
 _atom_site_label
 _atom_site_symmetry_multiplicity
 _atom_site_fract_x
 _atom_site_fract_y
 _atom_site_fract_z
 _atom_site_occupancy
  Hf  Hf0  1  0.33333300  0.66666700  0.75000000  1
  Hf  Hf1  1  0.66666700  0.33333300  0.25000000  1
  H  H2  1  0.18101900  0.36203700  0.25000000  1
  H  H3  1  0.63796300  0.81898100  0.25000000  1
  H  H4  1  0.18101900  0.81898100  0.25000000  1
  H  H5  1  0.81898100  0.63796300  0.75000000  1
  H  H6  1  0.36203700  0.18101900  0.75000000  1
  H  H7  1  0.81898100  0.18101900  0.75000000  1
