# generated using pymatgen
data_Na2Cl
_symmetry_space_group_name_H-M   'P 1'
_cell_length_a   7.10220388
_cell_length_b   7.10220388
_cell_length_c   7.10220438
_cell_angle_alpha   32.16376355
_cell_angle_beta   32.16376355
_cell_angle_gamma   32.16375826
_symmetry_Int_Tables_number   1
_chemical_formula_structural   Na2Cl
_chemical_formula_sum   'Na2 Cl1'
_cell_volume   90.22478761
_cell_formula_units_Z   1
loop_
 _symmetry_equiv_pos_site_id
 _symmetry_equiv_pos_as_xyz
  1  'x, y, z'
loop_
 _atom_site_type_symbol
 _atom_site_label
 _atom_site_symmetry_multiplicity
 _atom_site_fract_x
 _atom_site_fract_y
 _atom_site_fract_z
 _atom_site_occupancy
  Na  Na0  1  0.24892600  0.24892600  0.24892600  1
  Na  Na1  1  0.75107400  0.75107400  0.75107400  1
  Cl  Cl2  1  0.00000000  0.00000000  0.00000000  1
