# generated using pymatgen
data_Te3As2
_symmetry_space_group_name_H-M   'P 1'
_cell_length_a   10.37431555
_cell_length_b   10.37431555
_cell_length_c   10.37431532
_cell_angle_alpha   22.73438318
_cell_angle_beta   22.73438318
_cell_angle_gamma   22.73438323
_symmetry_Int_Tables_number   1
_chemical_formula_structural   Te3As2
_chemical_formula_sum   'Te3 As2'
_cell_volume   146.31050056
_cell_formula_units_Z   1
loop_
 _symmetry_equiv_pos_site_id
 _symmetry_equiv_pos_as_xyz
  1  'x, y, z'
loop_
 _atom_site_type_symbol
 _atom_site_label
 _atom_site_symmetry_multiplicity
 _atom_site_fract_x
 _atom_site_fract_y
 _atom_site_fract_z
 _atom_site_occupancy
  Te  Te0  1  0.21856200  0.21856200  0.21856200  1
  Te  Te1  1  0.78143800  0.78143800  0.78143800  1
  Te  Te2  1  0.00000000  0.00000000  0.00000000  1
  As  As3  1  0.60489200  0.60489200  0.60489200  1
  As  As4  1  0.39510800  0.39510800  0.39510800  1
