# generated using pymatgen
data_LaVN3
_symmetry_space_group_name_H-M   'P 1'
_cell_length_a   3.62958300
_cell_length_b   6.02494145
_cell_length_c   6.32877564
_cell_angle_alpha   106.96251734
_cell_angle_beta   96.41196281
_cell_angle_gamma   90.83803040
_symmetry_Int_Tables_number   1
_chemical_formula_structural   LaVN3
_chemical_formula_sum   'La2 V2 N6'
_cell_volume   131.38653391
_cell_formula_units_Z   2
loop_
 _symmetry_equiv_pos_site_id
 _symmetry_equiv_pos_as_xyz
  1  'x, y, z'
loop_
 _atom_site_type_symbol
 _atom_site_label
 _atom_site_symmetry_multiplicity
 _atom_site_fract_x
 _atom_site_fract_y
 _atom_site_fract_z
 _atom_site_occupancy
  La  La0  1  0.55135600  0.78920100  0.27069800  1
  La  La1  1  0.62554700  0.33256800  0.72800800  1
  V  V2  1  0.14797200  0.81770000  0.75254500  1
  V  V3  1  0.07663700  0.28821900  0.25220900  1
  N  N4  1  0.96990700  0.94693800  0.05007500  1
  N  N5  1  0.67743300  0.83483000  0.88687500  1
  N  N6  1  0.06559000  0.46792300  0.08091600  1
  N  N7  1  0.55330200  0.22184800  0.31089700  1
  N  N8  1  0.10674800  0.52384600  0.56467100  1
  N  N9  1  0.11051800  0.00177600  0.58456700  1
