# generated using pymatgen
data_Ho2Hf2O5
_symmetry_space_group_name_H-M   'P 1'
_cell_length_a   4.09609000
_cell_length_b   4.09609000
_cell_length_c   7.44730300
_cell_angle_alpha   90.00000000
_cell_angle_beta   90.00000000
_cell_angle_gamma   90.00000000
_symmetry_Int_Tables_number   1
_chemical_formula_structural   Ho2Hf2O5
_chemical_formula_sum   'Ho2 Hf2 O5'
_cell_volume   124.95050186
_cell_formula_units_Z   1
loop_
 _symmetry_equiv_pos_site_id
 _symmetry_equiv_pos_as_xyz
  1  'x, y, z'
loop_
 _atom_site_type_symbol
 _atom_site_label
 _atom_site_symmetry_multiplicity
 _atom_site_fract_x
 _atom_site_fract_y
 _atom_site_fract_z
 _atom_site_occupancy
  Ho  Ho0  1  0.00000000  0.00000000  0.00000000  1
  Ho  Ho1  1  0.00000000  0.00000000  0.50000000  1
  Hf  Hf2  1  0.50000000  0.50000000  0.22031800  1
  Hf  Hf3  1  0.50000000  0.50000000  0.77968200  1
  O  O4  1  0.50000000  0.00000000  0.26121600  1
  O  O5  1  0.50000000  0.00000000  0.73878400  1
  O  O6  1  0.50000000  0.50000000  0.50000000  1
  O  O7  1  0.00000000  0.50000000  0.26121600  1
  O  O8  1  0.00000000  0.50000000  0.73878400  1
