# generated using pymatgen
data_SiC
_symmetry_space_group_name_H-M   'P 1'
_cell_length_a   17.79981459
_cell_length_b   17.79981459
_cell_length_c   17.79981499
_cell_angle_alpha   9.97662352
_cell_angle_beta   9.97662352
_cell_angle_gamma   9.97662536
_symmetry_Int_Tables_number   1
_chemical_formula_structural   SiC
_chemical_formula_sum   'Si7 C7'
_cell_volume   146.96072626
_cell_formula_units_Z   7
loop_
 _symmetry_equiv_pos_site_id
 _symmetry_equiv_pos_as_xyz
  1  'x, y, z'
loop_
 _atom_site_type_symbol
 _atom_site_label
 _atom_site_symmetry_multiplicity
 _atom_site_fract_x
 _atom_site_fract_y
 _atom_site_fract_z
 _atom_site_occupancy
  Si  Si0  1  0.80952600  0.80952600  0.80952600  1
  Si  Si1  1  0.71422700  0.71422700  0.71422700  1
  Si  Si2  1  0.57142400  0.57142400  0.57142400  1
  Si  Si3  1  0.42854900  0.42854900  0.42854900  1
  Si  Si4  1  0.28573400  0.28573400  0.28573400  1
  Si  Si5  1  0.19043500  0.19043500  0.19043500  1
  Si  Si6  1  0.99998200  0.99998200  0.99998200  1
  C  C7  1  0.84524500  0.84524500  0.84524500  1
  C  C8  1  0.74994400  0.74994400  0.74994400  1
  C  C9  1  0.60724500  0.60724500  0.60724500  1
  C  C10  1  0.46437100  0.46437100  0.46437100  1
  C  C11  1  0.32145200  0.32145200  0.32145200  1
  C  C12  1  0.22615100  0.22615100  0.22615100  1
  C  C13  1  0.03571200  0.03571200  0.03571200  1
