# generated using pymatgen
data_LaMnN3
_symmetry_space_group_name_H-M   'P 1'
_cell_length_a   6.43016100
_cell_length_b   6.43016100
_cell_length_c   5.32719700
_cell_angle_alpha   90.00000000
_cell_angle_beta   90.00000000
_cell_angle_gamma   143.38293829
_symmetry_Int_Tables_number   1
_chemical_formula_structural   LaMnN3
_chemical_formula_sum   'La2 Mn2 N6'
_cell_volume   131.37920391
_cell_formula_units_Z   2
loop_
 _symmetry_equiv_pos_site_id
 _symmetry_equiv_pos_as_xyz
  1  'x, y, z'
loop_
 _atom_site_type_symbol
 _atom_site_label
 _atom_site_symmetry_multiplicity
 _atom_site_fract_x
 _atom_site_fract_y
 _atom_site_fract_z
 _atom_site_occupancy
  La  La0  1  0.36949900  0.63050100  0.25000000  1
  La  La1  1  0.63050100  0.36949900  0.75000000  1
  Mn  Mn2  1  0.90659200  0.09340800  0.75000000  1
  Mn  Mn3  1  0.09340800  0.90659200  0.25000000  1
  N  N4  1  0.46592100  0.85201700  0.75000000  1
  N  N5  1  0.14798300  0.53407900  0.75000000  1
  N  N6  1  0.00000000  0.00000000  0.00000000  1
  N  N7  1  0.53407900  0.14798300  0.25000000  1
  N  N8  1  0.85201700  0.46592100  0.25000000  1
  N  N9  1  0.00000000  0.00000000  0.50000000  1
