# generated using pymatgen
data_CsBaSiHO4
_symmetry_space_group_name_H-M   'P 1'
_cell_length_a   8.34261700
_cell_length_b   6.12071400
_cell_length_c   6.12414432
_cell_angle_alpha   61.75199618
_cell_angle_beta   90.00000000
_cell_angle_gamma   90.00000000
_symmetry_Int_Tables_number   1
_chemical_formula_structural   CsBaSiHO4
_chemical_formula_sum   'Cs2 Ba2 Si2 H2 O8'
_cell_volume   275.47359918
_cell_formula_units_Z   2
loop_
 _symmetry_equiv_pos_site_id
 _symmetry_equiv_pos_as_xyz
  1  'x, y, z'
loop_
 _atom_site_type_symbol
 _atom_site_label
 _atom_site_symmetry_multiplicity
 _atom_site_fract_x
 _atom_site_fract_y
 _atom_site_fract_z
 _atom_site_occupancy
  Cs  Cs0  1  0.22989300  0.36432500  0.27672000  1
  Cs  Cs1  1  0.72989300  0.63567500  0.72328000  1
  Ba  Ba2  1  0.48288000  0.01656300  0.98958400  1
  Ba  Ba3  1  0.98288000  0.98343700  0.01041600  1
  Si  Si4  1  0.24570800  0.69245400  0.61648300  1
  Si  Si5  1  0.74570800  0.30754600  0.38351700  1
  H  H6  1  0.01308800  0.51720400  0.53918800  1
  H  H7  1  0.51308800  0.48279600  0.46081200  1
  O  O8  1  0.23673400  0.84619200  0.77405500  1
  O  O9  1  0.73673400  0.15380800  0.22594500  1
  O  O10  1  0.24060500  0.87383200  0.31522100  1
  O  O11  1  0.74060500  0.12616800  0.68477900  1
  O  O12  1  0.39379500  0.49082600  0.69718700  1
  O  O13  1  0.89379500  0.50917400  0.30281300  1
  O  O14  1  0.07429700  0.50872100  0.68453800  1
  O  O15  1  0.57429700  0.49127900  0.31546200  1
