# generated using pymatgen
data_AuClO2
_symmetry_space_group_name_H-M   'P 1'
_cell_length_a   6.69193505
_cell_length_b   6.69193505
_cell_length_c   4.12679400
_cell_angle_alpha   90.00000000
_cell_angle_beta   90.00000000
_cell_angle_gamma   113.49520195
_symmetry_Int_Tables_number   1
_chemical_formula_structural   AuClO2
_chemical_formula_sum   'Au2 Cl2 O4'
_cell_volume   169.48443588
_cell_formula_units_Z   2
loop_
 _symmetry_equiv_pos_site_id
 _symmetry_equiv_pos_as_xyz
  1  'x, y, z'
loop_
 _atom_site_type_symbol
 _atom_site_label
 _atom_site_symmetry_multiplicity
 _atom_site_fract_x
 _atom_site_fract_y
 _atom_site_fract_z
 _atom_site_occupancy
  Au  Au0  1  0.26755900  0.26755900  0.00000000  1
  Au  Au1  1  0.73244100  0.73244100  0.50000000  1
  Cl  Cl2  1  0.62525900  0.37474100  0.25000000  1
  Cl  Cl3  1  0.37474100  0.62525900  0.75000000  1
  O  O4  1  0.81192400  0.01228900  0.78551900  1
  O  O5  1  0.18807600  0.98771100  0.28551900  1
  O  O6  1  0.01228900  0.81192400  0.21448100  1
  O  O7  1  0.98771100  0.18807600  0.71448100  1
