# generated using pymatgen
data_K(WO3)3
_symmetry_space_group_name_H-M   'P 1'
_cell_length_a   3.88268600
_cell_length_b   7.52727188
_cell_length_c   32.78131749
_cell_angle_alpha   83.43064728
_cell_angle_beta   89.95257645
_cell_angle_gamma   89.94989178
_symmetry_Int_Tables_number   1
_chemical_formula_structural   K(WO3)3
_chemical_formula_sum   'K5 W15 O45'
_cell_volume   951.77667712
_cell_formula_units_Z   5
loop_
 _symmetry_equiv_pos_site_id
 _symmetry_equiv_pos_as_xyz
  1  'x, y, z'
loop_
 _atom_site_type_symbol
 _atom_site_label
 _atom_site_symmetry_multiplicity
 _atom_site_fract_x
 _atom_site_fract_y
 _atom_site_fract_z
 _atom_site_occupancy
  K  K0  1  0.88936400  0.20280400  0.10049000  1
  K  K1  1  0.90744000  0.59541000  0.29910900  1
  K  K2  1  0.90467000  0.99401800  0.50085700  1
  K  K3  1  0.90043300  0.39411900  0.70056000  1
  K  K4  1  0.09042800  0.80339100  0.90064000  1
  W  W5  1  0.49135000  0.70313800  0.09985800  1
  W  W6  1  0.49872100  0.40007000  0.19996100  1
  W  W7  1  0.49917700  0.09958600  0.29971700  1
  W  W8  1  0.49946600  0.89935500  0.19993300  1
  W  W9  1  0.50342800  0.30161400  0.39975200  1
  W  W10  1  0.49999300  0.80182600  0.40030000  1
  W  W11  1  0.50196100  0.50059300  0.50017800  1
  W  W12  1  0.49922600  0.19967900  0.59982400  1
  W  W13  1  0.50377900  0.69823100  0.60024000  1
  W  W14  1  0.50297000  0.89877200  0.69995900  1
  W  W15  1  0.49682200  0.09862900  0.80051600  1
  W  W16  1  0.50379600  0.59887500  0.80002700  1
  W  W17  1  0.50554200  0.29987800  0.90002900  1
  W  W18  1  0.50039600  0.50090300  0.99987800  1
  W  W19  1  0.49690100  0.00169600  0.99993200  1
  O  O20  1  0.49877500  0.24044200  0.01654700  1
  O  O21  1  0.49780700  0.53762200  0.05804600  1
  O  O22  1  0.49592000  0.90537800  0.05868500  1
  O  O23  1  0.99551200  0.69965300  0.09982200  1
  O  O24  1  0.49744000  0.49552800  0.14175900  1
  O  O25  1  0.50143700  0.15550400  0.18386900  1
  O  O26  1  0.99896200  0.40237400  0.19912800  1
  O  O27  1  0.49697300  0.86413500  0.14127100  1
  O  O28  1  0.49850700  0.64496100  0.21665400  1
  O  O29  1  0.49881100  0.30825100  0.25728700  1
  O  O30  1  0.00028400  0.10323800  0.30054100  1
  O  O31  1  0.99961900  0.89868000  0.19985100  1
  O  O32  1  0.50105000  0.93858500  0.25885100  1
  O  O33  1  0.50018000  0.26798300  0.34202100  1
  O  O34  1  0.50309400  0.04472600  0.41570500  1
  O  O35  1  0.00323600  0.30165800  0.39950800  1
  O  O36  1  0.50170500  0.89358900  0.34276300  1
  O  O37  1  0.50367700  0.55916300  0.38459800  1
  O  O38  1  0.00197300  0.80224600  0.40018100  1
  O  O39  1  0.50565500  0.33547300  0.45749000  1
  O  O40  1  0.50329600  0.70971800  0.45771300  1
  O  O41  1  0.00308900  0.49799800  0.49925900  1
  O  O42  1  0.50072600  0.29215400  0.54274400  1
  O  O43  1  0.00041500  0.19805800  0.60053800  1
  O  O44  1  0.50390200  0.66187300  0.54126200  1
  O  O45  1  0.50005700  0.10668800  0.65842200  1
  O  O46  1  0.50466900  0.44364500  0.61660900  1
  O  O47  1  0.00381700  0.69921700  0.59996800  1
  O  O48  1  0.50228500  0.95416600  0.58430300  1
  O  O49  1  0.50432700  0.06320400  0.74223600  1
  O  O50  1  0.50606900  0.73665900  0.65892600  1
  O  O51  1  0.99901800  0.09837300  0.80016500  1
  O  O52  1  0.00396400  0.90334200  0.69986300  1
  O  O53  1  0.50220300  0.35739000  0.78416000  1
  O  O54  1  0.50577500  0.69607300  0.74136600  1
  O  O55  1  0.00297400  0.59956200  0.79995900  1
  O  O56  1  0.49887500  0.13342500  0.85769900  1
  O  O57  1  0.50405700  0.50433800  0.85846700  1
  O  O58  1  0.49723200  0.84057100  0.81599700  1
  O  O59  1  0.00350700  0.29966000  0.90023300  1
  O  O60  1  0.49979700  0.09497600  0.94131200  1
  O  O61  1  0.50359700  0.46523700  0.94259400  1
  O  O62  1  0.00015700  0.50063400  0.00005800  1
  O  O63  1  0.49896000  0.76156900  0.98426100  1
  O  O64  1  0.99785400  0.00149500  0.00016500  1
