# generated using pymatgen
data_H6PbCI3N
_symmetry_space_group_name_H-M   'P 1'
_cell_length_a   8.55672600
_cell_length_b   9.25046000
_cell_length_c   12.96365000
_cell_angle_alpha   90.00000000
_cell_angle_beta   90.00000000
_cell_angle_gamma   90.00000000
_symmetry_Int_Tables_number   1
_chemical_formula_structural   H6PbCI3N
_chemical_formula_sum   'H24 Pb4 C4 I12 N4'
_cell_volume   1026.12023549
_cell_formula_units_Z   4
loop_
 _symmetry_equiv_pos_site_id
 _symmetry_equiv_pos_as_xyz
  1  'x, y, z'
loop_
 _atom_site_type_symbol
 _atom_site_label
 _atom_site_symmetry_multiplicity
 _atom_site_fract_x
 _atom_site_fract_y
 _atom_site_fract_z
 _atom_site_occupancy
  H  H0  1  0.49426400  0.14297400  0.31462400  1
  H  H1  1  0.50573600  0.85702600  0.68537600  1
  H  H2  1  0.00573600  0.64297400  0.68537600  1
  H  H3  1  0.99426400  0.35702600  0.31462400  1
  H  H4  1  0.50573600  0.85702600  0.81462400  1
  H  H5  1  0.49426400  0.14297400  0.18537600  1
  H  H6  1  0.99426400  0.35702600  0.18537600  1
  H  H7  1  0.00573600  0.64297400  0.81462400  1
  H  H8  1  0.33805900  0.07863200  0.25000000  1
  H  H9  1  0.66194100  0.92136800  0.75000000  1
  H  H10  1  0.16194100  0.57863200  0.75000000  1
  H  H11  1  0.83805900  0.42136800  0.25000000  1
  H  H12  1  0.49477500  0.87988900  0.31923900  1
  H  H13  1  0.50522500  0.12011100  0.68076100  1
  H  H14  1  0.00522500  0.37988900  0.68076100  1
  H  H15  1  0.99477500  0.62011100  0.31923900  1
  H  H16  1  0.50522500  0.12011100  0.81923900  1
  H  H17  1  0.49477500  0.87988900  0.18076100  1
  H  H18  1  0.99477500  0.62011100  0.18076100  1
  H  H19  1  0.00522500  0.37988900  0.81923900  1
  H  H20  1  0.65984800  0.94966300  0.25000000  1
  H  H21  1  0.34015200  0.05033700  0.75000000  1
  H  H22  1  0.84015200  0.44966300  0.75000000  1
  H  H23  1  0.15984800  0.55033700  0.25000000  1
  Pb  Pb24  1  0.50000000  0.50000000  0.00000000  1
  Pb  Pb25  1  0.00000000  0.00000000  0.00000000  1
  Pb  Pb26  1  0.50000000  0.50000000  0.50000000  1
  Pb  Pb27  1  0.00000000  0.00000000  0.50000000  1
  C  C28  1  0.53235500  0.93783800  0.25000000  1
  C  C29  1  0.46764500  0.06216200  0.75000000  1
  C  C30  1  0.96764500  0.43783800  0.75000000  1
  C  C31  1  0.03235500  0.56216200  0.25000000  1
  I  I32  1  0.53773300  0.51259600  0.25000000  1
  I  I33  1  0.46226700  0.48740400  0.75000000  1
  I  I34  1  0.96226700  0.01259600  0.75000000  1
  I  I35  1  0.03773300  0.98740400  0.25000000  1
  I  I36  1  0.81606600  0.69283900  0.97785300  1
  I  I37  1  0.18393400  0.30716100  0.02214700  1
  I  I38  1  0.68393400  0.19283900  0.02214700  1
  I  I39  1  0.31606600  0.80716100  0.97785300  1
  I  I40  1  0.18393400  0.30716100  0.47785300  1
  I  I41  1  0.81606600  0.69283900  0.52214700  1
  I  I42  1  0.31606600  0.80716100  0.52214700  1
  I  I43  1  0.68393400  0.19283900  0.47785300  1
  N  N44  1  0.45960900  0.08486300  0.25000000  1
  N  N45  1  0.54039100  0.91513700  0.75000000  1
  N  N46  1  0.04039100  0.58486300  0.75000000  1
  N  N47  1  0.95960900  0.41513700  0.25000000  1
