# generated using pymatgen
data_CaTlF3
_symmetry_space_group_name_H-M   'P 1'
_cell_length_a   4.51367471
_cell_length_b   4.51367471
_cell_length_c   4.51157000
_cell_angle_alpha   90.00000000
_cell_angle_beta   90.00000000
_cell_angle_gamma   90.09062056
_symmetry_Int_Tables_number   1
_chemical_formula_structural   CaTlF3
_chemical_formula_sum   'Ca1 Tl1 F3'
_cell_volume   91.91527103
_cell_formula_units_Z   1
loop_
 _symmetry_equiv_pos_site_id
 _symmetry_equiv_pos_as_xyz
  1  'x, y, z'
loop_
 _atom_site_type_symbol
 _atom_site_label
 _atom_site_symmetry_multiplicity
 _atom_site_fract_x
 _atom_site_fract_y
 _atom_site_fract_z
 _atom_site_occupancy
  Ca  Ca0  1  0.50470100  0.49529900  0.00000000  1
  Tl  Tl1  1  0.01055800  0.98944200  0.50000000  1
  F  F2  1  0.50195500  0.99575700  0.00000000  1
  F  F3  1  0.49138500  0.50861500  0.50000000  1
  F  F4  1  0.00424300  0.49804500  0.00000000  1
