# generated using pymatgen
data_Mo(WS3)2
_symmetry_space_group_name_H-M   'P 1'
_cell_length_a   3.19000666
_cell_length_b   3.19000666
_cell_length_c   29.09869700
_cell_angle_alpha   90.00000000
_cell_angle_beta   90.00000000
_cell_angle_gamma   120.00001375
_symmetry_Int_Tables_number   1
_chemical_formula_structural   Mo(WS3)2
_chemical_formula_sum   'Mo1 W2 S6'
_cell_volume   256.44090106
_cell_formula_units_Z   1
loop_
 _symmetry_equiv_pos_site_id
 _symmetry_equiv_pos_as_xyz
  1  'x, y, z'
loop_
 _atom_site_type_symbol
 _atom_site_label
 _atom_site_symmetry_multiplicity
 _atom_site_fract_x
 _atom_site_fract_y
 _atom_site_fract_z
 _atom_site_occupancy
  Mo  Mo0  1  0.00000000  0.00000000  0.11562900  1
  W  W1  1  0.00000000  0.00000000  0.57833400  1
  W  W2  1  0.33333300  0.66666700  0.34698900  1
  S  S3  1  0.00000000  0.00000000  0.40096900  1
  S  S4  1  0.33333300  0.66666700  0.06186200  1
  S  S5  1  0.33333300  0.66666700  0.52431700  1
  S  S6  1  0.33333300  0.66666700  0.16940900  1
  S  S7  1  0.33333300  0.66666700  0.63232500  1
  S  S8  1  0.00000000  0.00000000  0.29300500  1
