# generated using pymatgen
data_NiAuO2
_symmetry_space_group_name_H-M   'P 1'
_cell_length_a   3.03336029
_cell_length_b   3.03337468
_cell_length_c   6.32923265
_cell_angle_alpha   76.11841080
_cell_angle_beta   76.11839913
_cell_angle_gamma   59.84283623
_symmetry_Int_Tables_number   1
_chemical_formula_structural   NiAuO2
_chemical_formula_sum   'Ni1 Au1 O2'
_cell_volume   48.38723488
_cell_formula_units_Z   1
loop_
 _symmetry_equiv_pos_site_id
 _symmetry_equiv_pos_as_xyz
  1  'x, y, z'
loop_
 _atom_site_type_symbol
 _atom_site_label
 _atom_site_symmetry_multiplicity
 _atom_site_fract_x
 _atom_site_fract_y
 _atom_site_fract_z
 _atom_site_occupancy
  Ni  Ni0  1  0.50000000  0.50000000  0.50000000  1
  Au  Au1  1  0.00000000  0.00000000  0.00000000  1
  O  O2  1  0.88964500  0.88964400  0.33117400  1
  O  O3  1  0.11035500  0.11035600  0.66882600  1
