# generated using pymatgen
data_Ho5Mg
_symmetry_space_group_name_H-M   'P 1'
_cell_length_a   9.27736288
_cell_length_b   9.27736288
_cell_length_c   5.58321200
_cell_angle_alpha   90.00000000
_cell_angle_beta   90.00000000
_cell_angle_gamma   157.96225369
_symmetry_Int_Tables_number   1
_chemical_formula_structural   Ho5Mg
_chemical_formula_sum   'Ho5 Mg1'
_cell_volume   180.30846069
_cell_formula_units_Z   1
loop_
 _symmetry_equiv_pos_site_id
 _symmetry_equiv_pos_as_xyz
  1  'x, y, z'
loop_
 _atom_site_type_symbol
 _atom_site_label
 _atom_site_symmetry_multiplicity
 _atom_site_fract_x
 _atom_site_fract_y
 _atom_site_fract_z
 _atom_site_occupancy
  Ho  Ho0  1  0.00093000  0.99907000  0.50000000  1
  Ho  Ho1  1  0.67100300  0.32899700  0.50000000  1
  Ho  Ho2  1  0.33312100  0.66687900  0.50000000  1
  Ho  Ho3  1  0.55329200  0.44670800  0.00000000  1
  Ho  Ho4  1  0.88625400  0.11374600  0.00000000  1
  Mg  Mg5  1  0.22207300  0.77792700  0.00000000  1
