# generated using pymatgen
data_CuHO2
_symmetry_space_group_name_H-M   'P 1'
_cell_length_a   6.14701461
_cell_length_b   6.14701461
_cell_length_c   4.03071100
_cell_angle_alpha   90.00000000
_cell_angle_beta   90.00000000
_cell_angle_gamma   152.05020777
_symmetry_Int_Tables_number   1
_chemical_formula_structural   CuHO2
_chemical_formula_sum   'Cu2 H2 O4'
_cell_volume   71.38433863
_cell_formula_units_Z   2
loop_
 _symmetry_equiv_pos_site_id
 _symmetry_equiv_pos_as_xyz
  1  'x, y, z'
loop_
 _atom_site_type_symbol
 _atom_site_label
 _atom_site_symmetry_multiplicity
 _atom_site_fract_x
 _atom_site_fract_y
 _atom_site_fract_z
 _atom_site_occupancy
  Cu  Cu0  1  0.82177400  0.17822600  0.45754300  1
  Cu  Cu1  1  0.17822600  0.82177400  0.95754300  1
  H  H2  1  0.48167800  0.51832200  0.26345300  1
  H  H3  1  0.51832200  0.48167800  0.76345300  1
  O  O4  1  0.56911500  0.43088500  0.96836700  1
  O  O5  1  0.43088500  0.56911500  0.46836700  1
  O  O6  1  0.20979500  0.79020500  0.45984700  1
  O  O7  1  0.79020500  0.20979500  0.95984700  1
