# generated using pymatgen
data_Cs2Si(HO2)2
_symmetry_space_group_name_H-M   'P 1'
_cell_length_a   6.01750000
_cell_length_b   6.26392140
_cell_length_c   8.84639082
_cell_angle_alpha   103.46983500
_cell_angle_beta   108.86430229
_cell_angle_gamma   86.39316175
_symmetry_Int_Tables_number   1
_chemical_formula_structural   Cs2Si(HO2)2
_chemical_formula_sum   'Cs4 Si2 H4 O8'
_cell_volume   306.83032416
_cell_formula_units_Z   2
loop_
 _symmetry_equiv_pos_site_id
 _symmetry_equiv_pos_as_xyz
  1  'x, y, z'
loop_
 _atom_site_type_symbol
 _atom_site_label
 _atom_site_symmetry_multiplicity
 _atom_site_fract_x
 _atom_site_fract_y
 _atom_site_fract_z
 _atom_site_occupancy
  Cs  Cs0  1  0.41224800  0.84869300  0.29254100  1
  Cs  Cs1  1  0.58775200  0.15130700  0.70745900  1
  Cs  Cs2  1  0.23900600  0.26291900  0.02724800  1
  Cs  Cs3  1  0.76099400  0.73708100  0.97275200  1
  Si  Si4  1  0.87399300  0.34482600  0.28437700  1
  Si  Si5  1  0.12600700  0.65517400  0.71562300  1
  H  H6  1  0.70024100  0.49530800  0.46828500  1
  H  H7  1  0.29975900  0.50469200  0.53171500  1
  H  H8  1  0.05118200  0.30281800  0.58961600  1
  H  H9  1  0.94881800  0.69718200  0.41038400  1
  O  O10  1  0.64774600  0.37832100  0.36659900  1
  O  O11  1  0.35225400  0.62167900  0.63340100  1
  O  O12  1  0.94094400  0.61224500  0.29616700  1
  O  O13  1  0.05905600  0.38775500  0.70383300  1
  O  O14  1  0.09798600  0.23766300  0.40038800  1
  O  O15  1  0.90201400  0.76233700  0.59961200  1
  O  O16  1  0.76848800  0.22616300  0.09243600  1
  O  O17  1  0.23151200  0.77383700  0.90756400  1
