# generated using pymatgen
data_Ho5Mg
_symmetry_space_group_name_H-M   'P 1'
_cell_length_a   6.56370671
_cell_length_b   6.56370671
_cell_length_c   6.56370708
_cell_angle_alpha   55.44025047
_cell_angle_beta   55.44025047
_cell_angle_gamma   55.44025140
_symmetry_Int_Tables_number   1
_chemical_formula_structural   Ho5Mg
_chemical_formula_sum   'Ho5 Mg1'
_cell_volume   178.78060549
_cell_formula_units_Z   1
loop_
 _symmetry_equiv_pos_site_id
 _symmetry_equiv_pos_as_xyz
  1  'x, y, z'
loop_
 _atom_site_type_symbol
 _atom_site_label
 _atom_site_symmetry_multiplicity
 _atom_site_fract_x
 _atom_site_fract_y
 _atom_site_fract_z
 _atom_site_occupancy
  Ho  Ho0  1  0.50000000  0.16205700  0.83794300  1
  Ho  Ho1  1  0.16205700  0.83794300  0.50000000  1
  Ho  Ho2  1  0.83794300  0.50000000  0.16205700  1
  Ho  Ho3  1  0.33205600  0.33205600  0.33205600  1
  Ho  Ho4  1  0.66794400  0.66794400  0.66794400  1
  Mg  Mg5  1  0.00000000  0.00000000  0.00000000  1
