# generated using pymatgen
data_Ho3Th
_symmetry_space_group_name_H-M   'P 1'
_cell_length_a   7.12041451
_cell_length_b   7.12041451
_cell_length_c   5.78794500
_cell_angle_alpha   90.00000000
_cell_angle_beta   90.00000000
_cell_angle_gamma   120.00000475
_symmetry_Int_Tables_number   1
_chemical_formula_structural   Ho3Th
_chemical_formula_sum   'Ho6 Th2'
_cell_volume   254.13563116
_cell_formula_units_Z   2
loop_
 _symmetry_equiv_pos_site_id
 _symmetry_equiv_pos_as_xyz
  1  'x, y, z'
loop_
 _atom_site_type_symbol
 _atom_site_label
 _atom_site_symmetry_multiplicity
 _atom_site_fract_x
 _atom_site_fract_y
 _atom_site_fract_z
 _atom_site_occupancy
  Ho  Ho0  1  0.16660400  0.33320900  0.25000000  1
  Ho  Ho1  1  0.66679100  0.83339600  0.25000000  1
  Ho  Ho2  1  0.16660400  0.83339600  0.25000000  1
  Ho  Ho3  1  0.83339600  0.66679100  0.75000000  1
  Ho  Ho4  1  0.33320900  0.16660400  0.75000000  1
  Ho  Ho5  1  0.83339600  0.16660400  0.75000000  1
  Th  Th6  1  0.33333300  0.66666700  0.75000000  1
  Th  Th7  1  0.66666700  0.33333300  0.25000000  1
