# generated using pymatgen
data_KCaCl3
_symmetry_space_group_name_H-M   'P 1'
_cell_length_a   8.10823000
_cell_length_b   8.10823000
_cell_length_c   8.10823012
_cell_angle_alpha   53.54434124
_cell_angle_beta   53.54434124
_cell_angle_gamma   53.54433941
_symmetry_Int_Tables_number   1
_chemical_formula_structural   KCaCl3
_chemical_formula_sum   'K2 Ca2 Cl6'
_cell_volume   320.00232544
_cell_formula_units_Z   2
loop_
 _symmetry_equiv_pos_site_id
 _symmetry_equiv_pos_as_xyz
  1  'x, y, z'
loop_
 _atom_site_type_symbol
 _atom_site_label
 _atom_site_symmetry_multiplicity
 _atom_site_fract_x
 _atom_site_fract_y
 _atom_site_fract_z
 _atom_site_occupancy
  K  K0  1  0.14202600  0.14202600  0.14202600  1
  K  K1  1  0.85797400  0.85797400  0.85797400  1
  Ca  Ca2  1  0.34114700  0.34114700  0.34114700  1
  Ca  Ca3  1  0.65885300  0.65885300  0.65885300  1
  Cl  Cl4  1  0.29761600  0.53652400  0.94014900  1
  Cl  Cl5  1  0.53652400  0.94014900  0.29761600  1
  Cl  Cl6  1  0.94014900  0.29761600  0.53652400  1
  Cl  Cl7  1  0.70238400  0.46347600  0.05985100  1
  Cl  Cl8  1  0.05985100  0.70238400  0.46347600  1
  Cl  Cl9  1  0.46347600  0.05985100  0.70238400  1
