# generated using pymatgen
data_Ca(CoO2)2
_symmetry_space_group_name_H-M   'P 1'
_cell_length_a   6.19278500
_cell_length_b   6.22564548
_cell_length_c   15.28550339
_cell_angle_alpha   89.09946133
_cell_angle_beta   89.54628086
_cell_angle_gamma   60.57709265
_symmetry_Int_Tables_number   1
_chemical_formula_structural   Ca(CoO2)2
_chemical_formula_sum   'Ca6 Co12 O24'
_cell_volume   513.24336709
_cell_formula_units_Z   6
loop_
 _symmetry_equiv_pos_site_id
 _symmetry_equiv_pos_as_xyz
  1  'x, y, z'
loop_
 _atom_site_type_symbol
 _atom_site_label
 _atom_site_symmetry_multiplicity
 _atom_site_fract_x
 _atom_site_fract_y
 _atom_site_fract_z
 _atom_site_occupancy
  Ca  Ca0  1  0.83253200  0.33429000  0.95857000  1
  Ca  Ca1  1  0.49978600  0.00212900  0.61850300  1
  Ca  Ca2  1  0.49834300  0.00208900  0.00097300  1
  Ca  Ca3  1  0.16562800  0.66721300  0.28436900  1
  Ca  Ca4  1  0.83374900  0.33152000  0.71411000  1
  Ca  Ca5  1  0.50048400  0.99945200  0.37400600  1
  Co  Co6  1  0.83331500  0.83268200  0.82994900  1
  Co  Co7  1  0.33487100  0.33061500  0.82960200  1
  Co  Co8  1  0.50032600  0.50136400  0.49905400  1
  Co  Co9  1  0.33324500  0.83311900  0.82989500  1
  Co  Co10  1  0.17199400  0.66023800  0.66391500  1
  Co  Co11  1  0.00143100  0.99921500  0.50011600  1
  Co  Co12  1  0.16324900  0.16710700  0.16939100  1
  Co  Co13  1  0.99915400  0.50044800  0.49943400  1
  Co  Co14  1  0.66930400  0.16919500  0.17026700  1
  Co  Co15  1  0.83122600  0.33666200  0.33542600  1
  Co  Co16  1  0.66682500  0.66402900  0.16925800  1
  Co  Co17  1  0.16617100  0.66770200  0.04797000  1
  O  O18  1  0.65058900  0.69885400  0.89315000  1
  O  O19  1  0.50062600  0.99972800  0.76018000  1
  O  O20  1  0.64351900  0.16176500  0.89095300  1
  O  O21  1  0.19553500  0.15778000  0.89190700  1
  O  O22  1  0.44431400  0.52383200  0.75680200  1
  O  O23  1  0.30491200  0.38751500  0.57884000  1
  O  O24  1  0.03528600  0.52041400  0.75671900  1
  O  O25  1  0.16634900  0.66801900  0.91239400  1
  O  O26  1  0.31211100  0.80258900  0.57638300  1
  O  O27  1  0.16981800  0.66099400  0.43213200  1
  O  O28  1  0.02911500  0.94134300  0.75637200  1
  O  O29  1  0.88561800  0.81031100  0.57525100  1
  O  O30  1  0.12139900  0.18474700  0.42809400  1
  O  O31  1  0.97303400  0.05385400  0.24693800  1
  O  O32  1  0.69027500  0.19329000  0.42467700  1
  O  O33  1  0.82996900  0.33891900  0.56815500  1
  O  O34  1  0.83468800  0.33324900  0.10282500  1
  O  O35  1  0.97449500  0.46767000  0.24990600  1
  O  O36  1  0.69232000  0.61968600  0.42219000  1
  O  O37  1  0.55288500  0.47178900  0.24610000  1
  O  O38  1  0.82493700  0.83747600  0.10182200  1
  O  O39  1  0.49909900  0.00071400  0.23102000  1
  O  O40  1  0.33325700  0.83959900  0.10137600  1
  O  O41  1  0.33422000  0.32679100  0.10100600  1
