# generated using pymatgen
data_Ti4ZnO9
_symmetry_space_group_name_H-M   'P 1'
_cell_length_a   8.51505300
_cell_length_b   8.51505300
_cell_length_c   5.01722200
_cell_angle_alpha   90.00000000
_cell_angle_beta   90.00000000
_cell_angle_gamma   90.00000000
_symmetry_Int_Tables_number   1
_chemical_formula_structural   Ti4ZnO9
_chemical_formula_sum   'Ti8 Zn2 O18'
_cell_volume   363.77933849
_cell_formula_units_Z   2
loop_
 _symmetry_equiv_pos_site_id
 _symmetry_equiv_pos_as_xyz
  1  'x, y, z'
loop_
 _atom_site_type_symbol
 _atom_site_label
 _atom_site_symmetry_multiplicity
 _atom_site_fract_x
 _atom_site_fract_y
 _atom_site_fract_z
 _atom_site_occupancy
  Ti  Ti0  1  0.08895900  0.78027500  0.62333900  1
  Ti  Ti1  1  0.21972500  0.08895900  0.37666100  1
  Ti  Ti2  1  0.71972500  0.58895900  0.62333900  1
  Ti  Ti3  1  0.58895900  0.28027500  0.37666100  1
  Ti  Ti4  1  0.91104100  0.21972500  0.62333900  1
  Ti  Ti5  1  0.28027500  0.41104100  0.62333900  1
  Ti  Ti6  1  0.41104100  0.71972500  0.37666100  1
  Ti  Ti7  1  0.78027500  0.91104100  0.37666100  1
  Zn  Zn8  1  0.00000000  0.50000000  0.03510400  1
  Zn  Zn9  1  0.50000000  0.00000000  0.96489600  1
  O  O10  1  0.00000000  0.00000000  0.50000000  1
  O  O11  1  0.50000000  0.50000000  0.50000000  1
  O  O12  1  0.72745000  0.93384400  0.05089300  1
  O  O13  1  0.43384400  0.77255000  0.05089300  1
  O  O14  1  0.56615600  0.22745000  0.05089300  1
  O  O15  1  0.27255000  0.06615600  0.05089300  1
  O  O16  1  0.77255000  0.56615600  0.94910700  1
  O  O17  1  0.06615600  0.72745000  0.94910700  1
  O  O18  1  0.93384400  0.27255000  0.94910700  1
  O  O19  1  0.22745000  0.43384400  0.94910700  1
  O  O20  1  0.10742300  0.29024000  0.47492000  1
  O  O21  1  0.79024000  0.39257700  0.47492000  1
  O  O22  1  0.20976000  0.60742300  0.47492000  1
  O  O23  1  0.89257700  0.70976000  0.47492000  1
  O  O24  1  0.60742300  0.79024000  0.52508000  1
  O  O25  1  0.70976000  0.10742300  0.52508000  1
  O  O26  1  0.29024000  0.89257700  0.52508000  1
  O  O27  1  0.39257700  0.20976000  0.52508000  1
