# generated using pymatgen
data_Ba2W2F11
_symmetry_space_group_name_H-M   'P 1'
_cell_length_a   8.51880565
_cell_length_b   8.51880565
_cell_length_c   13.82500800
_cell_angle_alpha   90.00000000
_cell_angle_beta   90.00000000
_cell_angle_gamma   119.99999727
_symmetry_Int_Tables_number   1
_chemical_formula_structural   Ba2W2F11
_chemical_formula_sum   'Ba6 W6 F33'
_cell_volume   868.86730506
_cell_formula_units_Z   3
loop_
 _symmetry_equiv_pos_site_id
 _symmetry_equiv_pos_as_xyz
  1  'x, y, z'
loop_
 _atom_site_type_symbol
 _atom_site_label
 _atom_site_symmetry_multiplicity
 _atom_site_fract_x
 _atom_site_fract_y
 _atom_site_fract_z
 _atom_site_occupancy
  Ba  Ba0  1  0.63378700  0.23035600  0.64916000  1
  Ba  Ba1  1  0.17980700  0.36652800  0.80747800  1
  Ba  Ba2  1  0.59656900  0.36621300  0.98249300  1
  Ba  Ba3  1  0.63347200  0.81328000  0.47414500  1
  Ba  Ba4  1  0.18672000  0.82019300  0.14081200  1
  Ba  Ba5  1  0.76964400  0.40343100  0.31582600  1
  W  W6  1  0.60186900  0.88321600  0.88450000  1
  W  W7  1  0.89471600  0.76963600  0.73713900  1
  W  W8  1  0.23036400  0.12508000  0.40380600  1
  W  W9  1  0.28134700  0.39813100  0.21783300  1
  W  W10  1  0.87492000  0.10528400  0.07047200  1
  W  W11  1  0.11678400  0.71865300  0.55116600  1
  F  F12  1  0.59935000  0.95518600  0.03607000  1
  F  F13  1  0.53604900  0.63075000  0.94188800  1
  F  F14  1  0.35583600  0.40065000  0.36940300  1
  F  F15  1  0.27346100  0.61781500  0.49590000  1
  F  F16  1  0.48422900  0.34625600  0.17077100  1
  F  F17  1  0.87692100  0.54736300  0.14026400  1
  F  F18  1  0.38218500  0.65564600  0.16256600  1
  F  F19  1  0.45263700  0.32955800  0.80693100  1
  F  F20  1  0.86202600  0.51577100  0.50410400  1
  F  F21  1  0.15426400  0.28826200  0.08009600  1
  F  F22  1  0.34435400  0.72653900  0.82923300  1
  F  F23  1  0.04481400  0.64416400  0.70273700  1
  F  F24  1  0.32453300  0.05153200  0.01366500  1
  F  F25  1  0.88638800  0.31724600  0.00345200  1
  F  F26  1  0.72699800  0.67546700  0.34699800  1
  F  F27  1  0.36925000  0.90529800  0.60855500  1
  F  F28  1  0.89508300  0.04356500  0.92687400  1
  F  F29  1  0.13399800  0.84573600  0.41342900  1
  F  F30  1  0.98948800  0.08944900  0.43122100  1
  F  F31  1  0.94846800  0.27300200  0.68033200  1
  F  F32  1  0.09996100  0.01051200  0.76455400  1
  F  F33  1  0.68275400  0.56914200  0.67011900  1
  F  F34  1  0.43085800  0.11361200  0.33678500  1
  F  F35  1  0.14848200  0.10491700  0.26020800  1
  F  F36  1  0.71173800  0.86600200  0.74676200  1
  F  F37  1  0.65374400  0.13797400  0.83743700  1
  F  F38  1  0.09470200  0.46395100  0.27522100  1
  F  F39  1  0.86294300  0.66937400  0.86759100  1
  F  F40  1  0.80643100  0.13705700  0.20092400  1
  F  F41  1  0.91055100  0.90003900  0.09788800  1
  F  F42  1  0.67044200  0.12307900  0.47359800  1
  F  F43  1  0.95643500  0.85151800  0.59354100  1
  F  F44  1  0.33062600  0.19356900  0.53425700  1
