# generated using pymatgen
data_SnP2O7
_symmetry_space_group_name_H-M   'P 1'
_cell_length_a   8.83609400
_cell_length_b   7.05676200
_cell_length_c   9.54276019
_cell_angle_alpha   72.64912516
_cell_angle_beta   90.00000000
_cell_angle_gamma   90.00000000
_symmetry_Int_Tables_number   1
_chemical_formula_structural   SnP2O7
_chemical_formula_sum   'Sn4 P8 O28'
_cell_volume   567.95521398
_cell_formula_units_Z   4
loop_
 _symmetry_equiv_pos_site_id
 _symmetry_equiv_pos_as_xyz
  1  'x, y, z'
loop_
 _atom_site_type_symbol
 _atom_site_label
 _atom_site_symmetry_multiplicity
 _atom_site_fract_x
 _atom_site_fract_y
 _atom_site_fract_z
 _atom_site_occupancy
  Sn  Sn0  1  0.07155500  0.69728000  0.20039600  1
  Sn  Sn1  1  0.42844500  0.69728000  0.70039600  1
  Sn  Sn2  1  0.57155500  0.30272000  0.29960400  1
  Sn  Sn3  1  0.92844500  0.30272000  0.79960400  1
  P  P4  1  0.71672500  0.53235000  0.53001400  1
  P  P5  1  0.24037900  0.09110900  0.24463800  1
  P  P6  1  0.74037900  0.90889100  0.25536200  1
  P  P7  1  0.25962100  0.09110900  0.74463800  1
  P  P8  1  0.78327500  0.53235000  0.03001400  1
  P  P9  1  0.75962100  0.90889100  0.75536200  1
  P  P10  1  0.21672500  0.46765000  0.96998600  1
  P  P11  1  0.28327500  0.46765000  0.46998600  1
  O  O12  1  0.12725400  0.50080200  0.39255100  1
  O  O13  1  0.21455000  0.25666500  0.08198700  1
  O  O14  1  0.26409900  0.89601900  0.69927700  1
  O  O15  1  0.08774200  0.11234200  0.77915600  1
  O  O16  1  0.87274600  0.49919800  0.60744900  1
  O  O17  1  0.78545000  0.74333500  0.91801300  1
  O  O18  1  0.20294700  0.62997300  0.04777700  1
  O  O19  1  0.91177100  0.52119200  0.14092200  1
  O  O20  1  0.58774200  0.88765800  0.72084400  1
  O  O21  1  0.70294700  0.37002700  0.45222300  1
  O  O22  1  0.37274600  0.50080200  0.89255100  1
  O  O23  1  0.86991200  0.88109200  0.64809300  1
  O  O24  1  0.62725400  0.49919800  0.10744900  1
  O  O25  1  0.73590100  0.10398100  0.30072300  1
  O  O26  1  0.41177100  0.47880800  0.35907800  1
  O  O27  1  0.79705300  0.37002700  0.95222300  1
  O  O28  1  0.91225800  0.88765800  0.22084400  1
  O  O29  1  0.23590100  0.89601900  0.19927700  1
  O  O30  1  0.13008800  0.11890800  0.35190700  1
  O  O31  1  0.58822900  0.52119200  0.64092200  1
  O  O32  1  0.28545000  0.25666500  0.58198700  1
  O  O33  1  0.29705300  0.62997300  0.54777700  1
  O  O34  1  0.08822900  0.47880800  0.85907800  1
  O  O35  1  0.41225800  0.11234200  0.27915600  1
  O  O36  1  0.71455000  0.74333500  0.41801300  1
  O  O37  1  0.63008800  0.88109200  0.14809300  1
  O  O38  1  0.76409900  0.10398100  0.80072300  1
  O  O39  1  0.36991200  0.11890800  0.85190700  1
