# generated using pymatgen
data_CaCr3(P2O7)2
_symmetry_space_group_name_H-M   'P 1'
_cell_length_a   7.99524400
_cell_length_b   7.55017900
_cell_length_c   9.56205377
_cell_angle_alpha   69.96554375
_cell_angle_beta   90.00000000
_cell_angle_gamma   90.00000000
_symmetry_Int_Tables_number   1
_chemical_formula_structural   CaCr3(P2O7)2
_chemical_formula_sum   'Ca2 Cr6 P8 O28'
_cell_volume   542.28903086
_cell_formula_units_Z   2
loop_
 _symmetry_equiv_pos_site_id
 _symmetry_equiv_pos_as_xyz
  1  'x, y, z'
loop_
 _atom_site_type_symbol
 _atom_site_label
 _atom_site_symmetry_multiplicity
 _atom_site_fract_x
 _atom_site_fract_y
 _atom_site_fract_z
 _atom_site_occupancy
  Ca  Ca0  1  0.00000000  0.50000000  0.00000000  1
  Ca  Ca1  1  0.50000000  0.50000000  0.50000000  1
  Cr  Cr2  1  0.12983400  0.81009100  0.52341300  1
  Cr  Cr3  1  0.62983400  0.18990900  0.97658700  1
  Cr  Cr4  1  0.87016600  0.18990900  0.47658700  1
  Cr  Cr5  1  0.37016600  0.81009100  0.02341300  1
  Cr  Cr6  1  0.00000000  0.00000000  0.00000000  1
  Cr  Cr7  1  0.50000000  0.00000000  0.50000000  1
  P  P8  1  0.94347000  0.40455200  0.70303400  1
  P  P9  1  0.44347000  0.59544800  0.79696600  1
  P  P10  1  0.05653000  0.59544800  0.29696600  1
  P  P11  1  0.55653000  0.40455200  0.20303400  1
  P  P12  1  0.20520200  0.11704500  0.69338800  1
  P  P13  1  0.70520200  0.88295500  0.80661200  1
  P  P14  1  0.79479800  0.88295500  0.30661200  1
  P  P15  1  0.29479800  0.11704500  0.19338800  1
  O  O16  1  0.37341900  0.16991400  0.61282500  1
  O  O17  1  0.87341900  0.83008600  0.88717500  1
  O  O18  1  0.62658100  0.83008600  0.38717500  1
  O  O19  1  0.12658100  0.16991400  0.11282500  1
  O  O20  1  0.39540400  0.70255900  0.63309000  1
  O  O21  1  0.89540400  0.29744100  0.86691000  1
  O  O22  1  0.60459600  0.29744100  0.36691000  1
  O  O23  1  0.10459600  0.70255900  0.13309000  1
  O  O24  1  0.81659300  0.37663100  0.59218700  1
  O  O25  1  0.31659300  0.62336900  0.90781300  1
  O  O26  1  0.18340700  0.62336900  0.40781300  1
  O  O27  1  0.68340700  0.37663100  0.09218700  1
  O  O28  1  0.12039100  0.31761400  0.67354700  1
  O  O29  1  0.62039100  0.68238600  0.82645300  1
  O  O30  1  0.87960900  0.68238600  0.32645300  1
  O  O31  1  0.37960900  0.31761400  0.17354700  1
  O  O32  1  0.51318800  0.60689300  0.18838300  1
  O  O33  1  0.01318800  0.39310700  0.31161700  1
  O  O34  1  0.48681200  0.39310700  0.81161700  1
  O  O35  1  0.98681200  0.60689300  0.68838300  1
  O  O36  1  0.78770500  0.98563400  0.13590600  1
  O  O37  1  0.28770500  0.01436600  0.36409400  1
  O  O38  1  0.21229500  0.01436600  0.86409400  1
  O  O39  1  0.71229500  0.98563400  0.63590600  1
  O  O40  1  0.41025100  0.01471600  0.11924400  1
  O  O41  1  0.91025100  0.98528400  0.38075600  1
  O  O42  1  0.58974900  0.98528400  0.88075600  1
  O  O43  1  0.08974900  0.01471600  0.61924400  1
