# generated using pymatgen
data_ZnP2W2O9
_symmetry_space_group_name_H-M   'P 1'
_cell_length_a   6.69889200
_cell_length_b   7.33506800
_cell_length_c   14.98845800
_cell_angle_alpha   90.00000000
_cell_angle_beta   90.00000000
_cell_angle_gamma   90.00000000
_symmetry_Int_Tables_number   1
_chemical_formula_structural   ZnP2W2O9
_chemical_formula_sum   'Zn4 P8 W8 O36'
_cell_volume   736.48528790
_cell_formula_units_Z   4
loop_
 _symmetry_equiv_pos_site_id
 _symmetry_equiv_pos_as_xyz
  1  'x, y, z'
loop_
 _atom_site_type_symbol
 _atom_site_label
 _atom_site_symmetry_multiplicity
 _atom_site_fract_x
 _atom_site_fract_y
 _atom_site_fract_z
 _atom_site_occupancy
  Zn  Zn0  1  0.75000000  0.44580500  0.76656900  1
  Zn  Zn1  1  0.75000000  0.05419500  0.26656900  1
  Zn  Zn2  1  0.25000000  0.94580500  0.73343100  1
  Zn  Zn3  1  0.25000000  0.55419500  0.23343100  1
  P  P4  1  0.25000000  0.87644600  0.92241800  1
  P  P5  1  0.75000000  0.12355400  0.07758200  1
  P  P6  1  0.75000000  0.37644600  0.57758200  1
  P  P7  1  0.25000000  0.62355400  0.42241800  1
  P  P8  1  0.75000000  0.90079600  0.69038700  1
  P  P9  1  0.75000000  0.59920400  0.19038700  1
  P  P10  1  0.25000000  0.40079600  0.80961300  1
  P  P11  1  0.25000000  0.09920400  0.30961300  1
  W  W12  1  0.75000000  0.87291100  0.87524700  1
  W  W13  1  0.25000000  0.12708900  0.12475300  1
  W  W14  1  0.25000000  0.37291100  0.62475300  1
  W  W15  1  0.75000000  0.62708900  0.37524700  1
  W  W16  1  0.50000000  0.50000000  0.00000000  1
  W  W17  1  0.50000000  0.00000000  0.50000000  1
  W  W18  1  0.00000000  0.00000000  0.50000000  1
  W  W19  1  0.00000000  0.50000000  0.00000000  1
  O  O20  1  0.05322700  0.10016300  0.36476800  1
  O  O21  1  0.55322700  0.89983700  0.63523200  1
  O  O22  1  0.94677300  0.60016300  0.13523200  1
  O  O23  1  0.44677300  0.39983700  0.86476800  1
  O  O24  1  0.94677300  0.89983700  0.63523200  1
  O  O25  1  0.44677300  0.10016300  0.36476800  1
  O  O26  1  0.05322700  0.39983700  0.86476800  1
  O  O27  1  0.55322700  0.60016300  0.13523200  1
  O  O28  1  0.25000000  0.81459400  0.47085500  1
  O  O29  1  0.75000000  0.18540600  0.52914500  1
  O  O30  1  0.75000000  0.31459400  0.02914500  1
  O  O31  1  0.25000000  0.68540600  0.97085500  1
  O  O32  1  0.75000000  0.61682500  0.93626400  1
  O  O33  1  0.25000000  0.38317500  0.06373600  1
  O  O34  1  0.25000000  0.11682500  0.56373600  1
  O  O35  1  0.75000000  0.88317500  0.43626400  1
  O  O36  1  0.75000000  0.72357900  0.75095700  1
  O  O37  1  0.25000000  0.27642100  0.24904300  1
  O  O38  1  0.25000000  0.22357900  0.74904300  1
  O  O39  1  0.75000000  0.77642100  0.25095700  1
  O  O40  1  0.42902800  0.61323800  0.35664000  1
  O  O41  1  0.92902800  0.38676200  0.64336000  1
  O  O42  1  0.57097200  0.11323800  0.14336000  1
  O  O43  1  0.07097200  0.88676200  0.85664000  1
  O  O44  1  0.57097200  0.38676200  0.64336000  1
  O  O45  1  0.07097200  0.61323800  0.35664000  1
  O  O46  1  0.42902800  0.88676200  0.85664000  1
  O  O47  1  0.92902800  0.11323800  0.14336000  1
  O  O48  1  0.75000000  0.97425700  0.00853900  1
  O  O49  1  0.25000000  0.56057500  0.74104000  1
  O  O50  1  0.25000000  0.93942500  0.24104000  1
  O  O51  1  0.75000000  0.06057500  0.75896000  1
  O  O52  1  0.75000000  0.52574300  0.50853900  1
  O  O53  1  0.25000000  0.47425700  0.49146100  1
  O  O54  1  0.25000000  0.02574300  0.99146100  1
  O  O55  1  0.75000000  0.43942500  0.25896000  1
