# generated using pymatgen
data_LaCrCuO6
_symmetry_space_group_name_H-M   'P 1'
_cell_length_a   4.63676900
_cell_length_b   4.73336631
_cell_length_c   6.92022653
_cell_angle_alpha   76.11094358
_cell_angle_beta   74.12037481
_cell_angle_gamma   70.86867923
_symmetry_Int_Tables_number   1
_chemical_formula_structural   LaCrCuO6
_chemical_formula_sum   'La1 Cr1 Cu1 O6'
_cell_volume   136.11481657
_cell_formula_units_Z   1
loop_
 _symmetry_equiv_pos_site_id
 _symmetry_equiv_pos_as_xyz
  1  'x, y, z'
loop_
 _atom_site_type_symbol
 _atom_site_label
 _atom_site_symmetry_multiplicity
 _atom_site_fract_x
 _atom_site_fract_y
 _atom_site_fract_z
 _atom_site_occupancy
  La  La0  1  0.75451300  0.16397300  0.76747300  1
  Cr  Cr1  1  0.52108700  0.04300200  0.33218200  1
  Cu  Cu2  1  0.99945000  0.48472900  0.02837000  1
  O  O3  1  0.75439100  0.63777900  0.84356500  1
  O  O4  1  0.32962700  0.85583400  0.52866200  1
  O  O5  1  0.72190600  0.19819000  0.42103600  1
  O  O6  1  0.77268000  0.82601700  0.16121200  1
  O  O7  1  0.20647500  0.19999500  0.86966800  1
  O  O8  1  0.28169600  0.33024500  0.20642200  1
