# generated using pymatgen
data_CaP2(WO4)2
_symmetry_space_group_name_H-M   'P 1'
_cell_length_a   9.72752508
_cell_length_b   9.72752508
_cell_length_c   16.97872698
_cell_angle_alpha   63.62649563
_cell_angle_beta   63.62649563
_cell_angle_gamma   30.48597406
_symmetry_Int_Tables_number   1
_chemical_formula_structural   CaP2(WO4)2
_chemical_formula_sum   'Ca4 P8 W8 O32'
_cell_volume   723.54463015
_cell_formula_units_Z   4
loop_
 _symmetry_equiv_pos_site_id
 _symmetry_equiv_pos_as_xyz
  1  'x, y, z'
loop_
 _atom_site_type_symbol
 _atom_site_label
 _atom_site_symmetry_multiplicity
 _atom_site_fract_x
 _atom_site_fract_y
 _atom_site_fract_z
 _atom_site_occupancy
  Ca  Ca0  1  0.16135800  0.53296700  0.13038700  1
  Ca  Ca1  1  0.46703300  0.83864200  0.36961300  1
  Ca  Ca2  1  0.53296700  0.16135800  0.63038700  1
  Ca  Ca3  1  0.83864200  0.46703300  0.86961300  1
  P  P4  1  0.48350800  0.93826700  0.14488100  1
  P  P5  1  0.77100800  0.26843600  0.39311800  1
  P  P6  1  0.51649200  0.06173300  0.85511900  1
  P  P7  1  0.26843600  0.77100800  0.89311800  1
  P  P8  1  0.93826700  0.48350800  0.64488100  1
  P  P9  1  0.06173300  0.51649200  0.35511900  1
  P  P10  1  0.22899200  0.73156400  0.60688200  1
  P  P11  1  0.73156400  0.22899200  0.10688200  1
  W  W12  1  0.29931200  0.92258000  0.02699800  1
  W  W13  1  0.07742000  0.70068800  0.47300200  1
  W  W14  1  0.70068800  0.07742000  0.97300200  1
  W  W15  1  0.00000000  0.50000000  0.00000000  1
  W  W16  1  0.92258000  0.29931200  0.52699800  1
  W  W17  1  0.73678900  0.26321100  0.75000000  1
  W  W18  1  0.26321100  0.73678900  0.25000000  1
  W  W19  1  0.50000000  0.00000000  0.50000000  1
  O  O20  1  0.20103700  0.32403900  0.87769900  1
  O  O21  1  0.69794000  0.10476100  0.09848300  1
  O  O22  1  0.32403900  0.20103700  0.37769900  1
  O  O23  1  0.64969400  0.24844500  0.48423800  1
  O  O24  1  0.62840200  0.82372500  0.93569800  1
  O  O25  1  0.56294600  0.51331700  0.32552800  1
  O  O26  1  0.75155500  0.35030600  0.01576200  1
  O  O27  1  0.98969400  0.01127600  0.85605400  1
  O  O28  1  0.35030600  0.75155500  0.51576200  1
  O  O29  1  0.89523900  0.30206000  0.40151700  1
  O  O30  1  0.63499400  0.11310300  0.85138500  1
  O  O31  1  0.03534900  0.38664600  0.72864400  1
  O  O32  1  0.30206000  0.89523900  0.90151700  1
  O  O33  1  0.01127600  0.98969400  0.35605400  1
  O  O34  1  0.79896300  0.67596100  0.12230100  1
  O  O35  1  0.36500600  0.88689700  0.14861500  1
  O  O36  1  0.38664600  0.03534900  0.22864400  1
  O  O37  1  0.24844500  0.64969400  0.98423800  1
  O  O38  1  0.11310300  0.63499400  0.35138500  1
  O  O39  1  0.96465100  0.61335400  0.27135600  1
  O  O40  1  0.98872400  0.01030600  0.64394600  1
  O  O41  1  0.82372500  0.62840200  0.43569800  1
  O  O42  1  0.01030600  0.98872400  0.14394600  1
  O  O43  1  0.51331700  0.56294600  0.82552800  1
  O  O44  1  0.10476100  0.69794000  0.59848300  1
  O  O45  1  0.67596100  0.79896300  0.62230100  1
  O  O46  1  0.61335400  0.96465100  0.77135600  1
  O  O47  1  0.17627500  0.37159800  0.56430200  1
  O  O48  1  0.37159800  0.17627500  0.06430200  1
  O  O49  1  0.48668300  0.43705400  0.17447200  1
  O  O50  1  0.43705400  0.48668300  0.67447200  1
  O  O51  1  0.88689700  0.36500600  0.64861500  1
