# generated using pymatgen
data_SbP2O7
_symmetry_space_group_name_H-M   'P 1'
_cell_length_a   8.99775900
_cell_length_b   7.20029500
_cell_length_c   9.55873631
_cell_angle_alpha   69.56453015
_cell_angle_beta   90.00000000
_cell_angle_gamma   90.00000000
_symmetry_Int_Tables_number   1
_chemical_formula_structural   SbP2O7
_chemical_formula_sum   'Sb4 P8 O28'
_cell_volume   580.30367128
_cell_formula_units_Z   4
loop_
 _symmetry_equiv_pos_site_id
 _symmetry_equiv_pos_as_xyz
  1  'x, y, z'
loop_
 _atom_site_type_symbol
 _atom_site_label
 _atom_site_symmetry_multiplicity
 _atom_site_fract_x
 _atom_site_fract_y
 _atom_site_fract_z
 _atom_site_occupancy
  Sb  Sb0  1  0.06830500  0.71062900  0.18149200  1
  Sb  Sb1  1  0.43169500  0.71062900  0.68149200  1
  Sb  Sb2  1  0.56830500  0.28937100  0.31850800  1
  Sb  Sb3  1  0.93169500  0.28937100  0.81850800  1
  P  P4  1  0.71991400  0.52657400  0.54016800  1
  P  P5  1  0.24463100  0.09180400  0.23529200  1
  P  P6  1  0.74463100  0.90819600  0.26470800  1
  P  P7  1  0.25536900  0.09180400  0.73529200  1
  P  P8  1  0.78008600  0.52657400  0.04016800  1
  P  P9  1  0.75536900  0.90819600  0.76470800  1
  P  P10  1  0.21991400  0.47342600  0.95983200  1
  P  P11  1  0.28008600  0.47342600  0.45983200  1
  O  O12  1  0.12500300  0.50862000  0.38042600  1
  O  O13  1  0.21146500  0.25151000  0.06614900  1
  O  O14  1  0.26275600  0.89224800  0.70388800  1
  O  O15  1  0.08365800  0.10837800  0.75998300  1
  O  O16  1  0.87499700  0.49138000  0.61957400  1
  O  O17  1  0.78853500  0.74849000  0.93385100  1
  O  O18  1  0.21548900  0.61374200  0.05043800  1
  O  O19  1  0.90877800  0.49872100  0.15153100  1
  O  O20  1  0.58365800  0.89162200  0.74001700  1
  O  O21  1  0.71548900  0.38625800  0.44956200  1
  O  O22  1  0.37499700  0.50862000  0.88042600  1
  O  O23  1  0.85708100  0.87522200  0.65545600  1
  O  O24  1  0.62500300  0.49138000  0.11957400  1
  O  O25  1  0.73724400  0.10775200  0.29611200  1
  O  O26  1  0.40877800  0.50127900  0.34846900  1
  O  O27  1  0.78451100  0.38625800  0.94956200  1
  O  O28  1  0.91634200  0.89162200  0.24001700  1
  O  O29  1  0.23724400  0.89224800  0.20388800  1
  O  O30  1  0.14291900  0.12477800  0.34454400  1
  O  O31  1  0.59122200  0.49872100  0.65153100  1
  O  O32  1  0.28853500  0.25151000  0.56614900  1
  O  O33  1  0.28451100  0.61374200  0.55043800  1
  O  O34  1  0.09122200  0.50127900  0.84846900  1
  O  O35  1  0.41634200  0.10837800  0.25998300  1
  O  O36  1  0.71146500  0.74849000  0.43385100  1
  O  O37  1  0.64291900  0.87522200  0.15545600  1
  O  O38  1  0.76275600  0.10775200  0.79611200  1
  O  O39  1  0.35708100  0.12477800  0.84454400  1
