# generated using pymatgen
data_Ba2V2F11
_symmetry_space_group_name_H-M   'P 1'
_cell_length_a   7.84871562
_cell_length_b   7.84871562
_cell_length_c   14.38830900
_cell_angle_alpha   90.00000000
_cell_angle_beta   90.00000000
_cell_angle_gamma   119.99999677
_symmetry_Int_Tables_number   1
_chemical_formula_structural   Ba2V2F11
_chemical_formula_sum   'Ba6 V6 F33'
_cell_volume   767.60463583
_cell_formula_units_Z   3
loop_
 _symmetry_equiv_pos_site_id
 _symmetry_equiv_pos_as_xyz
  1  'x, y, z'
loop_
 _atom_site_type_symbol
 _atom_site_label
 _atom_site_symmetry_multiplicity
 _atom_site_fract_x
 _atom_site_fract_y
 _atom_site_fract_z
 _atom_site_occupancy
  Ba  Ba0  1  0.58467200  0.17109800  0.65571900  1
  Ba  Ba1  1  0.15438600  0.45917600  0.80966800  1
  Ba  Ba2  1  0.58642600  0.41532800  0.98905300  1
  Ba  Ba3  1  0.54082400  0.69520900  0.47633500  1
  Ba  Ba4  1  0.30479100  0.84561400  0.14300200  1
  Ba  Ba5  1  0.82890200  0.41357400  0.32238600  1
  V  V6  1  0.63440400  0.97341900  0.88656900  1
  V  V7  1  0.84706700  0.77464100  0.72729800  1
  V  V8  1  0.22535900  0.07242600  0.39396500  1
  V  V9  1  0.33901500  0.36559600  0.21990300  1
  V  V10  1  0.92757400  0.15293300  0.06063100  1
  V  V11  1  0.02658100  0.66098500  0.55323600  1
  F  F12  1  0.65704800  0.06067800  0.02817700  1
  F  F13  1  0.51581000  0.71691500  0.94087000  1
  F  F14  1  0.40363000  0.34295200  0.36151000  1
  F  F15  1  0.11068600  0.50332200  0.48857500  1
  F  F16  1  0.52174600  0.27748300  0.18218100  1
  F  F17  1  0.95949600  0.60556100  0.17446000  1
  F  F18  1  0.49667800  0.60736400  0.15524200  1
  F  F19  1  0.39443900  0.35393500  0.84112600  1
  F  F20  1  0.75573700  0.47825400  0.51551500  1
  F  F21  1  0.20420900  0.28689200  0.09215400  1
  F  F22  1  0.39263600  0.88931400  0.82190800  1
  F  F23  1  0.93932200  0.59637000  0.69484300  1
  F  F24  1  0.33071000  0.05066700  0.00913800  1
  F  F25  1  0.98415700  0.39715500  0.01433100  1
  F  F26  1  0.71995700  0.66929000  0.34247100  1
  F  F27  1  0.28308500  0.79889500  0.60753700  1
  F  F28  1  0.92412200  0.09289200  0.92262700  1
  F  F29  1  0.08268300  0.79579100  0.42548700  1
  F  F30  1  0.01658700  0.10056600  0.40634500  1
  F  F31  1  0.94933300  0.28004300  0.67580400  1
  F  F32  1  0.08397900  0.98341300  0.73967900  1
  F  F33  1  0.60284500  0.58700200  0.68099700  1
  F  F34  1  0.41299800  0.01584300  0.34766400  1
  F  F35  1  0.16877000  0.07587800  0.25596000  1
  F  F36  1  0.71310800  0.91731700  0.75882100  1
  F  F37  1  0.72251700  0.24426300  0.84884800  1
  F  F38  1  0.20110500  0.48419000  0.27420400  1
  F  F39  1  0.82323800  0.68947500  0.84795400  1
  F  F40  1  0.86623700  0.17676200  0.18128800  1
  F  F41  1  0.89943400  0.91602100  0.07301200  1
  F  F42  1  0.64606500  0.04050400  0.50779300  1
  F  F43  1  0.90710800  0.83123000  0.58929400  1
  F  F44  1  0.31052500  0.13376300  0.51462100  1
