# generated using pymatgen
data_MgMn2(PO4)2
_symmetry_space_group_name_H-M   'P 1'
_cell_length_a   5.12241061
_cell_length_b   8.45578475
_cell_length_c   15.55314440
_cell_angle_alpha   89.49925213
_cell_angle_beta   80.49091637
_cell_angle_gamma   72.38324327
_symmetry_Int_Tables_number   1
_chemical_formula_structural   MgMn2(PO4)2
_chemical_formula_sum   'Mg4 Mn8 P8 O32'
_cell_volume   632.64255210
_cell_formula_units_Z   4
loop_
 _symmetry_equiv_pos_site_id
 _symmetry_equiv_pos_as_xyz
  1  'x, y, z'
loop_
 _atom_site_type_symbol
 _atom_site_label
 _atom_site_symmetry_multiplicity
 _atom_site_fract_x
 _atom_site_fract_y
 _atom_site_fract_z
 _atom_site_occupancy
  Mg  Mg0  1  0.47814800  0.80890600  0.84690400  1
  Mg  Mg1  1  0.13254000  0.69101200  0.65352600  1
  Mg  Mg2  1  0.86416000  0.30916600  0.34681700  1
  Mg  Mg3  1  0.51972300  0.18974200  0.15362400  1
  Mn  Mn4  1  0.23689100  0.19902900  0.96653100  1
  Mn  Mn5  1  0.40234300  0.30175800  0.53342200  1
  Mn  Mn6  1  0.76064500  0.80097900  0.03344900  1
  Mn  Mn7  1  0.49668600  0.50009700  0.00054600  1
  Mn  Mn8  1  0.59360400  0.69960400  0.46671000  1
  Mn  Mn9  1  0.51668200  0.75034300  0.25052500  1
  Mn  Mn10  1  0.47877100  0.24981700  0.75045800  1
  Mn  Mn11  1  0.99808700  0.00114700  0.50049500  1
  P  P12  1  0.06571600  0.56472900  0.86203200  1
  P  P13  1  0.77541200  0.43400300  0.61771600  1
  P  P14  1  0.92801400  0.43560800  0.13835900  1
  P  P15  1  0.17081600  0.93340800  0.11772600  1
  P  P16  1  0.50449100  0.06448300  0.36199500  1
  P  P17  1  0.49308400  0.93620500  0.63840900  1
  P  P18  1  0.21991100  0.56695700  0.38250700  1
  P  P19  1  0.82771800  0.06683100  0.88260700  1
  O  O20  1  0.70362700  0.36941400  0.10763300  1
  O  O21  1  0.68501700  0.93242700  0.91626300  1
  O  O22  1  0.81389400  0.86917500  0.60686800  1
  O  O23  1  0.82800400  0.27095800  0.56202300  1
  O  O24  1  0.18734800  0.39344000  0.06333300  1
  O  O25  1  0.67652500  0.42014500  0.71450100  1
  O  O26  1  0.66062400  0.22974400  0.93833500  1
  O  O27  1  0.86458800  0.98539500  0.10138600  1
  O  O28  1  0.16826800  0.73009500  0.43803500  1
  O  O29  1  0.53251400  0.56810000  0.58370700  1
  O  O30  1  0.82104500  0.62883200  0.14721000  1
  O  O31  1  0.58861300  0.14813400  0.27850100  1
  O  O32  1  0.31498600  0.06684500  0.08330300  1
  O  O33  1  0.04629000  0.48598700  0.60175600  1
  O  O34  1  0.28794100  0.63165800  0.89360400  1
  O  O35  1  0.17398200  0.37152500  0.85347800  1
  O  O36  1  0.98012400  0.64935900  0.77884600  1
  O  O37  1  0.33730600  0.76961400  0.06271600  1
  O  O38  1  0.40008000  0.12955200  0.64655300  1
  O  O39  1  0.40900600  0.85229000  0.72182400  1
  O  O40  1  0.94936500  0.51460200  0.39888600  1
  O  O41  1  0.34807600  0.89342600  0.56434600  1
  O  O42  1  0.13423900  0.01447500  0.89886000  1
  O  O43  1  0.18516500  0.92095700  0.21466500  1
  O  O44  1  0.46347700  0.43286800  0.41621600  1
  O  O45  1  0.18378100  0.13162400  0.39362600  1
  O  O46  1  0.01584500  0.35028800  0.22116000  1
  O  O47  1  0.64967400  0.10780300  0.43586800  1
  O  O48  1  0.80367100  0.60739800  0.93616600  1
  O  O49  1  0.81364200  0.08141200  0.78575500  1
  O  O50  1  0.31653500  0.58098100  0.28558800  1
  O  O51  1  0.59764200  0.87116800  0.35384900  1
