# generated using pymatgen
data_MgFe2(PO4)2
_symmetry_space_group_name_H-M   'P 1'
_cell_length_a   8.87978472
_cell_length_b   8.87978472
_cell_length_c   16.54759920
_cell_angle_alpha   61.44010649
_cell_angle_beta   61.44010649
_cell_angle_gamma   33.57190671
_symmetry_Int_Tables_number   1
_chemical_formula_structural   MgFe2(PO4)2
_chemical_formula_sum   'Mg4 Fe8 P8 O32'
_cell_volume   625.12812379
_cell_formula_units_Z   4
loop_
 _symmetry_equiv_pos_site_id
 _symmetry_equiv_pos_as_xyz
  1  'x, y, z'
loop_
 _atom_site_type_symbol
 _atom_site_label
 _atom_site_symmetry_multiplicity
 _atom_site_fract_x
 _atom_site_fract_y
 _atom_site_fract_z
 _atom_site_occupancy
  Mg  Mg0  1  0.14161000  0.55917700  0.12359400  1
  Mg  Mg1  1  0.44082300  0.85839000  0.37640600  1
  Mg  Mg2  1  0.55917700  0.14161000  0.62359400  1
  Mg  Mg3  1  0.85839000  0.44082300  0.87640600  1
  Fe  Fe4  1  0.39418100  0.79620400  0.03398500  1
  Fe  Fe5  1  0.20379600  0.60581900  0.46601500  1
  Fe  Fe6  1  0.60581900  0.20379600  0.96601500  1
  Fe  Fe7  1  0.00000000  0.50000000  0.00000000  1
  Fe  Fe8  1  0.79620400  0.39418100  0.53398500  1
  Fe  Fe9  1  0.57480100  0.42519900  0.75000000  1
  Fe  Fe10  1  0.42519900  0.57480100  0.25000000  1
  Fe  Fe11  1  0.50000000  0.00000000  0.50000000  1
  P  P12  1  0.48740000  0.93646900  0.14416400  1
  P  P13  1  0.82011900  0.22186900  0.38879500  1
  P  P14  1  0.51260000  0.06353100  0.85583600  1
  P  P15  1  0.22186900  0.82011900  0.88879500  1
  P  P16  1  0.93646900  0.48740000  0.64416400  1
  P  P17  1  0.06353100  0.51260000  0.35583600  1
  P  P18  1  0.17988100  0.77813100  0.61120500  1
  P  P19  1  0.77813100  0.17988100  0.11120500  1
  O  O20  1  0.19975800  0.27490800  0.90052000  1
  O  O21  1  0.57336700  0.26071100  0.08055500  1
  O  O22  1  0.27490800  0.19975800  0.40052000  1
  O  O23  1  0.64662200  0.19102400  0.45889600  1
  O  O24  1  0.67465400  0.78494600  0.92751800  1
  O  O25  1  0.76268500  0.34195700  0.28980500  1
  O  O26  1  0.80897600  0.35337800  0.04110400  1
  O  O27  1  0.92951400  0.13207500  0.89534400  1
  O  O28  1  0.35337800  0.80897600  0.54110400  1
  O  O29  1  0.73928900  0.42663300  0.41944500  1
  O  O30  1  0.60454100  0.15716800  0.85590600  1
  O  O31  1  0.97116800  0.43168500  0.73881600  1
  O  O32  1  0.42663300  0.73928900  0.91944500  1
  O  O33  1  0.13207500  0.92951400  0.39534400  1
  O  O34  1  0.80024200  0.72509200  0.09948000  1
  O  O35  1  0.39545900  0.84283200  0.14409400  1
  O  O36  1  0.43168500  0.97116800  0.23881600  1
  O  O37  1  0.19102400  0.64662200  0.95889600  1
  O  O38  1  0.15716800  0.60454100  0.35590600  1
  O  O39  1  0.02883200  0.56831500  0.26118400  1
  O  O40  1  0.86792500  0.07048600  0.60465600  1
  O  O41  1  0.78494600  0.67465400  0.42751800  1
  O  O42  1  0.07048600  0.86792500  0.10465600  1
  O  O43  1  0.34195700  0.76268500  0.78980500  1
  O  O44  1  0.26071100  0.57336700  0.58055500  1
  O  O45  1  0.72509200  0.80024200  0.59948000  1
  O  O46  1  0.56831500  0.02883200  0.76118400  1
  O  O47  1  0.21505400  0.32534600  0.57248200  1
  O  O48  1  0.32534600  0.21505400  0.07248200  1
  O  O49  1  0.65804300  0.23731500  0.21019500  1
  O  O50  1  0.23731500  0.65804300  0.71019500  1
  O  O51  1  0.84283200  0.39545900  0.64409400  1
