# generated using pymatgen
data_Ta2Zn(CuO4)2
_symmetry_space_group_name_H-M   'P 1'
_cell_length_a   8.68392800
_cell_length_b   6.65667800
_cell_length_c   12.27046827
_cell_angle_alpha   88.07146132
_cell_angle_beta   90.00000000
_cell_angle_gamma   90.00000000
_symmetry_Int_Tables_number   1
_chemical_formula_structural   Ta2Zn(CuO4)2
_chemical_formula_sum   'Ta8 Zn4 Cu8 O32'
_cell_volume   708.90630080
_cell_formula_units_Z   4
loop_
 _symmetry_equiv_pos_site_id
 _symmetry_equiv_pos_as_xyz
  1  'x, y, z'
loop_
 _atom_site_type_symbol
 _atom_site_label
 _atom_site_symmetry_multiplicity
 _atom_site_fract_x
 _atom_site_fract_y
 _atom_site_fract_z
 _atom_site_occupancy
  Ta  Ta0  1  0.54533800  0.90270600  0.84422700  1
  Ta  Ta1  1  0.95466200  0.90270600  0.34422700  1
  Ta  Ta2  1  0.91173000  0.38825500  0.13570400  1
  Ta  Ta3  1  0.04533800  0.09729400  0.65577300  1
  Ta  Ta4  1  0.08827000  0.61174500  0.86429600  1
  Ta  Ta5  1  0.41173000  0.61174500  0.36429600  1
  Ta  Ta6  1  0.58827000  0.38825500  0.63570400  1
  Ta  Ta7  1  0.45466200  0.09729400  0.15577300  1
  Zn  Zn8  1  0.83662000  0.89138000  0.05246900  1
  Zn  Zn9  1  0.16338000  0.10862000  0.94753100  1
  Zn  Zn10  1  0.33662000  0.10862000  0.44753100  1
  Zn  Zn11  1  0.66338000  0.89138000  0.55246900  1
  Cu  Cu12  1  0.81559200  0.23472800  0.87721500  1
  Cu  Cu13  1  0.94113200  0.62445000  0.62397200  1
  Cu  Cu14  1  0.05886800  0.37555000  0.37602800  1
  Cu  Cu15  1  0.18440800  0.76527200  0.12278500  1
  Cu  Cu16  1  0.68440800  0.23472800  0.37721500  1
  Cu  Cu17  1  0.55886800  0.62445000  0.12397200  1
  Cu  Cu18  1  0.31559200  0.76527200  0.62278500  1
  Cu  Cu19  1  0.44113200  0.37555000  0.87602800  1
  O  O20  1  0.75667000  0.96253600  0.40041300  1
  O  O21  1  0.98406700  0.34650600  0.60154400  1
  O  O22  1  0.41999900  0.81122200  0.47212600  1
  O  O23  1  0.91999900  0.18877800  0.02787400  1
  O  O24  1  0.74333000  0.96253600  0.90041300  1
  O  O25  1  0.24333000  0.03746400  0.59958700  1
  O  O26  1  0.89299100  0.91088000  0.61310100  1
  O  O27  1  0.10229500  0.50054800  0.13839500  1
  O  O28  1  0.39770500  0.50054800  0.63839500  1
  O  O29  1  0.12753200  0.70039600  0.71622100  1
  O  O30  1  0.62753200  0.29960400  0.78377900  1
  O  O31  1  0.89770500  0.49945200  0.86160500  1
  O  O32  1  0.10700900  0.08912000  0.38689900  1
  O  O33  1  0.45617100  0.11732400  0.30534200  1
  O  O34  1  0.72251300  0.58937600  0.58645700  1
  O  O35  1  0.77748700  0.58937600  0.08645700  1
  O  O36  1  0.95617100  0.88267600  0.19465800  1
  O  O37  1  0.60229500  0.49945200  0.36160500  1
  O  O38  1  0.54382900  0.88267600  0.69465800  1
  O  O39  1  0.58000100  0.18877800  0.52787400  1
  O  O40  1  0.51593300  0.34650600  0.10154400  1
  O  O41  1  0.87246800  0.29960400  0.28377900  1
  O  O42  1  0.25667000  0.03746400  0.09958700  1
  O  O43  1  0.60700900  0.91088000  0.11310100  1
  O  O44  1  0.08000100  0.81122200  0.97212600  1
  O  O45  1  0.22251300  0.41062400  0.91354300  1
  O  O46  1  0.01593300  0.65349400  0.39845600  1
  O  O47  1  0.48406700  0.65349400  0.89845600  1
  O  O48  1  0.39299100  0.08912000  0.88689900  1
  O  O49  1  0.27748700  0.41062400  0.41354300  1
  O  O50  1  0.37246800  0.70039600  0.21622100  1
  O  O51  1  0.04382900  0.11732400  0.80534200  1
