# generated using pymatgen
data_P2W2O9
_symmetry_space_group_name_H-M   'P 1'
_cell_length_a   6.58940300
_cell_length_b   7.93062000
_cell_length_c   14.62967000
_cell_angle_alpha   90.00000000
_cell_angle_beta   90.00000000
_cell_angle_gamma   90.00000000
_symmetry_Int_Tables_number   1
_chemical_formula_structural   P2W2O9
_chemical_formula_sum   'P8 W8 O36'
_cell_volume   764.51804419
_cell_formula_units_Z   4
loop_
 _symmetry_equiv_pos_site_id
 _symmetry_equiv_pos_as_xyz
  1  'x, y, z'
loop_
 _atom_site_type_symbol
 _atom_site_label
 _atom_site_symmetry_multiplicity
 _atom_site_fract_x
 _atom_site_fract_y
 _atom_site_fract_z
 _atom_site_occupancy
  P  P0  1  0.75000000  0.85759800  0.43769000  1
  P  P1  1  0.25000000  0.14240200  0.56231000  1
  P  P2  1  0.25000000  0.35759800  0.06231000  1
  P  P3  1  0.75000000  0.64240200  0.93769000  1
  P  P4  1  0.25000000  0.90089000  0.18885300  1
  P  P5  1  0.25000000  0.59911000  0.68885300  1
  P  P6  1  0.75000000  0.40089000  0.31114700  1
  P  P7  1  0.75000000  0.09911000  0.81114700  1
  W  W8  1  0.25000000  0.85840300  0.37201400  1
  W  W9  1  0.75000000  0.14159700  0.62798600  1
  W  W10  1  0.75000000  0.35840300  0.12798600  1
  W  W11  1  0.25000000  0.64159700  0.87201400  1
  W  W12  1  0.00000000  0.50000000  0.50000000  1
  W  W13  1  0.00000000  0.00000000  0.00000000  1
  W  W14  1  0.50000000  0.00000000  0.00000000  1
  W  W15  1  0.50000000  0.50000000  0.50000000  1
  O  O16  1  0.55901900  0.09656900  0.87360900  1
  O  O17  1  0.05901900  0.90343100  0.12639100  1
  O  O18  1  0.44098100  0.59656900  0.62639100  1
  O  O19  1  0.94098100  0.40343100  0.37360900  1
  O  O20  1  0.44098100  0.90343100  0.12639100  1
  O  O21  1  0.94098100  0.09656900  0.87360900  1
  O  O22  1  0.55901900  0.40343100  0.37360900  1
  O  O23  1  0.05901900  0.59656900  0.62639100  1
  O  O24  1  0.75000000  0.82657300  0.98302900  1
  O  O25  1  0.25000000  0.17342700  0.01697100  1
  O  O26  1  0.25000000  0.32657300  0.51697100  1
  O  O27  1  0.75000000  0.67342700  0.48302900  1
  O  O28  1  0.25000000  0.63152600  0.45291600  1
  O  O29  1  0.75000000  0.36847400  0.54708400  1
  O  O30  1  0.75000000  0.13152600  0.04708400  1
  O  O31  1  0.25000000  0.86847400  0.95291600  1
  O  O32  1  0.25000000  0.73607500  0.24962800  1
  O  O33  1  0.75000000  0.26392500  0.75037200  1
  O  O34  1  0.75000000  0.23607500  0.25037200  1
  O  O35  1  0.25000000  0.76392500  0.74962800  1
  O  O36  1  0.94054500  0.63250200  0.87884700  1
  O  O37  1  0.44054500  0.36749800  0.12115300  1
  O  O38  1  0.05945500  0.13250200  0.62115300  1
  O  O39  1  0.55945500  0.86749800  0.37884700  1
  O  O40  1  0.05945500  0.36749800  0.12115300  1
  O  O41  1  0.55945500  0.63250200  0.87884700  1
  O  O42  1  0.94054500  0.86749800  0.37884700  1
  O  O43  1  0.44054500  0.13250200  0.62115300  1
  O  O44  1  0.25000000  0.00948300  0.48761100  1
  O  O45  1  0.75000000  0.53962400  0.23692000  1
  O  O46  1  0.75000000  0.96037600  0.73692000  1
  O  O47  1  0.25000000  0.03962400  0.26308000  1
  O  O48  1  0.25000000  0.49051700  0.98761100  1
  O  O49  1  0.75000000  0.50948300  0.01238900  1
  O  O50  1  0.75000000  0.99051700  0.51238900  1
  O  O51  1  0.25000000  0.46037600  0.76308000  1
