# generated using pymatgen
data_CaP2W2O9
_symmetry_space_group_name_H-M   'P 1'
_cell_length_a   6.77747400
_cell_length_b   7.44016400
_cell_length_c   15.14450300
_cell_angle_alpha   90.00000000
_cell_angle_beta   90.00000000
_cell_angle_gamma   90.00000000
_symmetry_Int_Tables_number   1
_chemical_formula_structural   CaP2W2O9
_chemical_formula_sum   'Ca4 P8 W8 O36'
_cell_volume   763.66940962
_cell_formula_units_Z   4
loop_
 _symmetry_equiv_pos_site_id
 _symmetry_equiv_pos_as_xyz
  1  'x, y, z'
loop_
 _atom_site_type_symbol
 _atom_site_label
 _atom_site_symmetry_multiplicity
 _atom_site_fract_x
 _atom_site_fract_y
 _atom_site_fract_z
 _atom_site_occupancy
  Ca  Ca0  1  0.75000000  0.39828600  0.27797200  1
  Ca  Ca1  1  0.75000000  0.10171400  0.77797200  1
  Ca  Ca2  1  0.25000000  0.89828600  0.22202800  1
  Ca  Ca3  1  0.25000000  0.60171400  0.72202800  1
  P  P4  1  0.25000000  0.87025200  0.42706300  1
  P  P5  1  0.75000000  0.12974800  0.57293700  1
  P  P6  1  0.75000000  0.37025200  0.07293700  1
  P  P7  1  0.25000000  0.62974800  0.92706300  1
  P  P8  1  0.75000000  0.89795300  0.19045200  1
  P  P9  1  0.75000000  0.60204700  0.69045200  1
  P  P10  1  0.25000000  0.39795300  0.30954800  1
  P  P11  1  0.25000000  0.10204700  0.80954800  1
  W  W12  1  0.75000000  0.86767100  0.37613300  1
  W  W13  1  0.25000000  0.13232900  0.62386700  1
  W  W14  1  0.25000000  0.36767100  0.12386700  1
  W  W15  1  0.75000000  0.63232900  0.87613300  1
  W  W16  1  0.50000000  0.50000000  0.50000000  1
  W  W17  1  0.50000000  0.00000000  0.00000000  1
  W  W18  1  0.00000000  0.00000000  0.00000000  1
  W  W19  1  0.00000000  0.50000000  0.50000000  1
  O  O20  1  0.05811600  0.10030000  0.86560600  1
  O  O21  1  0.55811600  0.89970000  0.13439400  1
  O  O22  1  0.94188400  0.60030000  0.63439400  1
  O  O23  1  0.44188400  0.39970000  0.36560600  1
  O  O24  1  0.94188400  0.89970000  0.13439400  1
  O  O25  1  0.44188400  0.10030000  0.86560600  1
  O  O26  1  0.05811600  0.39970000  0.36560600  1
  O  O27  1  0.55811600  0.60030000  0.63439400  1
  O  O28  1  0.25000000  0.81753400  0.97643400  1
  O  O29  1  0.75000000  0.18246600  0.02356600  1
  O  O30  1  0.75000000  0.31753400  0.52356600  1
  O  O31  1  0.25000000  0.68246600  0.47643400  1
  O  O32  1  0.75000000  0.61797300  0.43814500  1
  O  O33  1  0.25000000  0.38202700  0.56185500  1
  O  O34  1  0.25000000  0.11797300  0.06185500  1
  O  O35  1  0.75000000  0.88202700  0.93814500  1
  O  O36  1  0.75000000  0.72562300  0.24959900  1
  O  O37  1  0.25000000  0.27437700  0.75040100  1
  O  O38  1  0.25000000  0.22562300  0.25040100  1
  O  O39  1  0.75000000  0.77437700  0.74959900  1
  O  O40  1  0.42950100  0.62382800  0.86338300  1
  O  O41  1  0.92950100  0.37617200  0.13661700  1
  O  O42  1  0.57049900  0.12382800  0.63661700  1
  O  O43  1  0.07049900  0.87617200  0.36338300  1
  O  O44  1  0.57049900  0.37617200  0.13661700  1
  O  O45  1  0.07049900  0.62382800  0.86338300  1
  O  O46  1  0.42950100  0.87617200  0.36338300  1
  O  O47  1  0.92950100  0.12382800  0.63661700  1
  O  O48  1  0.75000000  0.98237100  0.50509500  1
  O  O49  1  0.25000000  0.55749700  0.24111400  1
  O  O50  1  0.25000000  0.94250300  0.74111400  1
  O  O51  1  0.75000000  0.05749700  0.25888600  1
  O  O52  1  0.75000000  0.51762900  0.00509500  1
  O  O53  1  0.25000000  0.48237100  0.99490500  1
  O  O54  1  0.25000000  0.01762900  0.49490500  1
  O  O55  1  0.75000000  0.44250300  0.75888600  1
