# generated using pymatgen
data_ZnCu2(MoO4)2
_symmetry_space_group_name_H-M   'P 1'
_cell_length_a   8.71030200
_cell_length_b   6.59676800
_cell_length_c   12.63325486
_cell_angle_alpha   88.27263175
_cell_angle_beta   90.00000000
_cell_angle_gamma   90.00000000
_symmetry_Int_Tables_number   1
_chemical_formula_structural   ZnCu2(MoO4)2
_chemical_formula_sum   'Zn4 Cu8 Mo8 O32'
_cell_volume   725.57495303
_cell_formula_units_Z   4
loop_
 _symmetry_equiv_pos_site_id
 _symmetry_equiv_pos_as_xyz
  1  'x, y, z'
loop_
 _atom_site_type_symbol
 _atom_site_label
 _atom_site_symmetry_multiplicity
 _atom_site_fract_x
 _atom_site_fract_y
 _atom_site_fract_z
 _atom_site_occupancy
  Zn  Zn0  1  0.83545900  0.89177700  0.05260700  1
  Zn  Zn1  1  0.16454100  0.10822300  0.94739300  1
  Zn  Zn2  1  0.33545900  0.10822300  0.44739300  1
  Zn  Zn3  1  0.66454100  0.89177700  0.55260700  1
  Cu  Cu4  1  0.81983200  0.23105900  0.86724600  1
  Cu  Cu5  1  0.94649700  0.62234200  0.61949400  1
  Cu  Cu6  1  0.05350300  0.37765800  0.38050600  1
  Cu  Cu7  1  0.18016800  0.76894100  0.13275400  1
  Cu  Cu8  1  0.68016800  0.23105900  0.36724600  1
  Cu  Cu9  1  0.55350300  0.62234200  0.11949400  1
  Cu  Cu10  1  0.31983200  0.76894100  0.63275400  1
  Cu  Cu11  1  0.44649700  0.37765800  0.88050600  1
  Mo  Mo12  1  0.54331200  0.90054400  0.84551200  1
  Mo  Mo13  1  0.95668800  0.90054400  0.34551200  1
  Mo  Mo14  1  0.91786100  0.38874000  0.13121600  1
  Mo  Mo15  1  0.04331200  0.09945600  0.65448800  1
  Mo  Mo16  1  0.08213900  0.61126000  0.86878400  1
  Mo  Mo17  1  0.41786100  0.61126000  0.36878400  1
  Mo  Mo18  1  0.58213900  0.38874000  0.63121600  1
  Mo  Mo19  1  0.45668800  0.09945600  0.15448800  1
  O  O20  1  0.76668400  0.95953300  0.40070000  1
  O  O21  1  0.98726800  0.34085300  0.60026500  1
  O  O22  1  0.42382600  0.82129700  0.46484800  1
  O  O23  1  0.92382600  0.17870300  0.03515200  1
  O  O24  1  0.73331600  0.95953300  0.90070000  1
  O  O25  1  0.23331600  0.04046700  0.59930000  1
  O  O26  1  0.89659800  0.91632600  0.61344600  1
  O  O27  1  0.10393900  0.49532600  0.13604000  1
  O  O28  1  0.39606100  0.49532600  0.63604000  1
  O  O29  1  0.12954200  0.69363200  0.73479500  1
  O  O30  1  0.62954200  0.30636800  0.76520500  1
  O  O31  1  0.89606100  0.50467400  0.86396000  1
  O  O32  1  0.10340200  0.08367400  0.38655400  1
  O  O33  1  0.45692900  0.12079100  0.29696600  1
  O  O34  1  0.70977300  0.59369600  0.58571500  1
  O  O35  1  0.79022700  0.59369600  0.08571500  1
  O  O36  1  0.95692900  0.87920900  0.20303400  1
  O  O37  1  0.60393900  0.50467400  0.36396000  1
  O  O38  1  0.54307100  0.87920900  0.70303400  1
  O  O39  1  0.57617400  0.17870300  0.53515200  1
  O  O40  1  0.51273200  0.34085300  0.10026500  1
  O  O41  1  0.87045800  0.30636800  0.26520500  1
  O  O42  1  0.26668400  0.04046700  0.09930000  1
  O  O43  1  0.60340200  0.91632600  0.11344600  1
  O  O44  1  0.07617400  0.82129700  0.96484800  1
  O  O45  1  0.20977300  0.40630400  0.91428500  1
  O  O46  1  0.01273200  0.65914700  0.39973500  1
  O  O47  1  0.48726800  0.65914700  0.89973500  1
  O  O48  1  0.39659800  0.08367400  0.88655400  1
  O  O49  1  0.29022700  0.40630400  0.41428500  1
  O  O50  1  0.37045800  0.69363200  0.23479500  1
  O  O51  1  0.04307100  0.12079100  0.79696600  1
