# generated using pymatgen
data_V3ZnP3O13
_symmetry_space_group_name_H-M   'P 1'
_cell_length_a   6.32833800
_cell_length_b   7.49484200
_cell_length_c   10.74866327
_cell_angle_alpha   80.54214882
_cell_angle_beta   90.00000000
_cell_angle_gamma   90.00000000
_symmetry_Int_Tables_number   1
_chemical_formula_structural   V3ZnP3O13
_chemical_formula_sum   'V6 Zn2 P6 O26'
_cell_volume   502.87800633
_cell_formula_units_Z   2
loop_
 _symmetry_equiv_pos_site_id
 _symmetry_equiv_pos_as_xyz
  1  'x, y, z'
loop_
 _atom_site_type_symbol
 _atom_site_label
 _atom_site_symmetry_multiplicity
 _atom_site_fract_x
 _atom_site_fract_y
 _atom_site_fract_z
 _atom_site_occupancy
  V  V0  1  0.25000000  0.63956300  0.20408100  1
  V  V1  1  0.75000000  0.36043700  0.79591900  1
  V  V2  1  0.25000000  0.22411700  0.44329200  1
  V  V3  1  0.50000000  0.00000000  0.00000000  1
  V  V4  1  0.75000000  0.77588300  0.55670800  1
  V  V5  1  0.00000000  0.00000000  0.00000000  1
  Zn  Zn6  1  0.75000000  0.39687400  0.13915600  1
  Zn  Zn7  1  0.25000000  0.60312600  0.86084400  1
  P  P8  1  0.25000000  0.77799700  0.48484700  1
  P  P9  1  0.75000000  0.22200300  0.51515300  1
  P  P10  1  0.25000000  0.26627900  0.76688000  1
  P  P11  1  0.75000000  0.73372100  0.23312000  1
  P  P12  1  0.75000000  0.68736200  0.87823000  1
  P  P13  1  0.25000000  0.31263800  0.12177000  1
  O  O14  1  0.75000000  0.64677300  0.74290400  1
  O  O15  1  0.55466600  0.26432100  0.42879100  1
  O  O16  1  0.25000000  0.21396600  0.63785400  1
  O  O17  1  0.53961200  0.78270400  0.90326700  1
  O  O18  1  0.75000000  0.34710500  0.61546600  1
  O  O19  1  0.75000000  0.11925700  0.90820700  1
  O  O20  1  0.25000000  0.65289500  0.38453400  1
  O  O21  1  0.03961200  0.21729600  0.09673300  1
  O  O22  1  0.25000000  0.97750500  0.41686800  1
  O  O23  1  0.75000000  0.02249500  0.58313200  1
  O  O24  1  0.06382400  0.39288200  0.79516800  1
  O  O25  1  0.25000000  0.88074300  0.09179300  1
  O  O26  1  0.56382400  0.60711800  0.20483200  1
  O  O27  1  0.75000000  0.49117500  0.95689600  1
  O  O28  1  0.75000000  0.78603400  0.36214600  1
  O  O29  1  0.46038800  0.21729600  0.09673300  1
  O  O30  1  0.94533400  0.26432100  0.42879100  1
  O  O31  1  0.44533400  0.73567900  0.57120900  1
  O  O32  1  0.43617600  0.39288200  0.79516800  1
  O  O33  1  0.25000000  0.35322700  0.25709600  1
  O  O34  1  0.75000000  0.90373100  0.12679200  1
  O  O35  1  0.25000000  0.09626900  0.87320800  1
  O  O36  1  0.93617600  0.60711800  0.20483200  1
  O  O37  1  0.96038800  0.78270400  0.90326700  1
  O  O38  1  0.05466600  0.73567900  0.57120900  1
  O  O39  1  0.25000000  0.50882500  0.04310400  1
