# generated using pymatgen
data_CaV2O4
_symmetry_space_group_name_H-M   'P 1'
_cell_length_a   6.27281376
_cell_length_b   6.27281376
_cell_length_c   15.63099900
_cell_angle_alpha   90.00000000
_cell_angle_beta   90.00000000
_cell_angle_gamma   119.99999747
_symmetry_Int_Tables_number   1
_chemical_formula_structural   CaV2O4
_chemical_formula_sum   'Ca6 V12 O24'
_cell_volume   532.65028668
_cell_formula_units_Z   6
loop_
 _symmetry_equiv_pos_site_id
 _symmetry_equiv_pos_as_xyz
  1  'x, y, z'
loop_
 _atom_site_type_symbol
 _atom_site_label
 _atom_site_symmetry_multiplicity
 _atom_site_fract_x
 _atom_site_fract_y
 _atom_site_fract_z
 _atom_site_occupancy
  Ca  Ca0  1  0.66666700  0.33333300  0.04595800  1
  Ca  Ca1  1  0.00000000  0.00000000  0.37793000  1
  Ca  Ca2  1  0.33333300  0.66666700  0.33627300  1
  Ca  Ca3  1  0.33333300  0.66666700  0.71089800  1
  Ca  Ca4  1  0.00000000  0.00000000  0.99671500  1
  Ca  Ca5  1  0.00000000  0.00000000  0.62257500  1
  V  V6  1  0.16256000  0.32512000  0.16667100  1
  V  V7  1  0.16256000  0.83744000  0.16667100  1
  V  V8  1  0.49773500  0.99547100  0.50278300  1
  V  V9  1  0.67488000  0.83744000  0.16667100  1
  V  V10  1  0.49773500  0.50226500  0.50278300  1
  V  V11  1  0.66666700  0.33333300  0.66437100  1
  V  V12  1  0.66666700  0.33333300  0.28744300  1
  V  V13  1  0.82953700  0.65907300  0.83101500  1
  V  V14  1  0.00452900  0.50226500  0.50278300  1
  V  V15  1  0.82953700  0.17046300  0.83101500  1
  V  V16  1  0.34092700  0.17046300  0.83101500  1
  V  V17  1  0.33333300  0.66666700  0.95562100  1
  O  O18  1  0.85236800  0.70473700  0.09920200  1
  O  O19  1  0.00000000  0.00000000  0.23671800  1
  O  O20  1  0.85236800  0.14763200  0.09920200  1
  O  O21  1  0.29526300  0.14763200  0.09920200  1
  O  O22  1  0.18211400  0.36422700  0.43808500  1
  O  O23  1  0.00968400  0.50484200  0.23789100  1
  O  O24  1  0.33333300  0.66666700  0.57222500  1
  O  O25  1  0.49515800  0.50484200  0.23789100  1
  O  O26  1  0.33333300  0.66666700  0.08246300  1
  O  O27  1  0.18211400  0.81788600  0.43808500  1
  O  O28  1  0.63577300  0.81788600  0.43808500  1
  O  O29  1  0.49515800  0.99031600  0.23789100  1
  O  O30  1  0.52549800  0.05099500  0.75423300  1
  O  O31  1  0.38569900  0.19284900  0.57776300  1
  O  O32  1  0.80715100  0.19284900  0.57776300  1
  O  O33  1  0.66666700  0.33333300  0.89797400  1
  O  O34  1  0.66666700  0.33333300  0.41271600  1
  O  O35  1  0.52549800  0.47450200  0.75423300  1
  O  O36  1  0.94900500  0.47450200  0.75423300  1
  O  O37  1  0.80715100  0.61430100  0.57776300  1
  O  O38  1  0.66591800  0.83295900  0.90365600  1
  O  O39  1  0.16704100  0.83295900  0.90365600  1
  O  O40  1  0.00000000  0.00000000  0.76977600  1
  O  O41  1  0.16704100  0.33408200  0.90365600  1
