# generated using pymatgen
data_BaCaMoF7
_symmetry_space_group_name_H-M   'P 1'
_cell_length_a   10.67442800
_cell_length_b   5.93274900
_cell_length_c   10.25928977
_cell_angle_alpha   88.64973998
_cell_angle_beta   90.00000000
_cell_angle_gamma   90.00000000
_symmetry_Int_Tables_number   1
_chemical_formula_structural   BaCaMoF7
_chemical_formula_sum   'Ba4 Ca4 Mo4 F28'
_cell_volume   649.52709611
_cell_formula_units_Z   4
loop_
 _symmetry_equiv_pos_site_id
 _symmetry_equiv_pos_as_xyz
  1  'x, y, z'
loop_
 _atom_site_type_symbol
 _atom_site_label
 _atom_site_symmetry_multiplicity
 _atom_site_fract_x
 _atom_site_fract_y
 _atom_site_fract_z
 _atom_site_occupancy
  Ba  Ba0  1  0.33624600  0.73154600  0.50101800  1
  Ba  Ba1  1  0.83624600  0.26845400  0.99898200  1
  Ba  Ba2  1  0.66375400  0.26845400  0.49898200  1
  Ba  Ba3  1  0.16375400  0.73154600  0.00101800  1
  Ca  Ca4  1  0.40680200  0.30254000  0.82006400  1
  Ca  Ca5  1  0.90680200  0.69746000  0.67993600  1
  Ca  Ca6  1  0.09319800  0.30254000  0.32006400  1
  Ca  Ca7  1  0.59319800  0.69746000  0.17993600  1
  Mo  Mo8  1  0.62080700  0.81167800  0.80910000  1
  Mo  Mo9  1  0.37919300  0.18832200  0.19090000  1
  Mo  Mo10  1  0.87919300  0.81167800  0.30910000  1
  Mo  Mo11  1  0.12080700  0.18832200  0.69090000  1
  F  F12  1  0.42302600  0.88150700  0.10610600  1
  F  F13  1  0.04360800  0.65255400  0.37532900  1
  F  F14  1  0.70819000  0.51981800  0.73273300  1
  F  F15  1  0.29181000  0.48018200  0.26726700  1
  F  F16  1  0.46362900  0.07155100  0.36406300  1
  F  F17  1  0.79369900  0.71098700  0.48769200  1
  F  F18  1  0.78195200  0.98898800  0.74591700  1
  F  F19  1  0.96362900  0.92844900  0.13593700  1
  F  F20  1  0.45639200  0.65255400  0.87532900  1
  F  F21  1  0.20819000  0.48018200  0.76726700  1
  F  F22  1  0.07697400  0.88150700  0.60610600  1
  F  F23  1  0.57697400  0.11849300  0.89389400  1
  F  F24  1  0.28195200  0.01101200  0.75408300  1
  F  F25  1  0.96054800  0.58706300  0.87797800  1
  F  F26  1  0.53637100  0.92844900  0.63593700  1
  F  F27  1  0.03637100  0.07155100  0.86406300  1
  F  F28  1  0.21804800  0.01101200  0.25408300  1
  F  F29  1  0.92302600  0.11849300  0.39389400  1
  F  F30  1  0.46054800  0.41293700  0.62202200  1
  F  F31  1  0.95639200  0.34744600  0.62467100  1
  F  F32  1  0.03945200  0.41293700  0.12202200  1
  F  F33  1  0.71804800  0.98898800  0.24591700  1
  F  F34  1  0.53945200  0.58706300  0.37797800  1
  F  F35  1  0.29369900  0.28901300  0.01230800  1
  F  F36  1  0.20630100  0.28901300  0.51230800  1
  F  F37  1  0.70630100  0.71098700  0.98769200  1
  F  F38  1  0.54360800  0.34744600  0.12467100  1
  F  F39  1  0.79181000  0.51981800  0.23273300  1
