# generated using pymatgen
data_Ho(WO3)2
_symmetry_space_group_name_H-M   'P 1'
_cell_length_a   7.86920000
_cell_length_b   5.41006500
_cell_length_c   5.65334327
_cell_angle_alpha   89.98223361
_cell_angle_beta   90.00000000
_cell_angle_gamma   90.00000000
_symmetry_Int_Tables_number   1
_chemical_formula_structural   Ho(WO3)2
_chemical_formula_sum   'Ho2 W4 O12'
_cell_volume   240.67911291
_cell_formula_units_Z   2
loop_
 _symmetry_equiv_pos_site_id
 _symmetry_equiv_pos_as_xyz
  1  'x, y, z'
loop_
 _atom_site_type_symbol
 _atom_site_label
 _atom_site_symmetry_multiplicity
 _atom_site_fract_x
 _atom_site_fract_y
 _atom_site_fract_z
 _atom_site_occupancy
  Ho  Ho0  1  0.50000000  0.98439600  0.07214700  1
  Ho  Ho1  1  0.00000000  0.47664500  0.43111600  1
  W  W2  1  0.24942100  0.99493600  0.50962300  1
  W  W3  1  0.75057900  0.99493600  0.50962300  1
  W  W4  1  0.75047600  0.49747400  0.98755300  1
  W  W5  1  0.24952400  0.49747400  0.98755300  1
  O  O6  1  0.00000000  0.87705500  0.52523500  1
  O  O7  1  0.30708300  0.83183700  0.80159700  1
  O  O8  1  0.69291700  0.83183700  0.80159700  1
  O  O9  1  0.29351000  0.71326000  0.28242800  1
  O  O10  1  0.70649000  0.71326000  0.28242800  1
  O  O11  1  0.00000000  0.57023600  0.04133400  1
  O  O12  1  0.50000000  0.38283100  0.97675300  1
  O  O13  1  0.80889500  0.31574600  0.68576500  1
  O  O14  1  0.19110500  0.31574600  0.68576500  1
  O  O15  1  0.20810800  0.20095500  0.23061000  1
  O  O16  1  0.79189200  0.20095500  0.23061000  1
  O  O17  1  0.50000000  0.07606000  0.46004400  1
