# generated using pymatgen
data_CaHoCr2O6
_symmetry_space_group_name_H-M   'P 1'
_cell_length_a   5.30358500
_cell_length_b   5.53434500
_cell_length_c   7.58341500
_cell_angle_alpha   90.00000000
_cell_angle_beta   90.00000000
_cell_angle_gamma   90.00000000
_symmetry_Int_Tables_number   1
_chemical_formula_structural   CaHoCr2O6
_chemical_formula_sum   'Ca2 Ho2 Cr4 O12'
_cell_volume   222.58740461
_cell_formula_units_Z   2
loop_
 _symmetry_equiv_pos_site_id
 _symmetry_equiv_pos_as_xyz
  1  'x, y, z'
loop_
 _atom_site_type_symbol
 _atom_site_label
 _atom_site_symmetry_multiplicity
 _atom_site_fract_x
 _atom_site_fract_y
 _atom_site_fract_z
 _atom_site_occupancy
  Ca  Ca0  1  0.48748700  0.19780200  0.00000000  1
  Ca  Ca1  1  0.98748700  0.80219800  0.50000000  1
  Ho  Ho2  1  0.01942100  0.68326800  0.00000000  1
  Ho  Ho3  1  0.51942100  0.31673200  0.50000000  1
  Cr  Cr4  1  0.00068400  0.24610100  0.75003900  1
  Cr  Cr5  1  0.00068400  0.24610100  0.24996100  1
  Cr  Cr6  1  0.50068400  0.75389900  0.25003900  1
  Cr  Cr7  1  0.50068400  0.75389900  0.74996100  1
  O  O8  1  0.10724800  0.22044600  0.50000000  1
  O  O9  1  0.19973100  0.94304600  0.80343400  1
  O  O10  1  0.19973100  0.94304600  0.19656600  1
  O  O11  1  0.29799500  0.46204600  0.80073600  1
  O  O12  1  0.29799500  0.46204600  0.19926400  1
  O  O13  1  0.41039800  0.71483300  0.50000000  1
  O  O14  1  0.60724800  0.77955400  0.00000000  1
  O  O15  1  0.69973100  0.05695400  0.30343400  1
  O  O16  1  0.69973100  0.05695400  0.69656600  1
  O  O17  1  0.79799500  0.53795400  0.69926400  1
  O  O18  1  0.79799500  0.53795400  0.30073600  1
  O  O19  1  0.91039800  0.28516700  0.00000000  1
