# generated using pymatgen
data_Ca(MoO2)2
_symmetry_space_group_name_H-M   'P 1'
_cell_length_a   6.61490582
_cell_length_b   6.61490582
_cell_length_c   16.07708416
_cell_angle_alpha   88.70970312
_cell_angle_beta   88.70970312
_cell_angle_gamma   59.23415294
_symmetry_Int_Tables_number   1
_chemical_formula_structural   Ca(MoO2)2
_chemical_formula_sum   'Ca6 Mo12 O24'
_cell_volume   604.27688373
_cell_formula_units_Z   6
loop_
 _symmetry_equiv_pos_site_id
 _symmetry_equiv_pos_as_xyz
  1  'x, y, z'
loop_
 _atom_site_type_symbol
 _atom_site_label
 _atom_site_symmetry_multiplicity
 _atom_site_fract_x
 _atom_site_fract_y
 _atom_site_fract_z
 _atom_site_occupancy
  Ca  Ca0  1  0.66758800  0.66758800  0.95532400  1
  Ca  Ca1  1  0.00255300  0.00255300  0.62434100  1
  Ca  Ca2  1  0.00091700  0.00091700  0.99778100  1
  Ca  Ca3  1  0.33633300  0.33633300  0.29032200  1
  Ca  Ca4  1  0.66913500  0.66913500  0.71088700  1
  Ca  Ca5  1  0.00182300  0.00182300  0.37564200  1
  Mo  Mo6  1  0.16686100  0.66812000  0.83316200  1
  Mo  Mo7  1  0.66812000  0.16686100  0.83316200  1
  Mo  Mo8  1  0.49807600  0.00609000  0.50002100  1
  Mo  Mo9  1  0.16526600  0.16526600  0.83249200  1
  Mo  Mo10  1  0.33595700  0.33595700  0.66696000  1
  Mo  Mo11  1  0.00609000  0.49807600  0.50002100  1
  Mo  Mo12  1  0.83339700  0.34317100  0.16756000  1
  Mo  Mo13  1  0.50213500  0.50213500  0.49996600  1
  Mo  Mo14  1  0.83572200  0.83572200  0.16766600  1
  Mo  Mo15  1  0.66917400  0.66917400  0.33428000  1
  Mo  Mo16  1  0.34317100  0.83339700  0.16756000  1
  Mo  Mo17  1  0.33780500  0.33780500  0.04293500  1
  O  O18  1  0.30647700  0.83919300  0.90527500  1
  O  O19  1  0.00250900  0.00250900  0.76460000  1
  O  O20  1  0.84918300  0.84918300  0.90779000  1
  O  O21  1  0.83919300  0.30647700  0.90527500  1
  O  O22  1  0.48344500  0.04425300  0.75628400  1
  O  O23  1  0.62600900  0.18551400  0.57695500  1
  O  O24  1  0.47956500  0.47956500  0.75282200  1
  O  O25  1  0.32316500  0.32316500  0.90966600  1
  O  O26  1  0.19066700  0.19066700  0.57996300  1
  O  O27  1  0.33880200  0.33880200  0.43094500  1
  O  O28  1  0.04425300  0.48344500  0.75628400  1
  O  O29  1  0.18551400  0.62600900  0.57695500  1
  O  O30  1  0.81584900  0.37740300  0.42366800  1
  O  O31  1  0.95796600  0.52172000  0.24504600  1
  O  O32  1  0.81380900  0.81380900  0.41907700  1
  O  O33  1  0.66522100  0.66522100  0.56845100  1
  O  O34  1  0.67404700  0.67404700  0.09913500  1
  O  O35  1  0.52536400  0.52536400  0.24693000  1
  O  O36  1  0.37740300  0.81584900  0.42366800  1
  O  O37  1  0.52172000  0.95796600  0.24504600  1
  O  O38  1  0.17544700  0.67440000  0.09975800  1
  O  O39  1  0.00042600  0.00042600  0.23338300  1
  O  O40  1  0.16135900  0.16135900  0.08745700  1
  O  O41  1  0.67440000  0.17544700  0.09975800  1
