# generated using pymatgen
data_Mo3P3O13
_symmetry_space_group_name_H-M   'P 1'
_cell_length_a   6.59412700
_cell_length_b   7.67918900
_cell_length_c   10.99056031
_cell_angle_alpha   81.03796080
_cell_angle_beta   90.00000000
_cell_angle_gamma   90.00000000
_symmetry_Int_Tables_number   1
_chemical_formula_structural   Mo3P3O13
_chemical_formula_sum   'Mo6 P6 O26'
_cell_volume   549.74071137
_cell_formula_units_Z   2
loop_
 _symmetry_equiv_pos_site_id
 _symmetry_equiv_pos_as_xyz
  1  'x, y, z'
loop_
 _atom_site_type_symbol
 _atom_site_label
 _atom_site_symmetry_multiplicity
 _atom_site_fract_x
 _atom_site_fract_y
 _atom_site_fract_z
 _atom_site_occupancy
  Mo  Mo0  1  0.25000000  0.63021300  0.20321600  1
  Mo  Mo1  1  0.75000000  0.36978700  0.79678400  1
  Mo  Mo2  1  0.25000000  0.22973000  0.44982600  1
  Mo  Mo3  1  0.50000000  0.00000000  0.00000000  1
  Mo  Mo4  1  0.75000000  0.77027000  0.55017400  1
  Mo  Mo5  1  0.00000000  0.00000000  0.00000000  1
  P  P6  1  0.25000000  0.78854100  0.47943600  1
  P  P7  1  0.75000000  0.21145900  0.52056400  1
  P  P8  1  0.25000000  0.25618700  0.76888100  1
  P  P9  1  0.75000000  0.74381300  0.23111900  1
  P  P10  1  0.75000000  0.69191100  0.88149600  1
  P  P11  1  0.25000000  0.30808900  0.11850400  1
  O  O12  1  0.75000000  0.65899500  0.74401700  1
  O  O13  1  0.56319100  0.25562000  0.44023100  1
  O  O14  1  0.25000000  0.19376200  0.64542800  1
  O  O15  1  0.55826100  0.79386100  0.90952200  1
  O  O16  1  0.75000000  0.34016700  0.62088500  1
  O  O17  1  0.75000000  0.12379400  0.91340200  1
  O  O18  1  0.25000000  0.65983300  0.37911500  1
  O  O19  1  0.05826100  0.20613900  0.09047800  1
  O  O20  1  0.25000000  0.97752700  0.40602900  1
  O  O21  1  0.75000000  0.02247300  0.59397100  1
  O  O22  1  0.05942300  0.36221500  0.79207800  1
  O  O23  1  0.25000000  0.87620600  0.08659800  1
  O  O24  1  0.55942300  0.63778500  0.20792200  1
  O  O25  1  0.75000000  0.49752900  0.94900400  1
  O  O26  1  0.75000000  0.80623800  0.35457200  1
  O  O27  1  0.44173900  0.20613900  0.09047800  1
  O  O28  1  0.93680900  0.25562000  0.44023100  1
  O  O29  1  0.43680900  0.74438000  0.55976900  1
  O  O30  1  0.44057700  0.36221500  0.79207800  1
  O  O31  1  0.25000000  0.34100500  0.25598300  1
  O  O32  1  0.75000000  0.91290000  0.12343000  1
  O  O33  1  0.25000000  0.08710000  0.87657000  1
  O  O34  1  0.94057700  0.63778500  0.20792200  1
  O  O35  1  0.94173900  0.79386100  0.90952200  1
  O  O36  1  0.06319100  0.74438000  0.55976900  1
  O  O37  1  0.25000000  0.50247100  0.05099600  1
