# generated using pymatgen
data_Mn2ZnO4
_symmetry_space_group_name_H-M   'P 1'
_cell_length_a   5.91320100
_cell_length_b   6.19658571
_cell_length_c   14.90796886
_cell_angle_alpha   93.92440199
_cell_angle_beta   89.79919875
_cell_angle_gamma   118.43324043
_symmetry_Int_Tables_number   1
_chemical_formula_structural   Mn2ZnO4
_chemical_formula_sum   'Mn12 Zn6 O24'
_cell_volume   478.96986196
_cell_formula_units_Z   6
loop_
 _symmetry_equiv_pos_site_id
 _symmetry_equiv_pos_as_xyz
  1  'x, y, z'
loop_
 _atom_site_type_symbol
 _atom_site_label
 _atom_site_symmetry_multiplicity
 _atom_site_fract_x
 _atom_site_fract_y
 _atom_site_fract_z
 _atom_site_occupancy
  Mn  Mn0  1  0.66664900  0.33408900  0.16612200  1
  Mn  Mn1  1  0.66646300  0.83341100  0.16698300  1
  Mn  Mn2  1  0.00401400  0.00654300  0.50077200  1
  Mn  Mn3  1  0.16698300  0.83261300  0.16680000  1
  Mn  Mn4  1  0.00525800  0.51085400  0.49954600  1
  Mn  Mn5  1  0.16549400  0.33114500  0.66638100  1
  Mn  Mn6  1  0.16940200  0.34220400  0.28797200  1
  Mn  Mn7  1  0.32979600  0.66066800  0.83113400  1
  Mn  Mn8  1  0.50567200  0.51073100  0.49976200  1
  Mn  Mn9  1  0.32714300  0.15550600  0.83418700  1
  Mn  Mn10  1  0.82778100  0.15534200  0.83395400  1
  Mn  Mn11  1  0.82974600  0.66302600  0.95382800  1
  Zn  Zn12  1  0.16348100  0.32214900  0.04655100  1
  Zn  Zn13  1  0.50552000  0.00639900  0.38072600  1
  Zn  Zn14  1  0.83903600  0.67568900  0.33532300  1
  Zn  Zn15  1  0.82996900  0.65994200  0.70934700  1
  Zn  Zn16  1  0.49516900  0.99231000  0.99952600  1
  Zn  Zn17  1  0.50118900  0.00266000  0.62288000  1
  O  O18  1  0.34342000  0.68909100  0.09195300  1
  O  O19  1  0.50361300  0.98981500  0.24275500  1
  O  O20  1  0.34580000  0.15141200  0.09402100  1
  O  O21  1  0.80356900  0.13721900  0.09577400  1
  O  O22  1  0.68451400  0.36839200  0.42250100  1
  O  O23  1  0.53341400  0.53385900  0.23602400  1
  O  O24  1  0.82786100  0.65599500  0.57485000  1
  O  O25  1  0.98574300  0.51862600  0.23788900  1
  O  O26  1  0.83153900  0.68143200  0.09130900  1
  O  O27  1  0.69035000  0.84002800  0.42543500  1
  O  O28  1  0.15243600  0.84071900  0.42457500  1
  O  O29  1  0.98827200  0.97365700  0.24014200  1
  O  O30  1  0.00986200  0.01947900  0.75697500  1
  O  O31  1  0.86481300  0.17777400  0.58253400  1
  O  O32  1  0.31370300  0.17803100  0.58201200  1
  O  O33  1  0.15513400  0.31145000  0.90964200  1
  O  O34  1  0.17907200  0.35633800  0.42684300  1
  O  O35  1  0.01538400  0.48203300  0.75267600  1
  O  O36  1  0.46639500  0.48402300  0.75160800  1
  O  O37  1  0.32116700  0.64410600  0.57828500  1
  O  O38  1  0.18714900  0.83079900  0.90733200  1
  O  O39  1  0.64474900  0.83348800  0.90577300  1
  O  O40  1  0.50461800  0.00994200  0.75837500  1
  O  O41  1  0.64865200  0.29700500  0.90892100  1
