# generated using pymatgen
data_CaCu2(WO4)2
_symmetry_space_group_name_H-M   'P 1'
_cell_length_a   9.05856100
_cell_length_b   6.80179000
_cell_length_c   13.18919655
_cell_angle_alpha   89.30098370
_cell_angle_beta   90.00000000
_cell_angle_gamma   90.00000000
_symmetry_Int_Tables_number   1
_chemical_formula_structural   CaCu2(WO4)2
_chemical_formula_sum   'Ca4 Cu8 W8 O32'
_cell_volume   812.58434499
_cell_formula_units_Z   4
loop_
 _symmetry_equiv_pos_site_id
 _symmetry_equiv_pos_as_xyz
  1  'x, y, z'
loop_
 _atom_site_type_symbol
 _atom_site_label
 _atom_site_symmetry_multiplicity
 _atom_site_fract_x
 _atom_site_fract_y
 _atom_site_fract_z
 _atom_site_occupancy
  Ca  Ca0  1  0.16426300  0.12194900  0.04741300  1
  Ca  Ca1  1  0.83573700  0.87805100  0.95258700  1
  Ca  Ca2  1  0.66426300  0.87805100  0.45258700  1
  Ca  Ca3  1  0.33573700  0.12194900  0.54741300  1
  Cu  Cu4  1  0.19036100  0.76539900  0.86086500  1
  Cu  Cu5  1  0.04861400  0.38713600  0.62140600  1
  Cu  Cu6  1  0.95138600  0.61286400  0.37859400  1
  Cu  Cu7  1  0.80963900  0.23460100  0.13913500  1
  Cu  Cu8  1  0.30963900  0.76539900  0.36086500  1
  Cu  Cu9  1  0.45138600  0.38713600  0.12140600  1
  Cu  Cu10  1  0.69036100  0.23460100  0.63913500  1
  Cu  Cu11  1  0.54861400  0.61286400  0.87859400  1
  W  W12  1  0.45751500  0.09430100  0.84459400  1
  W  W13  1  0.04248500  0.09430100  0.34459400  1
  W  W14  1  0.07721100  0.60652400  0.13679400  1
  W  W15  1  0.95751500  0.90569900  0.65540600  1
  W  W16  1  0.92278900  0.39347600  0.86320600  1
  W  W17  1  0.57721100  0.39347600  0.36320600  1
  W  W18  1  0.42278900  0.60652400  0.63679400  1
  W  W19  1  0.54248500  0.90569900  0.15540600  1
  O  O20  1  0.22883000  0.02525800  0.39091500  1
  O  O21  1  0.00305300  0.66820200  0.60353100  1
  O  O22  1  0.56625200  0.18943000  0.45622600  1
  O  O23  1  0.06625200  0.81057000  0.04377400  1
  O  O24  1  0.27117000  0.02525800  0.89091500  1
  O  O25  1  0.77117000  0.97474200  0.60908500  1
  O  O26  1  0.09497600  0.08891100  0.61096700  1
  O  O27  1  0.89829000  0.48888000  0.13356600  1
  O  O28  1  0.60171000  0.48888000  0.63356600  1
  O  O29  1  0.88106800  0.30657000  0.73562300  1
  O  O30  1  0.38106800  0.69343000  0.76437700  1
  O  O31  1  0.10171000  0.51112000  0.86643400  1
  O  O32  1  0.90502400  0.91108900  0.38903300  1
  O  O33  1  0.53809400  0.87852800  0.29256900  1
  O  O34  1  0.27984800  0.43502300  0.59701000  1
  O  O35  1  0.22015200  0.43502300  0.09701000  1
  O  O36  1  0.03809400  0.12147200  0.20743100  1
  O  O37  1  0.39829000  0.51112000  0.36643400  1
  O  O38  1  0.46190600  0.12147200  0.70743100  1
  O  O39  1  0.43374800  0.81057000  0.54377400  1
  O  O40  1  0.49694700  0.66820200  0.10353100  1
  O  O41  1  0.11893200  0.69343000  0.26437700  1
  O  O42  1  0.72883000  0.97474200  0.10908500  1
  O  O43  1  0.40502400  0.08891100  0.11096700  1
  O  O44  1  0.93374800  0.18943000  0.95622600  1
  O  O45  1  0.77984800  0.56497700  0.90299000  1
  O  O46  1  0.99694700  0.33179800  0.39646900  1
  O  O47  1  0.50305300  0.33179800  0.89646900  1
  O  O48  1  0.59497600  0.91108900  0.88903300  1
  O  O49  1  0.72015200  0.56497700  0.40299000  1
  O  O50  1  0.61893200  0.30657000  0.23562300  1
  O  O51  1  0.96190600  0.87852800  0.79256900  1
