# generated using pymatgen
data_BaMgFeF7
_symmetry_space_group_name_H-M   'P 1'
_cell_length_a   9.99494000
_cell_length_b   5.64034800
_cell_length_c   9.70426480
_cell_angle_alpha   86.92441454
_cell_angle_beta   90.00000000
_cell_angle_gamma   90.00000000
_symmetry_Int_Tables_number   1
_chemical_formula_structural   BaMgFeF7
_chemical_formula_sum   'Ba4 Mg4 Fe4 F28'
_cell_volume   546.28934665
_cell_formula_units_Z   4
loop_
 _symmetry_equiv_pos_site_id
 _symmetry_equiv_pos_as_xyz
  1  'x, y, z'
loop_
 _atom_site_type_symbol
 _atom_site_label
 _atom_site_symmetry_multiplicity
 _atom_site_fract_x
 _atom_site_fract_y
 _atom_site_fract_z
 _atom_site_occupancy
  Ba  Ba0  1  0.32186300  0.73647700  0.49899900  1
  Ba  Ba1  1  0.82186300  0.26352300  0.00100100  1
  Ba  Ba2  1  0.67813700  0.26352300  0.50100100  1
  Ba  Ba3  1  0.17813700  0.73647700  0.99899900  1
  Mg  Mg4  1  0.39484400  0.30228600  0.81000900  1
  Mg  Mg5  1  0.89484400  0.69771400  0.68999100  1
  Mg  Mg6  1  0.10515600  0.30228600  0.31000900  1
  Mg  Mg7  1  0.60515600  0.69771400  0.18999100  1
  Fe  Fe8  1  0.60958400  0.80507500  0.81278600  1
  Fe  Fe9  1  0.39041600  0.19492500  0.18721400  1
  Fe  Fe10  1  0.89041600  0.80507500  0.31278600  1
  Fe  Fe11  1  0.10958400  0.19492500  0.68721400  1
  F  F12  1  0.44631300  0.88511100  0.12587800  1
  F  F13  1  0.04921200  0.62726900  0.36887500  1
  F  F14  1  0.71371500  0.52922100  0.75097200  1
  F  F15  1  0.28628500  0.47077900  0.24902800  1
  F  F16  1  0.45797700  0.11099600  0.36708200  1
  F  F17  1  0.81138400  0.74261300  0.49889500  1
  F  F18  1  0.77986400  0.97349500  0.75180200  1
  F  F19  1  0.95797700  0.88900400  0.13291800  1
  F  F20  1  0.45078800  0.62726900  0.86887500  1
  F  F21  1  0.21371500  0.47077900  0.74902800  1
  F  F22  1  0.05368700  0.88511100  0.62587800  1
  F  F23  1  0.55368700  0.11488900  0.87412200  1
  F  F24  1  0.27986400  0.02650500  0.74819800  1
  F  F25  1  0.95862600  0.61276400  0.87267200  1
  F  F26  1  0.54202300  0.88900400  0.63291800  1
  F  F27  1  0.04202300  0.11099600  0.86708200  1
  F  F28  1  0.22013600  0.02650500  0.24819800  1
  F  F29  1  0.94631300  0.11488900  0.37412200  1
  F  F30  1  0.45862600  0.38723600  0.62732800  1
  F  F31  1  0.95078800  0.37273100  0.63112500  1
  F  F32  1  0.04137400  0.38723600  0.12732800  1
  F  F33  1  0.72013600  0.97349500  0.25180200  1
  F  F34  1  0.54137400  0.61276400  0.37267200  1
  F  F35  1  0.31138400  0.25738700  0.00110500  1
  F  F36  1  0.18861600  0.25738700  0.50110500  1
  F  F37  1  0.68861600  0.74261300  0.99889500  1
  F  F38  1  0.54921200  0.37273100  0.13112500  1
  F  F39  1  0.78628500  0.52922100  0.25097200  1
