# generated using pymatgen
data_Cr4O9
_symmetry_space_group_name_H-M   'P 1'
_cell_length_a   8.43871000
_cell_length_b   8.43871000
_cell_length_c   5.36296500
_cell_angle_alpha   90.00000000
_cell_angle_beta   90.00000000
_cell_angle_gamma   90.00000000
_symmetry_Int_Tables_number   1
_chemical_formula_structural   Cr4O9
_chemical_formula_sum   'Cr8 O18'
_cell_volume   381.90653291
_cell_formula_units_Z   2
loop_
 _symmetry_equiv_pos_site_id
 _symmetry_equiv_pos_as_xyz
  1  'x, y, z'
loop_
 _atom_site_type_symbol
 _atom_site_label
 _atom_site_symmetry_multiplicity
 _atom_site_fract_x
 _atom_site_fract_y
 _atom_site_fract_z
 _atom_site_occupancy
  Cr  Cr0  1  0.71638500  0.40738900  0.38996600  1
  Cr  Cr1  1  0.40738900  0.28361500  0.61003400  1
  Cr  Cr2  1  0.90738900  0.78361500  0.38996600  1
  Cr  Cr3  1  0.21638500  0.90738900  0.61003400  1
  Cr  Cr4  1  0.28361500  0.59261100  0.38996600  1
  Cr  Cr5  1  0.09261100  0.21638500  0.38996600  1
  Cr  Cr6  1  0.78361500  0.09261100  0.61003400  1
  Cr  Cr7  1  0.59261100  0.71638500  0.61003400  1
  O  O8  1  0.50000000  0.50000000  0.50000000  1
  O  O9  1  0.00000000  0.00000000  0.50000000  1
  O  O10  1  0.58150100  0.72870300  0.90788300  1
  O  O11  1  0.77129700  0.08150100  0.90788300  1
  O  O12  1  0.22870300  0.91849900  0.90788300  1
  O  O13  1  0.41849900  0.27129700  0.90788300  1
  O  O14  1  0.91849900  0.77129700  0.09211700  1
  O  O15  1  0.72870300  0.41849900  0.09211700  1
  O  O16  1  0.27129700  0.58150100  0.09211700  1
  O  O17  1  0.08150100  0.22870300  0.09211700  1
  O  O18  1  0.21755000  0.39151000  0.51117700  1
  O  O19  1  0.10849000  0.71755000  0.51117700  1
  O  O20  1  0.89151000  0.28245000  0.51117700  1
  O  O21  1  0.78245000  0.60849000  0.51117700  1
  O  O22  1  0.71755000  0.89151000  0.48882300  1
  O  O23  1  0.39151000  0.78245000  0.48882300  1
  O  O24  1  0.60849000  0.21755000  0.48882300  1
  O  O25  1  0.28245000  0.10849000  0.48882300  1
