# generated using pymatgen
data_ZnCr4O9
_symmetry_space_group_name_H-M   'P 1'
_cell_length_a   8.40241300
_cell_length_b   8.40241300
_cell_length_c   4.91807600
_cell_angle_alpha   90.00000000
_cell_angle_beta   90.00000000
_cell_angle_gamma   90.00000000
_symmetry_Int_Tables_number   1
_chemical_formula_structural   ZnCr4O9
_chemical_formula_sum   'Zn2 Cr8 O18'
_cell_volume   347.21884213
_cell_formula_units_Z   2
loop_
 _symmetry_equiv_pos_site_id
 _symmetry_equiv_pos_as_xyz
  1  'x, y, z'
loop_
 _atom_site_type_symbol
 _atom_site_label
 _atom_site_symmetry_multiplicity
 _atom_site_fract_x
 _atom_site_fract_y
 _atom_site_fract_z
 _atom_site_occupancy
  Zn  Zn0  1  0.00000000  0.50000000  0.02676800  1
  Zn  Zn1  1  0.50000000  0.00000000  0.97323200  1
  Cr  Cr2  1  0.09071600  0.78534900  0.61332400  1
  Cr  Cr3  1  0.21465100  0.09071600  0.38667600  1
  Cr  Cr4  1  0.71465100  0.59071600  0.61332400  1
  Cr  Cr5  1  0.59071600  0.28534900  0.38667600  1
  Cr  Cr6  1  0.90928400  0.21465100  0.61332400  1
  Cr  Cr7  1  0.28534900  0.40928400  0.61332400  1
  Cr  Cr8  1  0.40928400  0.71465100  0.38667600  1
  Cr  Cr9  1  0.78534900  0.90928400  0.38667600  1
  O  O10  1  0.00000000  0.00000000  0.50000000  1
  O  O11  1  0.50000000  0.50000000  0.50000000  1
  O  O12  1  0.72600000  0.93158100  0.05672200  1
  O  O13  1  0.43158100  0.77400000  0.05672200  1
  O  O14  1  0.56841900  0.22600000  0.05672200  1
  O  O15  1  0.27400000  0.06841900  0.05672200  1
  O  O16  1  0.77400000  0.56841900  0.94327800  1
  O  O17  1  0.06841900  0.72600000  0.94327800  1
  O  O18  1  0.93158100  0.27400000  0.94327800  1
  O  O19  1  0.22600000  0.43158100  0.94327800  1
  O  O20  1  0.10606600  0.28823100  0.46419400  1
  O  O21  1  0.78823100  0.39393400  0.46419400  1
  O  O22  1  0.21176900  0.60606600  0.46419400  1
  O  O23  1  0.89393400  0.71176900  0.46419400  1
  O  O24  1  0.60606600  0.78823100  0.53580600  1
  O  O25  1  0.71176900  0.10606600  0.53580600  1
  O  O26  1  0.28823100  0.89393400  0.53580600  1
  O  O27  1  0.39393400  0.21176900  0.53580600  1
