# generated using pymatgen
data_BaZnBiF7
_symmetry_space_group_name_H-M   'P 1'
_cell_length_a   10.82982000
_cell_length_b   5.74330400
_cell_length_c   9.90184198
_cell_angle_alpha   88.29984637
_cell_angle_beta   90.00000000
_cell_angle_gamma   90.00000000
_symmetry_Int_Tables_number   1
_chemical_formula_structural   BaZnBiF7
_chemical_formula_sum   'Ba4 Zn4 Bi4 F28'
_cell_volume   615.61303565
_cell_formula_units_Z   4
loop_
 _symmetry_equiv_pos_site_id
 _symmetry_equiv_pos_as_xyz
  1  'x, y, z'
loop_
 _atom_site_type_symbol
 _atom_site_label
 _atom_site_symmetry_multiplicity
 _atom_site_fract_x
 _atom_site_fract_y
 _atom_site_fract_z
 _atom_site_occupancy
  Ba  Ba0  1  0.33083100  0.74947900  0.49108100  1
  Ba  Ba1  1  0.83083100  0.25052100  0.00891900  1
  Ba  Ba2  1  0.66916900  0.25052100  0.50891900  1
  Ba  Ba3  1  0.16916900  0.74947900  0.99108100  1
  Zn  Zn4  1  0.37451400  0.30056200  0.79970600  1
  Zn  Zn5  1  0.87451400  0.69943800  0.70029400  1
  Zn  Zn6  1  0.12548600  0.30056200  0.29970600  1
  Zn  Zn7  1  0.62548600  0.69943800  0.20029400  1
  Bi  Bi8  1  0.58311100  0.77308000  0.83249500  1
  Bi  Bi9  1  0.41688900  0.22692000  0.16750500  1
  Bi  Bi10  1  0.91688900  0.77308000  0.33249500  1
  Bi  Bi11  1  0.08311100  0.22692000  0.66750500  1
  F  F12  1  0.47292300  0.86087800  0.12101600  1
  F  F13  1  0.10201800  0.60316800  0.41077300  1
  F  F14  1  0.72548300  0.49374300  0.77335400  1
  F  F15  1  0.27451700  0.50625700  0.22664600  1
  F  F16  1  0.46891500  0.07605300  0.36937000  1
  F  F17  1  0.78705800  0.80259700  0.51978400  1
  F  F18  1  0.76804800  0.96811700  0.77188500  1
  F  F19  1  0.96891500  0.92394700  0.13063000  1
  F  F20  1  0.39798200  0.60316800  0.91077300  1
  F  F21  1  0.22548300  0.50625700  0.72664600  1
  F  F22  1  0.02707700  0.86087800  0.62101600  1
  F  F23  1  0.52707700  0.13912200  0.87898400  1
  F  F24  1  0.26804800  0.03188300  0.72811500  1
  F  F25  1  0.97787000  0.54384500  0.84583300  1
  F  F26  1  0.53108500  0.92394700  0.63063000  1
  F  F27  1  0.03108500  0.07605300  0.86937000  1
  F  F28  1  0.23195200  0.03188300  0.22811500  1
  F  F29  1  0.97292300  0.13912200  0.37898400  1
  F  F30  1  0.47787000  0.45615500  0.65416700  1
  F  F31  1  0.89798200  0.39683200  0.58922700  1
  F  F32  1  0.02213000  0.45615500  0.15416700  1
  F  F33  1  0.73195200  0.96811700  0.27188500  1
  F  F34  1  0.52213000  0.54384500  0.34583300  1
  F  F35  1  0.28705800  0.19740300  0.98021600  1
  F  F36  1  0.21294200  0.19740300  0.48021600  1
  F  F37  1  0.71294200  0.80259700  0.01978400  1
  F  F38  1  0.60201800  0.39683200  0.08922700  1
  F  F39  1  0.77451700  0.49374300  0.27335400  1
