# generated using pymatgen
data_CaW4O9
_symmetry_space_group_name_H-M   'P 1'
_cell_length_a   9.70694000
_cell_length_b   9.70694000
_cell_length_c   3.97775600
_cell_angle_alpha   90.00000000
_cell_angle_beta   90.00000000
_cell_angle_gamma   90.00000000
_symmetry_Int_Tables_number   1
_chemical_formula_structural   CaW4O9
_chemical_formula_sum   'Ca2 W8 O18'
_cell_volume   374.80280278
_cell_formula_units_Z   2
loop_
 _symmetry_equiv_pos_site_id
 _symmetry_equiv_pos_as_xyz
  1  'x, y, z'
loop_
 _atom_site_type_symbol
 _atom_site_label
 _atom_site_symmetry_multiplicity
 _atom_site_fract_x
 _atom_site_fract_y
 _atom_site_fract_z
 _atom_site_occupancy
  Ca  Ca0  1  0.00000000  0.50000000  0.08843200  1
  Ca  Ca1  1  0.50000000  0.00000000  0.91156800  1
  W  W2  1  0.09076800  0.78937000  0.54522500  1
  W  W3  1  0.21063000  0.09076800  0.45477500  1
  W  W4  1  0.71063000  0.59076800  0.54522500  1
  W  W5  1  0.59076800  0.28937000  0.45477500  1
  W  W6  1  0.90923200  0.21063000  0.54522500  1
  W  W7  1  0.28937000  0.40923200  0.54522500  1
  W  W8  1  0.40923200  0.71063000  0.45477500  1
  W  W9  1  0.78937000  0.90923200  0.45477500  1
  O  O10  1  0.00000000  0.00000000  0.50000000  1
  O  O11  1  0.50000000  0.50000000  0.50000000  1
  O  O12  1  0.74770600  0.92511900  0.96309400  1
  O  O13  1  0.42511900  0.75229400  0.96309400  1
  O  O14  1  0.57488100  0.24770600  0.96309400  1
  O  O15  1  0.25229400  0.07488100  0.96309400  1
  O  O16  1  0.75229400  0.57488100  0.03690600  1
  O  O17  1  0.07488100  0.74770600  0.03690600  1
  O  O18  1  0.92511900  0.25229400  0.03690600  1
  O  O19  1  0.24770600  0.42511900  0.03690600  1
  O  O20  1  0.11410100  0.27757700  0.52001100  1
  O  O21  1  0.77757700  0.38589900  0.52001100  1
  O  O22  1  0.22242300  0.61410100  0.52001100  1
  O  O23  1  0.88589900  0.72242300  0.52001100  1
  O  O24  1  0.61410100  0.77757700  0.47998900  1
  O  O25  1  0.72242300  0.11410100  0.47998900  1
  O  O26  1  0.27757700  0.88589900  0.47998900  1
  O  O27  1  0.38589900  0.22242300  0.47998900  1
