# generated using pymatgen
data_BaZnCoF7
_symmetry_space_group_name_H-M   'P 1'
_cell_length_a   10.01192400
_cell_length_b   5.67169900
_cell_length_c   9.61559678
_cell_angle_alpha   86.92767065
_cell_angle_beta   90.00000000
_cell_angle_gamma   90.00000000
_symmetry_Int_Tables_number   1
_chemical_formula_structural   BaZnCoF7
_chemical_formula_sum   'Ba4 Zn4 Co4 F28'
_cell_volume   545.23319514
_cell_formula_units_Z   4
loop_
 _symmetry_equiv_pos_site_id
 _symmetry_equiv_pos_as_xyz
  1  'x, y, z'
loop_
 _atom_site_type_symbol
 _atom_site_label
 _atom_site_symmetry_multiplicity
 _atom_site_fract_x
 _atom_site_fract_y
 _atom_site_fract_z
 _atom_site_occupancy
  Ba  Ba0  1  0.31292800  0.73575900  0.49994300  1
  Ba  Ba1  1  0.81292800  0.26424100  0.00005700  1
  Ba  Ba2  1  0.68707200  0.26424100  0.50005700  1
  Ba  Ba3  1  0.18707200  0.73575900  0.99994300  1
  Zn  Zn4  1  0.39973200  0.30176600  0.80953000  1
  Zn  Zn5  1  0.89973200  0.69823400  0.69047000  1
  Zn  Zn6  1  0.10026800  0.30176600  0.30953000  1
  Zn  Zn7  1  0.60026800  0.69823400  0.19047000  1
  Co  Co8  1  0.61171700  0.80502100  0.81010900  1
  Co  Co9  1  0.38828300  0.19497900  0.18989100  1
  Co  Co10  1  0.88828300  0.80502100  0.31010900  1
  Co  Co11  1  0.11171700  0.19497900  0.68989100  1
  F  F12  1  0.44248300  0.88856400  0.12074400  1
  F  F13  1  0.05044600  0.63587000  0.37108400  1
  F  F14  1  0.70914500  0.52172100  0.75087600  1
  F  F15  1  0.29085500  0.47827900  0.24912400  1
  F  F16  1  0.45618700  0.11409600  0.36396400  1
  F  F17  1  0.80857000  0.74226700  0.49155100  1
  F  F18  1  0.77900200  0.97943700  0.75025200  1
  F  F19  1  0.95618700  0.88590400  0.13603600  1
  F  F20  1  0.44955400  0.63587000  0.87108400  1
  F  F21  1  0.20914500  0.47827900  0.74912400  1
  F  F22  1  0.05751700  0.88856400  0.62074400  1
  F  F23  1  0.55751700  0.11143600  0.87925600  1
  F  F24  1  0.27900200  0.02056300  0.74974800  1
  F  F25  1  0.95869300  0.61626900  0.88000900  1
  F  F26  1  0.54381300  0.88590400  0.63603600  1
  F  F27  1  0.04381300  0.11409600  0.86396400  1
  F  F28  1  0.22099800  0.02056300  0.24974800  1
  F  F29  1  0.94248300  0.11143600  0.37925600  1
  F  F30  1  0.45869300  0.38373100  0.61999100  1
  F  F31  1  0.94955400  0.36413000  0.62891600  1
  F  F32  1  0.04130700  0.38373100  0.11999100  1
  F  F33  1  0.72099800  0.97943700  0.25025200  1
  F  F34  1  0.54130700  0.61626900  0.38000900  1
  F  F35  1  0.30857000  0.25773300  0.00844900  1
  F  F36  1  0.19143000  0.25773300  0.50844900  1
  F  F37  1  0.69143000  0.74226700  0.99155100  1
  F  F38  1  0.55044600  0.36413000  0.12891600  1
  F  F39  1  0.79085500  0.52172100  0.25087600  1
