# generated using pymatgen
data_ZnBi3P3O13
_symmetry_space_group_name_H-M   'P 1'
_cell_length_a   7.14071000
_cell_length_b   8.47604900
_cell_length_c   11.00259988
_cell_angle_alpha   78.74978631
_cell_angle_beta   90.00000000
_cell_angle_gamma   90.00000000
_symmetry_Int_Tables_number   1
_chemical_formula_structural   ZnBi3P3O13
_chemical_formula_sum   'Zn2 Bi6 P6 O26'
_cell_volume   653.13625426
_cell_formula_units_Z   2
loop_
 _symmetry_equiv_pos_site_id
 _symmetry_equiv_pos_as_xyz
  1  'x, y, z'
loop_
 _atom_site_type_symbol
 _atom_site_label
 _atom_site_symmetry_multiplicity
 _atom_site_fract_x
 _atom_site_fract_y
 _atom_site_fract_z
 _atom_site_occupancy
  Zn  Zn0  1  0.75000000  0.43832200  0.15762700  1
  Zn  Zn1  1  0.25000000  0.56167800  0.84237300  1
  Bi  Bi2  1  0.25000000  0.64268800  0.23338800  1
  Bi  Bi3  1  0.75000000  0.35731200  0.76661200  1
  Bi  Bi4  1  0.25000000  0.19913100  0.43291800  1
  Bi  Bi5  1  0.50000000  0.00000000  0.00000000  1
  Bi  Bi6  1  0.75000000  0.80086900  0.56708200  1
  Bi  Bi7  1  0.00000000  0.00000000  0.00000000  1
  P  P8  1  0.25000000  0.77065300  0.52450500  1
  P  P9  1  0.75000000  0.22934700  0.47549500  1
  P  P10  1  0.25000000  0.27884600  0.75980900  1
  P  P11  1  0.75000000  0.72115400  0.24019100  1
  P  P12  1  0.75000000  0.67498200  0.90053900  1
  P  P13  1  0.25000000  0.32501800  0.09946100  1
  O  O14  1  0.75000000  0.64440700  0.76421500  1
  O  O15  1  0.57490000  0.24903900  0.38970400  1
  O  O16  1  0.25000000  0.23563100  0.63321800  1
  O  O17  1  0.56680900  0.76383200  0.91990800  1
  O  O18  1  0.75000000  0.35670700  0.56036600  1
  O  O19  1  0.75000000  0.12284800  0.88881800  1
  O  O20  1  0.25000000  0.64329300  0.43963400  1
  O  O21  1  0.06680900  0.23616800  0.08009200  1
  O  O22  1  0.25000000  0.93938000  0.43403600  1
  O  O23  1  0.75000000  0.06062000  0.56596400  1
  O  O24  1  0.08159000  0.38990800  0.78214600  1
  O  O25  1  0.25000000  0.87715200  0.11118200  1
  O  O26  1  0.58159000  0.61009200  0.21785400  1
  O  O27  1  0.75000000  0.49725700  0.97847900  1
  O  O28  1  0.75000000  0.76436900  0.36678200  1
  O  O29  1  0.43319100  0.23616800  0.08009200  1
  O  O30  1  0.92510000  0.24903900  0.38970400  1
  O  O31  1  0.42510000  0.75096100  0.61029600  1
  O  O32  1  0.41841000  0.38990800  0.78214600  1
  O  O33  1  0.25000000  0.35559300  0.23578500  1
  O  O34  1  0.75000000  0.88007700  0.13992500  1
  O  O35  1  0.25000000  0.11992300  0.86007500  1
  O  O36  1  0.91841000  0.61009200  0.21785400  1
  O  O37  1  0.93319100  0.76383200  0.91990800  1
  O  O38  1  0.07490000  0.75096100  0.61029600  1
  O  O39  1  0.25000000  0.50274300  0.02152100  1
