# generated using pymatgen
data_MgBi4O9
_symmetry_space_group_name_H-M   'P 1'
_cell_length_a   5.73821300
_cell_length_b   8.24372900
_cell_length_c   11.39656345
_cell_angle_alpha   51.16744819
_cell_angle_beta   90.00000000
_cell_angle_gamma   90.00000000
_symmetry_Int_Tables_number   1
_chemical_formula_structural   MgBi4O9
_chemical_formula_sum   'Mg2 Bi8 O18'
_cell_volume   419.95390054
_cell_formula_units_Z   2
loop_
 _symmetry_equiv_pos_site_id
 _symmetry_equiv_pos_as_xyz
  1  'x, y, z'
loop_
 _atom_site_type_symbol
 _atom_site_label
 _atom_site_symmetry_multiplicity
 _atom_site_fract_x
 _atom_site_fract_y
 _atom_site_fract_z
 _atom_site_occupancy
  Mg  Mg0  1  0.28757800  0.00000000  0.75000000  1
  Mg  Mg1  1  0.71242200  0.00000000  0.25000000  1
  Bi  Bi2  1  0.77414800  0.62012400  0.85728100  1
  Bi  Bi3  1  0.31534200  0.20733000  0.93644500  1
  Bi  Bi4  1  0.68465800  0.20733000  0.43644500  1
  Bi  Bi5  1  0.22585200  0.62012400  0.35728100  1
  Bi  Bi6  1  0.77414800  0.37987600  0.64271900  1
  Bi  Bi7  1  0.68465800  0.79267000  0.06355500  1
  Bi  Bi8  1  0.22585200  0.37987600  0.14271900  1
  Bi  Bi9  1  0.31534200  0.79267000  0.56355500  1
  O  O10  1  0.46994200  0.50000000  0.75000000  1
  O  O11  1  0.53005800  0.50000000  0.25000000  1
  O  O12  1  0.04315600  0.69232600  0.49698600  1
  O  O13  1  0.87689500  0.17909900  0.29268100  1
  O  O14  1  0.87689500  0.82090100  0.20731900  1
  O  O15  1  0.04315600  0.30767400  0.00301400  1
  O  O16  1  0.95684400  0.30767400  0.50301400  1
  O  O17  1  0.12310500  0.82090100  0.70731900  1
  O  O18  1  0.12310500  0.17909900  0.79268100  1
  O  O19  1  0.95684400  0.69232600  0.99698600  1
  O  O20  1  0.63682000  0.11662500  0.88045000  1
  O  O21  1  0.48587000  0.25424300  0.57601200  1
  O  O22  1  0.48587000  0.74575700  0.92398800  1
  O  O23  1  0.63682000  0.88337500  0.61955000  1
  O  O24  1  0.36318000  0.11662500  0.38045000  1
  O  O25  1  0.51413000  0.74575700  0.42398800  1
  O  O26  1  0.51413000  0.25424300  0.07601200  1
  O  O27  1  0.36318000  0.88337500  0.11955000  1
