# generated using pymatgen
data_BaCaFeF7
_symmetry_space_group_name_H-M   'P 1'
_cell_length_a   10.69977200
_cell_length_b   5.70578200
_cell_length_c   9.94739666
_cell_angle_alpha   88.47795210
_cell_angle_beta   90.00000000
_cell_angle_gamma   90.00000000
_symmetry_Int_Tables_number   1
_chemical_formula_structural   BaCaFeF7
_chemical_formula_sum   'Ba4 Ca4 Fe4 F28'
_cell_volume   607.07993438
_cell_formula_units_Z   4
loop_
 _symmetry_equiv_pos_site_id
 _symmetry_equiv_pos_as_xyz
  1  'x, y, z'
loop_
 _atom_site_type_symbol
 _atom_site_label
 _atom_site_symmetry_multiplicity
 _atom_site_fract_x
 _atom_site_fract_y
 _atom_site_fract_z
 _atom_site_occupancy
  Ba  Ba0  1  0.33511800  0.73377500  0.50768000  1
  Ba  Ba1  1  0.83511800  0.26622500  0.99232000  1
  Ba  Ba2  1  0.66488200  0.26622500  0.49232000  1
  Ba  Ba3  1  0.16488200  0.73377500  0.00768000  1
  Ca  Ca4  1  0.41432900  0.28403000  0.82776700  1
  Ca  Ca5  1  0.91432900  0.71597000  0.67223300  1
  Ca  Ca6  1  0.08567100  0.28403000  0.32776700  1
  Ca  Ca7  1  0.58567100  0.71597000  0.17223300  1
  Fe  Fe8  1  0.62646600  0.80693300  0.80534200  1
  Fe  Fe9  1  0.37353400  0.19306700  0.19465800  1
  Fe  Fe10  1  0.87353400  0.80693300  0.30534200  1
  Fe  Fe11  1  0.12646600  0.19306700  0.69465800  1
  F  F12  1  0.40976300  0.89909400  0.10137100  1
  F  F13  1  0.02561300  0.65574900  0.36854200  1
  F  F14  1  0.71208200  0.53637400  0.72880200  1
  F  F15  1  0.28791800  0.46362600  0.27119800  1
  F  F16  1  0.46150000  0.07655600  0.35333500  1
  F  F17  1  0.79560500  0.70667600  0.47761400  1
  F  F18  1  0.77542800  0.99241600  0.74175500  1
  F  F19  1  0.96150000  0.92344400  0.14666500  1
  F  F20  1  0.47438700  0.65574900  0.86854200  1
  F  F21  1  0.21208200  0.46362600  0.77119800  1
  F  F22  1  0.09023700  0.89909400  0.60137100  1
  F  F23  1  0.59023700  0.10090600  0.89862900  1
  F  F24  1  0.27542800  0.00758400  0.75824500  1
  F  F25  1  0.96138000  0.60198000  0.87750600  1
  F  F26  1  0.53850000  0.92344400  0.64666500  1
  F  F27  1  0.03850000  0.07655600  0.85333500  1
  F  F28  1  0.22457200  0.00758400  0.25824500  1
  F  F29  1  0.90976300  0.10090600  0.39862900  1
  F  F30  1  0.46138000  0.39802000  0.62249400  1
  F  F31  1  0.97438700  0.34425100  0.63145800  1
  F  F32  1  0.03862000  0.39802000  0.12249400  1
  F  F33  1  0.72457200  0.99241600  0.24175500  1
  F  F34  1  0.53862000  0.60198000  0.37750600  1
  F  F35  1  0.29560500  0.29332400  0.02238600  1
  F  F36  1  0.20439500  0.29332400  0.52238600  1
  F  F37  1  0.70439500  0.70667600  0.97761400  1
  F  F38  1  0.52561300  0.34425100  0.13145800  1
  F  F39  1  0.78791800  0.53637400  0.22880200  1
