# generated using pymatgen
data_Ca(SnO2)4
_symmetry_space_group_name_H-M   'P 1'
_cell_length_a   7.83470680
_cell_length_b   7.83470680
_cell_length_c   10.01995107
_cell_angle_alpha   54.01408642
_cell_angle_beta   54.01408642
_cell_angle_gamma   24.17437706
_symmetry_Int_Tables_number   1
_chemical_formula_structural   Ca(SnO2)4
_chemical_formula_sum   'Ca1 Sn4 O8'
_cell_volume   201.32630840
_cell_formula_units_Z   1
loop_
 _symmetry_equiv_pos_site_id
 _symmetry_equiv_pos_as_xyz
  1  'x, y, z'
loop_
 _atom_site_type_symbol
 _atom_site_label
 _atom_site_symmetry_multiplicity
 _atom_site_fract_x
 _atom_site_fract_y
 _atom_site_fract_z
 _atom_site_occupancy
  Ca  Ca0  1  0.63802300  0.63802300  0.82559400  1
  Sn  Sn1  1  0.37025500  0.37025500  0.43283100  1
  Sn  Sn2  1  0.88964000  0.88964000  0.78308400  1
  Sn  Sn3  1  0.15032200  0.15032200  0.15551100  1
  Sn  Sn4  1  0.66448200  0.66448200  0.48044400  1
  O  O5  1  0.13307900  0.13307900  0.38901600  1
  O  O6  1  0.53486700  0.53486700  0.25697100  1
  O  O7  1  0.51398800  0.51398800  0.71752400  1
  O  O8  1  0.86495800  0.86495800  0.56989600  1
  O  O9  1  0.83564300  0.83564300  0.32844000  1
  O  O10  1  0.16204800  0.16204800  0.94289400  1
  O  O11  1  0.19477900  0.19477900  0.60008700  1
  O  O12  1  0.75340600  0.75340600  0.08706000  1
