# generated using pymatgen
data_Mg(VS2)4
_symmetry_space_group_name_H-M   'P 1'
_cell_length_a   7.44476094
_cell_length_b   7.44476094
_cell_length_c   7.44476119
_cell_angle_alpha   51.95415341
_cell_angle_beta   51.95415341
_cell_angle_gamma   51.95415296
_symmetry_Int_Tables_number   1
_chemical_formula_structural   Mg(VS2)4
_chemical_formula_sum   'Mg1 V4 S8'
_cell_volume   236.56865770
_cell_formula_units_Z   1
loop_
 _symmetry_equiv_pos_site_id
 _symmetry_equiv_pos_as_xyz
  1  'x, y, z'
loop_
 _atom_site_type_symbol
 _atom_site_label
 _atom_site_symmetry_multiplicity
 _atom_site_fract_x
 _atom_site_fract_y
 _atom_site_fract_z
 _atom_site_occupancy
  Mg  Mg0  1  0.50000000  0.50000000  0.50000000  1
  V  V1  1  0.00000000  0.50000000  0.50000000  1
  V  V2  1  0.50000000  0.00000000  0.50000000  1
  V  V3  1  0.50000000  0.50000000  0.00000000  1
  V  V4  1  0.00000000  0.00000000  0.00000000  1
  S  S5  1  0.25686600  0.75752200  0.75752200  1
  S  S6  1  0.24247800  0.24247800  0.74313400  1
  S  S7  1  0.74313400  0.24247800  0.24247800  1
  S  S8  1  0.24247800  0.74313400  0.24247800  1
  S  S9  1  0.25892300  0.25892300  0.25892300  1
  S  S10  1  0.74107700  0.74107700  0.74107700  1
  S  S11  1  0.75752200  0.25686600  0.75752200  1
  S  S12  1  0.75752200  0.75752200  0.25686600  1
