# generated using pymatgen
data_Ca3(FeN2)2
_symmetry_space_group_name_H-M   'P 1'
_cell_length_a   6.38716077
_cell_length_b   6.38716077
_cell_length_c   6.38716077
_cell_angle_alpha   135.30107757
_cell_angle_beta   124.77236948
_cell_angle_gamma   73.67232925
_symmetry_Int_Tables_number   1
_chemical_formula_structural   Ca3(FeN2)2
_chemical_formula_sum   'Ca3 Fe2 N4'
_cell_volume   147.02751338
_cell_formula_units_Z   1
loop_
 _symmetry_equiv_pos_site_id
 _symmetry_equiv_pos_as_xyz
  1  'x, y, z'
loop_
 _atom_site_type_symbol
 _atom_site_label
 _atom_site_symmetry_multiplicity
 _atom_site_fract_x
 _atom_site_fract_y
 _atom_site_fract_z
 _atom_site_occupancy
  Ca  Ca0  1  0.83717300  0.80864300  0.02853000  1
  Ca  Ca1  1  0.21988600  0.19135700  0.02853000  1
  Ca  Ca2  1  0.80521400  0.50000000  0.30521400  1
  Fe  Fe3  1  0.61792000  0.11425600  0.50366300  1
  Fe  Fe4  1  0.38940700  0.88574400  0.50366300  1
  N  N5  1  0.73527900  0.27987000  0.45540900  1
  N  N6  1  0.17553900  0.72013000  0.45540900  1
  N  N7  1  0.28314900  0.00000000  0.28314900  1
  N  N8  1  0.73894000  0.00000000  0.73894000  1
