# generated using pymatgen
data_MgW4O9
_symmetry_space_group_name_H-M   'P 1'
_cell_length_a   9.72019600
_cell_length_b   9.72019600
_cell_length_c   3.90967200
_cell_angle_alpha   90.00000000
_cell_angle_beta   90.00000000
_cell_angle_gamma   90.00000000
_symmetry_Int_Tables_number   1
_chemical_formula_structural   MgW4O9
_chemical_formula_sum   'Mg2 W8 O18'
_cell_volume   369.39445202
_cell_formula_units_Z   2
loop_
 _symmetry_equiv_pos_site_id
 _symmetry_equiv_pos_as_xyz
  1  'x, y, z'
loop_
 _atom_site_type_symbol
 _atom_site_label
 _atom_site_symmetry_multiplicity
 _atom_site_fract_x
 _atom_site_fract_y
 _atom_site_fract_z
 _atom_site_occupancy
  Mg  Mg0  1  0.50000000  0.00000000  0.02427100  1
  Mg  Mg1  1  0.00000000  0.50000000  0.97572900  1
  W  W2  1  0.58568900  0.28080700  0.52282600  1
  W  W3  1  0.71919300  0.58568900  0.47717400  1
  W  W4  1  0.21919300  0.08568900  0.52282600  1
  W  W5  1  0.08568900  0.78080700  0.47717400  1
  W  W6  1  0.41431100  0.71919300  0.52282600  1
  W  W7  1  0.78080700  0.91431100  0.52282600  1
  W  W8  1  0.91431100  0.21919300  0.47717400  1
  W  W9  1  0.28080700  0.41431100  0.47717400  1
  O  O10  1  0.50000000  0.50000000  0.50000000  1
  O  O11  1  0.00000000  0.00000000  0.50000000  1
  O  O12  1  0.21910300  0.43734100  0.98088100  1
  O  O13  1  0.93734100  0.28089700  0.98088100  1
  O  O14  1  0.06265900  0.71910300  0.98088100  1
  O  O15  1  0.78089700  0.56265900  0.98088100  1
  O  O16  1  0.28089700  0.06265900  0.01911900  1
  O  O17  1  0.56265900  0.21910300  0.01911900  1
  O  O18  1  0.43734100  0.78089700  0.01911900  1
  O  O19  1  0.71910300  0.93734100  0.01911900  1
  O  O20  1  0.62260400  0.76749400  0.51624100  1
  O  O21  1  0.26749400  0.87739600  0.51624100  1
  O  O22  1  0.73250600  0.12260400  0.51624100  1
  O  O23  1  0.37739600  0.23250600  0.51624100  1
  O  O24  1  0.12260400  0.26749400  0.48375900  1
  O  O25  1  0.23250600  0.62260400  0.48375900  1
  O  O26  1  0.76749400  0.37739600  0.48375900  1
  O  O27  1  0.87739600  0.73250600  0.48375900  1
