# generated using pymatgen
data_CaFe2F10
_symmetry_space_group_name_H-M   'P 1'
_cell_length_a   9.99670400
_cell_length_b   5.51980500
_cell_length_c   7.76230072
_cell_angle_alpha   69.71868927
_cell_angle_beta   90.00000000
_cell_angle_gamma   90.00000000
_symmetry_Int_Tables_number   1
_chemical_formula_structural   CaFe2F10
_chemical_formula_sum   'Ca2 Fe4 F20'
_cell_volume   401.76751651
_cell_formula_units_Z   2
loop_
 _symmetry_equiv_pos_site_id
 _symmetry_equiv_pos_as_xyz
  1  'x, y, z'
loop_
 _atom_site_type_symbol
 _atom_site_label
 _atom_site_symmetry_multiplicity
 _atom_site_fract_x
 _atom_site_fract_y
 _atom_site_fract_z
 _atom_site_occupancy
  Ca  Ca0  1  0.76660300  0.47085100  0.75417600  1
  Ca  Ca1  1  0.23339700  0.47085100  0.25417600  1
  Fe  Fe2  1  0.00613400  0.11376800  0.59978900  1
  Fe  Fe3  1  0.50119700  0.88264100  0.90179800  1
  Fe  Fe4  1  0.49880300  0.88264100  0.40179800  1
  Fe  Fe5  1  0.99386600  0.11376800  0.09978900  1
  F  F6  1  0.12556100  0.38215300  0.54794200  1
  F  F7  1  0.62013700  0.61937900  0.92949300  1
  F  F8  1  0.37986300  0.61937900  0.42949300  1
  F  F9  1  0.87443900  0.38215300  0.04794200  1
  F  F10  1  0.87058700  0.34409600  0.51531900  1
  F  F11  1  0.36622100  0.64782700  0.00403200  1
  F  F12  1  0.63377900  0.64782700  0.50403200  1
  F  F13  1  0.12941300  0.34409600  0.01531900  1
  F  F14  1  0.64209900  0.11082400  0.81287800  1
  F  F15  1  0.13612600  0.89222300  0.69068300  1
  F  F16  1  0.86387400  0.89222300  0.19068300  1
  F  F17  1  0.35790100  0.11082400  0.31287800  1
  F  F18  1  0.39122400  0.14338600  0.86843100  1
  F  F19  1  0.88931000  0.84427800  0.63489700  1
  F  F20  1  0.11069000  0.84427800  0.13489700  1
  F  F21  1  0.60877600  0.14338600  0.36843100  1
  F  F22  1  0.94844500  0.14622800  0.83909800  1
  F  F23  1  0.45823200  0.87320000  0.65600400  1
  F  F24  1  0.54176800  0.87320000  0.15600400  1
  F  F25  1  0.05155500  0.14622800  0.33909800  1
