# generated using pymatgen
data_Ca(FeS2)4
_symmetry_space_group_name_H-M   'P 1'
_cell_length_a   7.55353114
_cell_length_b   7.55353114
_cell_length_c   7.55353126
_cell_angle_alpha   52.10631423
_cell_angle_beta   52.10631423
_cell_angle_gamma   52.10630826
_symmetry_Int_Tables_number   1
_chemical_formula_structural   Ca(FeS2)4
_chemical_formula_sum   'Ca1 Fe4 S8'
_cell_volume   248.20498119
_cell_formula_units_Z   1
loop_
 _symmetry_equiv_pos_site_id
 _symmetry_equiv_pos_as_xyz
  1  'x, y, z'
loop_
 _atom_site_type_symbol
 _atom_site_label
 _atom_site_symmetry_multiplicity
 _atom_site_fract_x
 _atom_site_fract_y
 _atom_site_fract_z
 _atom_site_occupancy
  Ca  Ca0  1  0.50000000  0.50000000  0.50000000  1
  Fe  Fe1  1  0.00000000  0.50000000  0.50000000  1
  Fe  Fe2  1  0.50000000  0.00000000  0.50000000  1
  Fe  Fe3  1  0.50000000  0.50000000  0.00000000  1
  Fe  Fe4  1  0.00000000  0.00000000  0.00000000  1
  S  S5  1  0.26633200  0.77181500  0.77181500  1
  S  S6  1  0.22818500  0.22818500  0.73366800  1
  S  S7  1  0.73366800  0.22818500  0.22818500  1
  S  S8  1  0.22818500  0.73366800  0.22818500  1
  S  S9  1  0.26827500  0.26827500  0.26827500  1
  S  S10  1  0.73172500  0.73172500  0.73172500  1
  S  S11  1  0.77181500  0.26633200  0.77181500  1
  S  S12  1  0.77181500  0.77181500  0.26633200  1
