# generated using pymatgen
data_CaCoN2
_symmetry_space_group_name_H-M   'P 1'
_cell_length_a   8.33822200
_cell_length_b   8.70609600
_cell_length_c   11.77061500
_cell_angle_alpha   90.00000000
_cell_angle_beta   90.00000000
_cell_angle_gamma   90.00000000
_symmetry_Int_Tables_number   1
_chemical_formula_structural   CaCoN2
_chemical_formula_sum   'Ca8 Co8 N16'
_cell_volume   854.46850626
_cell_formula_units_Z   8
loop_
 _symmetry_equiv_pos_site_id
 _symmetry_equiv_pos_as_xyz
  1  'x, y, z'
loop_
 _atom_site_type_symbol
 _atom_site_label
 _atom_site_symmetry_multiplicity
 _atom_site_fract_x
 _atom_site_fract_y
 _atom_site_fract_z
 _atom_site_occupancy
  Ca  Ca0  1  0.61371000  0.92080600  0.67870000  1
  Ca  Ca1  1  0.11822800  0.05067500  0.66909700  1
  Ca  Ca2  1  0.61822800  0.55067500  0.83090300  1
  Ca  Ca3  1  0.11371000  0.42080600  0.82130000  1
  Ca  Ca4  1  0.38177200  0.05067500  0.16909700  1
  Ca  Ca5  1  0.88177200  0.55067500  0.33090300  1
  Ca  Ca6  1  0.88629000  0.92080600  0.17870000  1
  Ca  Ca7  1  0.38629000  0.42080600  0.32130000  1
  Co  Co8  1  0.15198600  0.34093400  0.51448300  1
  Co  Co9  1  0.85543500  0.65495200  0.00772300  1
  Co  Co10  1  0.84801400  0.84093400  0.48551700  1
  Co  Co11  1  0.34801400  0.34093400  0.01448300  1
  Co  Co12  1  0.35543500  0.15495200  0.49227700  1
  Co  Co13  1  0.14456500  0.15495200  0.99227700  1
  Co  Co14  1  0.65198600  0.84093400  0.98551700  1
  Co  Co15  1  0.64456500  0.65495200  0.50772300  1
  N  N16  1  0.09999200  0.07365300  0.11199100  1
  N  N17  1  0.12177700  0.44134500  0.39988800  1
  N  N18  1  0.37822300  0.44134500  0.89988800  1
  N  N19  1  0.61243100  0.63688800  0.64130600  1
  N  N20  1  0.11243100  0.13688800  0.85869400  1
  N  N21  1  0.87822300  0.94134500  0.60011200  1
  N  N22  1  0.59999200  0.57365300  0.38800900  1
  N  N23  1  0.90000800  0.57365300  0.88800900  1
  N  N24  1  0.40000800  0.07365300  0.61199100  1
  N  N25  1  0.42629600  0.32321500  0.13939200  1
  N  N26  1  0.38756900  0.13688800  0.35869400  1
  N  N27  1  0.57370400  0.82321500  0.86060800  1
  N  N28  1  0.62177700  0.94134500  0.10011200  1
  N  N29  1  0.92629600  0.82321500  0.36060800  1
  N  N30  1  0.88756900  0.63688800  0.14130600  1
  N  N31  1  0.07370400  0.32321500  0.63939200  1
