# generated using pymatgen
data_FeSn3
_symmetry_space_group_name_H-M   'P 1'
_cell_length_a   6.64242270
_cell_length_b   6.64242270
_cell_length_c   4.56294200
_cell_angle_alpha   90.00000000
_cell_angle_beta   90.00000000
_cell_angle_gamma   120.00000695
_symmetry_Int_Tables_number   1
_chemical_formula_structural   FeSn3
_chemical_formula_sum   'Fe2 Sn6'
_cell_volume   174.35265600
_cell_formula_units_Z   2
loop_
 _symmetry_equiv_pos_site_id
 _symmetry_equiv_pos_as_xyz
  1  'x, y, z'
loop_
 _atom_site_type_symbol
 _atom_site_label
 _atom_site_symmetry_multiplicity
 _atom_site_fract_x
 _atom_site_fract_y
 _atom_site_fract_z
 _atom_site_occupancy
  Fe  Fe0  1  0.33333300  0.66666700  0.75000000  1
  Fe  Fe1  1  0.66666700  0.33333300  0.25000000  1
  Sn  Sn2  1  0.18211100  0.36422200  0.25000000  1
  Sn  Sn3  1  0.63577800  0.81788900  0.25000000  1
  Sn  Sn4  1  0.18211100  0.81788900  0.25000000  1
  Sn  Sn5  1  0.81788900  0.63577800  0.75000000  1
  Sn  Sn6  1  0.36422200  0.18211100  0.75000000  1
  Sn  Sn7  1  0.81788900  0.18211100  0.75000000  1
