# generated using pymatgen
data_CaCu2(GeO3)4
_symmetry_space_group_name_H-M   'P 1'
_cell_length_a   9.15010500
_cell_length_b   5.29021100
_cell_length_c   10.21065112
_cell_angle_alpha   75.35284220
_cell_angle_beta   90.00000000
_cell_angle_gamma   90.00000000
_symmetry_Int_Tables_number   1
_chemical_formula_structural   CaCu2(GeO3)4
_chemical_formula_sum   'Ca2 Cu4 Ge8 O24'
_cell_volume   478.19397542
_cell_formula_units_Z   2
loop_
 _symmetry_equiv_pos_site_id
 _symmetry_equiv_pos_as_xyz
  1  'x, y, z'
loop_
 _atom_site_type_symbol
 _atom_site_label
 _atom_site_symmetry_multiplicity
 _atom_site_fract_x
 _atom_site_fract_y
 _atom_site_fract_z
 _atom_site_occupancy
  Ca  Ca0  1  0.55116300  0.76648200  0.28892800  1
  Ca  Ca1  1  0.05116300  0.23351800  0.71107200  1
  Cu  Cu2  1  0.33982900  0.25977500  0.23011800  1
  Cu  Cu3  1  0.83982900  0.74022500  0.76988200  1
  Cu  Cu4  1  0.65093500  0.25206400  0.76684900  1
  Cu  Cu5  1  0.15093500  0.74793600  0.23315100  1
  Ge  Ge6  1  0.65284900  0.39035400  0.05258000  1
  Ge  Ge7  1  0.15284900  0.60964600  0.94742000  1
  Ge  Ge8  1  0.35298100  0.11169600  0.94598200  1
  Ge  Ge9  1  0.85298100  0.88830400  0.05401800  1
  Ge  Ge10  1  0.64699700  0.16566000  0.49073900  1
  Ge  Ge11  1  0.14699700  0.83434000  0.50926100  1
  Ge  Ge12  1  0.34795800  0.33164300  0.51352000  1
  Ge  Ge13  1  0.84795800  0.66835700  0.48648000  1
  O  O14  1  0.73356900  0.93225500  0.40803600  1
  O  O15  1  0.23356900  0.06774500  0.59196400  1
  O  O16  1  0.24796100  0.55144400  0.59815500  1
  O  O17  1  0.74796100  0.44855600  0.40184500  1
  O  O18  1  0.69728200  0.04890600  0.10715900  1
  O  O19  1  0.19728200  0.95109400  0.89284100  1
  O  O20  1  0.30058200  0.44223300  0.89475700  1
  O  O21  1  0.80058200  0.55776700  0.10524300  1
  O  O22  1  0.02604400  0.59955500  0.43220200  1
  O  O23  1  0.52604400  0.40044500  0.56779800  1
  O  O24  1  0.97155300  0.90187200  0.58055900  1
  O  O25  1  0.47155300  0.09812800  0.41944100  1
  O  O26  1  0.00571900  0.96633600  0.13872600  1
  O  O27  1  0.50571900  0.03366400  0.86127400  1
  O  O28  1  0.00297700  0.53103100  0.85478600  1
  O  O29  1  0.50297700  0.46896900  0.14521400  1
  O  O30  1  0.64498000  0.48752000  0.87327000  1
  O  O31  1  0.14498000  0.51248000  0.12673000  1
  O  O32  1  0.36898600  0.01397300  0.12776500  1
  O  O33  1  0.86898600  0.98602700  0.87223500  1
  O  O34  1  0.69238500  0.99908900  0.66912100  1
  O  O35  1  0.19238500  0.00091100  0.33087900  1
  O  O36  1  0.31168600  0.51487700  0.33234900  1
  O  O37  1  0.81168600  0.48512300  0.66765100  1
