# generated using pymatgen
data_Mg(CrS2)4
_symmetry_space_group_name_H-M   'P 1'
_cell_length_a   7.15822744
_cell_length_b   7.15822743
_cell_length_c   7.15822918
_cell_angle_alpha   56.93656052
_cell_angle_beta   56.93655060
_cell_angle_gamma   56.93656018
_symmetry_Int_Tables_number   1
_chemical_formula_structural   Mg(CrS2)4
_chemical_formula_sum   'Mg1 Cr4 S8'
_cell_volume   241.03333830
_cell_formula_units_Z   1
loop_
 _symmetry_equiv_pos_site_id
 _symmetry_equiv_pos_as_xyz
  1  'x, y, z'
loop_
 _atom_site_type_symbol
 _atom_site_label
 _atom_site_symmetry_multiplicity
 _atom_site_fract_x
 _atom_site_fract_y
 _atom_site_fract_z
 _atom_site_occupancy
  Mg  Mg0  1  0.50000000  0.50000100  0.49999900  1
  Cr  Cr1  1  0.50000100  0.99999900  0.50000100  1
  Cr  Cr2  1  0.99999900  0.50000000  0.50000100  1
  Cr  Cr3  1  0.50000000  0.50000000  0.00000000  1
  Cr  Cr4  1  0.00000000  0.00000000  0.00000000  1
  S  S5  1  0.75907500  0.25695100  0.75907500  1
  S  S6  1  0.24092400  0.24092500  0.74304900  1
  S  S7  1  0.24092400  0.74305000  0.24092400  1
  S  S8  1  0.74304800  0.24092500  0.24092500  1
  S  S9  1  0.25954900  0.25955000  0.25954900  1
  S  S10  1  0.74045100  0.74045100  0.74045100  1
  S  S11  1  0.25695200  0.75907600  0.75907500  1
  S  S12  1  0.75907600  0.75907600  0.25695100  1
