# generated using pymatgen
data_FeS2
_symmetry_space_group_name_H-M   'P 1'
_cell_length_a   6.57402831
_cell_length_b   6.57402831
_cell_length_c   6.57402831
_cell_angle_alpha   60.00000000
_cell_angle_beta   60.00000000
_cell_angle_gamma   60.00000000
_symmetry_Int_Tables_number   1
_chemical_formula_structural   FeS2
_chemical_formula_sum   'Fe4 S8'
_cell_volume   200.89989637
_cell_formula_units_Z   4
loop_
 _symmetry_equiv_pos_site_id
 _symmetry_equiv_pos_as_xyz
  1  'x, y, z'
loop_
 _atom_site_type_symbol
 _atom_site_label
 _atom_site_symmetry_multiplicity
 _atom_site_fract_x
 _atom_site_fract_y
 _atom_site_fract_z
 _atom_site_occupancy
  Fe  Fe0  1  0.12500000  0.12500000  0.62500000  1
  Fe  Fe1  1  0.12500000  0.62500000  0.12500000  1
  Fe  Fe2  1  0.62500000  0.12500000  0.12500000  1
  Fe  Fe3  1  0.12500000  0.12500000  0.12500000  1
  S  S4  1  0.37038500  0.37038500  0.37038500  1
  S  S5  1  0.36115400  0.87961500  0.87961500  1
  S  S6  1  0.87961500  0.87961500  0.36115400  1
  S  S7  1  0.87961500  0.36115400  0.87961500  1
  S  S8  1  0.87961500  0.87961500  0.87961500  1
  S  S9  1  0.88884600  0.37038500  0.37038500  1
  S  S10  1  0.37038500  0.88884600  0.37038500  1
  S  S11  1  0.37038500  0.37038500  0.88884600  1
