# generated using pymatgen
data_CaMn2O4
_symmetry_space_group_name_H-M   'P 1'
_cell_length_a   6.34532703
_cell_length_b   6.34532703
_cell_length_c   6.34532703
_cell_angle_alpha   120.64133291
_cell_angle_beta   120.64133291
_cell_angle_gamma   88.89272240
_symmetry_Int_Tables_number   1
_chemical_formula_structural   CaMn2O4
_chemical_formula_sum   'Ca2 Mn4 O8'
_cell_volume   178.86633288
_cell_formula_units_Z   2
loop_
 _symmetry_equiv_pos_site_id
 _symmetry_equiv_pos_as_xyz
  1  'x, y, z'
loop_
 _atom_site_type_symbol
 _atom_site_label
 _atom_site_symmetry_multiplicity
 _atom_site_fract_x
 _atom_site_fract_y
 _atom_site_fract_z
 _atom_site_occupancy
  Ca  Ca0  1  0.00000000  0.00000000  0.00000000  1
  Ca  Ca1  1  0.75000000  0.25000000  0.50000000  1
  Mn  Mn2  1  0.87500000  0.62500000  0.25000000  1
  Mn  Mn3  1  0.37500000  0.62500000  0.75000000  1
  Mn  Mn4  1  0.37500000  0.62500000  0.25000000  1
  Mn  Mn5  1  0.37500000  0.12500000  0.75000000  1
  O  O6  1  0.65231700  0.47177800  0.30159500  1
  O  O7  1  0.64927800  0.34768300  0.81946100  1
  O  O8  1  0.52822200  0.82981700  0.18053900  1
  O  O9  1  0.57981700  0.89927800  0.80159500  1
  O  O10  1  0.22177800  0.42018300  0.31946100  1
  O  O11  1  0.10072200  0.90231700  0.68053900  1
  O  O12  1  0.17018300  0.35072200  0.69840500  1
  O  O13  1  0.09768300  0.77822200  0.19840500  1
