# generated using pymatgen
data_MnO2
_symmetry_space_group_name_H-M   'P 1'
_cell_length_a   2.91700700
_cell_length_b   8.62749600
_cell_length_c   10.38883400
_cell_angle_alpha   90.00000000
_cell_angle_beta   90.00000000
_cell_angle_gamma   90.00000000
_symmetry_Int_Tables_number   1
_chemical_formula_structural   MnO2
_chemical_formula_sum   'Mn8 O16'
_cell_volume   261.45023997
_cell_formula_units_Z   8
loop_
 _symmetry_equiv_pos_site_id
 _symmetry_equiv_pos_as_xyz
  1  'x, y, z'
loop_
 _atom_site_type_symbol
 _atom_site_label
 _atom_site_symmetry_multiplicity
 _atom_site_fract_x
 _atom_site_fract_y
 _atom_site_fract_z
 _atom_site_occupancy
  Mn  Mn0  1  0.75000000  0.94452300  0.88529400  1
  Mn  Mn1  1  0.75000000  0.44452300  0.61470600  1
  Mn  Mn2  1  0.25000000  0.05547700  0.11470600  1
  Mn  Mn3  1  0.25000000  0.55547700  0.38529400  1
  Mn  Mn4  1  0.75000000  0.91621400  0.39861200  1
  Mn  Mn5  1  0.25000000  0.58378600  0.89861200  1
  Mn  Mn6  1  0.75000000  0.41621400  0.10138800  1
  Mn  Mn7  1  0.25000000  0.08378600  0.60138800  1
  O  O8  1  0.75000000  0.11724900  0.48091700  1
  O  O9  1  0.25000000  0.58356900  0.57038300  1
  O  O10  1  0.75000000  0.19598600  0.14888600  1
  O  O11  1  0.25000000  0.30401400  0.64888600  1
  O  O12  1  0.25000000  0.88275100  0.51908300  1
  O  O13  1  0.25000000  0.46806500  0.21267100  1
  O  O14  1  0.25000000  0.80401400  0.85111400  1
  O  O15  1  0.75000000  0.91643100  0.07038300  1
  O  O16  1  0.75000000  0.61724900  0.01908300  1
  O  O17  1  0.75000000  0.53193500  0.78732900  1
  O  O18  1  0.25000000  0.96806500  0.28732900  1
  O  O19  1  0.25000000  0.38275100  0.98091700  1
  O  O20  1  0.75000000  0.03193500  0.71267100  1
  O  O21  1  0.75000000  0.41643100  0.42961700  1
  O  O22  1  0.25000000  0.08356900  0.92961700  1
  O  O23  1  0.75000000  0.69598600  0.35111400  1
