# generated using pymatgen
data_VZnO2
_symmetry_space_group_name_H-M   'P 1'
_cell_length_a   3.05556300
_cell_length_b   7.62983978
_cell_length_c   8.45534192
_cell_angle_alpha   88.17967899
_cell_angle_beta   100.19188926
_cell_angle_gamma   101.49037205
_symmetry_Int_Tables_number   1
_chemical_formula_structural   VZnO2
_chemical_formula_sum   'V4 Zn4 O8'
_cell_volume   190.12316330
_cell_formula_units_Z   4
loop_
 _symmetry_equiv_pos_site_id
 _symmetry_equiv_pos_as_xyz
  1  'x, y, z'
loop_
 _atom_site_type_symbol
 _atom_site_label
 _atom_site_symmetry_multiplicity
 _atom_site_fract_x
 _atom_site_fract_y
 _atom_site_fract_z
 _atom_site_occupancy
  V  V0  1  0.82290500  0.48353200  0.17604400  1
  V  V1  1  0.63398900  0.78637900  0.50806800  1
  V  V2  1  0.31357700  0.18255800  0.47041700  1
  V  V3  1  0.14362500  0.48784800  0.80783200  1
  Zn  Zn4  1  0.54663300  0.88216000  0.19684400  1
  Zn  Zn5  1  0.47361800  0.09221800  0.78374700  1
  Zn  Zn6  1  0.93211700  0.85756700  0.89933300  1
  Zn  Zn7  1  0.10487600  0.11162800  0.07281000  1
  O  O8  1  0.52039200  0.34169300  0.70705300  1
  O  O9  1  0.80904100  0.29369900  0.34862200  1
  O  O10  1  0.14180100  0.68063400  0.63391500  1
  O  O11  1  0.44546400  0.63132700  0.27645000  1
  O  O12  1  0.19706000  0.35957000  0.04401300  1
  O  O13  1  0.14111600  0.92727100  0.37674900  1
  O  O14  1  0.77146800  0.61242300  0.93871300  1
  O  O15  1  0.80992800  0.04387400  0.59872500  1
