# generated using pymatgen
data_MgTi2O4
_symmetry_space_group_name_H-M   'P 1'
_cell_length_a   5.01970900
_cell_length_b   5.80455300
_cell_length_c   10.52677700
_cell_angle_alpha   90.00000000
_cell_angle_beta   90.00000000
_cell_angle_gamma   90.00000000
_symmetry_Int_Tables_number   1
_chemical_formula_structural   MgTi2O4
_chemical_formula_sum   'Mg4 Ti8 O16'
_cell_volume   306.72045874
_cell_formula_units_Z   4
loop_
 _symmetry_equiv_pos_site_id
 _symmetry_equiv_pos_as_xyz
  1  'x, y, z'
loop_
 _atom_site_type_symbol
 _atom_site_label
 _atom_site_symmetry_multiplicity
 _atom_site_fract_x
 _atom_site_fract_y
 _atom_site_fract_z
 _atom_site_occupancy
  Mg  Mg0  1  0.33509500  0.00000000  0.50000000  1
  Mg  Mg1  1  0.66490500  0.50000000  0.00000000  1
  Mg  Mg2  1  0.02700300  0.00000000  0.00000000  1
  Mg  Mg3  1  0.97299700  0.50000000  0.50000000  1
  Ti  Ti4  1  0.03377200  0.50000000  0.23680200  1
  Ti  Ti5  1  0.03377200  0.50000000  0.76319800  1
  Ti  Ti6  1  0.96622800  0.00000000  0.26319800  1
  Ti  Ti7  1  0.96622800  0.00000000  0.73680200  1
  Ti  Ti8  1  0.50000000  0.25000000  0.25000000  1
  Ti  Ti9  1  0.50000000  0.75000000  0.75000000  1
  Ti  Ti10  1  0.50000000  0.75000000  0.25000000  1
  Ti  Ti11  1  0.50000000  0.25000000  0.75000000  1
  O  O12  1  0.36334900  0.50000000  0.13165200  1
  O  O13  1  0.36334900  0.50000000  0.86834800  1
  O  O14  1  0.63665100  0.00000000  0.36834800  1
  O  O15  1  0.63665100  0.00000000  0.63165200  1
  O  O16  1  0.68814700  0.50000000  0.34861200  1
  O  O17  1  0.68814700  0.50000000  0.65138800  1
  O  O18  1  0.31185300  0.00000000  0.15138800  1
  O  O19  1  0.31185300  0.00000000  0.84861200  1
  O  O20  1  0.16025400  0.25130700  0.36717000  1
  O  O21  1  0.16025400  0.74869300  0.63283000  1
  O  O22  1  0.83974600  0.75130700  0.13283000  1
  O  O23  1  0.83974600  0.24869300  0.86717000  1
  O  O24  1  0.83974600  0.24869300  0.13283000  1
  O  O25  1  0.83974600  0.75130700  0.86717000  1
  O  O26  1  0.16025400  0.74869300  0.36717000  1
  O  O27  1  0.16025400  0.25130700  0.63283000  1
