# generated using pymatgen
data_Y2Mn3O9
_symmetry_space_group_name_H-M   'P 1'
_cell_length_a   6.97866565
_cell_length_b   6.97866565
_cell_length_c   12.47741700
_cell_angle_alpha   90.00000000
_cell_angle_beta   90.00000000
_cell_angle_gamma   146.79822821
_symmetry_Int_Tables_number   1
_chemical_formula_structural   Y2Mn3O9
_chemical_formula_sum   'Y4 Mn6 O18'
_cell_volume   332.75475194
_cell_formula_units_Z   2
loop_
 _symmetry_equiv_pos_site_id
 _symmetry_equiv_pos_as_xyz
  1  'x, y, z'
loop_
 _atom_site_type_symbol
 _atom_site_label
 _atom_site_symmetry_multiplicity
 _atom_site_fract_x
 _atom_site_fract_y
 _atom_site_fract_z
 _atom_site_occupancy
  Y  Y0  1  0.02708200  0.97291800  0.51769800  1
  Y  Y1  1  0.29957100  0.70042900  0.48017700  1
  Y  Y2  1  0.97291800  0.02708200  0.01769800  1
  Y  Y3  1  0.70042900  0.29957100  0.98017700  1
  Mn  Mn4  1  0.13971700  0.86028300  0.23819500  1
  Mn  Mn5  1  0.80368500  0.19631500  0.24806600  1
  Mn  Mn6  1  0.46917300  0.53082700  0.26618800  1
  Mn  Mn7  1  0.53082700  0.46917300  0.76618800  1
  Mn  Mn8  1  0.19631500  0.80368500  0.74806600  1
  Mn  Mn9  1  0.86028300  0.13971700  0.73819500  1
  O  O10  1  0.52911500  0.47088500  0.61593700  1
  O  O11  1  0.17724600  0.82275400  0.59955500  1
  O  O12  1  0.86640600  0.13359400  0.58661800  1
  O  O13  1  0.13359400  0.86640600  0.08661800  1
  O  O14  1  0.82275400  0.17724600  0.09955500  1
  O  O15  1  0.47088500  0.52911500  0.11593700  1
  O  O16  1  0.15062200  0.84937800  0.38870900  1
  O  O17  1  0.79726300  0.20273700  0.39439800  1
  O  O18  1  0.46700100  0.53299900  0.41682900  1
  O  O19  1  0.53299900  0.46700100  0.91682900  1
  O  O20  1  0.20273700  0.79726300  0.89439800  1
  O  O21  1  0.84937800  0.15062200  0.88870900  1
  O  O22  1  0.02326100  0.97673900  0.75765600  1
  O  O23  1  0.69239500  0.30760500  0.75635500  1
  O  O24  1  0.34688100  0.65311900  0.73361700  1
  O  O25  1  0.97673900  0.02326100  0.25765600  1
  O  O26  1  0.65311900  0.34688100  0.23361700  1
  O  O27  1  0.30760500  0.69239500  0.25635500  1
