# generated using pymatgen
data_Y2(NiO3)3
_symmetry_space_group_name_H-M   'P 1'
_cell_length_a   5.17362100
_cell_length_b   7.48197800
_cell_length_c   15.98554500
_cell_angle_alpha   90.00000000
_cell_angle_beta   90.00000000
_cell_angle_gamma   90.00000000
_symmetry_Int_Tables_number   1
_chemical_formula_structural   Y2(NiO3)3
_chemical_formula_sum   'Y8 Ni12 O36'
_cell_volume   618.78315862
_cell_formula_units_Z   4
loop_
 _symmetry_equiv_pos_site_id
 _symmetry_equiv_pos_as_xyz
  1  'x, y, z'
loop_
 _atom_site_type_symbol
 _atom_site_label
 _atom_site_symmetry_multiplicity
 _atom_site_fract_x
 _atom_site_fract_y
 _atom_site_fract_z
 _atom_site_occupancy
  Y  Y0  1  0.51583500  0.25000000  0.48551500  1
  Y  Y1  1  0.51928200  0.25000000  0.81149200  1
  Y  Y2  1  0.98071800  0.25000000  0.31149200  1
  Y  Y3  1  0.98416500  0.25000000  0.98551500  1
  Y  Y4  1  0.48071800  0.75000000  0.18850800  1
  Y  Y5  1  0.48416500  0.75000000  0.51448500  1
  Y  Y6  1  0.01583500  0.75000000  0.01448500  1
  Y  Y7  1  0.01928200  0.75000000  0.68850800  1
  Ni  Ni8  1  0.99763500  0.00208000  0.16559600  1
  Ni  Ni9  1  0.00000000  0.00000000  0.50000000  1
  Ni  Ni10  1  0.00236500  0.99792000  0.83440400  1
  Ni  Ni11  1  0.50000000  0.50000000  0.00000000  1
  Ni  Ni12  1  0.49763500  0.50208000  0.33440400  1
  Ni  Ni13  1  0.50236500  0.49792000  0.66559600  1
  Ni  Ni14  1  0.99763500  0.49792000  0.16559600  1
  Ni  Ni15  1  0.00000000  0.50000000  0.50000000  1
  Ni  Ni16  1  0.00236500  0.50208000  0.83440400  1
  Ni  Ni17  1  0.50000000  0.00000000  0.00000000  1
  Ni  Ni18  1  0.49763500  0.99792000  0.33440400  1
  Ni  Ni19  1  0.50236500  0.00208000  0.66559600  1
  O  O20  1  0.28997700  0.56240800  0.09520300  1
  O  O21  1  0.31369300  0.52584500  0.43711100  1
  O  O22  1  0.30340700  0.54695300  0.76540800  1
  O  O23  1  0.19659300  0.95304700  0.26540800  1
  O  O24  1  0.21002300  0.93759200  0.59520300  1
  O  O25  1  0.18630700  0.97415500  0.93711100  1
  O  O26  1  0.69659300  0.45304700  0.23459200  1
  O  O27  1  0.68630700  0.47415500  0.56288900  1
  O  O28  1  0.71002300  0.43759200  0.90479700  1
  O  O29  1  0.81369300  0.02584500  0.06288900  1
  O  O30  1  0.78997700  0.06240800  0.40479700  1
  O  O31  1  0.80340700  0.04695300  0.73459200  1
  O  O32  1  0.81369300  0.47415500  0.06288900  1
  O  O33  1  0.78997700  0.43759200  0.40479700  1
  O  O34  1  0.80340700  0.45304700  0.73459200  1
  O  O35  1  0.69659300  0.04695300  0.23459200  1
  O  O36  1  0.68630700  0.02584500  0.56288900  1
  O  O37  1  0.71002300  0.06240800  0.90479700  1
  O  O38  1  0.19659300  0.54695300  0.26540800  1
  O  O39  1  0.21002300  0.56240800  0.59520300  1
  O  O40  1  0.18630700  0.52584500  0.93711100  1
  O  O41  1  0.28997700  0.93759200  0.09520300  1
  O  O42  1  0.31369300  0.97415500  0.43711100  1
  O  O43  1  0.30340700  0.95304700  0.76540800  1
  O  O44  1  0.90474300  0.75000000  0.15779100  1
  O  O45  1  0.92343100  0.75000000  0.49621200  1
  O  O46  1  0.90266000  0.75000000  0.82909600  1
  O  O47  1  0.59734000  0.75000000  0.32909600  1
  O  O48  1  0.59525700  0.75000000  0.65779100  1
  O  O49  1  0.57656900  0.75000000  0.99621200  1
  O  O50  1  0.09734000  0.25000000  0.17090400  1
  O  O51  1  0.07656900  0.25000000  0.50378800  1
  O  O52  1  0.09525700  0.25000000  0.84220900  1
  O  O53  1  0.42343100  0.25000000  0.00378800  1
  O  O54  1  0.40474300  0.25000000  0.34220900  1
  O  O55  1  0.40266000  0.25000000  0.67090400  1
