# generated using pymatgen
data_LaTiCrO6
_symmetry_space_group_name_H-M   'P 1'
_cell_length_a   5.41205600
_cell_length_b   5.38739300
_cell_length_c   9.37688255
_cell_angle_alpha   54.86928175
_cell_angle_beta   90.00000000
_cell_angle_gamma   90.00000000
_symmetry_Int_Tables_number   1
_chemical_formula_structural   LaTiCrO6
_chemical_formula_sum   'La2 Ti2 Cr2 O12'
_cell_volume   223.59828299
_cell_formula_units_Z   2
loop_
 _symmetry_equiv_pos_site_id
 _symmetry_equiv_pos_as_xyz
  1  'x, y, z'
loop_
 _atom_site_type_symbol
 _atom_site_label
 _atom_site_symmetry_multiplicity
 _atom_site_fract_x
 _atom_site_fract_y
 _atom_site_fract_z
 _atom_site_occupancy
  La  La0  1  0.22850100  0.74576400  0.25033200  1
  La  La1  1  0.77149900  0.74576400  0.75033200  1
  Ti  Ti2  1  0.25313800  0.48758600  0.00339900  1
  Ti  Ti3  1  0.74686200  0.48758600  0.50339900  1
  Cr  Cr4  1  0.25891800  0.98909900  0.50473600  1
  Cr  Cr5  1  0.74108200  0.98909900  0.00473600  1
  O  O6  1  0.74363800  0.20303100  0.74952700  1
  O  O7  1  0.47898300  0.75132400  0.02271900  1
  O  O8  1  0.46623300  0.28338600  0.47659200  1
  O  O9  1  0.97459700  0.73138000  0.01742400  1
  O  O10  1  0.98330000  0.25811000  0.47863700  1
  O  O11  1  0.24918800  0.79049700  0.74642700  1
  O  O12  1  0.25636200  0.20303100  0.24952700  1
  O  O13  1  0.52101700  0.75132400  0.52271900  1
  O  O14  1  0.53376700  0.28338600  0.97659200  1
  O  O15  1  0.02540300  0.73138000  0.51742400  1
  O  O16  1  0.01670000  0.25811000  0.97863700  1
  O  O17  1  0.75081200  0.79049700  0.24642700  1
