# generated using pymatgen
data_CrPO4
_symmetry_space_group_name_H-M   'P 1'
_cell_length_a   9.20984745
_cell_length_b   9.20984745
_cell_length_c   15.92034001
_cell_angle_alpha   62.14259164
_cell_angle_beta   62.14259164
_cell_angle_gamma   31.05286882
_symmetry_Int_Tables_number   1
_chemical_formula_structural   CrPO4
_chemical_formula_sum   'Cr8 P8 O32'
_cell_volume   609.16885928
_cell_formula_units_Z   8
loop_
 _symmetry_equiv_pos_site_id
 _symmetry_equiv_pos_as_xyz
  1  'x, y, z'
loop_
 _atom_site_type_symbol
 _atom_site_label
 _atom_site_symmetry_multiplicity
 _atom_site_fract_x
 _atom_site_fract_y
 _atom_site_fract_z
 _atom_site_occupancy
  Cr  Cr0  1  0.38837000  0.81778600  0.02712500  1
  Cr  Cr1  1  0.18221400  0.61163000  0.47287500  1
  Cr  Cr2  1  0.61163000  0.18221400  0.97287500  1
  Cr  Cr3  1  0.00000000  0.50000000  0.00000000  1
  Cr  Cr4  1  0.81778600  0.38837000  0.52712500  1
  Cr  Cr5  1  0.67816800  0.32183200  0.75000000  1
  Cr  Cr6  1  0.32183200  0.67816800  0.25000000  1
  Cr  Cr7  1  0.50000000  0.00000000  0.50000000  1
  P  P8  1  0.48407300  0.94381400  0.14294800  1
  P  P9  1  0.79901000  0.23511100  0.38125800  1
  P  P10  1  0.51592700  0.05618600  0.85705200  1
  P  P11  1  0.23511100  0.79901000  0.88125800  1
  P  P12  1  0.94381400  0.48407300  0.64294800  1
  P  P13  1  0.05618600  0.51592700  0.35705200  1
  P  P14  1  0.20099000  0.76488900  0.61874200  1
  P  P15  1  0.76488900  0.20099000  0.11874200  1
  O  O16  1  0.19563400  0.28493100  0.90450800  1
  O  O17  1  0.69858600  0.15209200  0.07292800  1
  O  O18  1  0.28493100  0.19563400  0.40450800  1
  O  O19  1  0.59711200  0.25041600  0.45090800  1
  O  O20  1  0.64994700  0.79961900  0.94640500  1
  O  O21  1  0.66939400  0.43696300  0.28855000  1
  O  O22  1  0.74958400  0.40288800  0.04909200  1
  O  O23  1  0.91385100  0.09430300  0.86342400  1
  O  O24  1  0.40288800  0.74958400  0.54909200  1
  O  O25  1  0.84790800  0.30141400  0.42707200  1
  O  O26  1  0.61216800  0.13820900  0.86020100  1
  O  O27  1  0.02073100  0.38834000  0.73541400  1
  O  O28  1  0.30141400  0.84790800  0.92707200  1
  O  O29  1  0.09430300  0.91385100  0.36342400  1
  O  O30  1  0.80436600  0.71506900  0.09549200  1
  O  O31  1  0.38783200  0.86179100  0.13979900  1
  O  O32  1  0.38834000  0.02073100  0.23541400  1
  O  O33  1  0.25041600  0.59711200  0.95090800  1
  O  O34  1  0.13820900  0.61216800  0.36020100  1
  O  O35  1  0.97926900  0.61166000  0.26458600  1
  O  O36  1  0.90569700  0.08614900  0.63657600  1
  O  O37  1  0.79961900  0.64994700  0.44640500  1
  O  O38  1  0.08614900  0.90569700  0.13657600  1
  O  O39  1  0.43696300  0.66939400  0.78855000  1
  O  O40  1  0.15209200  0.69858600  0.57292800  1
  O  O41  1  0.71506900  0.80436600  0.59549200  1
  O  O42  1  0.61166000  0.97926900  0.76458600  1
  O  O43  1  0.20038100  0.35005300  0.55359500  1
  O  O44  1  0.35005300  0.20038100  0.05359500  1
  O  O45  1  0.56303700  0.33060600  0.21145000  1
  O  O46  1  0.33060600  0.56303700  0.71145000  1
  O  O47  1  0.86179100  0.38783200  0.63979900  1
