# generated using pymatgen
data_CaTi2O4
_symmetry_space_group_name_H-M   'P 1'
_cell_length_a   2.99500900
_cell_length_b   9.41910700
_cell_length_c   10.93460300
_cell_angle_alpha   90.00000000
_cell_angle_beta   90.00000000
_cell_angle_gamma   90.00000000
_symmetry_Int_Tables_number   1
_chemical_formula_structural   CaTi2O4
_chemical_formula_sum   'Ca4 Ti8 O16'
_cell_volume   308.46854295
_cell_formula_units_Z   4
loop_
 _symmetry_equiv_pos_site_id
 _symmetry_equiv_pos_as_xyz
  1  'x, y, z'
loop_
 _atom_site_type_symbol
 _atom_site_label
 _atom_site_symmetry_multiplicity
 _atom_site_fract_x
 _atom_site_fract_y
 _atom_site_fract_z
 _atom_site_occupancy
  Ca  Ca0  1  0.25000000  0.24037900  0.84253900  1
  Ca  Ca1  1  0.75000000  0.75962100  0.15746100  1
  Ca  Ca2  1  0.25000000  0.74037900  0.65746100  1
  Ca  Ca3  1  0.75000000  0.25962100  0.34253900  1
  Ti  Ti4  1  0.75000000  0.41719200  0.60271600  1
  Ti  Ti5  1  0.25000000  0.08280800  0.10271600  1
  Ti  Ti6  1  0.75000000  0.91719200  0.89728400  1
  Ti  Ti7  1  0.25000000  0.58280800  0.39728400  1
  Ti  Ti8  1  0.25000000  0.56252300  0.89144700  1
  Ti  Ti9  1  0.75000000  0.43747700  0.10855300  1
  Ti  Ti10  1  0.25000000  0.06252300  0.60855300  1
  Ti  Ti11  1  0.75000000  0.93747700  0.39144700  1
  O  O12  1  0.75000000  0.91117200  0.57492100  1
  O  O13  1  0.25000000  0.08882800  0.42507900  1
  O  O14  1  0.75000000  0.41117200  0.92507900  1
  O  O15  1  0.25000000  0.58882800  0.07492100  1
  O  O16  1  0.75000000  0.02127600  0.21809200  1
  O  O17  1  0.25000000  0.97872400  0.78190800  1
  O  O18  1  0.75000000  0.52127600  0.28190800  1
  O  O19  1  0.25000000  0.47872400  0.71809200  1
  O  O20  1  0.75000000  0.61795500  0.52705100  1
  O  O21  1  0.25000000  0.38204500  0.47294900  1
  O  O22  1  0.75000000  0.11795500  0.97294900  1
  O  O23  1  0.25000000  0.88204500  0.02705100  1
  O  O24  1  0.25000000  0.79080300  0.33874300  1
  O  O25  1  0.75000000  0.20919700  0.66125700  1
  O  O26  1  0.75000000  0.70919700  0.83874300  1
  O  O27  1  0.25000000  0.29080300  0.16125700  1
