# generated using pymatgen
data_CoP2O7
_symmetry_space_group_name_H-M   'P 1'
_cell_length_a   8.27325500
_cell_length_b   7.10701900
_cell_length_c   9.28220660
_cell_angle_alpha   65.87630145
_cell_angle_beta   90.00000000
_cell_angle_gamma   90.00000000
_symmetry_Int_Tables_number   1
_chemical_formula_structural   CoP2O7
_chemical_formula_sum   'Co4 P8 O28'
_cell_volume   498.11154942
_cell_formula_units_Z   4
loop_
 _symmetry_equiv_pos_site_id
 _symmetry_equiv_pos_as_xyz
  1  'x, y, z'
loop_
 _atom_site_type_symbol
 _atom_site_label
 _atom_site_symmetry_multiplicity
 _atom_site_fract_x
 _atom_site_fract_y
 _atom_site_fract_z
 _atom_site_occupancy
  Co  Co0  1  0.08474500  0.26029600  0.36509600  1
  Co  Co1  1  0.91525500  0.73970400  0.63490400  1
  Co  Co2  1  0.58474500  0.73970400  0.13490400  1
  Co  Co3  1  0.41525500  0.26029600  0.86509600  1
  P  P4  1  0.72646100  0.06713300  0.75238200  1
  P  P5  1  0.24533600  0.53879200  0.03362400  1
  P  P6  1  0.77353900  0.06713300  0.25238200  1
  P  P7  1  0.25466400  0.53879200  0.53362400  1
  P  P8  1  0.22646100  0.93286700  0.74761800  1
  P  P9  1  0.74533600  0.46120800  0.46637600  1
  P  P10  1  0.75466400  0.46120800  0.96637600  1
  P  P11  1  0.27353900  0.93286700  0.24761800  1
  O  O12  1  0.16218000  0.73520100  0.89687100  1
  O  O13  1  0.61467300  0.11241100  0.31665200  1
  O  O14  1  0.88532700  0.11241100  0.81665200  1
  O  O15  1  0.40079700  0.60832800  0.08333400  1
  O  O16  1  0.83782000  0.26479900  0.10312900  1
  O  O17  1  0.08748400  0.97418200  0.62703700  1
  O  O18  1  0.59920300  0.39167200  0.91666600  1
  O  O19  1  0.11188500  0.47433900  0.16236800  1
  O  O20  1  0.23540400  0.37170300  0.47105100  1
  O  O21  1  0.91251600  0.02581800  0.37296300  1
  O  O22  1  0.41251600  0.97418200  0.12703700  1
  O  O23  1  0.74510500  0.89921500  0.19170600  1
  O  O24  1  0.24510500  0.10078500  0.30829400  1
  O  O25  1  0.33782000  0.73520100  0.39687100  1
  O  O26  1  0.58748400  0.02581800  0.87296300  1
  O  O27  1  0.11467300  0.88758900  0.18334800  1
  O  O28  1  0.25489500  0.10078500  0.80829400  1
  O  O29  1  0.88811500  0.52566100  0.83763200  1
  O  O30  1  0.26459600  0.37170300  0.97105100  1
  O  O31  1  0.73540400  0.62829700  0.02894900  1
  O  O32  1  0.90079700  0.39167200  0.41666600  1
  O  O33  1  0.38811500  0.47433900  0.66236800  1
  O  O34  1  0.61188500  0.52566100  0.33763200  1
  O  O35  1  0.38532700  0.88758900  0.68334800  1
  O  O36  1  0.75489500  0.89921500  0.69170600  1
  O  O37  1  0.09920300  0.60832800  0.58333400  1
  O  O38  1  0.76459600  0.62829700  0.52894900  1
  O  O39  1  0.66218000  0.26479900  0.60312900  1
