# generated using pymatgen
data_ZnCr2O4
_symmetry_space_group_name_H-M   'P 1'
_cell_length_a   7.35840967
_cell_length_b   7.35840967
_cell_length_c   9.47568272
_cell_angle_alpha   51.12779293
_cell_angle_beta   51.12779293
_cell_angle_gamma   23.41509252
_symmetry_Int_Tables_number   1
_chemical_formula_structural   ZnCr2O4
_chemical_formula_sum   'Zn2 Cr4 O8'
_cell_volume   156.50733683
_cell_formula_units_Z   2
loop_
 _symmetry_equiv_pos_site_id
 _symmetry_equiv_pos_as_xyz
  1  'x, y, z'
loop_
 _atom_site_type_symbol
 _atom_site_label
 _atom_site_symmetry_multiplicity
 _atom_site_fract_x
 _atom_site_fract_y
 _atom_site_fract_z
 _atom_site_occupancy
  Zn  Zn0  1  0.66784500  0.66784500  0.31580800  1
  Zn  Zn1  1  0.33215500  0.33215500  0.68419200  1
  Cr  Cr2  1  0.36402500  0.36402500  0.95757500  1
  Cr  Cr3  1  0.85386300  0.85386300  0.31329600  1
  Cr  Cr4  1  0.14613700  0.14613700  0.68670400  1
  Cr  Cr5  1  0.63597500  0.63597500  0.04242500  1
  O  O6  1  0.13831500  0.13831500  0.90296800  1
  O  O7  1  0.53730100  0.53730100  0.75018500  1
  O  O8  1  0.46269900  0.46269900  0.24981500  1
  O  O9  1  0.86168500  0.86168500  0.09703200  1
  O  O10  1  0.83101700  0.83101700  0.83752800  1
  O  O11  1  0.21150600  0.21150600  0.42061800  1
  O  O12  1  0.16898300  0.16898300  0.16247200  1
  O  O13  1  0.78849400  0.78849400  0.57938200  1
