# generated using pymatgen
data_Ca(NiO2)2
_symmetry_space_group_name_H-M   'P 1'
_cell_length_a   5.06325500
_cell_length_b   5.79359900
_cell_length_c   11.00754800
_cell_angle_alpha   90.00000000
_cell_angle_beta   90.00000000
_cell_angle_gamma   90.00000000
_symmetry_Int_Tables_number   1
_chemical_formula_structural   Ca(NiO2)2
_chemical_formula_sum   'Ca4 Ni8 O16'
_cell_volume   322.90057672
_cell_formula_units_Z   4
loop_
 _symmetry_equiv_pos_site_id
 _symmetry_equiv_pos_as_xyz
  1  'x, y, z'
loop_
 _atom_site_type_symbol
 _atom_site_label
 _atom_site_symmetry_multiplicity
 _atom_site_fract_x
 _atom_site_fract_y
 _atom_site_fract_z
 _atom_site_occupancy
  Ca  Ca0  1  0.84776600  0.00000000  0.50000000  1
  Ca  Ca1  1  0.15223400  0.50000000  0.00000000  1
  Ca  Ca2  1  0.52997800  0.00000000  0.00000000  1
  Ca  Ca3  1  0.47002200  0.50000000  0.50000000  1
  Ni  Ni4  1  0.50413900  0.50000000  0.24212800  1
  Ni  Ni5  1  0.50413900  0.50000000  0.75787200  1
  Ni  Ni6  1  0.49586100  0.00000000  0.25787200  1
  Ni  Ni7  1  0.49586100  0.00000000  0.74212800  1
  Ni  Ni8  1  0.00000000  0.25000000  0.25000000  1
  Ni  Ni9  1  0.00000000  0.75000000  0.75000000  1
  Ni  Ni10  1  0.00000000  0.75000000  0.25000000  1
  Ni  Ni11  1  0.00000000  0.25000000  0.75000000  1
  O  O12  1  0.84000000  0.50000000  0.15839900  1
  O  O13  1  0.84000000  0.50000000  0.84160100  1
  O  O14  1  0.16000000  0.00000000  0.34160100  1
  O  O15  1  0.16000000  0.00000000  0.65839900  1
  O  O16  1  0.18186000  0.50000000  0.33487900  1
  O  O17  1  0.18186000  0.50000000  0.66512100  1
  O  O18  1  0.81814000  0.00000000  0.16512100  1
  O  O19  1  0.81814000  0.00000000  0.83487900  1
  O  O20  1  0.65903000  0.25170500  0.35488600  1
  O  O21  1  0.65903000  0.74829500  0.64511400  1
  O  O22  1  0.34097000  0.75170500  0.14511400  1
  O  O23  1  0.34097000  0.24829500  0.85488600  1
  O  O24  1  0.34097000  0.24829500  0.14511400  1
  O  O25  1  0.34097000  0.75170500  0.85488600  1
  O  O26  1  0.65903000  0.74829500  0.35488600  1
  O  O27  1  0.65903000  0.25170500  0.64511400  1
