# generated using pymatgen
data_Ca3Mn2(GaO5)2
_symmetry_space_group_name_H-M   'P 1'
_cell_length_a   5.41464400
_cell_length_b   5.68449464
_cell_length_c   7.88730063
_cell_angle_alpha   109.52044782
_cell_angle_beta   109.05587999
_cell_angle_gamma   90.47899451
_symmetry_Int_Tables_number   1
_chemical_formula_structural   Ca3Mn2(GaO5)2
_chemical_formula_sum   'Ca3 Mn2 Ga2 O10'
_cell_volume   214.38681834
_cell_formula_units_Z   1
loop_
 _symmetry_equiv_pos_site_id
 _symmetry_equiv_pos_as_xyz
  1  'x, y, z'
loop_
 _atom_site_type_symbol
 _atom_site_label
 _atom_site_symmetry_multiplicity
 _atom_site_fract_x
 _atom_site_fract_y
 _atom_site_fract_z
 _atom_site_occupancy
  Ca  Ca0  1  0.39860500  0.87307100  0.80905800  1
  Ca  Ca1  1  0.10565800  0.56911800  0.22040600  1
  Ca  Ca2  1  0.88554000  0.42985200  0.76987900  1
  Mn  Mn3  1  0.98573800  0.00322700  0.01146100  1
  Mn  Mn4  1  0.48920600  0.49335300  0.01067600  1
  Ga  Ga5  1  0.29315800  0.16629500  0.49487500  1
  Ga  Ga6  1  0.78101100  0.84166900  0.49139700  1
  O  O7  1  0.63167700  0.12982100  0.49922200  1
  O  O8  1  0.13678100  0.87323800  0.50466000  1
  O  O9  1  0.31568100  0.43099200  0.71865500  1
  O  O10  1  0.58688900  0.56873500  0.27582700  1
  O  O11  1  0.81093200  0.80330200  0.72426500  1
  O  O12  1  0.09206200  0.20274600  0.27115600  1
  O  O13  1  0.23209600  0.75387500  0.02230900  1
  O  O14  1  0.19925800  0.22861600  0.95506100  1
  O  O15  1  0.71616600  0.23996000  0.95631800  1
  O  O16  1  0.75469800  0.73635300  0.02664800  1
