# generated using pymatgen
data_VO2
_symmetry_space_group_name_H-M   'P 1'
_cell_length_a   5.22158400
_cell_length_b   5.88653200
_cell_length_c   10.68193000
_cell_angle_alpha   90.00000000
_cell_angle_beta   90.00000000
_cell_angle_gamma   90.00000000
_symmetry_Int_Tables_number   1
_chemical_formula_structural   VO2
_chemical_formula_sum   'V8 O16'
_cell_volume   328.33071001
_cell_formula_units_Z   8
loop_
 _symmetry_equiv_pos_site_id
 _symmetry_equiv_pos_as_xyz
  1  'x, y, z'
loop_
 _atom_site_type_symbol
 _atom_site_label
 _atom_site_symmetry_multiplicity
 _atom_site_fract_x
 _atom_site_fract_y
 _atom_site_fract_z
 _atom_site_occupancy
  V  V0  1  0.99530000  0.50000000  0.23779200  1
  V  V1  1  0.99530000  0.50000000  0.76220800  1
  V  V2  1  0.00470000  0.00000000  0.26220800  1
  V  V3  1  0.00470000  0.00000000  0.73779200  1
  V  V4  1  0.50000000  0.25000000  0.25000000  1
  V  V5  1  0.50000000  0.75000000  0.75000000  1
  V  V6  1  0.50000000  0.75000000  0.25000000  1
  V  V7  1  0.50000000  0.25000000  0.75000000  1
  O  O8  1  0.33010500  0.50000000  0.15636100  1
  O  O9  1  0.33010500  0.50000000  0.84363900  1
  O  O10  1  0.66989500  0.00000000  0.34363900  1
  O  O11  1  0.66989500  0.00000000  0.65636100  1
  O  O12  1  0.65322900  0.50000000  0.33785200  1
  O  O13  1  0.65322900  0.50000000  0.66214800  1
  O  O14  1  0.34677100  0.00000000  0.16214800  1
  O  O15  1  0.34677100  0.00000000  0.83785200  1
  O  O16  1  0.16183900  0.25488000  0.33972400  1
  O  O17  1  0.16183900  0.74512000  0.66027600  1
  O  O18  1  0.83816100  0.75488000  0.16027600  1
  O  O19  1  0.83816100  0.24512000  0.83972400  1
  O  O20  1  0.83816100  0.24512000  0.16027600  1
  O  O21  1  0.83816100  0.75488000  0.83972400  1
  O  O22  1  0.16183900  0.74512000  0.33972400  1
  O  O23  1  0.16183900  0.25488000  0.66027600  1
