# generated using pymatgen
data_MgCr2O4
_symmetry_space_group_name_H-M   'P 1'
_cell_length_a   5.09958500
_cell_length_b   5.87273800
_cell_length_c   10.24361400
_cell_angle_alpha   90.00000000
_cell_angle_beta   90.00000000
_cell_angle_gamma   90.00000000
_symmetry_Int_Tables_number   1
_chemical_formula_structural   MgCr2O4
_chemical_formula_sum   'Mg4 Cr8 O16'
_cell_volume   306.78114650
_cell_formula_units_Z   4
loop_
 _symmetry_equiv_pos_site_id
 _symmetry_equiv_pos_as_xyz
  1  'x, y, z'
loop_
 _atom_site_type_symbol
 _atom_site_label
 _atom_site_symmetry_multiplicity
 _atom_site_fract_x
 _atom_site_fract_y
 _atom_site_fract_z
 _atom_site_occupancy
  Mg  Mg0  1  0.85551400  0.00000000  0.50000000  1
  Mg  Mg1  1  0.14448600  0.50000000  0.00000000  1
  Mg  Mg2  1  0.53169400  0.00000000  0.00000000  1
  Mg  Mg3  1  0.46830600  0.50000000  0.50000000  1
  Cr  Cr4  1  0.51103500  0.50000000  0.23573300  1
  Cr  Cr5  1  0.51103500  0.50000000  0.76426700  1
  Cr  Cr6  1  0.48896500  0.00000000  0.26426700  1
  Cr  Cr7  1  0.48896500  0.00000000  0.73573300  1
  Cr  Cr8  1  0.00000000  0.25000000  0.25000000  1
  Cr  Cr9  1  0.00000000  0.75000000  0.75000000  1
  Cr  Cr10  1  0.00000000  0.75000000  0.25000000  1
  Cr  Cr11  1  0.00000000  0.25000000  0.75000000  1
  O  O12  1  0.85527000  0.50000000  0.14167500  1
  O  O13  1  0.85527000  0.50000000  0.85832500  1
  O  O14  1  0.14473000  0.00000000  0.35832500  1
  O  O15  1  0.14473000  0.00000000  0.64167500  1
  O  O16  1  0.19247500  0.50000000  0.34768600  1
  O  O17  1  0.19247500  0.50000000  0.65231400  1
  O  O18  1  0.80752500  0.00000000  0.15231400  1
  O  O19  1  0.80752500  0.00000000  0.84768600  1
  O  O20  1  0.66572400  0.25331300  0.36192000  1
  O  O21  1  0.66572400  0.74668700  0.63808000  1
  O  O22  1  0.33427600  0.75331300  0.13808000  1
  O  O23  1  0.33427600  0.24668700  0.86192000  1
  O  O24  1  0.33427600  0.24668700  0.13808000  1
  O  O25  1  0.33427600  0.75331300  0.86192000  1
  O  O26  1  0.66572400  0.74668700  0.36192000  1
  O  O27  1  0.66572400  0.25331300  0.63808000  1
