# generated using pymatgen
data_La2WO6
_symmetry_space_group_name_H-M   'P 1'
_cell_length_a   5.66709915
_cell_length_b   5.66709915
_cell_length_c   5.66709869
_cell_angle_alpha   63.58880533
_cell_angle_beta   63.58880533
_cell_angle_gamma   63.58880054
_symmetry_Int_Tables_number   1
_chemical_formula_structural   La2WO6
_chemical_formula_sum   'La2 W1 O6'
_cell_volume   138.90285079
_cell_formula_units_Z   1
loop_
 _symmetry_equiv_pos_site_id
 _symmetry_equiv_pos_as_xyz
  1  'x, y, z'
loop_
 _atom_site_type_symbol
 _atom_site_label
 _atom_site_symmetry_multiplicity
 _atom_site_fract_x
 _atom_site_fract_y
 _atom_site_fract_z
 _atom_site_occupancy
  La  La0  1  0.75108000  0.75108000  0.75108000  1
  La  La1  1  0.24892000  0.24892000  0.24892000  1
  W  W2  1  0.00000000  0.00000000  0.00000000  1
  O  O3  1  0.80048100  0.33417900  0.11320000  1
  O  O4  1  0.11320000  0.80048100  0.33417900  1
  O  O5  1  0.33417900  0.11320000  0.80048100  1
  O  O6  1  0.19951900  0.66582100  0.88680000  1
  O  O7  1  0.66582100  0.88680000  0.19951900  1
  O  O8  1  0.88680000  0.19951900  0.66582100  1
