# generated using pymatgen
data_MgMn2O4
_symmetry_space_group_name_H-M   'P 1'
_cell_length_a   5.15062800
_cell_length_b   6.02677300
_cell_length_c   11.76891518
_cell_angle_alpha   60.93303958
_cell_angle_beta   90.00000000
_cell_angle_gamma   90.00000000
_symmetry_Int_Tables_number   1
_chemical_formula_structural   MgMn2O4
_chemical_formula_sum   'Mg4 Mn8 O16'
_cell_volume   319.31475113
_cell_formula_units_Z   4
loop_
 _symmetry_equiv_pos_site_id
 _symmetry_equiv_pos_as_xyz
  1  'x, y, z'
loop_
 _atom_site_type_symbol
 _atom_site_label
 _atom_site_symmetry_multiplicity
 _atom_site_fract_x
 _atom_site_fract_y
 _atom_site_fract_z
 _atom_site_occupancy
  Mg  Mg0  1  0.14868300  0.00000000  0.25000000  1
  Mg  Mg1  1  0.85131700  0.00000000  0.75000000  1
  Mg  Mg2  1  0.51130800  0.50000000  0.75000000  1
  Mg  Mg3  1  0.48869200  0.50000000  0.25000000  1
  Mn  Mn4  1  0.48839300  0.76533400  0.98444300  1
  Mn  Mn5  1  0.48839300  0.23466600  0.51555700  1
  Mn  Mn6  1  0.51160700  0.23466600  0.01555700  1
  Mn  Mn7  1  0.51160700  0.76533400  0.48444300  1
  Mn  Mn8  1  0.00000000  0.50000000  0.00000000  1
  Mn  Mn9  1  0.00000000  0.50000000  0.50000000  1
  Mn  Mn10  1  0.00000000  0.00000000  0.00000000  1
  Mn  Mn11  1  0.00000000  0.00000000  0.50000000  1
  O  O12  1  0.14191200  0.84305300  0.89841700  1
  O  O13  1  0.14191200  0.15694700  0.60158300  1
  O  O14  1  0.85808800  0.15694700  0.10158300  1
  O  O15  1  0.85808800  0.84305300  0.39841700  1
  O  O16  1  0.76553000  0.64946700  0.10328200  1
  O  O17  1  0.76553000  0.35053300  0.39671800  1
  O  O18  1  0.23447000  0.35053300  0.89671800  1
  O  O19  1  0.23447000  0.64946700  0.60328200  1
  O  O20  1  0.31811700  0.36534500  0.11866900  1
  O  O21  1  0.31811700  0.63465500  0.38133100  1
  O  O22  1  0.69082000  0.12766800  0.88782700  1
  O  O23  1  0.69082000  0.87233200  0.61217300  1
  O  O24  1  0.68188300  0.63465500  0.88133100  1
  O  O25  1  0.68188300  0.36534500  0.61866900  1
  O  O26  1  0.30918000  0.87233200  0.11217300  1
  O  O27  1  0.30918000  0.12766800  0.38782700  1
