# generated using pymatgen
data_Ba3Al4(Sb2O7)3
_symmetry_space_group_name_H-M   'P 1'
_cell_length_a   9.22602273
_cell_length_b   9.22602273
_cell_length_c   15.87728283
_cell_angle_alpha   63.13301815
_cell_angle_beta   63.13301815
_cell_angle_gamma   33.88193188
_symmetry_Int_Tables_number   1
_chemical_formula_structural   Ba3Al4(Sb2O7)3
_chemical_formula_sum   'Ba3 Al4 Sb6 O21'
_cell_volume   664.04393257
_cell_formula_units_Z   1
loop_
 _symmetry_equiv_pos_site_id
 _symmetry_equiv_pos_as_xyz
  1  'x, y, z'
loop_
 _atom_site_type_symbol
 _atom_site_label
 _atom_site_symmetry_multiplicity
 _atom_site_fract_x
 _atom_site_fract_y
 _atom_site_fract_z
 _atom_site_occupancy
  Ba  Ba0  1  0.39194300  0.28758400  0.84156900  1
  Ba  Ba1  1  0.96155000  0.03845000  0.50000000  1
  Ba  Ba2  1  0.71241600  0.60805700  0.15843100  1
  Al  Al3  1  0.38857300  0.43162600  0.37039900  1
  Al  Al4  1  0.10594600  0.06313500  0.02294400  1
  Al  Al5  1  0.93686500  0.89405400  0.97705600  1
  Al  Al6  1  0.56837400  0.61142700  0.62960100  1
  Sb  Sb7  1  0.09052600  0.98088700  0.73430400  1
  Sb  Sb8  1  0.68819300  0.68619400  0.39824800  1
  Sb  Sb9  1  0.37048500  0.30736600  0.10540500  1
  Sb  Sb10  1  0.69263400  0.62951500  0.89459500  1
  Sb  Sb11  1  0.31380600  0.31180700  0.60175200  1
  Sb  Sb12  1  0.01911300  0.90947400  0.26569600  1
  O  O13  1  0.89097200  0.67140700  0.83792500  1
  O  O14  1  0.52602000  0.20789300  0.47223500  1
  O  O15  1  0.18984000  0.91520100  0.14378700  1
  O  O16  1  0.52767500  0.24498300  0.64760700  1
  O  O17  1  0.24347000  0.74762900  0.34775500  1
  O  O18  1  0.83492300  0.40765300  0.01947700  1
  O  O19  1  0.38126600  0.96763500  0.94798300  1
  O  O20  1  0.01790900  0.67213700  0.55429800  1
  O  O21  1  0.66725700  0.26228900  0.27483700  1
  O  O22  1  0.73771100  0.33274300  0.72516300  1
  O  O23  1  0.32786300  0.98209100  0.44570200  1
  O  O24  1  0.03236500  0.61873400  0.05201700  1
  O  O25  1  0.59234700  0.16507700  0.98052300  1
  O  O26  1  0.25237100  0.75653000  0.65224500  1
  O  O27  1  0.75501700  0.47232500  0.35239300  1
  O  O28  1  0.05873300  0.94126700  0.00000000  1
  O  O29  1  0.39779800  0.87945900  0.68218700  1
  O  O30  1  0.12054100  0.60220200  0.31781300  1
  O  O31  1  0.08479900  0.81016000  0.85621300  1
  O  O32  1  0.79210600  0.47398000  0.52776500  1
  O  O33  1  0.32859300  0.10902800  0.16207500  1
