# generated using pymatgen
data_CaCr2F10
_symmetry_space_group_name_H-M   'P 1'
_cell_length_a   5.56457097
_cell_length_b   5.56457097
_cell_length_c   7.58232198
_cell_angle_alpha   69.75364200
_cell_angle_beta   69.75364200
_cell_angle_gamma   71.65786215
_symmetry_Int_Tables_number   1
_chemical_formula_structural   CaCr2F10
_chemical_formula_sum   'Ca1 Cr2 F10'
_cell_volume   201.53447472
_cell_formula_units_Z   1
loop_
 _symmetry_equiv_pos_site_id
 _symmetry_equiv_pos_as_xyz
  1  'x, y, z'
loop_
 _atom_site_type_symbol
 _atom_site_label
 _atom_site_symmetry_multiplicity
 _atom_site_fract_x
 _atom_site_fract_y
 _atom_site_fract_z
 _atom_site_occupancy
  Ca  Ca0  1  0.53910000  0.46090000  0.00000000  1
  Cr  Cr1  1  0.00628500  0.00480300  0.74362700  1
  Cr  Cr2  1  0.99519700  0.99371500  0.25637300  1
  F  F3  1  0.76334300  0.79512800  0.36544300  1
  F  F4  1  0.20487200  0.23665700  0.63455700  1
  F  F5  1  0.24249500  0.20407100  0.13465400  1
  F  F6  1  0.79592900  0.75750500  0.86534600  1
  F  F7  1  0.06559500  0.93440500  0.50000000  1
  F  F8  1  0.92791400  0.07208600  0.00000000  1
  F  F9  1  0.28753400  0.73294800  0.79219700  1
  F  F10  1  0.26705200  0.71246600  0.20780300  1
  F  F11  1  0.70745700  0.26085900  0.72838900  1
  F  F12  1  0.73914100  0.29254300  0.27161100  1
