# generated using pymatgen
data_CaTi4O8
_symmetry_space_group_name_H-M   'P 1'
_cell_length_a   7.36767501
_cell_length_b   7.36767501
_cell_length_c   9.75326629
_cell_angle_alpha   49.21563850
_cell_angle_beta   49.21563850
_cell_angle_gamma   23.68524431
_symmetry_Int_Tables_number   1
_chemical_formula_structural   CaTi4O8
_chemical_formula_sum   'Ca1 Ti4 O8'
_cell_volume   158.37853387
_cell_formula_units_Z   1
loop_
 _symmetry_equiv_pos_site_id
 _symmetry_equiv_pos_as_xyz
  1  'x, y, z'
loop_
 _atom_site_type_symbol
 _atom_site_label
 _atom_site_symmetry_multiplicity
 _atom_site_fract_x
 _atom_site_fract_y
 _atom_site_fract_z
 _atom_site_occupancy
  Ca  Ca0  1  0.62209500  0.62209500  0.85525200  1
  Ti  Ti1  1  0.36884700  0.36884700  0.43835300  1
  Ti  Ti2  1  0.85946000  0.85946000  0.79036100  1
  Ti  Ti3  1  0.16644500  0.16644500  0.15826400  1
  Ti  Ti4  1  0.65657600  0.65657600  0.49638900  1
  O  O5  1  0.14633300  0.14633300  0.37337500  1
  O  O6  1  0.54494000  0.54494000  0.23516900  1
  O  O7  1  0.47338300  0.47338300  0.70973300  1
  O  O8  1  0.85356200  0.85356200  0.59189200  1
  O  O9  1  0.83676800  0.83676800  0.33741800  1
  O  O10  1  0.21883100  0.21883100  0.90256400  1
  O  O11  1  0.16580900  0.16580900  0.63915500  1
  O  O12  1  0.79038000  0.79038000  0.04143000  1
