# generated using pymatgen
data_MgMnO2
_symmetry_space_group_name_H-M   'P 1'
_cell_length_a   3.09869100
_cell_length_b   7.59289700
_cell_length_c   7.61633581
_cell_angle_alpha   70.57445797
_cell_angle_beta   90.00000000
_cell_angle_gamma   90.00000000
_symmetry_Int_Tables_number   1
_chemical_formula_structural   MgMnO2
_chemical_formula_sum   'Mg4 Mn4 O8'
_cell_volume   168.99655840
_cell_formula_units_Z   4
loop_
 _symmetry_equiv_pos_site_id
 _symmetry_equiv_pos_as_xyz
  1  'x, y, z'
loop_
 _atom_site_type_symbol
 _atom_site_label
 _atom_site_symmetry_multiplicity
 _atom_site_fract_x
 _atom_site_fract_y
 _atom_site_fract_z
 _atom_site_occupancy
  Mg  Mg0  1  0.25000000  0.43854200  0.18270500  1
  Mg  Mg1  1  0.75000000  0.56145800  0.81729500  1
  Mg  Mg2  1  0.75000000  0.80986800  0.06222700  1
  Mg  Mg3  1  0.25000000  0.19013200  0.93777300  1
  Mn  Mn4  1  0.75000000  0.31475700  0.56295400  1
  Mn  Mn5  1  0.75000000  0.06348500  0.30555400  1
  Mn  Mn6  1  0.25000000  0.93651500  0.69444600  1
  Mn  Mn7  1  0.25000000  0.68524300  0.43704600  1
  O  O8  1  0.75000000  0.80563900  0.57114500  1
  O  O9  1  0.75000000  0.06399500  0.82413900  1
  O  O10  1  0.25000000  0.93600500  0.17586100  1
  O  O11  1  0.25000000  0.19436100  0.42885500  1
  O  O12  1  0.25000000  0.43769600  0.69989400  1
  O  O13  1  0.75000000  0.31833200  0.05582500  1
  O  O14  1  0.75000000  0.56230400  0.30010600  1
  O  O15  1  0.25000000  0.68166800  0.94417500  1
