# generated using pymatgen
data_VCuO4
_symmetry_space_group_name_H-M   'P 1'
_cell_length_a   8.48056500
_cell_length_b   6.39874200
_cell_length_c   11.74006746
_cell_angle_alpha   89.40621036
_cell_angle_beta   90.00000000
_cell_angle_gamma   90.00000000
_symmetry_Int_Tables_number   1
_chemical_formula_structural   VCuO4
_chemical_formula_sum   'V8 Cu8 O32'
_cell_volume   637.03993189
_cell_formula_units_Z   8
loop_
 _symmetry_equiv_pos_site_id
 _symmetry_equiv_pos_as_xyz
  1  'x, y, z'
loop_
 _atom_site_type_symbol
 _atom_site_label
 _atom_site_symmetry_multiplicity
 _atom_site_fract_x
 _atom_site_fract_y
 _atom_site_fract_z
 _atom_site_occupancy
  V  V0  1  0.54473000  0.89621300  0.84605300  1
  V  V1  1  0.95527000  0.89621300  0.34605300  1
  V  V2  1  0.90710900  0.39936900  0.13586300  1
  V  V3  1  0.04473000  0.10378700  0.65394700  1
  V  V4  1  0.09289100  0.60063100  0.86413700  1
  V  V5  1  0.40710900  0.60063100  0.36413700  1
  V  V6  1  0.59289100  0.39936900  0.63586300  1
  V  V7  1  0.45527000  0.10378700  0.15394700  1
  Cu  Cu8  1  0.82734000  0.22385100  0.87291200  1
  Cu  Cu9  1  0.94445100  0.62739100  0.62738600  1
  Cu  Cu10  1  0.05554900  0.37260900  0.37261400  1
  Cu  Cu11  1  0.17266000  0.77614900  0.12708800  1
  Cu  Cu12  1  0.67266000  0.22385100  0.37291200  1
  Cu  Cu13  1  0.55554900  0.62739100  0.12738600  1
  Cu  Cu14  1  0.32734000  0.77614900  0.62708800  1
  Cu  Cu15  1  0.44445100  0.37260900  0.87261400  1
  O  O16  1  0.75917000  0.96141500  0.38269000  1
  O  O17  1  0.99199700  0.34881800  0.59395500  1
  O  O18  1  0.39725800  0.79331300  0.46225600  1
  O  O19  1  0.89725800  0.20668700  0.03774400  1
  O  O20  1  0.74083000  0.96141500  0.88269000  1
  O  O21  1  0.24083000  0.03858500  0.61731000  1
  O  O22  1  0.90957300  0.91121800  0.60804100  1
  O  O23  1  0.10073800  0.50381500  0.13484300  1
  O  O24  1  0.39926200  0.50381500  0.63484300  1
  O  O25  1  0.12847400  0.68736000  0.71239000  1
  O  O26  1  0.62847400  0.31264000  0.78761000  1
  O  O27  1  0.89926200  0.49618500  0.86515700  1
  O  O28  1  0.09042700  0.08878200  0.39195900  1
  O  O29  1  0.47615200  0.12787300  0.29867600  1
  O  O30  1  0.73202300  0.58082100  0.59928400  1
  O  O31  1  0.76797700  0.58082100  0.09928400  1
  O  O32  1  0.97615200  0.87212700  0.20132400  1
  O  O33  1  0.60073800  0.49618500  0.36515700  1
  O  O34  1  0.52384800  0.87212700  0.70132400  1
  O  O35  1  0.60274200  0.20668700  0.53774400  1
  O  O36  1  0.50800300  0.34881800  0.09395500  1
  O  O37  1  0.87152600  0.31264000  0.28761000  1
  O  O38  1  0.25917000  0.03858500  0.11731000  1
  O  O39  1  0.59042700  0.91121800  0.10804100  1
  O  O40  1  0.10274200  0.79331300  0.96225600  1
  O  O41  1  0.23202300  0.41917900  0.90071600  1
  O  O42  1  0.00800300  0.65118200  0.40604500  1
  O  O43  1  0.49199700  0.65118200  0.90604500  1
  O  O44  1  0.40957300  0.08878200  0.89195900  1
  O  O45  1  0.26797700  0.41917900  0.40071600  1
  O  O46  1  0.37152600  0.68736000  0.21239000  1
  O  O47  1  0.02384800  0.12787300  0.79867600  1
