# generated using pymatgen
data_MgV2O4
_symmetry_space_group_name_H-M   'P 1'
_cell_length_a   7.49960770
_cell_length_b   7.49960770
_cell_length_c   9.35666393
_cell_angle_alpha   52.54876268
_cell_angle_beta   52.54876268
_cell_angle_gamma   23.26177996
_symmetry_Int_Tables_number   1
_chemical_formula_structural   MgV2O4
_chemical_formula_sum   'Mg2 V4 O8'
_cell_volume   162.93160434
_cell_formula_units_Z   2
loop_
 _symmetry_equiv_pos_site_id
 _symmetry_equiv_pos_as_xyz
  1  'x, y, z'
loop_
 _atom_site_type_symbol
 _atom_site_label
 _atom_site_symmetry_multiplicity
 _atom_site_fract_x
 _atom_site_fract_y
 _atom_site_fract_z
 _atom_site_occupancy
  Mg  Mg0  1  0.31847400  0.31847400  0.67450600  1
  Mg  Mg1  1  0.68152600  0.68152600  0.32549400  1
  V  V2  1  0.63715100  0.63715100  0.68224100  1
  V  V3  1  0.13917100  0.13917100  0.03737300  1
  V  V4  1  0.86082900  0.86082900  0.96262700  1
  V  V5  1  0.36284900  0.36284900  0.31775900  1
  O  O6  1  0.86261100  0.86261100  0.18061200  1
  O  O7  1  0.46888300  0.46888300  0.81881100  1
  O  O8  1  0.53111700  0.53111700  0.18118900  1
  O  O9  1  0.13738900  0.13738900  0.81938800  1
  O  O10  1  0.17234500  0.17234500  0.48832400  1
  O  O11  1  0.78120700  0.78120700  0.85597900  1
  O  O12  1  0.82765500  0.82765500  0.51167600  1
  O  O13  1  0.21879300  0.21879300  0.14402100  1
