# generated using pymatgen
data_ZnCr2O4
_symmetry_space_group_name_H-M   'P 1'
_cell_length_a   2.94625200
_cell_length_b   9.00905900
_cell_length_c   10.57362600
_cell_angle_alpha   90.00000000
_cell_angle_beta   90.00000000
_cell_angle_gamma   90.00000000
_symmetry_Int_Tables_number   1
_chemical_formula_structural   ZnCr2O4
_chemical_formula_sum   'Zn4 Cr8 O16'
_cell_volume   280.65531185
_cell_formula_units_Z   4
loop_
 _symmetry_equiv_pos_site_id
 _symmetry_equiv_pos_as_xyz
  1  'x, y, z'
loop_
 _atom_site_type_symbol
 _atom_site_label
 _atom_site_symmetry_multiplicity
 _atom_site_fract_x
 _atom_site_fract_y
 _atom_site_fract_z
 _atom_site_occupancy
  Zn  Zn0  1  0.25000000  0.24031500  0.84645100  1
  Zn  Zn1  1  0.75000000  0.75968500  0.15354900  1
  Zn  Zn2  1  0.25000000  0.74031500  0.65354900  1
  Zn  Zn3  1  0.75000000  0.25968500  0.34645100  1
  Cr  Cr4  1  0.75000000  0.41220900  0.60137600  1
  Cr  Cr5  1  0.25000000  0.08779100  0.10137600  1
  Cr  Cr6  1  0.75000000  0.91220900  0.89862400  1
  Cr  Cr7  1  0.25000000  0.58779100  0.39862400  1
  Cr  Cr8  1  0.25000000  0.55839800  0.88167900  1
  Cr  Cr9  1  0.75000000  0.44160200  0.11832100  1
  Cr  Cr10  1  0.25000000  0.05839800  0.61832100  1
  Cr  Cr11  1  0.75000000  0.94160200  0.38167900  1
  O  O12  1  0.75000000  0.91019200  0.57297500  1
  O  O13  1  0.25000000  0.08980800  0.42702500  1
  O  O14  1  0.75000000  0.41019200  0.92702500  1
  O  O15  1  0.25000000  0.58980800  0.07297500  1
  O  O16  1  0.75000000  0.03268500  0.21340900  1
  O  O17  1  0.25000000  0.96731500  0.78659100  1
  O  O18  1  0.75000000  0.53268500  0.28659100  1
  O  O19  1  0.25000000  0.46731500  0.71340900  1
  O  O20  1  0.75000000  0.62218000  0.53289100  1
  O  O21  1  0.25000000  0.37782000  0.46710900  1
  O  O22  1  0.75000000  0.12218000  0.96710900  1
  O  O23  1  0.25000000  0.87782000  0.03289100  1
  O  O24  1  0.25000000  0.79742200  0.32589600  1
  O  O25  1  0.75000000  0.20257800  0.67410400  1
  O  O26  1  0.75000000  0.70257800  0.82589600  1
  O  O27  1  0.25000000  0.29742200  0.17410400  1
