# generated using pymatgen
data_Ba2Bi3O7
_symmetry_space_group_name_H-M   'P 1'
_cell_length_a   4.37098700
_cell_length_b   4.39248700
_cell_length_c   12.35877000
_cell_angle_alpha   90.00000000
_cell_angle_beta   90.00000000
_cell_angle_gamma   90.00000000
_symmetry_Int_Tables_number   1
_chemical_formula_structural   Ba2Bi3O7
_chemical_formula_sum   'Ba2 Bi3 O7'
_cell_volume   237.28224879
_cell_formula_units_Z   1
loop_
 _symmetry_equiv_pos_site_id
 _symmetry_equiv_pos_as_xyz
  1  'x, y, z'
loop_
 _atom_site_type_symbol
 _atom_site_label
 _atom_site_symmetry_multiplicity
 _atom_site_fract_x
 _atom_site_fract_y
 _atom_site_fract_z
 _atom_site_occupancy
  Ba  Ba0  1  0.00000000  0.47597100  0.20713100  1
  Ba  Ba1  1  0.00000000  0.47597100  0.79286900  1
  Bi  Bi2  1  0.50000000  0.98298800  0.36408900  1
  Bi  Bi3  1  0.50000000  0.98298800  0.63591100  1
  Bi  Bi4  1  0.50000000  0.98341900  0.00000000  1
  O  O5  1  0.00000000  0.16140300  0.00000000  1
  O  O6  1  0.50000000  0.48352000  0.33594100  1
  O  O7  1  0.50000000  0.48352000  0.66405900  1
  O  O8  1  0.00000000  0.98597300  0.33834600  1
  O  O9  1  0.00000000  0.98597300  0.66165400  1
  O  O10  1  0.50000000  0.97672700  0.18160500  1
  O  O11  1  0.50000000  0.97672700  0.81839500  1
