# generated using pymatgen
data_Ca(CoO2)2
_symmetry_space_group_name_H-M   'P 1'
_cell_length_a   7.12731471
_cell_length_b   7.12731471
_cell_length_c   8.74753202
_cell_angle_alpha   61.58398670
_cell_angle_beta   61.58398670
_cell_angle_gamma   23.61005675
_symmetry_Int_Tables_number   1
_chemical_formula_structural   Ca(CoO2)2
_chemical_formula_sum   'Ca2 Co4 O8'
_cell_volume   155.52473313
_cell_formula_units_Z   2
loop_
 _symmetry_equiv_pos_site_id
 _symmetry_equiv_pos_as_xyz
  1  'x, y, z'
loop_
 _atom_site_type_symbol
 _atom_site_label
 _atom_site_symmetry_multiplicity
 _atom_site_fract_x
 _atom_site_fract_y
 _atom_site_fract_z
 _atom_site_occupancy
  Ca  Ca0  1  0.61432000  0.61432000  0.84637100  1
  Ca  Ca1  1  0.38568000  0.38568000  0.15362900  1
  Co  Co2  1  0.42349600  0.42349600  0.76601200  1
  Co  Co3  1  0.83498900  0.83498900  0.51578000  1
  Co  Co4  1  0.16501100  0.16501100  0.48422000  1
  Co  Co5  1  0.57650400  0.57650400  0.23398800  1
  O  O6  1  0.12238200  0.12238200  0.30745900  1
  O  O7  1  0.57288800  0.57288800  0.61755100  1
  O  O8  1  0.42711200  0.42711200  0.38244900  1
  O  O9  1  0.87761800  0.87761800  0.69254100  1
  O  O10  1  0.93961300  0.93961300  0.90911400  1
  O  O11  1  0.23090500  0.23090500  0.63661000  1
  O  O12  1  0.06038700  0.06038700  0.09088600  1
  O  O13  1  0.76909500  0.76909500  0.36339000  1
