# generated using pymatgen
data_Mg(NiO2)2
_symmetry_space_group_name_H-M   'P 1'
_cell_length_a   5.82429319
_cell_length_b   5.92371880
_cell_length_c   5.91984116
_cell_angle_alpha   90.04686486
_cell_angle_beta   120.47641341
_cell_angle_gamma   120.50569627
_symmetry_Int_Tables_number   1
_chemical_formula_structural   Mg(NiO2)2
_chemical_formula_sum   'Mg2 Ni4 O8'
_cell_volume   142.18921556
_cell_formula_units_Z   2
loop_
 _symmetry_equiv_pos_site_id
 _symmetry_equiv_pos_as_xyz
  1  'x, y, z'
loop_
 _atom_site_type_symbol
 _atom_site_label
 _atom_site_symmetry_multiplicity
 _atom_site_fract_x
 _atom_site_fract_y
 _atom_site_fract_z
 _atom_site_occupancy
  Mg  Mg0  1  0.24999700  0.12568900  0.87553400  1
  Mg  Mg1  1  0.75000500  0.87432100  0.12445600  1
  Ni  Ni2  1  0.49999000  0.00000000  0.49998900  1
  Ni  Ni3  1  0.50000900  0.50001000  0.50001000  1
  Ni  Ni4  1  0.99999900  0.49997700  0.00001000  1
  Ni  Ni5  1  0.00000300  0.50000100  0.50000800  1
  O  O6  1  0.03229700  0.74484500  0.23883400  1
  O  O7  1  0.46921400  0.76170400  0.71306300  1
  O  O8  1  0.46800500  0.70539800  0.25438000  1
  O  O9  1  0.96933800  0.71407900  0.70628000  1
  O  O10  1  0.53200200  0.29460400  0.74562100  1
  O  O11  1  0.53078300  0.23831000  0.28693100  1
  O  O12  1  0.03066900  0.28592300  0.29373500  1
  O  O13  1  0.96769100  0.25514100  0.76115000  1
