# generated using pymatgen
data_NiO2
_symmetry_space_group_name_H-M   'P 1'
_cell_length_a   2.80372700
_cell_length_b   8.28607300
_cell_length_c   9.91077200
_cell_angle_alpha   90.00000000
_cell_angle_beta   90.00000000
_cell_angle_gamma   90.00000000
_symmetry_Int_Tables_number   1
_chemical_formula_structural   NiO2
_chemical_formula_sum   'Ni8 O16'
_cell_volume   230.24593116
_cell_formula_units_Z   8
loop_
 _symmetry_equiv_pos_site_id
 _symmetry_equiv_pos_as_xyz
  1  'x, y, z'
loop_
 _atom_site_type_symbol
 _atom_site_label
 _atom_site_symmetry_multiplicity
 _atom_site_fract_x
 _atom_site_fract_y
 _atom_site_fract_z
 _atom_site_occupancy
  Ni  Ni0  1  0.75000000  0.45008600  0.38399800  1
  Ni  Ni1  1  0.75000000  0.95008600  0.11600200  1
  Ni  Ni2  1  0.25000000  0.54991400  0.61600200  1
  Ni  Ni3  1  0.25000000  0.04991400  0.88399800  1
  Ni  Ni4  1  0.75000000  0.40996400  0.90251200  1
  Ni  Ni5  1  0.25000000  0.09003600  0.40251200  1
  Ni  Ni6  1  0.75000000  0.90996400  0.59748800  1
  Ni  Ni7  1  0.25000000  0.59003600  0.09748800  1
  O  O8  1  0.75000000  0.61688000  0.97407700  1
  O  O9  1  0.25000000  0.08853500  0.06744900  1
  O  O10  1  0.75000000  0.68855800  0.66090400  1
  O  O11  1  0.25000000  0.81144200  0.16090400  1
  O  O12  1  0.25000000  0.38312000  0.02592300  1
  O  O13  1  0.25000000  0.94156100  0.71541800  1
  O  O14  1  0.25000000  0.31144200  0.33909600  1
  O  O15  1  0.75000000  0.41146500  0.56744900  1
  O  O16  1  0.75000000  0.11688000  0.52592300  1
  O  O17  1  0.75000000  0.05843900  0.28458200  1
  O  O18  1  0.25000000  0.44156100  0.78458200  1
  O  O19  1  0.25000000  0.88312000  0.47407700  1
  O  O20  1  0.75000000  0.55843900  0.21541800  1
  O  O21  1  0.75000000  0.91146500  0.93255100  1
  O  O22  1  0.25000000  0.58853500  0.43255100  1
  O  O23  1  0.75000000  0.18855800  0.83909600  1
