# generated using pymatgen
data_CaCu2(Si2O5)4
_symmetry_space_group_name_H-M   'P 1'
_cell_length_a   7.27088600
_cell_length_b   7.27088600
_cell_length_c   15.45834900
_cell_angle_alpha   90.00000000
_cell_angle_beta   90.00000000
_cell_angle_gamma   90.00000000
_symmetry_Int_Tables_number   1
_chemical_formula_structural   CaCu2(Si2O5)4
_chemical_formula_sum   'Ca2 Cu4 Si16 O40'
_cell_volume   817.21772725
_cell_formula_units_Z   2
loop_
 _symmetry_equiv_pos_site_id
 _symmetry_equiv_pos_as_xyz
  1  'x, y, z'
loop_
 _atom_site_type_symbol
 _atom_site_label
 _atom_site_symmetry_multiplicity
 _atom_site_fract_x
 _atom_site_fract_y
 _atom_site_fract_z
 _atom_site_occupancy
  Ca  Ca0  1  0.50000000  0.50000000  0.50000000  1
  Ca  Ca1  1  0.00000000  0.00000000  0.00000000  1
  Cu  Cu2  1  0.00000000  0.50000000  0.58708200  1
  Cu  Cu3  1  0.50000000  0.00000000  0.91291800  1
  Cu  Cu4  1  0.50000000  0.00000000  0.41291800  1
  Cu  Cu5  1  0.00000000  0.50000000  0.08708200  1
  Si  Si6  1  0.67982800  0.75434900  0.64887100  1
  Si  Si7  1  0.32017200  0.24565100  0.64887100  1
  Si  Si8  1  0.74938200  0.67906600  0.85347800  1
  Si  Si9  1  0.24938200  0.82093400  0.64652200  1
  Si  Si10  1  0.75061800  0.17906600  0.64652200  1
  Si  Si11  1  0.82017200  0.25434900  0.85112900  1
  Si  Si12  1  0.17982800  0.74565100  0.85112900  1
  Si  Si13  1  0.25061800  0.32093400  0.85347800  1
  Si  Si14  1  0.82093400  0.75061800  0.35347800  1
  Si  Si15  1  0.17906600  0.24938200  0.35347800  1
  Si  Si16  1  0.74565100  0.82017200  0.14887100  1
  Si  Si17  1  0.24565100  0.67982800  0.35112900  1
  Si  Si18  1  0.75434900  0.32017200  0.35112900  1
  Si  Si19  1  0.67906600  0.25061800  0.14652200  1
  Si  Si20  1  0.32093400  0.74938200  0.14652200  1
  Si  Si21  1  0.25434900  0.17982800  0.14887100  1
  O  O22  1  0.76196500  0.59643400  0.58439900  1
  O  O23  1  0.23803500  0.40356600  0.58439900  1
  O  O24  1  0.59677300  0.76911500  0.91611300  1
  O  O25  1  0.09677300  0.73088500  0.58388700  1
  O  O26  1  0.90322700  0.26911500  0.58388700  1
  O  O27  1  0.73803500  0.09643400  0.91560100  1
  O  O28  1  0.26196500  0.90356600  0.91560100  1
  O  O29  1  0.40322700  0.23088500  0.91611300  1
  O  O30  1  0.73088500  0.90322700  0.41611300  1
  O  O31  1  0.26911500  0.09677300  0.41611300  1
  O  O32  1  0.90356600  0.73803500  0.08439900  1
  O  O33  1  0.40356600  0.76196500  0.41560100  1
  O  O34  1  0.59643400  0.23803500  0.41560100  1
  O  O35  1  0.76911500  0.40322700  0.08388700  1
  O  O36  1  0.23088500  0.59677300  0.08388700  1
  O  O37  1  0.74056200  0.54157700  0.37530100  1
  O  O38  1  0.09643400  0.26196500  0.08439900  1
  O  O39  1  0.24846400  0.04045500  0.62798400  1
  O  O40  1  0.95842300  0.75943800  0.87530100  1
  O  O41  1  0.45842300  0.74056200  0.62469900  1
  O  O42  1  0.54157700  0.25943800  0.62469900  1
  O  O43  1  0.74846400  0.45954500  0.87201600  1
  O  O44  1  0.25153600  0.54045500  0.87201600  1
  O  O45  1  0.04157700  0.24056200  0.87530100  1
  O  O46  1  0.20934200  0.21153900  0.25035500  1
  O  O47  1  0.29065800  0.71153900  0.24964500  1
  O  O48  1  0.70934200  0.28846100  0.24964500  1
  O  O49  1  0.79065800  0.78846100  0.25035500  1
  O  O50  1  0.28846100  0.29065800  0.75035500  1
  O  O51  1  0.21153900  0.79065800  0.74964500  1
  O  O52  1  0.78846100  0.20934200  0.74964500  1
  O  O53  1  0.71153900  0.70934200  0.75035500  1
  O  O54  1  0.45954500  0.25153600  0.12798400  1
  O  O55  1  0.24056200  0.95842300  0.12469900  1
  O  O56  1  0.75943800  0.04157700  0.12469900  1
  O  O57  1  0.95954500  0.24846400  0.37201600  1
  O  O58  1  0.04045500  0.75153600  0.37201600  1
  O  O59  1  0.54045500  0.74846400  0.12798400  1
  O  O60  1  0.25943800  0.45842300  0.37530100  1
  O  O61  1  0.75153600  0.95954500  0.62798400  1
