# generated using pymatgen
data_FeP2O7
_symmetry_space_group_name_H-M   'P 1'
_cell_length_a   6.98871330
_cell_length_b   8.83186900
_cell_length_c   9.48992607
_cell_angle_alpha   90.00000000
_cell_angle_beta   72.74908393
_cell_angle_gamma   90.00000000
_symmetry_Int_Tables_number   1
_chemical_formula_structural   FeP2O7
_chemical_formula_sum   'Fe4 P8 O28'
_cell_volume   559.40063809
_cell_formula_units_Z   4
loop_
 _symmetry_equiv_pos_site_id
 _symmetry_equiv_pos_as_xyz
  1  'x, y, z'
loop_
 _atom_site_type_symbol
 _atom_site_label
 _atom_site_symmetry_multiplicity
 _atom_site_fract_x
 _atom_site_fract_y
 _atom_site_fract_z
 _atom_site_occupancy
  Fe  Fe0  1  0.68229400  0.07133600  0.19830100  1
  Fe  Fe1  1  0.68229400  0.42866400  0.69830100  1
  Fe  Fe2  1  0.31770600  0.57133600  0.30169900  1
  Fe  Fe3  1  0.31770600  0.92866400  0.80169900  1
  P  P4  1  0.52380800  0.71538300  0.53531300  1
  P  P5  1  0.09577400  0.25020700  0.23573500  1
  P  P6  1  0.90422600  0.75020700  0.26426500  1
  P  P7  1  0.09577400  0.24979300  0.73573500  1
  P  P8  1  0.52380800  0.78461700  0.03531300  1
  P  P9  1  0.90422600  0.74979300  0.76426500  1
  P  P10  1  0.47619200  0.21538300  0.96468700  1
  P  P11  1  0.47619200  0.28461700  0.46468700  1
  O  O12  1  0.49718400  0.13125600  0.38396100  1
  O  O13  1  0.25643300  0.21252800  0.08070700  1
  O  O14  1  0.89192500  0.27561600  0.71108700  1
  O  O15  1  0.13095400  0.08867600  0.77930600  1
  O  O16  1  0.50281600  0.86874400  0.61603900  1
  O  O17  1  0.74356700  0.78747200  0.91929300  1
  O  O18  1  0.63110000  0.20253900  0.04870800  1
  O  O19  1  0.52167700  0.91524000  0.14042900  1
  O  O20  1  0.86904600  0.58867600  0.72069400  1
  O  O21  1  0.36890000  0.70253900  0.45129200  1
  O  O22  1  0.49718400  0.36874400  0.88396100  1
  O  O23  1  0.89323200  0.86903700  0.64906900  1
  O  O24  1  0.50281600  0.63125600  0.11603900  1
  O  O25  1  0.10807500  0.72438400  0.28891300  1
  O  O26  1  0.47832300  0.41524000  0.35957100  1
  O  O27  1  0.36890000  0.79746100  0.95129200  1
  O  O28  1  0.86904600  0.91132400  0.22069400  1
  O  O29  1  0.89192500  0.22438400  0.21108800  1
  O  O30  1  0.10676800  0.13096300  0.35093100  1
  O  O31  1  0.52167700  0.58476000  0.64042900  1
  O  O32  1  0.25643300  0.28747200  0.58070700  1
  O  O33  1  0.63110000  0.29746100  0.54870800  1
  O  O34  1  0.47832300  0.08476000  0.85957100  1
  O  O35  1  0.13095400  0.41132400  0.27930600  1
  O  O36  1  0.74356700  0.71252800  0.41929300  1
  O  O37  1  0.89323200  0.63096300  0.14906900  1
  O  O38  1  0.10807500  0.77561600  0.78891300  1
  O  O39  1  0.10676800  0.36903700  0.85093100  1
