# generated using pymatgen
data_BaYCr4O7
_symmetry_space_group_name_H-M   'P 1'
_cell_length_a   6.36294164
_cell_length_b   6.36294164
_cell_length_c   11.10094300
_cell_angle_alpha   90.00000000
_cell_angle_beta   90.00000000
_cell_angle_gamma   119.99999626
_symmetry_Int_Tables_number   1
_chemical_formula_structural   BaYCr4O7
_chemical_formula_sum   'Ba2 Y2 Cr8 O14'
_cell_volume   389.23008472
_cell_formula_units_Z   2
loop_
 _symmetry_equiv_pos_site_id
 _symmetry_equiv_pos_as_xyz
  1  'x, y, z'
loop_
 _atom_site_type_symbol
 _atom_site_label
 _atom_site_symmetry_multiplicity
 _atom_site_fract_x
 _atom_site_fract_y
 _atom_site_fract_z
 _atom_site_occupancy
  Ba  Ba0  1  0.66666700  0.33333300  0.47215300  1
  Ba  Ba1  1  0.33333300  0.66666700  0.97215300  1
  Y  Y2  1  0.66666700  0.33333300  0.87962500  1
  Y  Y3  1  0.33333300  0.66666700  0.37962500  1
  Cr  Cr4  1  0.82316900  0.17683100  0.18288400  1
  Cr  Cr5  1  0.64633700  0.82316900  0.68288400  1
  Cr  Cr6  1  0.17683100  0.35366300  0.68288400  1
  Cr  Cr7  1  0.82316900  0.64633700  0.18288400  1
  Cr  Cr8  1  0.35366300  0.17683100  0.18288400  1
  Cr  Cr9  1  0.17683100  0.82316900  0.68288400  1
  Cr  Cr10  1  0.00000000  0.00000000  0.43286200  1
  Cr  Cr11  1  0.00000000  0.00000000  0.93286200  1
  O  O12  1  0.83928600  0.16071400  0.00492100  1
  O  O13  1  0.67857200  0.83928600  0.50492100  1
  O  O14  1  0.16071400  0.32142800  0.50492100  1
  O  O15  1  0.83928600  0.67857200  0.00492100  1
  O  O16  1  0.32142800  0.16071400  0.00492100  1
  O  O17  1  0.16071400  0.83928600  0.50492100  1
  O  O18  1  0.00000000  0.00000000  0.73791400  1
  O  O19  1  0.00000000  0.00000000  0.23791400  1
  O  O20  1  0.51152100  0.48847900  0.28267700  1
  O  O21  1  0.02304100  0.51152100  0.78267700  1
  O  O22  1  0.48847900  0.97695900  0.78267700  1
  O  O23  1  0.51152100  0.02304100  0.28267700  1
  O  O24  1  0.48847900  0.51152100  0.78267700  1
  O  O25  1  0.97695900  0.48847900  0.28267700  1
