# generated using pymatgen
data_Ca3Cu6(AsO4)8
_symmetry_space_group_name_H-M   'P 1'
_cell_length_a   5.03297900
_cell_length_b   9.48753442
_cell_length_c   14.94476189
_cell_angle_alpha   83.81740626
_cell_angle_beta   89.67488505
_cell_angle_gamma   89.06272041
_symmetry_Int_Tables_number   1
_chemical_formula_structural   Ca3Cu6(AsO4)8
_chemical_formula_sum   'Ca3 Cu6 As8 O32'
_cell_volume   709.36973811
_cell_formula_units_Z   1
loop_
 _symmetry_equiv_pos_site_id
 _symmetry_equiv_pos_as_xyz
  1  'x, y, z'
loop_
 _atom_site_type_symbol
 _atom_site_label
 _atom_site_symmetry_multiplicity
 _atom_site_fract_x
 _atom_site_fract_y
 _atom_site_fract_z
 _atom_site_occupancy
  Ca  Ca0  1  0.95741400  0.04496500  0.26417100  1
  Ca  Ca1  1  0.98993600  0.99646800  0.99307800  1
  Ca  Ca2  1  0.49465400  0.50336800  0.50328400  1
  Cu  Cu3  1  0.96695700  0.66135900  0.11782400  1
  Cu  Cu4  1  0.02121700  0.33239400  0.88027400  1
  Cu  Cu5  1  0.48159500  0.82614700  0.38360700  1
  Cu  Cu6  1  0.51857900  0.16952900  0.62033200  1
  Cu  Cu7  1  0.49900700  0.50001800  0.99958100  1
  Cu  Cu8  1  0.99959500  0.00005000  0.50253000  1
  As  As9  1  0.50121600  0.11897000  0.83912500  1
  As  As10  1  0.99236200  0.65565100  0.90412500  1
  As  As11  1  0.49540400  0.84488000  0.59614300  1
  As  As12  1  0.50775800  0.15494600  0.40786300  1
  As  As13  1  0.49535000  0.88016800  0.15903300  1
  As  As14  1  0.00500700  0.34375100  0.09098800  1
  As  As15  1  0.99704400  0.62366300  0.33772700  1
  As  As16  1  0.99688800  0.37957200  0.66211900  1
  O  O17  1  0.94106800  0.42440300  0.77041500  1
  O  O18  1  0.41730700  0.75356400  0.50252000  1
  O  O19  1  0.90405000  0.76322900  0.81537300  1
  O  O20  1  0.87972000  0.21093800  0.64680300  1
  O  O21  1  0.09755400  0.23870300  0.18171400  1
  O  O22  1  0.55237100  0.92014500  0.27029000  1
  O  O23  1  0.40534100  0.73721000  0.68480700  1
  O  O24  1  0.18017800  0.09737000  0.40197500  1
  O  O25  1  0.14186700  0.49145700  0.40611800  1
  O  O26  1  0.05664800  0.57775600  0.22996500  1
  O  O27  1  0.61162700  0.71102400  0.14624500  1
  O  O28  1  0.82273000  0.90185200  0.59808400  1
  O  O29  1  0.81138200  0.49258800  0.92935400  1
  O  O30  1  0.86080400  0.51541300  0.59425700  1
  O  O31  1  0.16106200  0.88902500  0.14042400  1
  O  O32  1  0.66592300  0.63476800  0.36589000  1
  O  O33  1  0.31290700  0.00945500  0.57106600  1
  O  O34  1  0.62383900  0.23160000  0.31049300  1
  O  O35  1  0.66674300  0.01530200  0.10355600  1
  O  O36  1  0.67743400  0.40332400  0.09740700  1
  O  O37  1  0.32857300  0.36244500  0.63453000  1
  O  O38  1  0.82950600  0.13533600  0.86539000  1
  O  O39  1  0.57632700  0.24953500  0.49760200  1
  O  O40  1  0.91954000  0.74517300  0.99934400  1
  O  O41  1  0.19196000  0.50392100  0.07389600  1
  O  O42  1  0.44485300  0.07570500  0.73025500  1
  O  O43  1  0.10889100  0.79678400  0.34928700  1
  O  O44  1  0.36873200  0.98436800  0.90781100  1
  O  O45  1  0.08673900  0.25103400  0.99987200  1
  O  O46  1  0.32236900  0.59660700  0.90257800  1
  O  O47  1  0.70184200  0.99095100  0.42603200  1
  O  O48  1  0.37837500  0.28914000  0.85202800  1
