# generated using pymatgen
data_Rb6Al4(Sb2O7)3
_symmetry_space_group_name_H-M   'P 1'
_cell_length_a   15.82973044
_cell_length_b   15.82973044
_cell_length_c   8.72853161
_cell_angle_alpha   89.70880976
_cell_angle_beta   89.70880976
_cell_angle_gamma   21.03195873
_symmetry_Int_Tables_number   1
_chemical_formula_structural   Rb6Al4(Sb2O7)3
_chemical_formula_sum   'Rb6 Al4 Sb6 O21'
_cell_volume   784.95023992
_cell_formula_units_Z   1
loop_
 _symmetry_equiv_pos_site_id
 _symmetry_equiv_pos_as_xyz
  1  'x, y, z'
loop_
 _atom_site_type_symbol
 _atom_site_label
 _atom_site_symmetry_multiplicity
 _atom_site_fract_x
 _atom_site_fract_y
 _atom_site_fract_z
 _atom_site_occupancy
  Rb  Rb0  1  0.88371500  0.88371500  0.61535200  1
  Rb  Rb1  1  0.55596100  0.55596100  0.59088400  1
  Rb  Rb2  1  0.22626100  0.22626100  0.60652400  1
  Rb  Rb3  1  0.44403900  0.44403900  0.40911600  1
  Rb  Rb4  1  0.11628500  0.11628500  0.38464800  1
  Rb  Rb5  1  0.77373900  0.77373900  0.39347600  1
  Al  Al6  1  0.33687300  0.33687300  0.20432800  1
  Al  Al7  1  0.99764600  0.99764600  0.19796700  1
  Al  Al8  1  0.00235400  0.00235400  0.80203300  1
  Al  Al9  1  0.66312700  0.66312700  0.79567200  1
  Sb  Sb10  1  0.44620200  0.44620200  0.83274700  1
  Sb  Sb11  1  0.10946200  0.10946200  0.84738200  1
  Sb  Sb12  1  0.77553000  0.77553000  0.84973000  1
  Sb  Sb13  1  0.89053800  0.89053800  0.15261800  1
  Sb  Sb14  1  0.55379800  0.55379800  0.16725300  1
  Sb  Sb15  1  0.22447000  0.22447000  0.15027000  1
  O  O16  1  0.61308000  0.11460200  0.27438600  1
  O  O17  1  0.27334800  0.77328100  0.27646500  1
  O  O18  1  0.99431900  0.40358700  0.30507500  1
  O  O19  1  0.22671900  0.72665200  0.72353500  1
  O  O20  1  0.88539800  0.38692000  0.72561400  1
  O  O21  1  0.59641300  0.00568100  0.69492500  1
  O  O22  1  0.11460200  0.61308000  0.27438600  1
  O  O23  1  0.77328100  0.27334800  0.27646500  1
  O  O24  1  0.40358700  0.99431900  0.30507500  1
  O  O25  1  0.94392600  0.94392600  0.27337800  1
  O  O26  1  0.60439300  0.60439300  0.29052900  1
  O  O27  1  0.28171700  0.28171700  0.25514300  1
  O  O28  1  0.72665200  0.22671900  0.72353500  1
  O  O29  1  0.38692000  0.88539800  0.72561400  1
  O  O30  1  0.00568100  0.59641300  0.69492500  1
  O  O31  1  0.32870600  0.32870600  0.00121900  1
  O  O32  1  0.00000000  0.00000000  0.00000000  1
  O  O33  1  0.67129400  0.67129400  0.99878100  1
  O  O34  1  0.39560700  0.39560700  0.70947100  1
  O  O35  1  0.05607400  0.05607400  0.72662200  1
  O  O36  1  0.71828300  0.71828300  0.74485700  1
