# generated using pymatgen
data_Ba2Cu2HgO6
_symmetry_space_group_name_H-M   'P 1'
_cell_length_a   3.71870500
_cell_length_b   3.71870500
_cell_length_c   13.71012900
_cell_angle_alpha   90.00000000
_cell_angle_beta   90.00000000
_cell_angle_gamma   90.00000000
_symmetry_Int_Tables_number   1
_chemical_formula_structural   Ba2Cu2HgO6
_chemical_formula_sum   'Ba2 Cu2 Hg1 O6'
_cell_volume   189.59417779
_cell_formula_units_Z   1
loop_
 _symmetry_equiv_pos_site_id
 _symmetry_equiv_pos_as_xyz
  1  'x, y, z'
loop_
 _atom_site_type_symbol
 _atom_site_label
 _atom_site_symmetry_multiplicity
 _atom_site_fract_x
 _atom_site_fract_y
 _atom_site_fract_z
 _atom_site_occupancy
  Ba  Ba0  1  0.50000000  0.50000000  0.22758500  1
  Ba  Ba1  1  0.50000000  0.50000000  0.77241500  1
  Cu  Cu2  1  0.00000000  0.00000000  0.39810400  1
  Cu  Cu3  1  0.00000000  0.00000000  0.60189600  1
  Hg  Hg4  1  0.00000000  0.00000000  0.00000000  1
  O  O5  1  0.00000000  0.00000000  0.85365300  1
  O  O6  1  0.00000000  0.00000000  0.14634700  1
  O  O7  1  0.50000000  0.00000000  0.63090900  1
  O  O8  1  0.00000000  0.50000000  0.63090900  1
  O  O9  1  0.50000000  0.00000000  0.36909100  1
  O  O10  1  0.00000000  0.50000000  0.36909100  1
