# generated using pymatgen
data_MgSnO2
_symmetry_space_group_name_H-M   'P 1'
_cell_length_a   3.32740700
_cell_length_b   8.53254209
_cell_length_c   9.44870805
_cell_angle_alpha   88.10493453
_cell_angle_beta   88.38632915
_cell_angle_gamma   83.50951702
_symmetry_Int_Tables_number   1
_chemical_formula_structural   MgSnO2
_chemical_formula_sum   'Mg4 Sn4 O8'
_cell_volume   266.31481097
_cell_formula_units_Z   4
loop_
 _symmetry_equiv_pos_site_id
 _symmetry_equiv_pos_as_xyz
  1  'x, y, z'
loop_
 _atom_site_type_symbol
 _atom_site_label
 _atom_site_symmetry_multiplicity
 _atom_site_fract_x
 _atom_site_fract_y
 _atom_site_fract_z
 _atom_site_occupancy
  Mg  Mg0  1  0.72595500  0.31756300  0.58419100  1
  Mg  Mg1  1  0.27404500  0.68243700  0.41580900  1
  Mg  Mg2  1  0.20854000  0.33937900  0.27037500  1
  Mg  Mg3  1  0.79146000  0.66062100  0.72962500  1
  Sn  Sn4  1  0.20833200  0.97498900  0.66900300  1
  Sn  Sn5  1  0.40301600  0.31459600  0.89870100  1
  Sn  Sn6  1  0.59698400  0.68540400  0.10129900  1
  Sn  Sn7  1  0.79166800  0.02501100  0.33099700  1
  O  O8  1  0.38695800  0.87051900  0.24383700  1
  O  O9  1  0.25488600  0.76949300  0.79505100  1
  O  O10  1  0.74511400  0.23050700  0.20494900  1
  O  O11  1  0.61304200  0.12948100  0.75616300  1
  O  O12  1  0.76488300  0.68622000  0.52178400  1
  O  O13  1  0.83711000  0.42604500  0.76973000  1
  O  O14  1  0.23511700  0.31378000  0.47821600  1
  O  O15  1  0.16289000  0.57395500  0.23027000  1
