# generated using pymatgen
data_Sr2Y2Mn2O7
_symmetry_space_group_name_H-M   'P 1'
_cell_length_a   12.62272772
_cell_length_b   12.62272772
_cell_length_c   12.62272772
_cell_angle_alpha   153.51920402
_cell_angle_beta   152.86241443
_cell_angle_gamma   38.27953962
_symmetry_Int_Tables_number   1
_chemical_formula_structural   Sr2Y2Mn2O7
_chemical_formula_sum   'Sr4 Y4 Mn4 O14'
_cell_volume   408.39563127
_cell_formula_units_Z   2
loop_
 _symmetry_equiv_pos_site_id
 _symmetry_equiv_pos_as_xyz
  1  'x, y, z'
loop_
 _atom_site_type_symbol
 _atom_site_label
 _atom_site_symmetry_multiplicity
 _atom_site_fract_x
 _atom_site_fract_y
 _atom_site_fract_z
 _atom_site_occupancy
  Sr  Sr0  1  0.31963600  0.85132900  0.45937600  1
  Sr  Sr1  1  0.68036400  0.13974000  0.53169200  1
  Sr  Sr2  1  0.10804700  0.63974000  0.45937600  1
  Sr  Sr3  1  0.89195300  0.35132900  0.53169200  1
  Y  Y4  1  0.00000000  0.47499600  0.47499600  1
  Y  Y5  1  0.50000000  0.97499600  0.47499600  1
  Y  Y6  1  0.69146800  0.77736500  0.96883300  1
  Y  Y7  1  0.30853200  0.27736500  0.08589800  1
  Mn  Mn8  1  0.42810300  0.39551100  0.97868600  1
  Mn  Mn9  1  0.57189700  0.55058300  0.96740800  1
  Mn  Mn10  1  0.08317500  0.05058300  0.97868600  1
  Mn  Mn11  1  0.91682500  0.89551100  0.96740800  1
  O  O12  1  0.34362700  0.65545000  0.49907700  1
  O  O13  1  0.65637300  0.15545000  0.31182300  1
  O  O14  1  0.23775500  0.70293700  0.06291100  1
  O  O15  1  0.76224500  0.82515600  0.46518200  1
  O  O16  1  0.85997400  0.32515600  0.06291100  1
  O  O17  1  0.14002600  0.20293700  0.46518200  1
  O  O18  1  0.62784900  0.09995900  0.85999800  1
  O  O19  1  0.37215100  0.23214800  0.47211000  1
  O  O20  1  0.26003900  0.73214800  0.85999800  1
  O  O21  1  0.73996100  0.59995900  0.47211000  1
  O  O22  1  0.88936000  0.76981900  0.99436900  1
  O  O23  1  0.11064000  0.10500900  0.88046000  1
  O  O24  1  0.72455000  0.60500900  0.99436900  1
  O  O25  1  0.27545000  0.26981900  0.88046000  1
