# generated using pymatgen
data_Eu3GaO6
_symmetry_space_group_name_H-M   'P 1'
_cell_length_a   7.36458049
_cell_length_b   7.36458049
_cell_length_c   5.54901400
_cell_angle_alpha   90.00000000
_cell_angle_beta   90.00000000
_cell_angle_gamma   102.97966219
_symmetry_Int_Tables_number   1
_chemical_formula_structural   Eu3GaO6
_chemical_formula_sum   'Eu6 Ga2 O12'
_cell_volume   293.27249958
_cell_formula_units_Z   2
loop_
 _symmetry_equiv_pos_site_id
 _symmetry_equiv_pos_as_xyz
  1  'x, y, z'
loop_
 _atom_site_type_symbol
 _atom_site_label
 _atom_site_symmetry_multiplicity
 _atom_site_fract_x
 _atom_site_fract_y
 _atom_site_fract_z
 _atom_site_occupancy
  Eu  Eu0  1  0.29883500  0.08552800  0.46852300  1
  Eu  Eu1  1  0.91447200  0.70116500  0.46852300  1
  Eu  Eu2  1  0.70116500  0.91447200  0.96852300  1
  Eu  Eu3  1  0.08552800  0.29883500  0.96852300  1
  Eu  Eu4  1  0.39385300  0.60614700  0.43029500  1
  Eu  Eu5  1  0.60614700  0.39385300  0.93029500  1
  Ga  Ga6  1  0.19235400  0.80764600  0.00789900  1
  Ga  Ga7  1  0.80764600  0.19235400  0.50789900  1
  O  O8  1  0.41759800  0.89073500  0.17970900  1
  O  O9  1  0.10926500  0.58240200  0.17970900  1
  O  O10  1  0.58240200  0.10926500  0.67970900  1
  O  O11  1  0.89073500  0.41759800  0.67970900  1
  O  O12  1  0.35650700  0.32500100  0.20169600  1
  O  O13  1  0.67499900  0.64349300  0.20169600  1
  O  O14  1  0.64349300  0.67499900  0.70169600  1
  O  O15  1  0.32500100  0.35650700  0.70169600  1
  O  O16  1  0.04374800  0.95625200  0.14441000  1
  O  O17  1  0.95625200  0.04374800  0.64441000  1
  O  O18  1  0.21317600  0.78682400  0.67421900  1
  O  O19  1  0.78682400  0.21317600  0.17421900  1
