# generated using pymatgen
data_VO2
_symmetry_space_group_name_H-M   'P 1'
_cell_length_a   10.76466600
_cell_length_b   5.24356700
_cell_length_c   5.87755263
_cell_angle_alpha   87.14983399
_cell_angle_beta   90.00000000
_cell_angle_gamma   90.00000000
_symmetry_Int_Tables_number   1
_chemical_formula_structural   VO2
_chemical_formula_sum   'V8 O16'
_cell_volume   331.34951982
_cell_formula_units_Z   8
loop_
 _symmetry_equiv_pos_site_id
 _symmetry_equiv_pos_as_xyz
  1  'x, y, z'
loop_
 _atom_site_type_symbol
 _atom_site_label
 _atom_site_symmetry_multiplicity
 _atom_site_fract_x
 _atom_site_fract_y
 _atom_site_fract_z
 _atom_site_occupancy
  V  V0  1  0.50471000  0.00159700  0.25024900  1
  V  V1  1  0.99529000  0.00159700  0.25024900  1
  V  V2  1  0.49529000  0.99840300  0.74975100  1
  V  V3  1  0.00471000  0.99840300  0.74975100  1
  V  V4  1  0.50000000  0.50000000  0.50000000  1
  V  V5  1  0.00000000  0.50000000  0.00000000  1
  V  V6  1  0.50000000  0.50000000  0.00000000  1
  V  V7  1  0.00000000  0.50000000  0.50000000  1
  O  O8  1  0.59097700  0.66089600  0.25654100  1
  O  O9  1  0.90902300  0.66089600  0.25654100  1
  O  O10  1  0.40902300  0.33910400  0.74345900  1
  O  O11  1  0.09097700  0.33910400  0.74345900  1
  O  O12  1  0.41186100  0.33609200  0.24422300  1
  O  O13  1  0.08813900  0.33609200  0.24422300  1
  O  O14  1  0.58813900  0.66390800  0.75577700  1
  O  O15  1  0.91186100  0.66390800  0.75577700  1
  O  O16  1  0.41043800  0.83808600  0.49117500  1
  O  O17  1  0.08959500  0.83705500  0.99570600  1
  O  O18  1  0.58959500  0.16294500  0.00429400  1
  O  O19  1  0.91043800  0.16191400  0.50882500  1
  O  O20  1  0.58956200  0.16191400  0.50882500  1
  O  O21  1  0.91040500  0.16294500  0.00429400  1
  O  O22  1  0.41040500  0.83705500  0.99570600  1
  O  O23  1  0.08956200  0.83808600  0.49117500  1
