# generated using pymatgen
data_YCr2O4
_symmetry_space_group_name_H-M   'P 1'
_cell_length_a   6.33969080
_cell_length_b   6.33969080
_cell_length_c   6.33969131
_cell_angle_alpha   60.41311082
_cell_angle_beta   60.41311082
_cell_angle_gamma   60.41311487
_symmetry_Int_Tables_number   1
_chemical_formula_structural   YCr2O4
_chemical_formula_sum   'Y2 Cr4 O8'
_cell_volume   181.85591450
_cell_formula_units_Z   2
loop_
 _symmetry_equiv_pos_site_id
 _symmetry_equiv_pos_as_xyz
  1  'x, y, z'
loop_
 _atom_site_type_symbol
 _atom_site_label
 _atom_site_symmetry_multiplicity
 _atom_site_fract_x
 _atom_site_fract_y
 _atom_site_fract_z
 _atom_site_occupancy
  Y  Y0  1  0.62184300  0.62184300  0.62184300  1
  Y  Y1  1  0.37815700  0.37815700  0.37815700  1
  Cr  Cr2  1  0.50000000  0.00000000  0.00000000  1
  Cr  Cr3  1  0.00000000  0.00000000  0.00000000  1
  Cr  Cr4  1  0.00000000  0.50000000  0.00000000  1
  Cr  Cr5  1  0.00000000  0.00000000  0.50000000  1
  O  O6  1  0.76340500  0.20302300  0.76340500  1
  O  O7  1  0.23659500  0.23659500  0.79697700  1
  O  O8  1  0.79697700  0.23659500  0.23659500  1
  O  O9  1  0.24028700  0.24028700  0.24028700  1
  O  O10  1  0.76340500  0.76340500  0.20302300  1
  O  O11  1  0.23659500  0.79697700  0.23659500  1
  O  O12  1  0.20302300  0.76340500  0.76340500  1
  O  O13  1  0.75971300  0.75971300  0.75971300  1
