# generated using pymatgen
data_La2VZnO6
_symmetry_space_group_name_H-M   'P 1'
_cell_length_a   5.53529803
_cell_length_b   5.53529803
_cell_length_c   5.53529736
_cell_angle_alpha   61.57173502
_cell_angle_beta   61.57173502
_cell_angle_gamma   61.57173466
_symmetry_Int_Tables_number   1
_chemical_formula_structural   La2VZnO6
_chemical_formula_sum   'La2 V1 Zn1 O6'
_cell_volume   124.15349199
_cell_formula_units_Z   1
loop_
 _symmetry_equiv_pos_site_id
 _symmetry_equiv_pos_as_xyz
  1  'x, y, z'
loop_
 _atom_site_type_symbol
 _atom_site_label
 _atom_site_symmetry_multiplicity
 _atom_site_fract_x
 _atom_site_fract_y
 _atom_site_fract_z
 _atom_site_occupancy
  La  La0  1  0.75083600  0.75083600  0.75083600  1
  La  La1  1  0.24916400  0.24916400  0.24916400  1
  V  V2  1  0.00000000  0.00000000  0.00000000  1
  Zn  Zn3  1  0.50000000  0.50000000  0.50000000  1
  O  O4  1  0.76148300  0.31955100  0.16219000  1
  O  O5  1  0.16219000  0.76148300  0.31955100  1
  O  O6  1  0.31955100  0.16219000  0.76148300  1
  O  O7  1  0.23851700  0.68044900  0.83781000  1
  O  O8  1  0.68044900  0.83781000  0.23851700  1
  O  O9  1  0.83781000  0.23851700  0.68044900  1
