# generated using pymatgen
data_V3O7
_symmetry_space_group_name_H-M   'P 1'
_cell_length_a   5.37770500
_cell_length_b   10.51107200
_cell_length_c   10.76016700
_cell_angle_alpha   90.00000000
_cell_angle_beta   90.00000000
_cell_angle_gamma   90.00000000
_symmetry_Int_Tables_number   1
_chemical_formula_structural   V3O7
_chemical_formula_sum   'V12 O28'
_cell_volume   608.22322203
_cell_formula_units_Z   4
loop_
 _symmetry_equiv_pos_site_id
 _symmetry_equiv_pos_as_xyz
  1  'x, y, z'
loop_
 _atom_site_type_symbol
 _atom_site_label
 _atom_site_symmetry_multiplicity
 _atom_site_fract_x
 _atom_site_fract_y
 _atom_site_fract_z
 _atom_site_occupancy
  V  V0  1  0.70437400  0.70010500  0.97147600  1
  V  V1  1  0.20437400  0.79989500  0.02852400  1
  V  V2  1  0.29562600  0.29989500  0.47147600  1
  V  V3  1  0.79562600  0.20010500  0.52852400  1
  V  V4  1  0.69952700  0.78203500  0.25000000  1
  V  V5  1  0.19952700  0.71796500  0.75000000  1
  V  V6  1  0.30047300  0.21796500  0.75000000  1
  V  V7  1  0.80047300  0.28203500  0.25000000  1
  V  V8  1  0.20437400  0.79989500  0.47147600  1
  V  V9  1  0.70437400  0.70010500  0.52852400  1
  V  V10  1  0.79562600  0.20010500  0.97147600  1
  V  V11  1  0.29562600  0.29989500  0.02852400  1
  O  O12  1  0.06665200  0.26998100  0.88732800  1
  O  O13  1  0.56665200  0.23001900  0.11267200  1
  O  O14  1  0.93334800  0.73001900  0.38732800  1
  O  O15  1  0.43334800  0.76998100  0.61267200  1
  O  O16  1  0.93334800  0.73001900  0.11267200  1
  O  O17  1  0.43334800  0.76998100  0.88732800  1
  O  O18  1  0.06665200  0.26998100  0.61267200  1
  O  O19  1  0.56665200  0.23001900  0.38732800  1
  O  O20  1  0.52956400  0.27473500  0.88748600  1
  O  O21  1  0.02956400  0.22526500  0.11251400  1
  O  O22  1  0.47043600  0.72526500  0.38748600  1
  O  O23  1  0.97043600  0.77473500  0.61251400  1
  O  O24  1  0.47043600  0.72526500  0.11251400  1
  O  O25  1  0.97043600  0.77473500  0.88748600  1
  O  O26  1  0.52956400  0.27473500  0.61251400  1
  O  O27  1  0.02956400  0.22526500  0.38748600  1
  O  O28  1  0.80686800  0.43505300  0.25000000  1
  O  O29  1  0.30686800  0.06494700  0.75000000  1
  O  O30  1  0.19313200  0.56494700  0.75000000  1
  O  O31  1  0.69313200  0.93505300  0.25000000  1
  O  O32  1  0.78535300  0.05221800  0.56468800  1
  O  O33  1  0.28535300  0.44778200  0.43531200  1
  O  O34  1  0.21464700  0.94778200  0.06468800  1
  O  O35  1  0.71464700  0.55221800  0.93531200  1
  O  O36  1  0.21464700  0.94778200  0.43531200  1
  O  O37  1  0.71464700  0.55221800  0.56468800  1
  O  O38  1  0.78535300  0.05221800  0.93531200  1
  O  O39  1  0.28535300  0.44778200  0.06468800  1
