# generated using pymatgen
data_Mg2TaNb2O8
_symmetry_space_group_name_H-M   'P 1'
_cell_length_a   5.23012300
_cell_length_b   5.98244696
_cell_length_c   10.00458636
_cell_angle_alpha   103.85833502
_cell_angle_beta   93.27404124
_cell_angle_gamma   91.71952983
_symmetry_Int_Tables_number   1
_chemical_formula_structural   Mg2TaNb2O8
_chemical_formula_sum   'Mg4 Ta2 Nb4 O16'
_cell_volume   303.11634808
_cell_formula_units_Z   2
loop_
 _symmetry_equiv_pos_site_id
 _symmetry_equiv_pos_as_xyz
  1  'x, y, z'
loop_
 _atom_site_type_symbol
 _atom_site_label
 _atom_site_symmetry_multiplicity
 _atom_site_fract_x
 _atom_site_fract_y
 _atom_site_fract_z
 _atom_site_occupancy
  Mg  Mg0  1  0.76716400  0.41889300  0.55262700  1
  Mg  Mg1  1  0.74524600  0.86085500  0.46033900  1
  Mg  Mg2  1  0.23283600  0.58110700  0.44737300  1
  Mg  Mg3  1  0.25475400  0.13914500  0.53966100  1
  Ta  Ta4  1  0.75463200  0.65648400  0.99359900  1
  Ta  Ta5  1  0.24536800  0.34351600  0.00640100  1
  Nb  Nb6  1  0.71866200  0.24739200  0.24765600  1
  Nb  Nb7  1  0.71575200  0.00803300  0.76778300  1
  Nb  Nb8  1  0.28133800  0.75260800  0.75234400  1
  Nb  Nb9  1  0.28424800  0.99196700  0.23221700  1
  O  O10  1  0.06734100  0.20532800  0.13632100  1
  O  O11  1  0.38967800  0.09118800  0.88530600  1
  O  O12  1  0.93265900  0.79467100  0.86367900  1
  O  O13  1  0.61032200  0.90881200  0.11469400  1
  O  O14  1  0.58670700  0.44754200  0.11293200  1
  O  O15  1  0.90413800  0.32948600  0.89819200  1
  O  O16  1  0.41329300  0.55245800  0.88706800  1
  O  O17  1  0.09586200  0.67051400  0.10180800  1
  O  O18  1  0.42726100  0.29890300  0.38045200  1
  O  O19  1  0.06562700  0.92024500  0.63232600  1
  O  O20  1  0.37578500  0.84624900  0.38312000  1
  O  O21  1  0.13435200  0.45658200  0.61679200  1
  O  O22  1  0.62421500  0.15375100  0.61688000  1
  O  O23  1  0.86564800  0.54341800  0.38320800  1
  O  O24  1  0.93437300  0.07975500  0.36767400  1
  O  O25  1  0.57273900  0.70109700  0.61954800  1
