# generated using pymatgen
data_Ca(Fe9O13)2
_symmetry_space_group_name_H-M   'P 1'
_cell_length_a   5.26193800
_cell_length_b   5.99812752
_cell_length_c   17.49230391
_cell_angle_alpha   90.00011936
_cell_angle_beta   98.06981389
_cell_angle_gamma   106.61246742
_symmetry_Int_Tables_number   1
_chemical_formula_structural   Ca(Fe9O13)2
_chemical_formula_sum   'Ca1 Fe18 O26'
_cell_volume   523.33658684
_cell_formula_units_Z   1
loop_
 _symmetry_equiv_pos_site_id
 _symmetry_equiv_pos_as_xyz
  1  'x, y, z'
loop_
 _atom_site_type_symbol
 _atom_site_label
 _atom_site_symmetry_multiplicity
 _atom_site_fract_x
 _atom_site_fract_y
 _atom_site_fract_z
 _atom_site_occupancy
  Ca  Ca0  1  0.58458400  0.39292900  0.77069400  1
  Fe  Fe1  1  0.99455400  0.74969900  0.49999900  1
  Fe  Fe2  1  0.00755200  0.25190300  0.50014800  1
  Fe  Fe3  1  0.71551000  0.67990300  0.95946400  1
  Fe  Fe4  1  0.70789400  0.17593700  0.95825000  1
  Fe  Fe5  1  0.28851400  0.82174700  0.04250400  1
  Fe  Fe6  1  0.29181100  0.32284800  0.04430500  1
  Fe  Fe7  1  0.50572700  0.62814300  0.58256700  1
  Fe  Fe8  1  0.50335300  0.12344300  0.58295400  1
  Fe  Fe9  1  0.49826800  0.87579400  0.41599800  1
  Fe  Fe10  1  0.49988600  0.37363500  0.41773700  1
  Fe  Fe11  1  0.14932100  0.53894500  0.87659000  1
  Fe  Fe12  1  0.11163800  0.02486600  0.86980800  1
  Fe  Fe13  1  0.86986200  0.96778500  0.13352000  1
  Fe  Fe14  1  0.87501100  0.46971000  0.13477200  1
  Fe  Fe15  1  0.04324900  0.51251900  0.67133900  1
  Fe  Fe16  1  0.00768400  0.00192400  0.67569300  1
  Fe  Fe17  1  0.98130800  0.99561000  0.32260500  1
  Fe  Fe18  1  0.97986800  0.49523300  0.32419900  1
  O  O19  1  0.01343900  0.01407000  0.99649200  1
  O  O20  1  0.02359800  0.49727300  0.99772000  1
  O  O21  1  0.22841700  0.54561500  0.77376000  1
  O  O22  1  0.22761900  0.06223300  0.77197300  1
  O  O23  1  0.76611400  0.94139900  0.22866700  1
  O  O24  1  0.76830300  0.44252200  0.22940100  1
  O  O25  1  0.40525700  0.86247300  0.93208000  1
  O  O26  1  0.41274600  0.34215000  0.92825800  1
  O  O27  1  0.57881400  0.64460700  0.06818300  1
  O  O28  1  0.58297400  0.14669900  0.06661200  1
  O  O29  1  0.87061300  0.70548500  0.86039900  1
  O  O30  1  0.86263400  0.22431300  0.86278800  1
  O  O31  1  0.12034900  0.78227300  0.13296400  1
  O  O32  1  0.12028800  0.27930200  0.13485400  1
  O  O33  1  0.76967800  0.68148700  0.68020600  1
  O  O34  1  0.76978600  0.20426000  0.67878500  1
  O  O35  1  0.23003200  0.80744700  0.32620300  1
  O  O36  1  0.23053300  0.30840800  0.32920200  1
  O  O37  1  0.20432900  0.80272400  0.60848100  1
  O  O38  1  0.22103700  0.30403900  0.61526100  1
  O  O39  1  0.76342800  0.69227800  0.39091300  1
  O  O40  1  0.75600400  0.18984100  0.38966500  1
  O  O41  1  0.74456400  0.92757400  0.52624600  1
  O  O42  1  0.73855200  0.44434900  0.52418100  1
  O  O43  1  0.27148300  0.57926800  0.46727400  1
  O  O44  1  0.27693100  0.05860100  0.46806000  1
