# generated using pymatgen
data_MgVBiO6
_symmetry_space_group_name_H-M   'P 1'
_cell_length_a   5.84493300
_cell_length_b   7.24330600
_cell_length_c   7.83974451
_cell_angle_alpha   76.03013289
_cell_angle_beta   90.00000000
_cell_angle_gamma   90.00000000
_symmetry_Int_Tables_number   1
_chemical_formula_structural   MgVBiO6
_chemical_formula_sum   'Mg2 V2 Bi2 O12'
_cell_volume   322.09151317
_cell_formula_units_Z   2
loop_
 _symmetry_equiv_pos_site_id
 _symmetry_equiv_pos_as_xyz
  1  'x, y, z'
loop_
 _atom_site_type_symbol
 _atom_site_label
 _atom_site_symmetry_multiplicity
 _atom_site_fract_x
 _atom_site_fract_y
 _atom_site_fract_z
 _atom_site_occupancy
  Mg  Mg0  1  0.25000000  0.41343700  0.28197100  1
  Mg  Mg1  1  0.75000000  0.58656300  0.71802900  1
  V  V2  1  0.25000000  0.30651200  0.84999200  1
  V  V3  1  0.75000000  0.69348800  0.15000800  1
  Bi  Bi4  1  0.75000000  0.01329200  0.39741200  1
  Bi  Bi5  1  0.25000000  0.98670800  0.60258800  1
  O  O6  1  0.25000000  0.32661000  0.06067400  1
  O  O7  1  0.75000000  0.67339000  0.93932600  1
  O  O8  1  0.75000000  0.95484500  0.15241300  1
  O  O9  1  0.25000000  0.04515500  0.84758700  1
  O  O10  1  0.98749300  0.59248600  0.26141500  1
  O  O11  1  0.48749300  0.40751400  0.73858500  1
  O  O12  1  0.01250700  0.40751400  0.73858500  1
  O  O13  1  0.51250700  0.59248600  0.26141500  1
  O  O14  1  0.47406500  0.19137900  0.43123800  1
  O  O15  1  0.97406500  0.80862100  0.56876200  1
  O  O16  1  0.02593500  0.19137900  0.43123800  1
  O  O17  1  0.52593500  0.80862100  0.56876200  1
