# generated using pymatgen
data_MgP2WO7
_symmetry_space_group_name_H-M   'P 1'
_cell_length_a   8.71047500
_cell_length_b   7.17455300
_cell_length_c   9.67733898
_cell_angle_alpha   74.28083701
_cell_angle_beta   90.00000000
_cell_angle_gamma   90.00000000
_symmetry_Int_Tables_number   1
_chemical_formula_structural   MgP2WO7
_chemical_formula_sum   'Mg4 P8 W4 O28'
_cell_volume   582.15553911
_cell_formula_units_Z   4
loop_
 _symmetry_equiv_pos_site_id
 _symmetry_equiv_pos_as_xyz
  1  'x, y, z'
loop_
 _atom_site_type_symbol
 _atom_site_label
 _atom_site_symmetry_multiplicity
 _atom_site_fract_x
 _atom_site_fract_y
 _atom_site_fract_z
 _atom_site_occupancy
  Mg  Mg0  1  0.92822400  0.31321700  0.80434400  1
  Mg  Mg1  1  0.42822400  0.68678300  0.69565600  1
  Mg  Mg2  1  0.57177600  0.31321700  0.30434400  1
  Mg  Mg3  1  0.07177600  0.68678300  0.19565600  1
  P  P4  1  0.75794100  0.91034400  0.27385900  1
  P  P5  1  0.22387800  0.45588200  0.97297400  1
  P  P6  1  0.74205900  0.91034400  0.77385900  1
  P  P7  1  0.27612200  0.45588200  0.47297400  1
  P  P8  1  0.25794100  0.08965600  0.22614100  1
  P  P9  1  0.72387800  0.54411800  0.52702600  1
  P  P10  1  0.77612200  0.54411800  0.02702600  1
  P  P11  1  0.24205900  0.08965600  0.72614100  1
  W  W12  1  0.05521100  0.74829800  0.61697100  1
  W  W13  1  0.94478900  0.25170200  0.38302900  1
  W  W14  1  0.55521100  0.25170200  0.88302900  1
  W  W15  1  0.44478900  0.74829800  0.11697100  1
  O  O16  1  0.20335400  0.24299400  0.07674800  1
  O  O17  1  0.57933400  0.86073900  0.74391400  1
  O  O18  1  0.92066600  0.86073900  0.24391400  1
  O  O19  1  0.37888000  0.47346200  0.88981600  1
  O  O20  1  0.79664600  0.75700600  0.92325200  1
  O  O21  1  0.14279100  0.09632700  0.34134800  1
  O  O22  1  0.62112000  0.52653800  0.11018400  1
  O  O23  1  0.08729800  0.48156300  0.87303700  1
  O  O24  1  0.26761400  0.60199800  0.56554600  1
  O  O25  1  0.85720900  0.90367300  0.65865200  1
  O  O26  1  0.35720900  0.09632700  0.84134800  1
  O  O27  1  0.75181400  0.10751500  0.81239900  1
  O  O28  1  0.25181400  0.89248500  0.68760100  1
  O  O29  1  0.29664600  0.24299400  0.57674800  1
  O  O30  1  0.64279100  0.90367300  0.15865200  1
  O  O31  1  0.07933400  0.13926100  0.75608600  1
  O  O32  1  0.24818600  0.89248500  0.18760100  1
  O  O33  1  0.91270200  0.51843700  0.12696300  1
  O  O34  1  0.23238600  0.60199800  0.06554600  1
  O  O35  1  0.76761400  0.39800200  0.93445400  1
  O  O36  1  0.87888000  0.52653800  0.61018400  1
  O  O37  1  0.41270200  0.48156300  0.37303700  1
  O  O38  1  0.58729800  0.51843700  0.62696300  1
  O  O39  1  0.42066600  0.13926100  0.25608600  1
  O  O40  1  0.74818600  0.10751500  0.31239900  1
  O  O41  1  0.12112000  0.47346200  0.38981600  1
  O  O42  1  0.73238600  0.39800200  0.43445400  1
  O  O43  1  0.70335400  0.75700600  0.42325200  1
