# generated using pymatgen
data_Mg(CoO2)2
_symmetry_space_group_name_H-M   'P 1'
_cell_length_a   6.93997234
_cell_length_b   6.93997234
_cell_length_c   9.01454695
_cell_angle_alpha   50.96586517
_cell_angle_beta   50.96586517
_cell_angle_gamma   23.83403108
_symmetry_Int_Tables_number   1
_chemical_formula_structural   Mg(CoO2)2
_chemical_formula_sum   'Mg2 Co4 O8'
_cell_volume   134.26922166
_cell_formula_units_Z   2
loop_
 _symmetry_equiv_pos_site_id
 _symmetry_equiv_pos_as_xyz
  1  'x, y, z'
loop_
 _atom_site_type_symbol
 _atom_site_label
 _atom_site_symmetry_multiplicity
 _atom_site_fract_x
 _atom_site_fract_y
 _atom_site_fract_z
 _atom_site_occupancy
  Mg  Mg0  1  0.67171500  0.67171500  0.84019600  1
  Mg  Mg1  1  0.32828500  0.32828500  0.15980400  1
  Co  Co2  1  0.36607800  0.36607800  0.81559400  1
  Co  Co3  1  0.85274400  0.85274400  0.47765600  1
  Co  Co4  1  0.14725600  0.14725600  0.52234400  1
  Co  Co5  1  0.63392200  0.63392200  0.18440600  1
  O  O6  1  0.13219900  0.13219900  0.31974600  1
  O  O7  1  0.54077300  0.54077300  0.68457300  1
  O  O8  1  0.45922700  0.45922700  0.31542700  1
  O  O9  1  0.86780100  0.86780100  0.68025400  1
  O  O10  1  0.83642900  0.83642900  0.99463500  1
  O  O11  1  0.22075300  0.22075300  0.64242800  1
  O  O12  1  0.16357100  0.16357100  0.00536500  1
  O  O13  1  0.77924700  0.77924700  0.35757200  1
