# generated using pymatgen
data_Zn2Sn3O8
_symmetry_space_group_name_H-M   'P 1'
_cell_length_a   5.93764778
_cell_length_b   5.93764778
_cell_length_c   5.46100627
_cell_angle_alpha   80.78259027
_cell_angle_beta   80.78259027
_cell_angle_gamma   63.13734179
_symmetry_Int_Tables_number   1
_chemical_formula_structural   Zn2Sn3O8
_chemical_formula_sum   'Zn2 Sn3 O8'
_cell_volume   168.69307675
_cell_formula_units_Z   1
loop_
 _symmetry_equiv_pos_site_id
 _symmetry_equiv_pos_as_xyz
  1  'x, y, z'
loop_
 _atom_site_type_symbol
 _atom_site_label
 _atom_site_symmetry_multiplicity
 _atom_site_fract_x
 _atom_site_fract_y
 _atom_site_fract_z
 _atom_site_occupancy
  Zn  Zn0  1  0.29766700  0.29766700  0.08353300  1
  Zn  Zn1  1  0.70233300  0.70233300  0.91646700  1
  Sn  Sn2  1  0.00000000  0.00000000  0.00000000  1
  Sn  Sn3  1  0.74278400  0.25721600  0.50000000  1
  Sn  Sn4  1  0.25721600  0.74278400  0.50000000  1
  O  O5  1  0.60955700  0.60955700  0.62279300  1
  O  O6  1  0.39044300  0.39044300  0.37720700  1
  O  O7  1  0.10397300  0.10397300  0.63439000  1
  O  O8  1  0.89602700  0.89602700  0.36561000  1
  O  O9  1  0.10511900  0.64684400  0.86520700  1
  O  O10  1  0.64684400  0.10511900  0.86520700  1
  O  O11  1  0.35315600  0.89488100  0.13479300  1
  O  O12  1  0.89488100  0.35315600  0.13479300  1
