# generated using pymatgen
data_MgCuF5
_symmetry_space_group_name_H-M   'P 1'
_cell_length_a   9.64682600
_cell_length_b   5.19029500
_cell_length_c   7.24065351
_cell_angle_alpha   70.12557611
_cell_angle_beta   90.00000000
_cell_angle_gamma   90.00000000
_symmetry_Int_Tables_number   1
_chemical_formula_structural   MgCuF5
_chemical_formula_sum   'Mg4 Cu4 F20'
_cell_volume   340.94579153
_cell_formula_units_Z   4
loop_
 _symmetry_equiv_pos_site_id
 _symmetry_equiv_pos_as_xyz
  1  'x, y, z'
loop_
 _atom_site_type_symbol
 _atom_site_label
 _atom_site_symmetry_multiplicity
 _atom_site_fract_x
 _atom_site_fract_y
 _atom_site_fract_z
 _atom_site_occupancy
  Mg  Mg0  1  0.01357000  0.52189900  0.74797100  1
  Mg  Mg1  1  0.51357000  0.47810100  0.75202900  1
  Mg  Mg2  1  0.98643000  0.47810100  0.25202900  1
  Mg  Mg3  1  0.48643000  0.52189900  0.24797100  1
  Cu  Cu4  1  0.75423900  0.09702300  0.60284900  1
  Cu  Cu5  1  0.25423900  0.90297700  0.89715100  1
  Cu  Cu6  1  0.24576100  0.90297700  0.39715100  1
  Cu  Cu7  1  0.74576100  0.09702300  0.10284900  1
  F  F8  1  0.88814900  0.39786000  0.56131100  1
  F  F9  1  0.38814900  0.60214000  0.93868900  1
  F  F10  1  0.11185100  0.60214000  0.43868900  1
  F  F11  1  0.61185100  0.39786000  0.06131100  1
  F  F12  1  0.60650400  0.36421100  0.49867500  1
  F  F13  1  0.10650400  0.63578900  0.00132500  1
  F  F14  1  0.39349600  0.63578900  0.50132500  1
  F  F15  1  0.89349600  0.36421100  0.99867500  1
  F  F16  1  0.40529800  0.14192800  0.80353600  1
  F  F17  1  0.90529800  0.85807200  0.69646400  1
  F  F18  1  0.59470200  0.85807200  0.19646400  1
  F  F19  1  0.09470200  0.14192800  0.30353600  1
  F  F20  1  0.12997600  0.19812900  0.85327100  1
  F  F21  1  0.62997600  0.80187100  0.64672900  1
  F  F22  1  0.87002400  0.80187100  0.14672900  1
  F  F23  1  0.37002400  0.19812900  0.35327100  1
  F  F24  1  0.68785600  0.15731500  0.83704200  1
  F  F25  1  0.18785600  0.84268500  0.66295800  1
  F  F26  1  0.31214400  0.84268500  0.16295800  1
  F  F27  1  0.81214400  0.15731500  0.33704200  1
