# generated using pymatgen
data_Al5(FeO4)3
_symmetry_space_group_name_H-M   'P 1'
_cell_length_a   5.77712866
_cell_length_b   5.77712866
_cell_length_c   14.09082433
_cell_angle_alpha   89.92215570
_cell_angle_beta   89.92215570
_cell_angle_gamma   59.95524326
_symmetry_Int_Tables_number   1
_chemical_formula_structural   Al5(FeO4)3
_chemical_formula_sum   'Al10 Fe6 O24'
_cell_volume   407.09384288
_cell_formula_units_Z   2
loop_
 _symmetry_equiv_pos_site_id
 _symmetry_equiv_pos_as_xyz
  1  'x, y, z'
loop_
 _atom_site_type_symbol
 _atom_site_label
 _atom_site_symmetry_multiplicity
 _atom_site_fract_x
 _atom_site_fract_y
 _atom_site_fract_z
 _atom_site_occupancy
  Al  Al0  1  0.33570100  0.33570100  0.16342200  1
  Al  Al1  1  0.66429900  0.66429900  0.83657800  1
  Al  Al2  1  0.33576900  0.82844200  0.16301500  1
  Al  Al3  1  0.00000000  0.50000000  0.50000000  1
  Al  Al4  1  0.66423100  0.17155800  0.83698500  1
  Al  Al5  1  0.16016300  0.16016300  0.33785700  1
  Al  Al6  1  0.83983700  0.83983700  0.66214300  1
  Al  Al7  1  0.82844200  0.33576900  0.16301500  1
  Al  Al8  1  0.50000000  0.00000000  0.50000000  1
  Al  Al9  1  0.17155800  0.66423100  0.83698500  1
  Fe  Fe10  1  0.82980400  0.82980400  0.29323800  1
  Fe  Fe11  1  0.49511200  0.49511200  0.62195800  1
  Fe  Fe12  1  0.16615500  0.16615500  0.95345900  1
  Fe  Fe13  1  0.83384500  0.83384500  0.04654100  1
  Fe  Fe14  1  0.50488800  0.50488800  0.37804200  1
  Fe  Fe15  1  0.17019600  0.17019600  0.70676200  1
  O  O16  1  0.01723700  0.01723700  0.24794300  1
  O  O17  1  0.68136600  0.68136600  0.57903600  1
  O  O18  1  0.33850600  0.33850600  0.90100000  1
  O  O19  1  0.66138000  0.17800600  0.09895500  1
  O  O20  1  0.34366700  0.86180800  0.41432900  1
  O  O21  1  0.97837400  0.53977000  0.75366000  1
  O  O22  1  0.50014800  0.50014800  0.23896700  1
  O  O23  1  0.17850500  0.17850500  0.57581000  1
  O  O24  1  0.83395300  0.83395300  0.90559300  1
  O  O25  1  0.17800600  0.66138000  0.09895500  1
  O  O26  1  0.86180800  0.34366700  0.41432900  1
  O  O27  1  0.53977000  0.97837400  0.75366000  1
  O  O28  1  0.16604700  0.16604700  0.09440700  1
  O  O29  1  0.82149500  0.82149500  0.42419000  1
  O  O30  1  0.49985200  0.49985200  0.76103300  1
  O  O31  1  0.46023000  0.02162600  0.24634000  1
  O  O32  1  0.13819200  0.65633300  0.58567100  1
  O  O33  1  0.82199400  0.33862000  0.90104500  1
  O  O34  1  0.66149400  0.66149400  0.09900000  1
  O  O35  1  0.31863400  0.31863400  0.42096400  1
  O  O36  1  0.98276300  0.98276300  0.75205700  1
  O  O37  1  0.02162600  0.46023000  0.24634000  1
  O  O38  1  0.65633300  0.13819200  0.58567100  1
  O  O39  1  0.33862000  0.82199400  0.90104500  1
