# generated using pymatgen
data_Mg2FeSbO6
_symmetry_space_group_name_H-M   'P 1'
_cell_length_a   7.64594900
_cell_length_b   5.21611700
_cell_length_c   5.39303093
_cell_angle_alpha   89.17214595
_cell_angle_beta   90.00000000
_cell_angle_gamma   90.00000000
_symmetry_Int_Tables_number   1
_chemical_formula_structural   Mg2FeSbO6
_chemical_formula_sum   'Mg4 Fe2 Sb2 O12'
_cell_volume   215.06329616
_cell_formula_units_Z   2
loop_
 _symmetry_equiv_pos_site_id
 _symmetry_equiv_pos_as_xyz
  1  'x, y, z'
loop_
 _atom_site_type_symbol
 _atom_site_label
 _atom_site_symmetry_multiplicity
 _atom_site_fract_x
 _atom_site_fract_y
 _atom_site_fract_z
 _atom_site_occupancy
  Mg  Mg0  1  0.75000000  0.47976900  0.56997200  1
  Mg  Mg1  1  0.25000000  0.52023100  0.43002800  1
  Mg  Mg2  1  0.75000000  0.98829300  0.03510300  1
  Mg  Mg3  1  0.25000000  0.01170700  0.96489700  1
  Fe  Fe4  1  0.50000000  0.50000000  0.00000000  1
  Fe  Fe5  1  0.00000000  0.50000000  0.00000000  1
  Sb  Sb6  1  0.50000000  0.00000000  0.50000000  1
  Sb  Sb7  1  0.00000000  0.00000000  0.50000000  1
  O  O8  1  0.43073800  0.68152100  0.67719300  1
  O  O9  1  0.06924300  0.82824100  0.18876700  1
  O  O10  1  0.93073800  0.31847900  0.32280700  1
  O  O11  1  0.56924300  0.17175900  0.81123300  1
  O  O12  1  0.43075700  0.82824100  0.18876700  1
  O  O13  1  0.93075700  0.17175900  0.81123300  1
  O  O14  1  0.25000000  0.13904700  0.57370200  1
  O  O15  1  0.06926200  0.68152100  0.67719300  1
  O  O16  1  0.75000000  0.62069600  0.92897900  1
  O  O17  1  0.56926200  0.31847900  0.32280700  1
  O  O18  1  0.75000000  0.86095300  0.42629800  1
  O  O19  1  0.25000000  0.37930400  0.07102100  1
