# generated using pymatgen
data_Al5(CuO4)3
_symmetry_space_group_name_H-M   'P 1'
_cell_length_a   5.76061597
_cell_length_b   5.76061597
_cell_length_c   14.14933789
_cell_angle_alpha   89.77553133
_cell_angle_beta   89.77553133
_cell_angle_gamma   60.07597533
_symmetry_Int_Tables_number   1
_chemical_formula_structural   Al5(CuO4)3
_chemical_formula_sum   'Al10 Cu6 O24'
_cell_volume   406.94163656
_cell_formula_units_Z   2
loop_
 _symmetry_equiv_pos_site_id
 _symmetry_equiv_pos_as_xyz
  1  'x, y, z'
loop_
 _atom_site_type_symbol
 _atom_site_label
 _atom_site_symmetry_multiplicity
 _atom_site_fract_x
 _atom_site_fract_y
 _atom_site_fract_z
 _atom_site_occupancy
  Al  Al0  1  0.33249000  0.33249000  0.83200100  1
  Al  Al1  1  0.33253100  0.83577800  0.83096600  1
  Al  Al2  1  0.99795500  0.99795500  0.50086400  1
  Al  Al3  1  0.83577800  0.33253100  0.83096600  1
  Al  Al4  1  0.82946500  0.82946500  0.33135100  1
  Al  Al5  1  0.99801100  0.50527400  0.50128000  1
  Al  Al6  1  0.50527400  0.99801100  0.50128000  1
  Al  Al7  1  0.66719600  0.16714300  0.16498400  1
  Al  Al8  1  0.16714300  0.66719600  0.16498400  1
  Al  Al9  1  0.16246400  0.16246400  0.04278900  1
  Cu  Cu10  1  0.83131700  0.83131700  0.96294500  1
  Cu  Cu11  1  0.50418600  0.50418600  0.99969400  1
  Cu  Cu12  1  0.50027600  0.50027600  0.62734000  1
  Cu  Cu13  1  0.16834900  0.16834900  0.28819600  1
  Cu  Cu14  1  0.16685300  0.16685300  0.66985200  1
  Cu  Cu15  1  0.50200600  0.50200600  0.36746500  1
  O  O16  1  0.65638400  0.65638400  0.90567100  1
  O  O17  1  0.50030200  0.50030200  0.76535200  1
  O  O18  1  0.65252100  0.19765600  0.90906300  1
  O  O19  1  0.19765600  0.65252100  0.90906300  1
  O  O20  1  0.31803900  0.31803900  0.57667600  1
  O  O21  1  0.45866600  0.02176700  0.75900800  1
  O  O22  1  0.16840800  0.16840800  0.91464100  1
  O  O23  1  0.16711500  0.16711500  0.43179200  1
  O  O24  1  0.31757500  0.86484600  0.57669200  1
  O  O25  1  0.02176700  0.45866600  0.75900800  1
  O  O26  1  0.86484600  0.31757500  0.57669200  1
  O  O27  1  0.02044200  0.02044200  0.75935400  1
  O  O28  1  0.13272300  0.68487500  0.42047400  1
  O  O29  1  0.98294600  0.98294600  0.24634300  1
  O  O30  1  0.83368700  0.83368700  0.56275300  1
  O  O31  1  0.68487500  0.13272300  0.42047400  1
  O  O32  1  0.84538600  0.84538600  0.09432400  1
  O  O33  1  0.00698600  0.53182400  0.25210300  1
  O  O34  1  0.53182400  0.00698600  0.25210300  1
  O  O35  1  0.68260100  0.68260100  0.42108100  1
  O  O36  1  0.82056300  0.31456800  0.08277000  1
  O  O37  1  0.48313900  0.48313900  0.23665400  1
  O  O38  1  0.31456800  0.82056300  0.08277000  1
  O  O39  1  0.33451000  0.33451000  0.08889300  1
