# generated using pymatgen
data_SbF5
_symmetry_space_group_name_H-M   'P 1'
_cell_length_a   5.53566965
_cell_length_b   5.54903529
_cell_length_c   7.93270086
_cell_angle_alpha   97.13539264
_cell_angle_beta   109.62239733
_cell_angle_gamma   110.22636932
_symmetry_Int_Tables_number   1
_chemical_formula_structural   SbF5
_chemical_formula_sum   'Sb2 F10'
_cell_volume   207.25496622
_cell_formula_units_Z   2
loop_
 _symmetry_equiv_pos_site_id
 _symmetry_equiv_pos_as_xyz
  1  'x, y, z'
loop_
 _atom_site_type_symbol
 _atom_site_label
 _atom_site_symmetry_multiplicity
 _atom_site_fract_x
 _atom_site_fract_y
 _atom_site_fract_z
 _atom_site_occupancy
  Sb  Sb0  1  0.99502200  0.99965000  0.99936600  1
  Sb  Sb1  1  0.49972800  0.00044800  0.49844800  1
  F  F2  1  0.33298600  0.08306300  0.24792100  1
  F  F3  1  0.65975100  0.91752500  0.74983400  1
  F  F4  1  0.59561300  0.75161200  0.38209700  1
  F  F5  1  0.86882200  0.21713900  0.11719500  1
  F  F6  1  0.76750800  0.70283500  0.05018100  1
  F  F7  1  0.14922200  0.72702200  0.44939100  1
  F  F8  1  0.22476900  0.29744600  0.95056500  1
  F  F9  1  0.85149900  0.27282800  0.54712100  1
  F  F10  1  0.11704400  0.78075600  0.87880100  1
  F  F11  1  0.40628300  0.25132400  0.61495900  1
