# generated using pymatgen
data_SnF4
_symmetry_space_group_name_H-M   'P 1'
_cell_length_a   5.04480792
_cell_length_b   5.04577631
_cell_length_c   6.54268946
_cell_angle_alpha   115.24182771
_cell_angle_beta   112.38578726
_cell_angle_gamma   90.08397949
_symmetry_Int_Tables_number   1
_chemical_formula_structural   SnF4
_chemical_formula_sum   'Sn2 F8'
_cell_volume   136.58952327
_cell_formula_units_Z   2
loop_
 _symmetry_equiv_pos_site_id
 _symmetry_equiv_pos_as_xyz
  1  'x, y, z'
loop_
 _atom_site_type_symbol
 _atom_site_label
 _atom_site_symmetry_multiplicity
 _atom_site_fract_x
 _atom_site_fract_y
 _atom_site_fract_z
 _atom_site_occupancy
  Sn  Sn0  1  0.99627300  0.49869200  0.99726700  1
  Sn  Sn1  1  0.49899300  0.00007400  0.99824400  1
  F  F2  1  0.87558600  0.35734600  0.21538800  1
  F  F3  1  0.63688300  0.15723400  0.77477800  1
  F  F4  1  0.13109500  0.63961600  0.78121800  1
  F  F5  1  0.14718700  0.13969600  0.78247100  1
  F  F6  1  0.35020900  0.84245800  0.22416900  1
  F  F7  1  0.37475800  0.34325500  0.22509000  1
  F  F8  1  0.83978400  0.85798600  0.21513400  1
  F  F9  1  0.63387900  0.65628100  0.77370900  1
