# generated using pymatgen
data_AlNiO3
_symmetry_space_group_name_H-M   'P 1'
_cell_length_a   3.11061335
_cell_length_b   3.11061335
_cell_length_c   11.15390000
_cell_angle_alpha   90.00000000
_cell_angle_beta   90.00000000
_cell_angle_gamma   119.99998627
_symmetry_Int_Tables_number   1
_chemical_formula_structural   AlNiO3
_chemical_formula_sum   'Al2 Ni2 O6'
_cell_volume   93.46510596
_cell_formula_units_Z   2
loop_
 _symmetry_equiv_pos_site_id
 _symmetry_equiv_pos_as_xyz
  1  'x, y, z'
loop_
 _atom_site_type_symbol
 _atom_site_label
 _atom_site_symmetry_multiplicity
 _atom_site_fract_x
 _atom_site_fract_y
 _atom_site_fract_z
 _atom_site_occupancy
  Al  Al0  1  0.00000000  0.00000000  0.50000000  1
  Al  Al1  1  0.00000000  0.00000000  0.00000000  1
  Ni  Ni2  1  0.66666700  0.33333300  0.75000000  1
  Ni  Ni3  1  0.33333300  0.66666700  0.25000000  1
  O  O4  1  0.33333300  0.66666700  0.42017400  1
  O  O5  1  0.66666700  0.33333300  0.92017400  1
  O  O6  1  0.66666700  0.33333300  0.57982600  1
  O  O7  1  0.33333300  0.66666700  0.07982600  1
  O  O8  1  0.00000000  0.00000000  0.25000000  1
  O  O9  1  0.00000000  0.00000000  0.75000000  1
