# generated using pymatgen
data_Ba2Ca3Mn4Tl2O12
_symmetry_space_group_name_H-M   'P 1'
_cell_length_a   3.99018111
_cell_length_b   3.99017995
_cell_length_c   22.13940821
_cell_angle_alpha   95.17021449
_cell_angle_beta   95.17021521
_cell_angle_gamma   89.99999521
_symmetry_Int_Tables_number   1
_chemical_formula_structural   Ba2Ca3Mn4Tl2O12
_chemical_formula_sum   'Ba2 Ca3 Mn4 Tl2 O12'
_cell_volume   349.61928084
_cell_formula_units_Z   1
loop_
 _symmetry_equiv_pos_site_id
 _symmetry_equiv_pos_as_xyz
  1  'x, y, z'
loop_
 _atom_site_type_symbol
 _atom_site_label
 _atom_site_symmetry_multiplicity
 _atom_site_fract_x
 _atom_site_fract_y
 _atom_site_fract_z
 _atom_site_occupancy
  Ba  Ba0  1  0.16343200  0.16343200  0.32686500  1
  Ba  Ba1  1  0.83656800  0.83656800  0.67313500  1
  Ca  Ca2  1  0.07871400  0.07871400  0.15742700  1
  Ca  Ca3  1  0.92128600  0.92128600  0.84257300  1
  Ca  Ca4  1  0.00000000  0.00000000  0.00000000  1
  Mn  Mn5  1  0.53861600  0.53861600  0.07723200  1
  Mn  Mn6  1  0.38300400  0.38300400  0.76600700  1
  Mn  Mn7  1  0.61699600  0.61699600  0.23399300  1
  Mn  Mn8  1  0.46138400  0.46138400  0.92276800  1
  Tl  Tl9  1  0.72354800  0.72354800  0.44709500  1
  Tl  Tl10  1  0.27645200  0.27645200  0.55290500  1
  O  O11  1  0.39189700  0.89189700  0.78379500  1
  O  O12  1  0.53574300  0.03574300  0.07148800  1
  O  O13  1  0.22306400  0.22306400  0.44612700  1
  O  O14  1  0.96425700  0.46425700  0.92851200  1
  O  O15  1  0.77693600  0.77693600  0.55387300  1
  O  O16  1  0.10810300  0.60810300  0.21620500  1
  O  O17  1  0.60810300  0.10810300  0.21620500  1
  O  O18  1  0.33702300  0.33702300  0.67404600  1
  O  O19  1  0.89189700  0.39189700  0.78379500  1
  O  O20  1  0.03574300  0.53574300  0.07148800  1
  O  O21  1  0.46425700  0.96425700  0.92851200  1
  O  O22  1  0.66297700  0.66297700  0.32595400  1
