# generated using pymatgen
data_Y2Mn3O9
_symmetry_space_group_name_H-M   'P 1'
_cell_length_a   5.24680800
_cell_length_b   7.53507200
_cell_length_c   16.08605600
_cell_angle_alpha   90.00000000
_cell_angle_beta   90.00000000
_cell_angle_gamma   90.00000000
_symmetry_Int_Tables_number   1
_chemical_formula_structural   Y2Mn3O9
_chemical_formula_sum   'Y8 Mn12 O36'
_cell_volume   635.96344731
_cell_formula_units_Z   4
loop_
 _symmetry_equiv_pos_site_id
 _symmetry_equiv_pos_as_xyz
  1  'x, y, z'
loop_
 _atom_site_type_symbol
 _atom_site_label
 _atom_site_symmetry_multiplicity
 _atom_site_fract_x
 _atom_site_fract_y
 _atom_site_fract_z
 _atom_site_occupancy
  Y  Y0  1  0.98309500  0.75000000  0.31274700  1
  Y  Y1  1  0.99064900  0.75000000  0.98568100  1
  Y  Y2  1  0.48309500  0.25000000  0.18725300  1
  Y  Y3  1  0.49064900  0.25000000  0.51431900  1
  Y  Y4  1  0.50935100  0.75000000  0.48568100  1
  Y  Y5  1  0.51690500  0.75000000  0.81274700  1
  Y  Y6  1  0.00935100  0.25000000  0.01431900  1
  Y  Y7  1  0.01690500  0.25000000  0.68725300  1
  Mn  Mn8  1  0.50000000  0.00000000  0.00000000  1
  Mn  Mn9  1  0.49566800  0.00486600  0.33290900  1
  Mn  Mn10  1  0.50433200  0.99513400  0.66709100  1
  Mn  Mn11  1  0.99566800  0.99513400  0.16709100  1
  Mn  Mn12  1  0.00000000  0.00000000  0.50000000  1
  Mn  Mn13  1  0.00433200  0.00486600  0.83290900  1
  Mn  Mn14  1  0.99566800  0.50486600  0.16709100  1
  Mn  Mn15  1  0.00000000  0.50000000  0.50000000  1
  Mn  Mn16  1  0.00433200  0.49513400  0.83290900  1
  Mn  Mn17  1  0.50000000  0.50000000  0.00000000  1
  Mn  Mn18  1  0.49566800  0.49513400  0.33290900  1
  Mn  Mn19  1  0.50433200  0.50486600  0.66709100  1
  O  O20  1  0.28625500  0.06177900  0.09529200  1
  O  O21  1  0.31153000  0.02780000  0.43699300  1
  O  O22  1  0.29598900  0.04475800  0.76380400  1
  O  O23  1  0.81153000  0.97220000  0.06300700  1
  O  O24  1  0.78625500  0.93822100  0.40470800  1
  O  O25  1  0.79598900  0.95524200  0.73619600  1
  O  O26  1  0.20401100  0.45524200  0.26380400  1
  O  O27  1  0.21374500  0.43822100  0.59529200  1
  O  O28  1  0.18847000  0.47220000  0.93699300  1
  O  O29  1  0.70401100  0.54475800  0.23619600  1
  O  O30  1  0.68847000  0.52780000  0.56300700  1
  O  O31  1  0.71374500  0.56177900  0.90470800  1
  O  O32  1  0.70401100  0.95524200  0.23619600  1
  O  O33  1  0.68847000  0.97220000  0.56300700  1
  O  O34  1  0.71374500  0.93822100  0.90470800  1
  O  O35  1  0.20401100  0.04475800  0.26380400  1
  O  O36  1  0.21374500  0.06177900  0.59529200  1
  O  O37  1  0.18847000  0.02780000  0.93699300  1
  O  O38  1  0.81153000  0.52780000  0.06300700  1
  O  O39  1  0.78625500  0.56177900  0.40470800  1
  O  O40  1  0.79598900  0.54475800  0.73619600  1
  O  O41  1  0.28625500  0.43822100  0.09529200  1
  O  O42  1  0.31153000  0.47220000  0.43699300  1
  O  O43  1  0.29598900  0.45524200  0.76380400  1
  O  O44  1  0.90618400  0.25000000  0.15672800  1
  O  O45  1  0.91581700  0.25000000  0.49636300  1
  O  O46  1  0.91446400  0.25000000  0.82768900  1
  O  O47  1  0.41581700  0.75000000  0.00363700  1
  O  O48  1  0.40618400  0.75000000  0.34327200  1
  O  O49  1  0.41446400  0.75000000  0.67231100  1
  O  O50  1  0.08553600  0.75000000  0.17231100  1
  O  O51  1  0.08418300  0.75000000  0.50363700  1
  O  O52  1  0.09381600  0.75000000  0.84327200  1
  O  O53  1  0.58553600  0.25000000  0.32768900  1
  O  O54  1  0.59381600  0.25000000  0.65672800  1
  O  O55  1  0.58418300  0.25000000  0.99636300  1
