# generated using pymatgen
data_Mg2Bi3O8
_symmetry_space_group_name_H-M   'P 1'
_cell_length_a   6.62799053
_cell_length_b   6.62799053
_cell_length_c   5.62291307
_cell_angle_alpha   69.32295390
_cell_angle_beta   69.32295390
_cell_angle_gamma   60.38508862
_symmetry_Int_Tables_number   1
_chemical_formula_structural   Mg2Bi3O8
_chemical_formula_sum   'Mg2 Bi3 O8'
_cell_volume   196.01059662
_cell_formula_units_Z   1
loop_
 _symmetry_equiv_pos_site_id
 _symmetry_equiv_pos_as_xyz
  1  'x, y, z'
loop_
 _atom_site_type_symbol
 _atom_site_label
 _atom_site_symmetry_multiplicity
 _atom_site_fract_x
 _atom_site_fract_y
 _atom_site_fract_z
 _atom_site_occupancy
  Mg  Mg0  1  0.71300500  0.71300500  0.85572000  1
  Mg  Mg1  1  0.28699500  0.28699500  0.14428000  1
  Bi  Bi2  1  0.00000000  0.00000000  0.00000000  1
  Bi  Bi3  1  0.73238000  0.26762000  0.50000000  1
  Bi  Bi4  1  0.26762000  0.73238000  0.50000000  1
  O  O5  1  0.38848700  0.38848700  0.40610900  1
  O  O6  1  0.61151300  0.61151300  0.59389100  1
  O  O7  1  0.88209900  0.88209900  0.47344300  1
  O  O8  1  0.11790100  0.11790100  0.52655700  1
  O  O9  1  0.37238300  0.88100500  0.08881900  1
  O  O10  1  0.88100500  0.37238300  0.08881900  1
  O  O11  1  0.11899500  0.62761700  0.91118100  1
  O  O12  1  0.62761700  0.11899500  0.91118100  1
