# generated using pymatgen
data_CaMoF5
_symmetry_space_group_name_H-M   'P 1'
_cell_length_a   5.84220866
_cell_length_b   5.84220866
_cell_length_c   7.97641865
_cell_angle_alpha   70.09495051
_cell_angle_beta   70.09495051
_cell_angle_gamma   72.13141069
_symmetry_Int_Tables_number   1
_chemical_formula_structural   CaMoF5
_chemical_formula_sum   'Ca2 Mo2 F10'
_cell_volume   235.00969247
_cell_formula_units_Z   2
loop_
 _symmetry_equiv_pos_site_id
 _symmetry_equiv_pos_as_xyz
  1  'x, y, z'
loop_
 _atom_site_type_symbol
 _atom_site_label
 _atom_site_symmetry_multiplicity
 _atom_site_fract_x
 _atom_site_fract_y
 _atom_site_fract_z
 _atom_site_occupancy
  Ca  Ca0  1  0.53598200  0.46401800  0.25000000  1
  Ca  Ca1  1  0.46401800  0.53598200  0.75000000  1
  Mo  Mo2  1  0.00000000  0.00000000  0.50000000  1
  Mo  Mo3  1  0.00000000  0.00000000  0.00000000  1
  F  F4  1  0.10425200  0.89574800  0.75000000  1
  F  F5  1  0.89574800  0.10425200  0.25000000  1
  F  F6  1  0.21929600  0.26365400  0.87274200  1
  F  F7  1  0.73634600  0.78070400  0.62725800  1
  F  F8  1  0.70677900  0.31206800  0.53359000  1
  F  F9  1  0.68793200  0.29322100  0.96641000  1
  F  F10  1  0.29322100  0.68793200  0.46641000  1
  F  F11  1  0.31206800  0.70677900  0.03359000  1
  F  F12  1  0.26365400  0.21929600  0.37274200  1
  F  F13  1  0.78070400  0.73634600  0.12725800  1
