# generated using pymatgen
data_CoF4
_symmetry_space_group_name_H-M   'P 1'
_cell_length_a   6.44687903
_cell_length_b   6.44687903
_cell_length_c   6.44687903
_cell_angle_alpha   128.54641116
_cell_angle_beta   128.54641116
_cell_angle_gamma   75.74152043
_symmetry_Int_Tables_number   1
_chemical_formula_structural   CoF4
_chemical_formula_sum   'Co2 F8'
_cell_volume   159.42069270
_cell_formula_units_Z   2
loop_
 _symmetry_equiv_pos_site_id
 _symmetry_equiv_pos_as_xyz
  1  'x, y, z'
loop_
 _atom_site_type_symbol
 _atom_site_label
 _atom_site_symmetry_multiplicity
 _atom_site_fract_x
 _atom_site_fract_y
 _atom_site_fract_z
 _atom_site_occupancy
  Co  Co0  1  0.50000000  0.00000000  0.50000000  1
  Co  Co1  1  0.00000000  0.50000000  0.50000000  1
  F  F2  1  0.46125300  0.96125300  0.18667800  1
  F  F3  1  0.22542600  0.72542600  0.18667800  1
  F  F4  1  0.53874700  0.03874700  0.81332200  1
  F  F5  1  0.03874700  0.22542600  0.50000000  1
  F  F6  1  0.77457400  0.27457400  0.81332200  1
  F  F7  1  0.27457400  0.46125300  0.50000000  1
  F  F8  1  0.96125300  0.77457400  0.50000000  1
  F  F9  1  0.72542600  0.53874700  0.50000000  1
