# generated using pymatgen
data_CaCoO2
_symmetry_space_group_name_H-M   'P 1'
_cell_length_a   3.06955300
_cell_length_b   8.02762339
_cell_length_c   8.62621756
_cell_angle_alpha   85.76638372
_cell_angle_beta   88.82975525
_cell_angle_gamma   86.34912783
_symmetry_Int_Tables_number   1
_chemical_formula_structural   CaCoO2
_chemical_formula_sum   'Ca4 Co4 O8'
_cell_volume   211.52388378
_cell_formula_units_Z   4
loop_
 _symmetry_equiv_pos_site_id
 _symmetry_equiv_pos_as_xyz
  1  'x, y, z'
loop_
 _atom_site_type_symbol
 _atom_site_label
 _atom_site_symmetry_multiplicity
 _atom_site_fract_x
 _atom_site_fract_y
 _atom_site_fract_z
 _atom_site_occupancy
  Ca  Ca0  1  0.76916200  0.29182900  0.54581700  1
  Ca  Ca1  1  0.23083800  0.70817100  0.45418300  1
  Ca  Ca2  1  0.27742100  0.41596900  0.17465500  1
  Ca  Ca3  1  0.72257900  0.58403100  0.82534500  1
  Co  Co4  1  0.16066100  0.94224400  0.69960100  1
  Co  Co5  1  0.30838100  0.24854500  0.87132200  1
  Co  Co6  1  0.69161900  0.75145500  0.12867800  1
  Co  Co7  1  0.83933900  0.05775600  0.30039900  1
  O  O8  1  0.38260200  0.91671300  0.25392400  1
  O  O9  1  0.19875900  0.67498200  0.00455200  1
  O  O10  1  0.80124100  0.32501800  0.99544800  1
  O  O11  1  0.61739800  0.08328700  0.74607600  1
  O  O12  1  0.70216000  0.80535000  0.63543600  1
  O  O13  1  0.24505700  0.43617400  0.68187100  1
  O  O14  1  0.29784000  0.19465000  0.36456400  1
  O  O15  1  0.75494300  0.56382600  0.31812900  1
