# generated using pymatgen
data_PrMn2O6
_symmetry_space_group_name_H-M   'P 1'
_cell_length_a   5.35702100
_cell_length_b   5.41670200
_cell_length_c   7.61748100
_cell_angle_alpha   90.00000000
_cell_angle_beta   90.00000000
_cell_angle_gamma   90.00000000
_symmetry_Int_Tables_number   1
_chemical_formula_structural   PrMn2O6
_chemical_formula_sum   'Pr2 Mn4 O12'
_cell_volume   221.03938930
_cell_formula_units_Z   2
loop_
 _symmetry_equiv_pos_site_id
 _symmetry_equiv_pos_as_xyz
  1  'x, y, z'
loop_
 _atom_site_type_symbol
 _atom_site_label
 _atom_site_symmetry_multiplicity
 _atom_site_fract_x
 _atom_site_fract_y
 _atom_site_fract_z
 _atom_site_occupancy
  Pr  Pr0  1  0.01330200  0.71050400  0.00000000  1
  Pr  Pr1  1  0.51330200  0.28949600  0.50000000  1
  Mn  Mn2  1  0.00983600  0.23770700  0.75344400  1
  Mn  Mn3  1  0.00983600  0.23770700  0.24655600  1
  Mn  Mn4  1  0.50983600  0.76229300  0.25344400  1
  Mn  Mn5  1  0.50983600  0.76229300  0.74655600  1
  O  O6  1  0.05870900  0.25182400  0.50000000  1
  O  O7  1  0.21601200  0.96261100  0.78123200  1
  O  O8  1  0.21601200  0.96261100  0.21876800  1
  O  O9  1  0.27587200  0.47197400  0.21931100  1
  O  O10  1  0.27587200  0.47197400  0.78068900  1
  O  O11  1  0.43481200  0.74607300  0.50000000  1
  O  O12  1  0.55870900  0.74817600  0.00000000  1
  O  O13  1  0.71601200  0.03738900  0.71876800  1
  O  O14  1  0.71601200  0.03738900  0.28123200  1
  O  O15  1  0.77587200  0.52802600  0.71931100  1
  O  O16  1  0.77587200  0.52802600  0.28068900  1
  O  O17  1  0.93481200  0.25392700  0.00000000  1
