# generated using pymatgen
data_MgNiF4
_symmetry_space_group_name_H-M   'P 1'
_cell_length_a   6.17458666
_cell_length_b   6.17458666
_cell_length_c   6.17458666
_cell_angle_alpha   131.66921590
_cell_angle_beta   131.66921590
_cell_angle_gamma   70.75196881
_symmetry_Int_Tables_number   1
_chemical_formula_structural   MgNiF4
_chemical_formula_sum   'Mg2 Ni2 F8'
_cell_volume   128.66931245
_cell_formula_units_Z   2
loop_
 _symmetry_equiv_pos_site_id
 _symmetry_equiv_pos_as_xyz
  1  'x, y, z'
loop_
 _atom_site_type_symbol
 _atom_site_label
 _atom_site_symmetry_multiplicity
 _atom_site_fract_x
 _atom_site_fract_y
 _atom_site_fract_z
 _atom_site_occupancy
  Mg  Mg0  1  0.25000000  0.25000000  0.00000000  1
  Mg  Mg1  1  0.75000000  0.75000000  0.00000000  1
  Ni  Ni2  1  0.50000000  0.00000000  0.50000000  1
  Ni  Ni3  1  0.00000000  0.50000000  0.50000000  1
  F  F4  1  0.42996600  0.92996600  0.09319900  1
  F  F5  1  0.16323300  0.66323300  0.09319900  1
  F  F6  1  0.57003400  0.07003400  0.90680100  1
  F  F7  1  0.07003400  0.16323300  0.50000000  1
  F  F8  1  0.83676700  0.33676700  0.90680100  1
  F  F9  1  0.33676700  0.42996600  0.50000000  1
  F  F10  1  0.92996600  0.83676700  0.50000000  1
  F  F11  1  0.66323300  0.57003400  0.50000000  1
