# generated using pymatgen
data_TaF5
_symmetry_space_group_name_H-M   'P 1'
_cell_length_a   5.51045333
_cell_length_b   5.51045333
_cell_length_c   5.51045333
_cell_angle_alpha   140.51673223
_cell_angle_beta   132.59769407
_cell_angle_gamma   63.34247137
_symmetry_Int_Tables_number   1
_chemical_formula_structural   TaF5
_chemical_formula_sum   'Ta1 F5'
_cell_volume   77.34144217
_cell_formula_units_Z   1
loop_
 _symmetry_equiv_pos_site_id
 _symmetry_equiv_pos_as_xyz
  1  'x, y, z'
loop_
 _atom_site_type_symbol
 _atom_site_label
 _atom_site_symmetry_multiplicity
 _atom_site_fract_x
 _atom_site_fract_y
 _atom_site_fract_z
 _atom_site_occupancy
  Ta  Ta0  1  0.00000000  0.00000000  0.00000000  1
  F  F1  1  0.76767700  0.50000000  0.26767700  1
  F  F2  1  0.23232300  0.50000000  0.73232300  1
  F  F3  1  0.19967800  0.19967800  0.00000000  1
  F  F4  1  0.80032200  0.80032200  0.00000000  1
  F  F5  1  0.50000000  0.00000000  0.50000000  1
