# generated using pymatgen
data_MoF5
_symmetry_space_group_name_H-M   'P 1'
_cell_length_a   5.52386521
_cell_length_b   5.52386521
_cell_length_c   5.52386521
_cell_angle_alpha   140.51010369
_cell_angle_beta   132.74858571
_cell_angle_gamma   63.22298968
_symmetry_Int_Tables_number   1
_chemical_formula_structural   MoF5
_chemical_formula_sum   'Mo1 F5'
_cell_volume   77.73623596
_cell_formula_units_Z   1
loop_
 _symmetry_equiv_pos_site_id
 _symmetry_equiv_pos_as_xyz
  1  'x, y, z'
loop_
 _atom_site_type_symbol
 _atom_site_label
 _atom_site_symmetry_multiplicity
 _atom_site_fract_x
 _atom_site_fract_y
 _atom_site_fract_z
 _atom_site_occupancy
  Mo  Mo0  1  0.00000000  0.00000000  0.00000000  1
  F  F1  1  0.76576800  0.50000000  0.26576800  1
  F  F2  1  0.23423200  0.50000000  0.73423200  1
  F  F3  1  0.20121600  0.20121600  0.00000000  1
  F  F4  1  0.79878400  0.79878400  0.00000000  1
  F  F5  1  0.50000000  0.00000000  0.50000000  1
