# generated using pymatgen
data_WO3
_symmetry_space_group_name_H-M   'P 1'
_cell_length_a   5.34552100
_cell_length_b   5.41140600
_cell_length_c   7.71302800
_cell_angle_alpha   90.00000000
_cell_angle_beta   90.00000000
_cell_angle_gamma   90.00000000
_symmetry_Int_Tables_number   1
_chemical_formula_structural   WO3
_chemical_formula_sum   'W4 O12'
_cell_volume   223.11309812
_cell_formula_units_Z   4
loop_
 _symmetry_equiv_pos_site_id
 _symmetry_equiv_pos_as_xyz
  1  'x, y, z'
loop_
 _atom_site_type_symbol
 _atom_site_label
 _atom_site_symmetry_multiplicity
 _atom_site_fract_x
 _atom_site_fract_y
 _atom_site_fract_z
 _atom_site_occupancy
  W  W0  1  0.25118600  0.99987300  0.98051400  1
  W  W1  1  0.75118600  0.50012700  0.01948600  1
  W  W2  1  0.74881400  0.49987300  0.51948600  1
  W  W3  1  0.24881400  0.00012700  0.48051400  1
  O  O4  1  0.69189800  0.50308900  0.75444400  1
  O  O5  1  0.19189800  0.99691100  0.24555600  1
  O  O6  1  0.30810200  0.00308900  0.74555600  1
  O  O7  1  0.80810200  0.49691100  0.25444400  1
  O  O8  1  0.46889400  0.27601500  0.47011400  1
  O  O9  1  0.96889400  0.22398500  0.52988600  1
  O  O10  1  0.53110600  0.77601500  0.02988600  1
  O  O11  1  0.03110600  0.72398500  0.97011400  1
  O  O12  1  0.47414300  0.27319200  0.02885800  1
  O  O13  1  0.97414300  0.22680800  0.97114200  1
  O  O14  1  0.02585700  0.72680800  0.52885800  1
  O  O15  1  0.52585700  0.77319200  0.47114200  1
