# generated using pymatgen
data_Ba2CaCr2F14
_symmetry_space_group_name_H-M   'P 1'
_cell_length_a   5.60579400
_cell_length_b   5.53276800
_cell_length_c   19.98608190
_cell_angle_alpha   76.14109794
_cell_angle_beta   90.00000000
_cell_angle_gamma   90.00000000
_symmetry_Int_Tables_number   1
_chemical_formula_structural   Ba2CaCr2F14
_chemical_formula_sum   'Ba4 Ca2 Cr4 F28'
_cell_volume   601.83388281
_cell_formula_units_Z   2
loop_
 _symmetry_equiv_pos_site_id
 _symmetry_equiv_pos_as_xyz
  1  'x, y, z'
loop_
 _atom_site_type_symbol
 _atom_site_label
 _atom_site_symmetry_multiplicity
 _atom_site_fract_x
 _atom_site_fract_y
 _atom_site_fract_z
 _atom_site_occupancy
  Ba  Ba0  1  0.24404100  0.31714400  0.42467600  1
  Ba  Ba1  1  0.75595900  0.68285600  0.57532400  1
  Ba  Ba2  1  0.75595900  0.31714400  0.92467600  1
  Ba  Ba3  1  0.24404100  0.68285600  0.07532400  1
  Ca  Ca4  1  0.34319800  0.50000000  0.75000000  1
  Ca  Ca5  1  0.65680200  0.50000000  0.25000000  1
  Cr  Cr6  1  0.22113900  0.18226000  0.62026700  1
  Cr  Cr7  1  0.77886100  0.18226000  0.12026700  1
  Cr  Cr8  1  0.22113900  0.81774000  0.87973300  1
  Cr  Cr9  1  0.77886100  0.81774000  0.37973300  1
  F  F10  1  0.04670200  0.83607800  0.43573000  1
  F  F11  1  0.04670200  0.16392200  0.06427000  1
  F  F12  1  0.95329800  0.16392200  0.56427000  1
  F  F13  1  0.95329800  0.83607800  0.93573000  1
  F  F14  1  0.04653300  0.36590900  0.67206200  1
  F  F15  1  0.04653300  0.63409100  0.82793800  1
  F  F16  1  0.95346700  0.63409100  0.32793800  1
  F  F17  1  0.95346700  0.36590900  0.17206200  1
  F  F18  1  0.27939400  0.48979900  0.55541500  1
  F  F19  1  0.27939400  0.51020100  0.94458500  1
  F  F20  1  0.72060600  0.51020100  0.44458500  1
  F  F21  1  0.72060600  0.48979900  0.05541500  1
  F  F22  1  0.60118200  0.03419600  0.06033700  1
  F  F23  1  0.60118200  0.96580400  0.43966300  1
  F  F24  1  0.39881800  0.96580400  0.93966300  1
  F  F25  1  0.39881800  0.03419600  0.56033700  1
  F  F26  1  0.85775800  0.88520500  0.17630400  1
  F  F27  1  0.85775800  0.11479500  0.32369600  1
  F  F28  1  0.14224200  0.11479500  0.82369600  1
  F  F29  1  0.14224200  0.88520500  0.67630400  1
  F  F30  1  0.48124000  0.75165400  0.83215300  1
  F  F31  1  0.48124000  0.24834600  0.66784700  1
  F  F32  1  0.51876000  0.24834600  0.16784700  1
  F  F33  1  0.51876000  0.75165400  0.33215300  1
  F  F34  1  0.38976100  0.71728000  0.18548100  1
  F  F35  1  0.38976100  0.28272000  0.31451900  1
  F  F36  1  0.61023900  0.28272000  0.81451900  1
  F  F37  1  0.61023900  0.71728000  0.68548100  1
