# generated using pymatgen
data_SbO2
_symmetry_space_group_name_H-M   'P 1'
_cell_length_a   6.07308700
_cell_length_b   7.92605550
_cell_length_c   8.75307771
_cell_angle_alpha   83.98499505
_cell_angle_beta   89.70599470
_cell_angle_gamma   89.38304712
_symmetry_Int_Tables_number   1
_chemical_formula_structural   SbO2
_chemical_formula_sum   'Sb8 O16'
_cell_volume   418.98751196
_cell_formula_units_Z   8
loop_
 _symmetry_equiv_pos_site_id
 _symmetry_equiv_pos_as_xyz
  1  'x, y, z'
loop_
 _atom_site_type_symbol
 _atom_site_label
 _atom_site_symmetry_multiplicity
 _atom_site_fract_x
 _atom_site_fract_y
 _atom_site_fract_z
 _atom_site_occupancy
  Sb  Sb0  1  0.99669200  0.33568800  0.60791800  1
  Sb  Sb1  1  0.49744500  0.32051700  0.22891400  1
  Sb  Sb2  1  0.50255500  0.67948300  0.77108600  1
  Sb  Sb3  1  0.99908900  0.20143500  0.05703200  1
  Sb  Sb4  1  0.00091100  0.79856500  0.94296800  1
  Sb  Sb5  1  0.00330800  0.66431200  0.39208200  1
  Sb  Sb6  1  0.50145200  0.81408400  0.26986900  1
  Sb  Sb7  1  0.49854800  0.18591600  0.73013100  1
  O  O8  1  0.00041200  0.25862200  0.83059000  1
  O  O9  1  0.50357700  0.08360100  0.28415200  1
  O  O10  1  0.49642300  0.91639900  0.71584800  1
  O  O11  1  0.99435700  0.41788600  0.37871500  1
  O  O12  1  0.00564300  0.58211400  0.62128500  1
  O  O13  1  0.99958800  0.74137800  0.16941000  1
  O  O14  1  0.48903000  0.52738400  0.31981000  1
  O  O15  1  0.51097000  0.47261600  0.68019000  1
  O  O16  1  0.25777800  0.65015400  0.91385700  1
  O  O17  1  0.74062000  0.20167100  0.57325300  1
  O  O18  1  0.73820900  0.79223700  0.42927300  1
  O  O19  1  0.25413100  0.34707000  0.08462400  1
  O  O20  1  0.74222200  0.34984600  0.08614300  1
  O  O21  1  0.25938000  0.79832900  0.42674700  1
  O  O22  1  0.26179100  0.20776300  0.57072700  1
  O  O23  1  0.74586900  0.65293000  0.91537600  1
