# generated using pymatgen
data_CrS2
_symmetry_space_group_name_H-M   'P 1'
_cell_length_a   6.75963112
_cell_length_b   6.75963112
_cell_length_c   6.75963112
_cell_angle_alpha   60.00000000
_cell_angle_beta   60.00000000
_cell_angle_gamma   60.00000000
_symmetry_Int_Tables_number   1
_chemical_formula_structural   CrS2
_chemical_formula_sum   'Cr4 S8'
_cell_volume   218.40068258
_cell_formula_units_Z   4
loop_
 _symmetry_equiv_pos_site_id
 _symmetry_equiv_pos_as_xyz
  1  'x, y, z'
loop_
 _atom_site_type_symbol
 _atom_site_label
 _atom_site_symmetry_multiplicity
 _atom_site_fract_x
 _atom_site_fract_y
 _atom_site_fract_z
 _atom_site_occupancy
  Cr  Cr0  1  0.62500000  0.62500000  0.62500000  1
  Cr  Cr1  1  0.62500000  0.62500000  0.12500000  1
  Cr  Cr2  1  0.62500000  0.12500000  0.62500000  1
  Cr  Cr3  1  0.12500000  0.62500000  0.62500000  1
  S  S4  1  0.87123400  0.87123400  0.38629700  1
  S  S5  1  0.87123400  0.87123400  0.87123400  1
  S  S6  1  0.86370300  0.37876600  0.37876600  1
  S  S7  1  0.37876600  0.37876600  0.86370300  1
  S  S8  1  0.37876600  0.37876600  0.37876600  1
  S  S9  1  0.38629700  0.87123400  0.87123400  1
  S  S10  1  0.87123400  0.38629700  0.87123400  1
  S  S11  1  0.37876600  0.86370300  0.37876600  1
