# generated using pymatgen
data_Y7Cu3(GeSe7)3
_symmetry_space_group_name_H-M   'P 1'
_cell_length_a   10.25500500
_cell_length_b   10.25915873
_cell_length_c   18.31293286
_cell_angle_alpha   89.93714020
_cell_angle_beta   90.27434475
_cell_angle_gamma   119.77149469
_symmetry_Int_Tables_number   1
_chemical_formula_structural   Y7Cu3(GeSe7)3
_chemical_formula_sum   'Y14 Cu6 Ge6 Se42'
_cell_volume   1672.34588163
_cell_formula_units_Z   2
loop_
 _symmetry_equiv_pos_site_id
 _symmetry_equiv_pos_as_xyz
  1  'x, y, z'
loop_
 _atom_site_type_symbol
 _atom_site_label
 _atom_site_symmetry_multiplicity
 _atom_site_fract_x
 _atom_site_fract_y
 _atom_site_fract_z
 _atom_site_occupancy
  Y  Y0  1  0.13142600  0.35493200  0.08224700  1
  Y  Y1  1  0.13736300  0.36047700  0.75106100  1
  Y  Y2  1  0.77727000  0.13585400  0.25020100  1
  Y  Y3  1  0.78193600  0.13934900  0.58266200  1
  Y  Y4  1  0.36218200  0.22366300  0.25324900  1
  Y  Y5  1  0.35597700  0.22163000  0.58359400  1
  Y  Y6  1  0.35934400  0.22368900  0.91634300  1
  Y  Y7  1  0.64347400  0.78050100  0.08474600  1
  Y  Y8  1  0.64158000  0.77569800  0.41569600  1
  Y  Y9  1  0.63898200  0.77661100  0.75271200  1
  Y  Y10  1  0.22007400  0.86057900  0.08212400  1
  Y  Y11  1  0.22312000  0.86467000  0.41587600  1
  Y  Y12  1  0.86563500  0.64109800  0.58319600  1
  Y  Y13  1  0.86603100  0.64266900  0.91565000  1
  Cu  Cu14  1  0.99898900  0.99254100  0.23039900  1
  Cu  Cu15  1  0.99888000  0.99976500  0.56390500  1
  Cu  Cu16  1  0.99687100  0.00192500  0.89825200  1
  Cu  Cu17  1  0.99929400  0.00033300  0.06390600  1
  Cu  Cu18  1  0.00098100  0.00320800  0.39847600  1
  Cu  Cu19  1  0.00597500  0.99861400  0.73052700  1
  Ge  Ge20  1  0.33181400  0.66453000  0.28017800  1
  Ge  Ge21  1  0.33338600  0.67184900  0.61091500  1
  Ge  Ge22  1  0.33296900  0.66597900  0.94403300  1
  Ge  Ge23  1  0.66901700  0.33812300  0.11112400  1
  Ge  Ge24  1  0.66620200  0.33289600  0.44412000  1
  Ge  Ge25  1  0.66853600  0.33238900  0.78025800  1
  Se  Se26  1  0.42447000  0.51415600  0.00098500  1
  Se  Se27  1  0.43365000  0.51913700  0.32931600  1
  Se  Se28  1  0.42375200  0.51594900  0.66516600  1
  Se  Se29  1  0.51506200  0.09196300  0.16477200  1
  Se  Se30  1  0.51464700  0.09104300  0.50001200  1
  Se  Se31  1  0.50805200  0.09117800  0.83073700  1
  Se  Se32  1  0.08905000  0.57284800  0.99800600  1
  Se  Se33  1  0.09148900  0.58275600  0.33124400  1
  Se  Se34  1  0.08673000  0.56713000  0.66335800  1
  Se  Se35  1  0.90993300  0.42074300  0.16720400  1
  Se  Se36  1  0.90946800  0.42495100  0.49734500  1
  Se  Se37  1  0.91437800  0.43264800  0.82962300  1
  Se  Se38  1  0.48145100  0.90694700  0.99731700  1
  Se  Se39  1  0.48804800  0.91158600  0.33153900  1
  Se  Se40  1  0.48940200  0.91188700  0.66866700  1
  Se  Se41  1  0.56648500  0.48163100  0.16557100  1
  Se  Se42  1  0.57336500  0.48356800  0.49855500  1
  Se  Se43  1  0.57632700  0.48726700  0.83165400  1
  Se  Se44  1  0.66643900  0.33303200  0.31591400  1
  Se  Se45  1  0.66695400  0.33327000  0.64977800  1
  Se  Se46  1  0.66582500  0.33386700  0.98175600  1
  Se  Se47  1  0.33364000  0.66623400  0.14962100  1
  Se  Se48  1  0.33242100  0.66796300  0.48154600  1
  Se  Se49  1  0.33194600  0.66496000  0.81589600  1
  Se  Se50  1  0.15929200  0.89423500  0.23992000  1
  Se  Se51  1  0.16013000  0.89831200  0.56905600  1
  Se  Se52  1  0.16056700  0.90347500  0.90915200  1
  Se  Se53  1  0.26233200  0.15971800  0.07200300  1
  Se  Se54  1  0.26053300  0.16010200  0.40439800  1
  Se  Se55  1  0.26463200  0.15736800  0.74005200  1
  Se  Se56  1  0.89651600  0.73740000  0.06849900  1
  Se  Se57  1  0.90102900  0.74181400  0.40851700  1
  Se  Se58  1  0.89577100  0.73775500  0.73737500  1
  Se  Se59  1  0.10167100  0.25667100  0.23449400  1
  Se  Se60  1  0.10082200  0.25981300  0.57467600  1
  Se  Se61  1  0.10254700  0.26182100  0.90460000  1
  Se  Se62  1  0.73809000  0.84089500  0.23903000  1
  Se  Se63  1  0.73555800  0.83913500  0.57136600  1
  Se  Se64  1  0.73960600  0.84111300  0.90640300  1
  Se  Se65  1  0.83826300  0.10058500  0.07399300  1
  Se  Se66  1  0.84008200  0.10043300  0.40709900  1
  Se  Se67  1  0.84226700  0.09907100  0.73531700  1
