# generated using pymatgen
data_Ca3Nd4Nb6(FeO14)2
_symmetry_space_group_name_H-M   'P 1'
_cell_length_a   7.36144423
_cell_length_b   14.96199826
_cell_length_c   12.90044105
_cell_angle_alpha   30.24964605
_cell_angle_beta   54.77353634
_cell_angle_gamma   60.16063295
_symmetry_Int_Tables_number   1
_chemical_formula_structural   Ca3Nd4Nb6(FeO14)2
_chemical_formula_sum   'Ca3 Nd4 Nb6 Fe2 O28'
_cell_volume   584.71628277
_cell_formula_units_Z   1
loop_
 _symmetry_equiv_pos_site_id
 _symmetry_equiv_pos_as_xyz
  1  'x, y, z'
loop_
 _atom_site_type_symbol
 _atom_site_label
 _atom_site_symmetry_multiplicity
 _atom_site_fract_x
 _atom_site_fract_y
 _atom_site_fract_z
 _atom_site_occupancy
  Ca  Ca0  1  0.47727600  0.25437000  0.99988000  1
  Ca  Ca1  1  0.52272400  0.74563000  0.00012000  1
  Ca  Ca2  1  0.50000000  0.50000000  0.50000000  1
  Nd  Nd3  1  0.52359700  0.25201400  0.49396400  1
  Nd  Nd4  1  0.47640300  0.74798600  0.50603600  1
  Nd  Nd5  1  0.50000000  0.00000000  0.50000000  1
  Nd  Nd6  1  0.00000000  0.50000000  0.50000000  1
  Nb  Nb7  1  0.50000000  0.00000000  0.00000000  1
  Nb  Nb8  1  0.00000000  0.50000000  0.00000000  1
  Nb  Nb9  1  0.01243400  0.74969200  0.99912700  1
  Nb  Nb10  1  0.01725900  0.25015600  0.49906300  1
  Nb  Nb11  1  0.98756600  0.25030800  0.00087300  1
  Nb  Nb12  1  0.98274100  0.74984400  0.50093700  1
  Fe  Fe13  1  0.00000000  0.00000000  0.00000000  1
  Fe  Fe14  1  0.50000000  0.50000000  0.00000000  1
  O  O15  1  0.07379200  0.31860800  0.04847800  1
  O  O16  1  0.08076000  0.00136300  0.68751700  1
  O  O17  1  0.40731400  0.00085800  0.36570800  1
  O  O18  1  0.68231800  0.99589400  0.07337400  1
  O  O19  1  0.07915300  0.20709700  0.66908000  1
  O  O20  1  0.06972700  0.79819400  0.08195600  1
  O  O21  1  0.33031900  0.29912700  0.32387900  1
  O  O22  1  0.67425800  0.30157300  0.07510000  1
  O  O23  1  0.06911100  0.49999100  0.67181800  1
  O  O24  1  0.31768200  0.00410600  0.92662600  1
  O  O25  1  0.38381000  0.49793300  0.37331200  1
  O  O26  1  0.91924000  0.99863700  0.31248300  1
  O  O27  1  0.67583600  0.49481000  0.07825800  1
  O  O28  1  0.07526500  0.68360200  0.68329000  1
  O  O29  1  0.32220000  0.19293400  0.93299100  1
  O  O30  1  0.32062600  0.80514800  0.32297000  1
  O  O31  1  0.92473500  0.31639800  0.31671000  1
  O  O32  1  0.67937400  0.19485200  0.67703000  1
  O  O33  1  0.67780000  0.80706600  0.06700900  1
  O  O34  1  0.32416400  0.50519000  0.92174200  1
  O  O35  1  0.93088900  0.50000900  0.32818200  1
  O  O36  1  0.61619000  0.50206700  0.62668800  1
  O  O37  1  0.32574200  0.69842700  0.92490000  1
  O  O38  1  0.66968100  0.70087300  0.67612100  1
  O  O39  1  0.93027300  0.20180600  0.91804400  1
  O  O40  1  0.92084700  0.79290300  0.33092000  1
  O  O41  1  0.59268600  0.99914200  0.63429200  1
  O  O42  1  0.92620800  0.68139200  0.95152200  1
