# generated using pymatgen
data_La2CrO6
_symmetry_space_group_name_H-M   'P 1'
_cell_length_a   5.35845122
_cell_length_b   5.35845122
_cell_length_c   5.35845111
_cell_angle_alpha   64.18396147
_cell_angle_beta   64.18396147
_cell_angle_gamma   64.18396112
_symmetry_Int_Tables_number   1
_chemical_formula_structural   La2CrO6
_chemical_formula_sum   'La2 Cr1 O6'
_cell_volume   118.80309413
_cell_formula_units_Z   1
loop_
 _symmetry_equiv_pos_site_id
 _symmetry_equiv_pos_as_xyz
  1  'x, y, z'
loop_
 _atom_site_type_symbol
 _atom_site_label
 _atom_site_symmetry_multiplicity
 _atom_site_fract_x
 _atom_site_fract_y
 _atom_site_fract_z
 _atom_site_occupancy
  La  La0  1  0.74544900  0.74544900  0.74544900  1
  La  La1  1  0.25455100  0.25455100  0.25455100  1
  Cr  Cr2  1  0.00000000  0.00000000  0.00000000  1
  O  O3  1  0.78956000  0.31148600  0.14553000  1
  O  O4  1  0.14553000  0.78956000  0.31148600  1
  O  O5  1  0.31148600  0.14553000  0.78956000  1
  O  O6  1  0.21044000  0.68851400  0.85447000  1
  O  O7  1  0.68851400  0.85447000  0.21044000  1
  O  O8  1  0.85447000  0.21044000  0.68851400  1
