# generated using pymatgen
data_TaF5
_symmetry_space_group_name_H-M   'P 1'
_cell_length_a   5.55287336
_cell_length_b   5.56284402
_cell_length_c   7.91966429
_cell_angle_alpha   96.94147654
_cell_angle_beta   109.81281474
_cell_angle_gamma   110.36825914
_symmetry_Int_Tables_number   1
_chemical_formula_structural   TaF5
_chemical_formula_sum   'Ta2 F10'
_cell_volume   207.70383917
_cell_formula_units_Z   2
loop_
 _symmetry_equiv_pos_site_id
 _symmetry_equiv_pos_as_xyz
  1  'x, y, z'
loop_
 _atom_site_type_symbol
 _atom_site_label
 _atom_site_symmetry_multiplicity
 _atom_site_fract_x
 _atom_site_fract_y
 _atom_site_fract_z
 _atom_site_occupancy
  Ta  Ta0  1  0.99578000  0.99962700  0.99956700  1
  Ta  Ta1  1  0.49981400  0.00067100  0.49876200  1
  F  F2  1  0.31974000  0.06981000  0.24789300  1
  F  F3  1  0.67399300  0.93062700  0.74970100  1
  F  F4  1  0.59200200  0.75053800  0.38185300  1
  F  F5  1  0.86742500  0.21456400  0.11677000  1
  F  F6  1  0.77180800  0.70276800  0.05290000  1
  F  F7  1  0.14620400  0.72815600  0.44722500  1
  F  F8  1  0.22191500  0.29811600  0.94857100  1
  F  F9  1  0.85345300  0.27101100  0.54929300  1
  F  F10  1  0.11717100  0.78294500  0.87801500  1
  F  F11  1  0.40894200  0.25281500  0.61532900  1
