# generated using pymatgen
data_W2O5
_symmetry_space_group_name_H-M   'P 1'
_cell_length_a   3.69044900
_cell_length_b   5.92844400
_cell_length_c   10.33929900
_cell_angle_alpha   90.00000000
_cell_angle_beta   90.00000000
_cell_angle_gamma   90.00000000
_symmetry_Int_Tables_number   1
_chemical_formula_structural   W2O5
_chemical_formula_sum   'W4 O10'
_cell_volume   226.20959628
_cell_formula_units_Z   2
loop_
 _symmetry_equiv_pos_site_id
 _symmetry_equiv_pos_as_xyz
  1  'x, y, z'
loop_
 _atom_site_type_symbol
 _atom_site_label
 _atom_site_symmetry_multiplicity
 _atom_site_fract_x
 _atom_site_fract_y
 _atom_site_fract_z
 _atom_site_occupancy
  W  W0  1  0.01233200  0.22844200  0.36646800  1
  W  W1  1  0.01233200  0.77155800  0.63353200  1
  W  W2  1  0.01233200  0.72844200  0.13353200  1
  W  W3  1  0.01233200  0.27155800  0.86646800  1
  O  O4  1  0.49824200  0.30313400  0.40762600  1
  O  O5  1  0.49824200  0.69686600  0.59237400  1
  O  O6  1  0.49824200  0.80313400  0.09237400  1
  O  O7  1  0.49824200  0.19686600  0.90762600  1
  O  O8  1  0.98702000  0.54161700  0.27664900  1
  O  O9  1  0.98702000  0.45838300  0.72335100  1
  O  O10  1  0.98702000  0.04161700  0.22335100  1
  O  O11  1  0.98702000  0.95838300  0.77664900  1
  O  O12  1  0.00449300  0.00000000  0.50000000  1
  O  O13  1  0.00449300  0.50000000  0.00000000  1
