# generated using pymatgen
data_MgSnF5
_symmetry_space_group_name_H-M   'P 1'
_cell_length_a   5.60917163
_cell_length_b   5.60917163
_cell_length_c   8.14781103
_cell_angle_alpha   68.39823897
_cell_angle_beta   68.39823897
_cell_angle_gamma   71.75468118
_symmetry_Int_Tables_number   1
_chemical_formula_structural   MgSnF5
_chemical_formula_sum   'Mg2 Sn2 F10'
_cell_volume   216.88326438
_cell_formula_units_Z   2
loop_
 _symmetry_equiv_pos_site_id
 _symmetry_equiv_pos_as_xyz
  1  'x, y, z'
loop_
 _atom_site_type_symbol
 _atom_site_label
 _atom_site_symmetry_multiplicity
 _atom_site_fract_x
 _atom_site_fract_y
 _atom_site_fract_z
 _atom_site_occupancy
  Mg  Mg0  1  0.51232300  0.48767700  0.75000000  1
  Mg  Mg1  1  0.48767700  0.51232300  0.25000000  1
  Sn  Sn2  1  0.00000000  0.00000000  0.50000000  1
  Sn  Sn3  1  0.00000000  0.00000000  0.00000000  1
  F  F4  1  0.14190800  0.85809200  0.25000000  1
  F  F5  1  0.85809200  0.14190800  0.75000000  1
  F  F6  1  0.70330900  0.77565700  0.14004400  1
  F  F7  1  0.22434300  0.29669100  0.35995600  1
  F  F8  1  0.67417300  0.29347400  0.43998600  1
  F  F9  1  0.70652600  0.32582700  0.06001400  1
  F  F10  1  0.32582700  0.70652600  0.56001400  1
  F  F11  1  0.29347400  0.67417300  0.93998600  1
  F  F12  1  0.77565700  0.70330900  0.64004400  1
  F  F13  1  0.29669100  0.22434300  0.85995600  1
