# generated using pymatgen
data_Mg2SnN2
_symmetry_space_group_name_H-M   'P 1'
_cell_length_a   5.55652525
_cell_length_b   5.55652525
_cell_length_c   6.72067717
_cell_angle_alpha   73.71252323
_cell_angle_beta   73.71252323
_cell_angle_gamma   44.81030181
_symmetry_Int_Tables_number   1
_chemical_formula_structural   Mg2SnN2
_chemical_formula_sum   'Mg4 Sn2 N4'
_cell_volume   139.34738616
_cell_formula_units_Z   2
loop_
 _symmetry_equiv_pos_site_id
 _symmetry_equiv_pos_as_xyz
  1  'x, y, z'
loop_
 _atom_site_type_symbol
 _atom_site_label
 _atom_site_symmetry_multiplicity
 _atom_site_fract_x
 _atom_site_fract_y
 _atom_site_fract_z
 _atom_site_occupancy
  Mg  Mg0  1  0.66072700  0.66716000  0.95897600  1
  Mg  Mg1  1  0.33284000  0.33927300  0.04102400  1
  Mg  Mg2  1  0.99643800  0.00516300  0.79257900  1
  Mg  Mg3  1  0.99483700  0.00356200  0.20742100  1
  Sn  Sn4  1  0.34674400  0.30346500  0.57802900  1
  Sn  Sn5  1  0.69653500  0.65325600  0.42197100  1
  N  N6  1  0.16251500  0.17323800  0.91062800  1
  N  N7  1  0.82676200  0.83748500  0.08937200  1
  N  N8  1  0.50588400  0.51867900  0.27287400  1
  N  N9  1  0.48132100  0.49411600  0.72712600  1
