# generated using pymatgen
data_TiZnF5
_symmetry_space_group_name_H-M   'P 1'
_cell_length_a   5.40204347
_cell_length_b   5.40204347
_cell_length_c   7.55221716
_cell_angle_alpha   69.53089219
_cell_angle_beta   69.53089219
_cell_angle_gamma   72.89364966
_symmetry_Int_Tables_number   1
_chemical_formula_structural   TiZnF5
_chemical_formula_sum   'Ti2 Zn2 F10'
_cell_volume   189.69339313
_cell_formula_units_Z   2
loop_
 _symmetry_equiv_pos_site_id
 _symmetry_equiv_pos_as_xyz
  1  'x, y, z'
loop_
 _atom_site_type_symbol
 _atom_site_label
 _atom_site_symmetry_multiplicity
 _atom_site_fract_x
 _atom_site_fract_y
 _atom_site_fract_z
 _atom_site_occupancy
  Ti  Ti0  1  0.00000000  0.00000000  0.00000000  1
  Ti  Ti1  1  0.00000000  0.00000000  0.50000000  1
  Zn  Zn2  1  0.52119000  0.47881000  0.75000000  1
  Zn  Zn3  1  0.47881000  0.52119000  0.25000000  1
  F  F4  1  0.12455400  0.87544600  0.25000000  1
  F  F5  1  0.87544600  0.12455400  0.75000000  1
  F  F6  1  0.21992400  0.26831400  0.37245300  1
  F  F7  1  0.73168600  0.78007600  0.12754700  1
  F  F8  1  0.70533500  0.31786600  0.04500500  1
  F  F9  1  0.68213400  0.29466500  0.45499500  1
  F  F10  1  0.29466500  0.68213400  0.95499500  1
  F  F11  1  0.31786600  0.70533500  0.54500500  1
  F  F12  1  0.26831400  0.21992400  0.87245300  1
  F  F13  1  0.78007600  0.73168600  0.62754700  1
