# generated using pymatgen
data_CaMn2O5
_symmetry_space_group_name_H-M   'P 1'
_cell_length_a   3.70676400
_cell_length_b   5.49189000
_cell_length_c   10.37982700
_cell_angle_alpha   90.00000000
_cell_angle_beta   90.00000000
_cell_angle_gamma   90.00000000
_symmetry_Int_Tables_number   1
_chemical_formula_structural   CaMn2O5
_chemical_formula_sum   'Ca2 Mn4 O10'
_cell_volume   211.30359291
_cell_formula_units_Z   2
loop_
 _symmetry_equiv_pos_site_id
 _symmetry_equiv_pos_as_xyz
  1  'x, y, z'
loop_
 _atom_site_type_symbol
 _atom_site_label
 _atom_site_symmetry_multiplicity
 _atom_site_fract_x
 _atom_site_fract_y
 _atom_site_fract_z
 _atom_site_occupancy
  Ca  Ca0  1  0.50000000  0.53848000  0.13067100  1
  Ca  Ca1  1  0.50000000  0.46152000  0.63067100  1
  Mn  Mn2  1  0.00000000  0.01027900  0.63725000  1
  Mn  Mn3  1  0.00000000  0.46562000  0.36658300  1
  Mn  Mn4  1  0.00000000  0.98972100  0.13725000  1
  Mn  Mn5  1  0.00000000  0.53438000  0.86658300  1
  O  O6  1  0.00000000  0.29421800  0.52311200  1
  O  O7  1  0.00000000  0.77762800  0.27332800  1
  O  O8  1  0.00000000  0.30937900  0.20817800  1
  O  O9  1  0.00000000  0.22237200  0.77332800  1
  O  O10  1  0.50000000  0.03332800  0.10150700  1
  O  O11  1  0.50000000  0.48105600  0.88813900  1
  O  O12  1  0.00000000  0.69062100  0.70817800  1
  O  O13  1  0.50000000  0.96667200  0.60150700  1
  O  O14  1  0.00000000  0.70578200  0.02311200  1
  O  O15  1  0.50000000  0.51894400  0.38813900  1
