# generated using pymatgen
data_VZnO2
_symmetry_space_group_name_H-M   'P 1'
_cell_length_a   3.03059600
_cell_length_b   8.74635723
_cell_length_c   9.86680070
_cell_angle_alpha   112.58893526
_cell_angle_beta   95.00749427
_cell_angle_gamma   99.03206469
_symmetry_Int_Tables_number   1
_chemical_formula_structural   VZnO2
_chemical_formula_sum   'V4 Zn4 O8'
_cell_volume   235.33355088
_cell_formula_units_Z   4
loop_
 _symmetry_equiv_pos_site_id
 _symmetry_equiv_pos_as_xyz
  1  'x, y, z'
loop_
 _atom_site_type_symbol
 _atom_site_label
 _atom_site_symmetry_multiplicity
 _atom_site_fract_x
 _atom_site_fract_y
 _atom_site_fract_z
 _atom_site_occupancy
  V  V0  1  0.17160100  0.58717300  0.78611800  1
  V  V1  1  0.37071800  0.16845100  0.63319000  1
  V  V2  1  0.65261000  0.85995800  0.38677000  1
  V  V3  1  0.86975000  0.44179200  0.23630300  1
  Zn  Zn4  1  0.79832100  0.35481100  0.94788600  1
  Zn  Zn5  1  0.20962900  0.67307000  0.07299300  1
  Zn  Zn6  1  0.25435100  0.12567400  0.31546500  1
  Zn  Zn7  1  0.77510100  0.90357100  0.70601800  1
  O  O8  1  0.45580800  0.61531200  0.27810700  1
  O  O9  1  0.21206100  0.89740600  0.54713900  1
  O  O10  1  0.80618800  0.13129500  0.47242400  1
  O  O11  1  0.54959700  0.41237300  0.74230700  1
  O  O12  1  0.72950300  0.72346200  0.76318000  1
  O  O13  1  0.89608900  0.14978600  0.76684300  1
  O  O14  1  0.31397300  0.30208300  0.25215500  1
  O  O15  1  0.12859000  0.87940000  0.25376500  1
