# generated using pymatgen
data_YV3Se2ClO8
_symmetry_space_group_name_H-M   'P 1'
_cell_length_a   6.68630600
_cell_length_b   7.24622900
_cell_length_c   9.74425582
_cell_angle_alpha   89.78623376
_cell_angle_beta   90.00000000
_cell_angle_gamma   90.00000000
_symmetry_Int_Tables_number   1
_chemical_formula_structural   YV3Se2ClO8
_chemical_formula_sum   'Y2 V6 Se4 Cl2 O16'
_cell_volume   472.11082396
_cell_formula_units_Z   2
loop_
 _symmetry_equiv_pos_site_id
 _symmetry_equiv_pos_as_xyz
  1  'x, y, z'
loop_
 _atom_site_type_symbol
 _atom_site_label
 _atom_site_symmetry_multiplicity
 _atom_site_fract_x
 _atom_site_fract_y
 _atom_site_fract_z
 _atom_site_occupancy
  Y  Y0  1  0.75000000  0.26905400  0.25066400  1
  Y  Y1  1  0.25000000  0.73094600  0.74933600  1
  V  V2  1  0.50000000  0.00000000  0.00000000  1
  V  V3  1  0.50000000  0.00000000  0.50000000  1
  V  V4  1  0.00000000  0.00000000  0.00000000  1
  V  V5  1  0.25000000  0.20103000  0.75081000  1
  V  V6  1  0.75000000  0.79897000  0.24919000  1
  V  V7  1  0.00000000  0.00000000  0.50000000  1
  Se  Se8  1  0.25000000  0.41107700  0.06476600  1
  Se  Se9  1  0.75000000  0.58892300  0.93523400  1
  Se  Se10  1  0.25000000  0.41313100  0.43620700  1
  Se  Se11  1  0.75000000  0.58686900  0.56379300  1
  Cl  Cl12  1  0.75000000  0.11884500  0.74215800  1
  Cl  Cl13  1  0.25000000  0.88115500  0.25784200  1
  O  O14  1  0.75000000  0.01455800  0.11637900  1
  O  O15  1  0.75000000  0.56941300  0.11377100  1
  O  O16  1  0.25000000  0.42617400  0.61525300  1
  O  O17  1  0.45487800  0.26521300  0.09106100  1
  O  O18  1  0.54520500  0.73003300  0.58940900  1
  O  O19  1  0.95479500  0.73003300  0.58940900  1
  O  O20  1  0.25000000  0.98544200  0.88362100  1
  O  O21  1  0.04512200  0.26521300  0.09106100  1
  O  O22  1  0.04520500  0.26996700  0.41059100  1
  O  O23  1  0.95487800  0.73478700  0.90893900  1
  O  O24  1  0.75000000  0.01760500  0.38113000  1
  O  O25  1  0.25000000  0.98239500  0.61887000  1
  O  O26  1  0.54512200  0.73478700  0.90893900  1
  O  O27  1  0.45479500  0.26996700  0.41059100  1
  O  O28  1  0.25000000  0.43058700  0.88622900  1
  O  O29  1  0.75000000  0.57382600  0.38474700  1
