# generated using pymatgen
data_Mg(FeO2)2
_symmetry_space_group_name_H-M   'P 1'
_cell_length_a   2.87746000
_cell_length_b   8.75753000
_cell_length_c   10.16892700
_cell_angle_alpha   90.00000000
_cell_angle_beta   90.00000000
_cell_angle_gamma   90.00000000
_symmetry_Int_Tables_number   1
_chemical_formula_structural   Mg(FeO2)2
_chemical_formula_sum   'Mg4 Fe8 O16'
_cell_volume   256.25128892
_cell_formula_units_Z   4
loop_
 _symmetry_equiv_pos_site_id
 _symmetry_equiv_pos_as_xyz
  1  'x, y, z'
loop_
 _atom_site_type_symbol
 _atom_site_label
 _atom_site_symmetry_multiplicity
 _atom_site_fract_x
 _atom_site_fract_y
 _atom_site_fract_z
 _atom_site_occupancy
  Mg  Mg0  1  0.75000000  0.75722000  0.15887700  1
  Mg  Mg1  1  0.25000000  0.24278000  0.84112300  1
  Mg  Mg2  1  0.75000000  0.25722000  0.34112300  1
  Mg  Mg3  1  0.25000000  0.74278000  0.65887700  1
  Fe  Fe4  1  0.75000000  0.94212200  0.38254200  1
  Fe  Fe5  1  0.25000000  0.05787800  0.61745800  1
  Fe  Fe6  1  0.75000000  0.44212200  0.11745800  1
  Fe  Fe7  1  0.25000000  0.55787800  0.88254200  1
  Fe  Fe8  1  0.75000000  0.91206500  0.90100200  1
  Fe  Fe9  1  0.25000000  0.08793500  0.09899800  1
  Fe  Fe10  1  0.75000000  0.41206500  0.59899800  1
  Fe  Fe11  1  0.25000000  0.58793500  0.40100200  1
  O  O12  1  0.75000000  0.70125800  0.82569400  1
  O  O13  1  0.25000000  0.29874200  0.17430600  1
  O  O14  1  0.75000000  0.20125800  0.67430600  1
  O  O15  1  0.25000000  0.79874200  0.32569400  1
  O  O16  1  0.75000000  0.62106400  0.53433300  1
  O  O17  1  0.25000000  0.37893600  0.46566700  1
  O  O18  1  0.75000000  0.12106400  0.96566700  1
  O  O19  1  0.25000000  0.87893600  0.03433300  1
  O  O20  1  0.75000000  0.53861500  0.28527400  1
  O  O21  1  0.25000000  0.46138500  0.71472600  1
  O  O22  1  0.75000000  0.03861500  0.21472600  1
  O  O23  1  0.25000000  0.96138500  0.78527400  1
  O  O24  1  0.75000000  0.91067300  0.57222800  1
  O  O25  1  0.25000000  0.08932700  0.42777200  1
  O  O26  1  0.75000000  0.41067300  0.92777200  1
  O  O27  1  0.25000000  0.58932700  0.07222800  1
