# generated using pymatgen
data_Al2(WO4)3
_symmetry_space_group_name_H-M   'P 1'
_cell_length_a   4.63013800
_cell_length_b   5.49562566
_cell_length_c   7.59946382
_cell_angle_alpha   87.03746174
_cell_angle_beta   88.18855642
_cell_angle_gamma   88.21938849
_symmetry_Int_Tables_number   1
_chemical_formula_structural   Al2(WO4)3
_chemical_formula_sum   'Al2 W3 O12'
_cell_volume   192.93329185
_cell_formula_units_Z   1
loop_
 _symmetry_equiv_pos_site_id
 _symmetry_equiv_pos_as_xyz
  1  'x, y, z'
loop_
 _atom_site_type_symbol
 _atom_site_label
 _atom_site_symmetry_multiplicity
 _atom_site_fract_x
 _atom_site_fract_y
 _atom_site_fract_z
 _atom_site_occupancy
  Al  Al0  1  0.50225800  0.15421700  0.83815200  1
  Al  Al1  1  0.49774200  0.84578300  0.16184800  1
  W  W2  1  0.99842700  0.35397100  0.17901500  1
  W  W3  1  0.00000000  0.00000000  0.50000000  1
  W  W4  1  0.00157300  0.64602900  0.82098500  1
  O  O5  1  0.78845200  0.05274300  0.26773800  1
  O  O6  1  0.83771100  0.68867900  0.59685900  1
  O  O7  1  0.80157300  0.36500900  0.93630100  1
  O  O8  1  0.16228900  0.31132100  0.40314100  1
  O  O9  1  0.21154800  0.94725700  0.73226200  1
  O  O10  1  0.19842700  0.63499100  0.06369900  1
  O  O11  1  0.28993900  0.84051100  0.37266700  1
  O  O12  1  0.29676900  0.43569100  0.76149100  1
  O  O13  1  0.30168900  0.13552000  0.06387200  1
  O  O14  1  0.71006100  0.15948900  0.62733300  1
  O  O15  1  0.69831100  0.86448000  0.93612800  1
  O  O16  1  0.70323100  0.56430900  0.23850900  1
