# generated using pymatgen
data_Y(FeO2)2
_symmetry_space_group_name_H-M   'P 1'
_cell_length_a   6.32862535
_cell_length_b   6.32862535
_cell_length_c   6.32862535
_cell_angle_alpha   121.08004257
_cell_angle_beta   117.58162184
_cell_angle_gamma   91.18915653
_symmetry_Int_Tables_number   1
_chemical_formula_structural   Y(FeO2)2
_chemical_formula_sum   'Y2 Fe4 O8'
_cell_volume   180.79600513
_cell_formula_units_Z   2
loop_
 _symmetry_equiv_pos_site_id
 _symmetry_equiv_pos_as_xyz
  1  'x, y, z'
loop_
 _atom_site_type_symbol
 _atom_site_label
 _atom_site_symmetry_multiplicity
 _atom_site_fract_x
 _atom_site_fract_y
 _atom_site_fract_z
 _atom_site_occupancy
  Y  Y0  1  0.00000000  0.50000000  0.50000000  1
  Y  Y1  1  0.50000000  0.50000000  0.00000000  1
  Fe  Fe2  1  0.37448700  0.12448700  0.25000000  1
  Fe  Fe3  1  0.62551300  0.87551300  0.75000000  1
  Fe  Fe4  1  0.00000000  0.50000000  0.00000000  1
  Fe  Fe5  1  0.00000000  0.00000000  0.50000000  1
  O  O6  1  0.75742600  0.75674500  0.00068100  1
  O  O7  1  0.25606400  0.75674500  0.49931900  1
  O  O8  1  0.75653400  0.75631100  0.49977700  1
  O  O9  1  0.24257400  0.24325500  0.99931900  1
  O  O10  1  0.24346600  0.74324300  0.99977700  1
  O  O11  1  0.74393600  0.24325500  0.50068100  1
  O  O12  1  0.75653400  0.25675700  0.00022300  1
  O  O13  1  0.24346600  0.24368900  0.50022300  1
