# generated using pymatgen
data_Ba2MgCuBi2F14
_symmetry_space_group_name_H-M   'P 1'
_cell_length_a   7.77468532
_cell_length_b   7.77468532
_cell_length_c   16.14578046
_cell_angle_alpha   89.97711346
_cell_angle_beta   89.97711346
_cell_angle_gamma   40.30748224
_symmetry_Int_Tables_number   1
_chemical_formula_structural   Ba2MgCuBi2F14
_chemical_formula_sum   'Ba4 Mg2 Cu2 Bi4 F28'
_cell_volume   631.32742935
_cell_formula_units_Z   2
loop_
 _symmetry_equiv_pos_site_id
 _symmetry_equiv_pos_as_xyz
  1  'x, y, z'
loop_
 _atom_site_type_symbol
 _atom_site_label
 _atom_site_symmetry_multiplicity
 _atom_site_fract_x
 _atom_site_fract_y
 _atom_site_fract_z
 _atom_site_occupancy
  Ba  Ba0  1  0.28270500  0.07886400  0.12754900  1
  Ba  Ba1  1  0.07886400  0.28270500  0.62754900  1
  Ba  Ba2  1  0.71729500  0.92113600  0.87245100  1
  Ba  Ba3  1  0.92113600  0.71729500  0.37245100  1
  Mg  Mg4  1  0.56246500  0.43753500  0.25000000  1
  Mg  Mg5  1  0.43753500  0.56246500  0.75000000  1
  Cu  Cu6  1  0.50000000  0.50000000  0.50000000  1
  Cu  Cu7  1  0.50000000  0.50000000  0.00000000  1
  Bi  Bi8  1  0.16168400  0.05468200  0.37762700  1
  Bi  Bi9  1  0.83831600  0.94531800  0.62237300  1
  Bi  Bi10  1  0.05468200  0.16168400  0.87762700  1
  Bi  Bi11  1  0.94531800  0.83831600  0.12237300  1
  F  F12  1  0.14607800  0.81947400  0.82841400  1
  F  F13  1  0.42802500  0.86852600  0.95531900  1
  F  F14  1  0.57197500  0.13147400  0.04468100  1
  F  F15  1  0.89382300  0.59690000  0.10205700  1
  F  F16  1  0.39546700  0.65259000  0.10880200  1
  F  F17  1  0.34741000  0.60453300  0.39119800  1
  F  F18  1  0.86852600  0.42802500  0.45531900  1
  F  F19  1  0.18052600  0.85392200  0.67158600  1
  F  F20  1  0.00389800  0.35244500  0.28059100  1
  F  F21  1  0.10617700  0.40310000  0.89794300  1
  F  F22  1  0.43595600  0.76988800  0.26264400  1
  F  F23  1  0.40310000  0.10617700  0.39794300  1
  F  F24  1  0.76988800  0.43595600  0.76264400  1
  F  F25  1  0.56404400  0.23011200  0.73735600  1
  F  F26  1  0.65259000  0.39546700  0.60880200  1
  F  F27  1  0.99610200  0.64755500  0.71940900  1
  F  F28  1  0.72318000  0.12674200  0.48516800  1
  F  F29  1  0.85392200  0.18052600  0.17158600  1
  F  F30  1  0.27682000  0.87325800  0.51483200  1
  F  F31  1  0.12674200  0.72318000  0.98516800  1
  F  F32  1  0.13147400  0.57197500  0.54468100  1
  F  F33  1  0.23011200  0.56404400  0.23735600  1
  F  F34  1  0.35244500  0.00389800  0.78059100  1
  F  F35  1  0.87325800  0.27682000  0.01483200  1
  F  F36  1  0.60453300  0.34741000  0.89119800  1
  F  F37  1  0.81947400  0.14607800  0.32841400  1
  F  F38  1  0.64755500  0.99610200  0.21940900  1
  F  F39  1  0.59690000  0.89382300  0.60205700  1
