# generated using pymatgen
data_Ba2Ti2AlTlO7
_symmetry_space_group_name_H-M   'P 1'
_cell_length_a   3.72346180
_cell_length_b   3.72346180
_cell_length_c   14.95836200
_cell_angle_alpha   90.00000000
_cell_angle_beta   90.00000000
_cell_angle_gamma   90.02933463
_symmetry_Int_Tables_number   1
_chemical_formula_structural   Ba2Ti2AlTlO7
_chemical_formula_sum   'Ba2 Ti2 Al1 Tl1 O7'
_cell_volume   207.38521293
_cell_formula_units_Z   1
loop_
 _symmetry_equiv_pos_site_id
 _symmetry_equiv_pos_as_xyz
  1  'x, y, z'
loop_
 _atom_site_type_symbol
 _atom_site_label
 _atom_site_symmetry_multiplicity
 _atom_site_fract_x
 _atom_site_fract_y
 _atom_site_fract_z
 _atom_site_occupancy
  Ba  Ba0  1  0.50148300  0.49851700  0.16964300  1
  Ba  Ba1  1  0.50148300  0.49851700  0.83035700  1
  Ti  Ti2  1  0.00141000  0.99859000  0.37009700  1
  Ti  Ti3  1  0.00141000  0.99859000  0.62990300  1
  Al  Al4  1  0.51068900  0.48931100  0.50000000  1
  Tl  Tl5  1  0.00138400  0.99861600  0.00000000  1
  O  O6  1  0.00166700  0.99833300  0.24992300  1
  O  O7  1  0.49927300  0.00122800  0.41772000  1
  O  O8  1  0.99877200  0.50072700  0.41772000  1
  O  O9  1  0.99877200  0.50072700  0.58228000  1
  O  O10  1  0.50143100  0.49856900  0.00000000  1
  O  O11  1  0.49927300  0.00122800  0.58228000  1
  O  O12  1  0.00166700  0.99833300  0.75007700  1
