# generated using pymatgen
data_Ba2CuSn2F14
_symmetry_space_group_name_H-M   'P 1'
_cell_length_a   7.80610354
_cell_length_b   7.80610354
_cell_length_c   15.68612367
_cell_angle_alpha   87.74268127
_cell_angle_beta   87.74268127
_cell_angle_gamma   40.87991032
_symmetry_Int_Tables_number   1
_chemical_formula_structural   Ba2CuSn2F14
_chemical_formula_sum   'Ba4 Cu2 Sn4 F28'
_cell_volume   625.01983667
_cell_formula_units_Z   2
loop_
 _symmetry_equiv_pos_site_id
 _symmetry_equiv_pos_as_xyz
  1  'x, y, z'
loop_
 _atom_site_type_symbol
 _atom_site_label
 _atom_site_symmetry_multiplicity
 _atom_site_fract_x
 _atom_site_fract_y
 _atom_site_fract_z
 _atom_site_occupancy
  Ba  Ba0  1  0.09958200  0.25502800  0.87220800  1
  Ba  Ba1  1  0.25502800  0.09958200  0.37220800  1
  Ba  Ba2  1  0.90041800  0.74497200  0.12779200  1
  Ba  Ba3  1  0.74497200  0.90041800  0.62779200  1
  Cu  Cu4  1  0.50000000  0.50000000  0.50000000  1
  Cu  Cu5  1  0.50000000  0.50000000  0.00000000  1
  Sn  Sn6  1  0.09670400  0.14338000  0.62789400  1
  Sn  Sn7  1  0.90329600  0.85662000  0.37210600  1
  Sn  Sn8  1  0.14338000  0.09670400  0.12789400  1
  Sn  Sn9  1  0.85662000  0.90329600  0.87210600  1
  F  F10  1  0.92756800  0.05602100  0.15352600  1
  F  F11  1  0.88470600  0.39627700  0.04585700  1
  F  F12  1  0.11529400  0.60372300  0.95414300  1
  F  F13  1  0.63413000  0.86574700  0.91221500  1
  F  F14  1  0.63097500  0.48972100  0.89797400  1
  F  F15  1  0.51027900  0.36902500  0.60202600  1
  F  F16  1  0.39627700  0.88470600  0.54585700  1
  F  F17  1  0.94397900  0.07243200  0.34647400  1
  F  F18  1  0.36586800  0.98658400  0.71843700  1
  F  F19  1  0.36587000  0.13425300  0.08778500  1
  F  F20  1  0.83460600  0.41532100  0.71189800  1
  F  F21  1  0.13425300  0.36587000  0.58778500  1
  F  F22  1  0.41532100  0.83460600  0.21189800  1
  F  F23  1  0.16539400  0.58467900  0.28810200  1
  F  F24  1  0.48972100  0.63097500  0.39797400  1
  F  F25  1  0.63413200  0.01341600  0.28156300  1
  F  F26  1  0.12316700  0.70515500  0.48041800  1
  F  F27  1  0.07243200  0.94397900  0.84647400  1
  F  F28  1  0.87683300  0.29484500  0.51958200  1
  F  F29  1  0.70515500  0.12316700  0.98041800  1
  F  F30  1  0.60372300  0.11529400  0.45414300  1
  F  F31  1  0.58467900  0.16539400  0.78810200  1
  F  F32  1  0.98658400  0.36586800  0.21843700  1
  F  F33  1  0.29484500  0.87683300  0.01958200  1
  F  F34  1  0.36902500  0.51027900  0.10202600  1
  F  F35  1  0.05602100  0.92756800  0.65352600  1
  F  F36  1  0.01341600  0.63413200  0.78156300  1
  F  F37  1  0.86574700  0.63413000  0.41221500  1
