# generated using pymatgen
data_Zn(BiO3)2
_symmetry_space_group_name_H-M   'P 1'
_cell_length_a   5.56166400
_cell_length_b   5.61918300
_cell_length_c   8.03215200
_cell_angle_alpha   90.00000000
_cell_angle_beta   90.00000000
_cell_angle_gamma   90.00000000
_symmetry_Int_Tables_number   1
_chemical_formula_structural   Zn(BiO3)2
_chemical_formula_sum   'Zn2 Bi4 O12'
_cell_volume   251.02087696
_cell_formula_units_Z   2
loop_
 _symmetry_equiv_pos_site_id
 _symmetry_equiv_pos_as_xyz
  1  'x, y, z'
loop_
 _atom_site_type_symbol
 _atom_site_label
 _atom_site_symmetry_multiplicity
 _atom_site_fract_x
 _atom_site_fract_y
 _atom_site_fract_z
 _atom_site_occupancy
  Zn  Zn0  1  0.50727800  0.30377700  0.50000000  1
  Zn  Zn1  1  0.00727800  0.69622300  0.00000000  1
  Bi  Bi2  1  0.50208300  0.75340300  0.75039300  1
  Bi  Bi3  1  0.00208300  0.24659700  0.74960700  1
  Bi  Bi4  1  0.00208300  0.24659700  0.25039300  1
  Bi  Bi5  1  0.50208300  0.75340300  0.24960700  1
  O  O6  1  0.65863500  0.08746200  0.32200400  1
  O  O7  1  0.15863500  0.91253800  0.17799600  1
  O  O8  1  0.81501000  0.55607500  0.67740800  1
  O  O9  1  0.31501000  0.44392500  0.82259200  1
  O  O10  1  0.31501000  0.44392500  0.17740800  1
  O  O11  1  0.81501000  0.55607500  0.32259200  1
  O  O12  1  0.15863500  0.91253800  0.82200400  1
  O  O13  1  0.65863500  0.08746200  0.67799600  1
  O  O14  1  0.15460800  0.19322500  0.50000000  1
  O  O15  1  0.65460800  0.80677500  0.00000000  1
  O  O16  1  0.39683300  0.65455100  0.50000000  1
  O  O17  1  0.89683300  0.34544900  0.00000000  1
