# generated using pymatgen
data_MgTa2O6
_symmetry_space_group_name_H-M   'P 1'
_cell_length_a   5.22955000
_cell_length_b   5.51099600
_cell_length_c   7.60865200
_cell_angle_alpha   90.00000000
_cell_angle_beta   90.00000000
_cell_angle_gamma   90.00000000
_symmetry_Int_Tables_number   1
_chemical_formula_structural   MgTa2O6
_chemical_formula_sum   'Mg2 Ta4 O12'
_cell_volume   219.28157229
_cell_formula_units_Z   2
loop_
 _symmetry_equiv_pos_site_id
 _symmetry_equiv_pos_as_xyz
  1  'x, y, z'
loop_
 _atom_site_type_symbol
 _atom_site_label
 _atom_site_symmetry_multiplicity
 _atom_site_fract_x
 _atom_site_fract_y
 _atom_site_fract_z
 _atom_site_occupancy
  Mg  Mg0  1  0.52456500  0.32112800  0.50000000  1
  Mg  Mg1  1  0.02456500  0.67887200  0.00000000  1
  Ta  Ta2  1  0.50950400  0.76063900  0.74837900  1
  Ta  Ta3  1  0.00950400  0.23936100  0.75162100  1
  Ta  Ta4  1  0.00950400  0.23936100  0.24837900  1
  Ta  Ta5  1  0.50950400  0.76063900  0.25162100  1
  O  O6  1  0.67591000  0.06890300  0.31525900  1
  O  O7  1  0.17591000  0.93109700  0.18474100  1
  O  O8  1  0.78110500  0.52990400  0.69895300  1
  O  O9  1  0.28110500  0.47009600  0.80104700  1
  O  O10  1  0.28110500  0.47009600  0.19895300  1
  O  O11  1  0.78110500  0.52990400  0.30104700  1
  O  O12  1  0.17591000  0.93109700  0.81525900  1
  O  O13  1  0.67591000  0.06890300  0.68474100  1
  O  O14  1  0.13781100  0.22612300  0.50000000  1
  O  O15  1  0.63781100  0.77387700  0.00000000  1
  O  O16  1  0.41533700  0.70919700  0.50000000  1
  O  O17  1  0.91533700  0.29080300  0.00000000  1
