# generated using pymatgen
data_CaSn(GeO3)2
_symmetry_space_group_name_H-M   'P 1'
_cell_length_a   10.14001400
_cell_length_b   5.54239200
_cell_length_c   10.80330953
_cell_angle_alpha   78.36619229
_cell_angle_beta   90.00000000
_cell_angle_gamma   90.00000000
_symmetry_Int_Tables_number   1
_chemical_formula_structural   CaSn(GeO3)2
_chemical_formula_sum   'Ca4 Sn4 Ge8 O24'
_cell_volume   594.67233568
_cell_formula_units_Z   4
loop_
 _symmetry_equiv_pos_site_id
 _symmetry_equiv_pos_as_xyz
  1  'x, y, z'
loop_
 _atom_site_type_symbol
 _atom_site_label
 _atom_site_symmetry_multiplicity
 _atom_site_fract_x
 _atom_site_fract_y
 _atom_site_fract_z
 _atom_site_occupancy
  Ca  Ca0  1  0.56609200  0.24302300  0.25019100  1
  Ca  Ca1  1  0.06609200  0.25697700  0.74980900  1
  Ca  Ca2  1  0.43390800  0.75697700  0.74980900  1
  Ca  Ca3  1  0.93390800  0.74302300  0.25019100  1
  Sn  Sn4  1  0.36637100  0.74426500  0.24884100  1
  Sn  Sn5  1  0.86637100  0.75573500  0.75115900  1
  Sn  Sn6  1  0.63362900  0.25573500  0.75115900  1
  Sn  Sn7  1  0.13362900  0.24426500  0.24884100  1
  Ge  Ge8  1  0.65202300  0.78500100  0.03822400  1
  Ge  Ge9  1  0.15202300  0.71499900  0.96177600  1
  Ge  Ge10  1  0.34797700  0.21499900  0.96177600  1
  Ge  Ge11  1  0.84797700  0.28500100  0.03822400  1
  Ge  Ge12  1  0.65168000  0.71656600  0.45996200  1
  Ge  Ge13  1  0.15168000  0.78343400  0.54003800  1
  Ge  Ge14  1  0.34832000  0.28343400  0.54003800  1
  Ge  Ge15  1  0.84832000  0.21656600  0.45996200  1
  O  O16  1  0.78406900  0.94660300  0.40475300  1
  O  O17  1  0.28406900  0.55339700  0.59524700  1
  O  O18  1  0.21593100  0.05339700  0.59524700  1
  O  O19  1  0.71593100  0.44660300  0.40475300  1
  O  O20  1  0.70876700  0.06812300  0.08584600  1
  O  O21  1  0.20876700  0.43187700  0.91415400  1
  O  O22  1  0.29123300  0.93187700  0.91415400  1
  O  O23  1  0.79123300  0.56812300  0.08584600  1
  O  O24  1  0.97718400  0.35542700  0.36368300  1
  O  O25  1  0.47718400  0.14457300  0.63631700  1
  O  O26  1  0.02281600  0.64457300  0.63631700  1
  O  O27  1  0.52281600  0.85542700  0.36368300  1
  O  O28  1  0.96494300  0.13980300  0.14677600  1
  O  O29  1  0.46494300  0.36019700  0.85322400  1
  O  O30  1  0.03505700  0.86019700  0.85322400  1
  O  O31  1  0.53505700  0.63980300  0.14677600  1
  O  O32  1  0.60207700  0.84577900  0.88229500  1
  O  O33  1  0.10207700  0.65422100  0.11770500  1
  O  O34  1  0.39792300  0.15422100  0.11770500  1
  O  O35  1  0.89792300  0.34577900  0.88229500  1
  O  O36  1  0.61105400  0.65112500  0.61874200  1
  O  O37  1  0.11105400  0.84887500  0.38125800  1
  O  O38  1  0.38894600  0.34887500  0.38125800  1
  O  O39  1  0.88894600  0.15112500  0.61874200  1
