# generated using pymatgen
data_YBi3Se2ClO8
_symmetry_space_group_name_H-M   'P 1'
_cell_length_a   7.72583600
_cell_length_b   7.76237000
_cell_length_c   9.80631900
_cell_angle_alpha   90.00000000
_cell_angle_beta   90.00000000
_cell_angle_gamma   90.00000000
_symmetry_Int_Tables_number   1
_chemical_formula_structural   YBi3Se2ClO8
_chemical_formula_sum   'Y2 Bi6 Se4 Cl2 O16'
_cell_volume   588.09277186
_cell_formula_units_Z   2
loop_
 _symmetry_equiv_pos_site_id
 _symmetry_equiv_pos_as_xyz
  1  'x, y, z'
loop_
 _atom_site_type_symbol
 _atom_site_label
 _atom_site_symmetry_multiplicity
 _atom_site_fract_x
 _atom_site_fract_y
 _atom_site_fract_z
 _atom_site_occupancy
  Y  Y0  1  0.17179300  0.50000000  0.50000000  1
  Y  Y1  1  0.82820700  0.00000000  0.00000000  1
  Bi  Bi2  1  0.50000000  0.25000000  0.75000000  1
  Bi  Bi3  1  0.50000000  0.25000000  0.25000000  1
  Bi  Bi4  1  0.50000000  0.75000000  0.75000000  1
  Bi  Bi5  1  0.35574900  0.00000000  0.00000000  1
  Bi  Bi6  1  0.64425100  0.50000000  0.50000000  1
  Bi  Bi7  1  0.50000000  0.75000000  0.25000000  1
  Se  Se8  1  0.08328400  0.00000000  0.68159100  1
  Se  Se9  1  0.91671600  0.50000000  0.81840900  1
  Se  Se10  1  0.08328400  0.00000000  0.31840900  1
  Se  Se11  1  0.91671600  0.50000000  0.18159100  1
  Cl  Cl12  1  0.41976400  0.50000000  0.00000000  1
  Cl  Cl13  1  0.58023600  0.00000000  0.50000000  1
  O  O14  1  0.38742800  0.50000000  0.64750800  1
  O  O15  1  0.93439100  0.50000000  0.64025900  1
  O  O16  1  0.06560900  0.00000000  0.14025900  1
  O  O17  1  0.21373100  0.17806600  0.65613600  1
  O  O18  1  0.78626900  0.32193400  0.15613600  1
  O  O19  1  0.78626900  0.67806600  0.15613600  1
  O  O20  1  0.61257200  0.00000000  0.85249200  1
  O  O21  1  0.21373100  0.82193400  0.65613600  1
  O  O22  1  0.21373100  0.82193400  0.34386400  1
  O  O23  1  0.78626900  0.67806600  0.84386400  1
  O  O24  1  0.38742800  0.50000000  0.35249200  1
  O  O25  1  0.61257200  0.00000000  0.14750800  1
  O  O26  1  0.78626900  0.32193400  0.84386400  1
  O  O27  1  0.21373100  0.17806600  0.34386400  1
  O  O28  1  0.06560900  0.00000000  0.85974100  1
  O  O29  1  0.93439100  0.50000000  0.35974100  1
