# generated using pymatgen
data_Ta2ZnO6
_symmetry_space_group_name_H-M   'P 1'
_cell_length_a   5.29349700
_cell_length_b   5.47148100
_cell_length_c   7.68604300
_cell_angle_alpha   90.00000000
_cell_angle_beta   90.00000000
_cell_angle_gamma   90.00000000
_symmetry_Int_Tables_number   1
_chemical_formula_structural   Ta2ZnO6
_chemical_formula_sum   'Ta4 Zn2 O12'
_cell_volume   222.61292526
_cell_formula_units_Z   2
loop_
 _symmetry_equiv_pos_site_id
 _symmetry_equiv_pos_as_xyz
  1  'x, y, z'
loop_
 _atom_site_type_symbol
 _atom_site_label
 _atom_site_symmetry_multiplicity
 _atom_site_fract_x
 _atom_site_fract_y
 _atom_site_fract_z
 _atom_site_occupancy
  Ta  Ta0  1  0.50604000  0.75368000  0.74858300  1
  Ta  Ta1  1  0.00604000  0.24632000  0.75141700  1
  Ta  Ta2  1  0.00604000  0.24632000  0.24858300  1
  Ta  Ta3  1  0.50604000  0.75368000  0.25141700  1
  Zn  Zn4  1  0.50751800  0.28615000  0.50000000  1
  Zn  Zn5  1  0.00751800  0.71385000  0.00000000  1
  O  O6  1  0.67586200  0.06954700  0.31221400  1
  O  O7  1  0.17586200  0.93045300  0.18778600  1
  O  O8  1  0.79049600  0.53771600  0.70660500  1
  O  O9  1  0.29049600  0.46228400  0.79339500  1
  O  O10  1  0.29049600  0.46228400  0.20660500  1
  O  O11  1  0.79049600  0.53771600  0.29339500  1
  O  O12  1  0.17586200  0.93045300  0.81221400  1
  O  O13  1  0.67586200  0.06954700  0.68778600  1
  O  O14  1  0.13069100  0.22109100  0.50000000  1
  O  O15  1  0.63069100  0.77890900  0.00000000  1
  O  O16  1  0.42732400  0.70789600  0.50000000  1
  O  O17  1  0.92732400  0.29210400  0.00000000  1
