# generated using pymatgen
data_Ba2ZnCuBi2F14
_symmetry_space_group_name_H-M   'P 1'
_cell_length_a   7.76955665
_cell_length_b   7.76955665
_cell_length_c   16.18337066
_cell_angle_alpha   89.94437582
_cell_angle_beta   89.94437582
_cell_angle_gamma   40.43900933
_symmetry_Int_Tables_number   1
_chemical_formula_structural   Ba2ZnCuBi2F14
_chemical_formula_sum   'Ba4 Zn2 Cu2 Bi4 F28'
_cell_volume   633.67091117
_cell_formula_units_Z   2
loop_
 _symmetry_equiv_pos_site_id
 _symmetry_equiv_pos_as_xyz
  1  'x, y, z'
loop_
 _atom_site_type_symbol
 _atom_site_label
 _atom_site_symmetry_multiplicity
 _atom_site_fract_x
 _atom_site_fract_y
 _atom_site_fract_z
 _atom_site_occupancy
  Ba  Ba0  1  0.72124600  0.91657800  0.62612200  1
  Ba  Ba1  1  0.91657800  0.72124600  0.12612200  1
  Ba  Ba2  1  0.27875400  0.08342200  0.37387800  1
  Ba  Ba3  1  0.08342200  0.27875400  0.87387800  1
  Zn  Zn4  1  0.43840600  0.56159400  0.75000000  1
  Zn  Zn5  1  0.56159400  0.43840600  0.25000000  1
  Cu  Cu6  1  0.50000000  0.50000000  0.00000000  1
  Cu  Cu7  1  0.50000000  0.50000000  0.50000000  1
  Bi  Bi8  1  0.84074400  0.94268800  0.87708400  1
  Bi  Bi9  1  0.15925600  0.05731200  0.12291600  1
  Bi  Bi10  1  0.94268800  0.84074400  0.37708400  1
  Bi  Bi11  1  0.05731200  0.15925600  0.62291600  1
  F  F12  1  0.86386300  0.17924800  0.32719600  1
  F  F13  1  0.57363800  0.13300800  0.45394600  1
  F  F14  1  0.42636200  0.86699200  0.54605400  1
  F  F15  1  0.10717500  0.40012600  0.59830400  1
  F  F16  1  0.60982900  0.34160900  0.60678700  1
  F  F17  1  0.65839100  0.39017100  0.89321300  1
  F  F18  1  0.13300800  0.57363800  0.95394600  1
  F  F19  1  0.82075200  0.13613700  0.17280400  1
  F  F20  1  0.99295200  0.64860800  0.78061600  1
  F  F21  1  0.89282500  0.59987400  0.40169600  1
  F  F22  1  0.56233200  0.22772200  0.76247800  1
  F  F23  1  0.59987400  0.89282500  0.90169600  1
  F  F24  1  0.22772200  0.56233200  0.26247800  1
  F  F25  1  0.43766800  0.77227800  0.23752200  1
  F  F26  1  0.34160900  0.60982900  0.10678700  1
  F  F27  1  0.00704800  0.35139200  0.21938400  1
  F  F28  1  0.28054200  0.87265800  0.98579400  1
  F  F29  1  0.13613700  0.82075200  0.67280400  1
  F  F30  1  0.71945800  0.12734200  0.01420600  1
  F  F31  1  0.87265800  0.28054200  0.48579400  1
  F  F32  1  0.86699200  0.42636200  0.04605400  1
  F  F33  1  0.77227800  0.43766800  0.73752200  1
  F  F34  1  0.64860800  0.99295200  0.28061600  1
  F  F35  1  0.12734200  0.71945800  0.51420600  1
  F  F36  1  0.39017100  0.65839100  0.39321300  1
  F  F37  1  0.17924800  0.86386300  0.82719600  1
  F  F38  1  0.35139200  0.00704800  0.71938400  1
  F  F39  1  0.40012600  0.10717500  0.09830400  1
