# generated using pymatgen
data_Sr2AlFeCu2O7
_symmetry_space_group_name_H-M   'P 1'
_cell_length_a   12.19628484
_cell_length_b   12.19628484
_cell_length_c   5.40747826
_cell_angle_alpha   77.23232161
_cell_angle_beta   77.23232161
_cell_angle_gamma   25.14316150
_symmetry_Int_Tables_number   1
_chemical_formula_structural   Sr2AlFeCu2O7
_chemical_formula_sum   'Sr4 Al2 Fe2 Cu4 O14'
_cell_volume   332.88114915
_cell_formula_units_Z   2
loop_
 _symmetry_equiv_pos_site_id
 _symmetry_equiv_pos_as_xyz
  1  'x, y, z'
loop_
 _atom_site_type_symbol
 _atom_site_label
 _atom_site_symmetry_multiplicity
 _atom_site_fract_x
 _atom_site_fract_y
 _atom_site_fract_z
 _atom_site_occupancy
  Sr  Sr0  1  0.63383400  0.66436200  0.36123000  1
  Sr  Sr1  1  0.33563800  0.36616600  0.63877000  1
  Sr  Sr2  1  0.13340300  0.16488500  0.83219200  1
  Sr  Sr3  1  0.83511500  0.86659700  0.16780800  1
  Al  Al4  1  0.98405700  0.01594300  0.00000000  1
  Al  Al5  1  0.48837100  0.51162900  0.50000000  1
  Fe  Fe6  1  0.77587700  0.72453200  0.81283700  1
  Fe  Fe7  1  0.27546800  0.22412300  0.18716300  1
  Cu  Cu8  1  0.04147700  0.07554400  0.43805000  1
  Cu  Cu9  1  0.92445600  0.95852300  0.56195000  1
  Cu  Cu10  1  0.53974100  0.57772200  0.94232100  1
  Cu  Cu11  1  0.42227800  0.46025900  0.05767900  1
  O  O12  1  0.64219000  0.85829000  0.14725300  1
  O  O13  1  0.14171000  0.35781000  0.85274700  1
  O  O14  1  0.35578000  0.75164400  0.62357900  1
  O  O15  1  0.24835600  0.64422000  0.37642100  1
  O  O16  1  0.85299800  0.25229200  0.76441600  1
  O  O17  1  0.74770800  0.14700200  0.23558400  1
  O  O18  1  0.71277700  0.39718700  0.26790300  1
  O  O19  1  0.60281300  0.28722300  0.73209700  1
  O  O20  1  0.21066100  0.90118700  0.11776000  1
  O  O21  1  0.09881300  0.78933900  0.88224000  1
  O  O22  1  0.63658400  0.70942500  0.79088700  1
  O  O23  1  0.29057500  0.36341600  0.20911300  1
  O  O24  1  0.13506200  0.21126200  0.35674300  1
  O  O25  1  0.78873800  0.86493800  0.64325700  1
