# generated using pymatgen
data_CaBiAsO5
_symmetry_space_group_name_H-M   'P 1'
_cell_length_a   7.09862600
_cell_length_b   7.34522200
_cell_length_c   9.43626000
_cell_angle_alpha   90.00000000
_cell_angle_beta   90.00000000
_cell_angle_gamma   90.00000000
_symmetry_Int_Tables_number   1
_chemical_formula_structural   CaBiAsO5
_chemical_formula_sum   'Ca4 Bi4 As4 O20'
_cell_volume   492.01588041
_cell_formula_units_Z   4
loop_
 _symmetry_equiv_pos_site_id
 _symmetry_equiv_pos_as_xyz
  1  'x, y, z'
loop_
 _atom_site_type_symbol
 _atom_site_label
 _atom_site_symmetry_multiplicity
 _atom_site_fract_x
 _atom_site_fract_y
 _atom_site_fract_z
 _atom_site_occupancy
  Ca  Ca0  1  0.00491000  0.69087900  0.65960000  1
  Ca  Ca1  1  0.49509000  0.30912100  0.15960000  1
  Ca  Ca2  1  0.99509000  0.19087900  0.84040000  1
  Ca  Ca3  1  0.50491000  0.80912100  0.34040000  1
  Bi  Bi4  1  0.26341600  0.72261400  0.98735600  1
  Bi  Bi5  1  0.23658400  0.27738600  0.48735600  1
  Bi  Bi6  1  0.73658400  0.22261400  0.51264400  1
  Bi  Bi7  1  0.76341600  0.77738600  0.01264400  1
  As  As8  1  0.44897100  0.14108400  0.82844000  1
  As  As9  1  0.05102900  0.85891600  0.32844000  1
  As  As10  1  0.55102900  0.64108400  0.67156000  1
  As  As11  1  0.94897100  0.35891600  0.17156000  1
  O  O12  1  0.47341400  0.95638100  0.94533100  1
  O  O13  1  0.02658600  0.04361900  0.44533100  1
  O  O14  1  0.52658600  0.45638100  0.55466900  1
  O  O15  1  0.97341400  0.54361900  0.05466900  1
  O  O16  1  0.34377700  0.30272900  0.93327000  1
  O  O17  1  0.15622300  0.69727100  0.43327000  1
  O  O18  1  0.65622300  0.80272900  0.56673000  1
  O  O19  1  0.84377700  0.19727100  0.06673000  1
  O  O20  1  0.67222200  0.17806200  0.76590600  1
  O  O21  1  0.82777800  0.82193800  0.26590600  1
  O  O22  1  0.32777800  0.67806200  0.73409400  1
  O  O23  1  0.17222200  0.32193800  0.23409400  1
  O  O24  1  0.29017500  0.10139400  0.69352500  1
  O  O25  1  0.20982500  0.89860600  0.19352500  1
  O  O26  1  0.70982500  0.60139400  0.80647500  1
  O  O27  1  0.79017500  0.39860600  0.30647500  1
  O  O28  1  0.01470200  0.87249500  0.87040500  1
  O  O29  1  0.48529800  0.12750500  0.37040500  1
  O  O30  1  0.98529800  0.37249500  0.62959500  1
  O  O31  1  0.51470200  0.62750500  0.12959500  1
