# generated using pymatgen
data_AlMo3Se2ClO8
_symmetry_space_group_name_H-M   'P 1'
_cell_length_a   6.56432200
_cell_length_b   7.21932300
_cell_length_c   9.91129102
_cell_angle_alpha   105.36672960
_cell_angle_beta   92.94645559
_cell_angle_gamma   94.05907802
_symmetry_Int_Tables_number   1
_chemical_formula_structural   AlMo3Se2ClO8
_chemical_formula_sum   'Al2 Mo6 Se4 Cl2 O16'
_cell_volume   450.56422857
_cell_formula_units_Z   2
loop_
 _symmetry_equiv_pos_site_id
 _symmetry_equiv_pos_as_xyz
  1  'x, y, z'
loop_
 _atom_site_type_symbol
 _atom_site_label
 _atom_site_symmetry_multiplicity
 _atom_site_fract_x
 _atom_site_fract_y
 _atom_site_fract_z
 _atom_site_occupancy
  Al  Al0  1  0.74025100  0.72560800  0.74198200  1
  Al  Al1  1  0.25786600  0.27223100  0.25427200  1
  Mo  Mo2  1  0.99764800  0.49972500  0.00021700  1
  Mo  Mo3  1  0.00261900  0.50620300  0.49716600  1
  Mo  Mo4  1  0.00422100  0.99703600  0.99809700  1
  Mo  Mo5  1  0.74616200  0.26958400  0.24835500  1
  Mo  Mo6  1  0.25445200  0.72221300  0.75038600  1
  Mo  Mo7  1  0.00140400  0.00577100  0.50358600  1
  Se  Se8  1  0.57042400  0.16092100  0.86565400  1
  Se  Se9  1  0.42374300  0.83239600  0.14624100  1
  Se  Se10  1  0.55811200  0.26614600  0.57159500  1
  Se  Se11  1  0.44454300  0.74281800  0.42672700  1
  Cl  Cl12  1  0.87853900  0.73413000  0.25227400  1
  Cl  Cl13  1  0.12133700  0.26494200  0.74861700  1
  O  O14  1  0.97398100  0.70047700  0.86932100  1
  O  O15  1  0.52017900  0.68012400  0.83461100  1
  O  O16  1  0.50627500  0.26606400  0.39572800  1
  O  O17  1  0.70523300  0.37941300  0.94025200  1
  O  O18  1  0.25071600  0.54828700  0.37126900  1
  O  O19  1  0.30051500  0.93768900  0.46925800  1
  O  O20  1  0.02358100  0.29437200  0.12755700  1
  O  O21  1  0.77127700  0.99873000  0.83811900  1
  O  O22  1  0.70198000  0.07207200  0.54125200  1
  O  O23  1  0.22439500  0.99751900  0.16671200  1
  O  O24  1  0.96247900  0.78653300  0.62332100  1
  O  O25  1  0.03922900  0.22177900  0.37906100  1
  O  O26  1  0.29119400  0.61845500  0.05167000  1
  O  O27  1  0.75671300  0.45812400  0.62212500  1
  O  O28  1  0.47781400  0.30941800  0.16090400  1
  O  O29  1  0.49311600  0.73121700  0.60367300  1
