# generated using pymatgen
data_W3Se2ClO8
_symmetry_space_group_name_H-M   'P 1'
_cell_length_a   11.67600700
_cell_length_b   5.79840600
_cell_length_c   8.57626981
_cell_angle_alpha   89.94595953
_cell_angle_beta   90.00000000
_cell_angle_gamma   90.00000000
_symmetry_Int_Tables_number   1
_chemical_formula_structural   W3Se2ClO8
_chemical_formula_sum   'W6 Se4 Cl2 O16'
_cell_volume   580.63232508
_cell_formula_units_Z   2
loop_
 _symmetry_equiv_pos_site_id
 _symmetry_equiv_pos_as_xyz
  1  'x, y, z'
loop_
 _atom_site_type_symbol
 _atom_site_label
 _atom_site_symmetry_multiplicity
 _atom_site_fract_x
 _atom_site_fract_y
 _atom_site_fract_z
 _atom_site_occupancy
  W  W0  1  0.25064300  0.49875900  0.99868500  1
  W  W1  1  0.74935700  0.49875900  0.99868500  1
  W  W2  1  0.25166900  0.99966100  0.99837600  1
  W  W3  1  0.50000000  0.72461000  0.22176200  1
  W  W4  1  0.00000000  0.24645700  0.78203000  1
  W  W5  1  0.74833100  0.99966100  0.99837600  1
  Se  Se6  1  0.21921700  0.74998600  0.35360300  1
  Se  Se7  1  0.27852700  0.25052400  0.64258500  1
  Se  Se8  1  0.78078300  0.74998600  0.35360300  1
  Se  Se9  1  0.72147300  0.25052400  0.64258500  1
  Cl  Cl10  1  0.50000000  0.28799500  0.22376700  1
  Cl  Cl11  1  0.00000000  0.75257700  0.80346300  1
  O  O12  1  0.13227800  0.25166200  0.95436500  1
  O  O13  1  0.13280400  0.24997900  0.61026900  1
  O  O14  1  0.63637300  0.74955200  0.39060800  1
  O  O15  1  0.20134400  0.51500300  0.22905100  1
  O  O16  1  0.70070500  0.48518600  0.76709300  1
  O  O17  1  0.70072300  0.01527700  0.76686500  1
  O  O18  1  0.36921500  0.74510700  0.04445900  1
  O  O19  1  0.20229700  0.98542300  0.22870100  1
  O  O20  1  0.79770300  0.98542300  0.22870100  1
  O  O21  1  0.29927700  0.01527700  0.76686500  1
  O  O22  1  0.86772200  0.25166200  0.95436500  1
  O  O23  1  0.63078500  0.74510700  0.04445900  1
  O  O24  1  0.29929500  0.48518600  0.76709300  1
  O  O25  1  0.79865600  0.51500300  0.22905100  1
  O  O26  1  0.36362700  0.74955200  0.39060800  1
  O  O27  1  0.86719600  0.24997900  0.61026900  1
