# generated using pymatgen
data_YTi2O4
_symmetry_space_group_name_H-M   'P 1'
_cell_length_a   6.29881764
_cell_length_b   6.29881764
_cell_length_c   6.29881764
_cell_angle_alpha   122.16493215
_cell_angle_beta   117.67375992
_cell_angle_gamma   90.18364633
_symmetry_Int_Tables_number   1
_chemical_formula_structural   YTi2O4
_chemical_formula_sum   'Y2 Ti4 O8'
_cell_volume   176.58633533
_cell_formula_units_Z   2
loop_
 _symmetry_equiv_pos_site_id
 _symmetry_equiv_pos_as_xyz
  1  'x, y, z'
loop_
 _atom_site_type_symbol
 _atom_site_label
 _atom_site_symmetry_multiplicity
 _atom_site_fract_x
 _atom_site_fract_y
 _atom_site_fract_z
 _atom_site_occupancy
  Y  Y0  1  0.00000000  0.50000000  0.50000000  1
  Y  Y1  1  0.50000000  0.50000000  0.00000000  1
  Ti  Ti2  1  0.37714800  0.12714800  0.25000000  1
  Ti  Ti3  1  0.62285200  0.87285200  0.75000000  1
  Ti  Ti4  1  0.00000000  0.50000000  0.00000000  1
  Ti  Ti5  1  0.00000000  0.00000000  0.50000000  1
  O  O6  1  0.76803800  0.76142500  0.00661300  1
  O  O7  1  0.25481200  0.76142500  0.49338700  1
  O  O8  1  0.75928200  0.77256600  0.51328400  1
  O  O9  1  0.23196200  0.23857500  0.99338700  1
  O  O10  1  0.24071800  0.75400300  0.01328400  1
  O  O11  1  0.74518800  0.23857500  0.50661300  1
  O  O12  1  0.75928200  0.24599700  0.98671600  1
  O  O13  1  0.24071800  0.22743400  0.48671600  1
