# generated using pymatgen
data_MgTi2O4
_symmetry_space_group_name_H-M   'P 1'
_cell_length_a   5.96475054
_cell_length_b   5.96475054
_cell_length_c   5.96475054
_cell_angle_alpha   120.41336497
_cell_angle_beta   118.65694655
_cell_angle_gamma   90.81367351
_symmetry_Int_Tables_number   1
_chemical_formula_structural   MgTi2O4
_chemical_formula_sum   'Mg2 Ti4 O8'
_cell_volume   151.05316171
_cell_formula_units_Z   2
loop_
 _symmetry_equiv_pos_site_id
 _symmetry_equiv_pos_as_xyz
  1  'x, y, z'
loop_
 _atom_site_type_symbol
 _atom_site_label
 _atom_site_symmetry_multiplicity
 _atom_site_fract_x
 _atom_site_fract_y
 _atom_site_fract_z
 _atom_site_occupancy
  Mg  Mg0  1  0.50000000  0.50000000  0.50000000  1
  Mg  Mg1  1  0.50000000  0.00000000  0.00000000  1
  Ti  Ti2  1  0.00000000  0.00000000  0.00000000  1
  Ti  Ti3  1  0.00000000  0.50000000  0.00000000  1
  Ti  Ti4  1  0.50000000  0.00000000  0.50000000  1
  Ti  Ti5  1  0.00000000  0.00000000  0.50000000  1
  O  O6  1  0.75318200  0.77885400  0.52567200  1
  O  O7  1  0.24575600  0.24320700  0.00254900  1
  O  O8  1  0.75318200  0.22751100  0.97432800  1
  O  O9  1  0.25934200  0.75679300  0.50254900  1
  O  O10  1  0.24681800  0.77248900  0.02567200  1
  O  O11  1  0.75424400  0.75679300  0.99745100  1
  O  O12  1  0.74065800  0.24320700  0.49745100  1
  O  O13  1  0.24681800  0.22114600  0.47432800  1
