# generated using pymatgen
data_Ca2Mo3O8
_symmetry_space_group_name_H-M   'P 1'
_cell_length_a   6.57129655
_cell_length_b   6.57129655
_cell_length_c   5.03048253
_cell_angle_alpha   75.89491186
_cell_angle_beta   75.89491186
_cell_angle_gamma   53.45971057
_symmetry_Int_Tables_number   1
_chemical_formula_structural   Ca2Mo3O8
_chemical_formula_sum   'Ca2 Mo3 O8'
_cell_volume   167.90504022
_cell_formula_units_Z   1
loop_
 _symmetry_equiv_pos_site_id
 _symmetry_equiv_pos_as_xyz
  1  'x, y, z'
loop_
 _atom_site_type_symbol
 _atom_site_label
 _atom_site_symmetry_multiplicity
 _atom_site_fract_x
 _atom_site_fract_y
 _atom_site_fract_z
 _atom_site_occupancy
  Ca  Ca0  1  0.72526800  0.72526800  0.32865800  1
  Ca  Ca1  1  0.27473200  0.27473200  0.67134200  1
  Mo  Mo2  1  0.00000000  0.00000000  0.50000000  1
  Mo  Mo3  1  0.77145700  0.22854300  0.00000000  1
  Mo  Mo4  1  0.22854300  0.77145700  0.00000000  1
  O  O5  1  0.40986500  0.40986500  0.91340200  1
  O  O6  1  0.59013500  0.59013500  0.08659800  1
  O  O7  1  0.87638200  0.87638200  0.91231400  1
  O  O8  1  0.12361800  0.12361800  0.08768600  1
  O  O9  1  0.34389300  0.87659800  0.61106400  1
  O  O10  1  0.87659800  0.34389300  0.61106400  1
  O  O11  1  0.12340200  0.65610700  0.38893600  1
  O  O12  1  0.65610700  0.12340200  0.38893600  1
