# generated using pymatgen
data_MgTi(PO3)4
_symmetry_space_group_name_H-M   'P 1'
_cell_length_a   7.32218665
_cell_length_b   7.32218665
_cell_length_c   10.23365742
_cell_angle_alpha   67.00496785
_cell_angle_beta   67.00496785
_cell_angle_gamma   70.34789574
_symmetry_Int_Tables_number   1
_chemical_formula_structural   MgTi(PO3)4
_chemical_formula_sum   'Mg2 Ti2 P8 O24'
_cell_volume   453.88335952
_cell_formula_units_Z   2
loop_
 _symmetry_equiv_pos_site_id
 _symmetry_equiv_pos_as_xyz
  1  'x, y, z'
loop_
 _atom_site_type_symbol
 _atom_site_label
 _atom_site_symmetry_multiplicity
 _atom_site_fract_x
 _atom_site_fract_y
 _atom_site_fract_z
 _atom_site_occupancy
  Mg  Mg0  1  0.95616300  0.04383700  0.75000000  1
  Mg  Mg1  1  0.04383700  0.95616300  0.25000000  1
  Ti  Ti2  1  0.50000000  0.00000000  0.00000000  1
  Ti  Ti3  1  0.00000000  0.50000000  0.50000000  1
  P  P4  1  0.31261900  0.29632000  0.69343200  1
  P  P5  1  0.70368000  0.68738100  0.80656800  1
  P  P6  1  0.68738100  0.70368000  0.30656800  1
  P  P7  1  0.29632000  0.31261900  0.19343200  1
  P  P8  1  0.72816000  0.25424800  0.47857600  1
  P  P9  1  0.74575200  0.27184000  0.02142400  1
  P  P10  1  0.27184000  0.74575200  0.52142400  1
  P  P11  1  0.25424800  0.72816000  0.97857600  1
  O  O12  1  0.30989300  0.53399700  0.64581200  1
  O  O13  1  0.46600300  0.69010700  0.85418800  1
  O  O14  1  0.69010700  0.46600300  0.35418800  1
  O  O15  1  0.53399700  0.30989300  0.14581200  1
  O  O16  1  0.50136300  0.21549700  0.56576400  1
  O  O17  1  0.78450300  0.49863700  0.93423600  1
  O  O18  1  0.49863700  0.78450300  0.43423600  1
  O  O19  1  0.21549700  0.50136300  0.06576400  1
  O  O20  1  0.34918800  0.20075700  0.84079600  1
  O  O21  1  0.79924300  0.65081200  0.65920400  1
  O  O22  1  0.65081200  0.79924300  0.15920400  1
  O  O23  1  0.20075700  0.34918800  0.34079600  1
  O  O24  1  0.12370900  0.27199100  0.67967600  1
  O  O25  1  0.72800900  0.87629100  0.82032400  1
  O  O26  1  0.87629100  0.72800900  0.32032400  1
  O  O27  1  0.27199100  0.12370900  0.17967600  1
  O  O28  1  0.81269400  0.27714000  0.58477300  1
  O  O29  1  0.72286000  0.18730600  0.91522700  1
  O  O30  1  0.18730600  0.72286000  0.41522700  1
  O  O31  1  0.27714000  0.81269400  0.08477300  1
  O  O32  1  0.84277700  0.09681600  0.40262700  1
  O  O33  1  0.90318400  0.15722300  0.09737300  1
  O  O34  1  0.15722300  0.90318400  0.59737300  1
  O  O35  1  0.09681600  0.84277700  0.90262700  1
