# generated using pymatgen
data_Mg(SbO2)4
_symmetry_space_group_name_H-M   'P 1'
_cell_length_a   8.94474457
_cell_length_b   8.94474457
_cell_length_c   9.78757749
_cell_angle_alpha   64.00139844
_cell_angle_beta   64.00139844
_cell_angle_gamma   20.45550893
_symmetry_Int_Tables_number   1
_chemical_formula_structural   Mg(SbO2)4
_chemical_formula_sum   'Mg1 Sb4 O8'
_cell_volume   245.02519666
_cell_formula_units_Z   1
loop_
 _symmetry_equiv_pos_site_id
 _symmetry_equiv_pos_as_xyz
  1  'x, y, z'
loop_
 _atom_site_type_symbol
 _atom_site_label
 _atom_site_symmetry_multiplicity
 _atom_site_fract_x
 _atom_site_fract_y
 _atom_site_fract_z
 _atom_site_occupancy
  Mg  Mg0  1  0.30392400  0.30392400  0.20852800  1
  Sb  Sb1  1  0.66731000  0.66731000  0.52749500  1
  Sb  Sb2  1  0.10882300  0.10882300  0.21325200  1
  Sb  Sb3  1  0.84911700  0.84911700  0.86746200  1
  Sb  Sb4  1  0.34832600  0.34832600  0.51005900  1
  O  O5  1  0.84515800  0.84515800  0.64862700  1
  O  O6  1  0.43109400  0.43109400  0.78659900  1
  O  O7  1  0.53540500  0.53540500  0.32533700  1
  O  O8  1  0.17269500  0.17269500  0.33990100  1
  O  O9  1  0.21585400  0.21585400  0.61527700  1
  O  O10  1  0.83868100  0.83868100  0.07443700  1
  O  O11  1  0.79209900  0.79209900  0.37306300  1
  O  O12  1  0.26617400  0.26617400  0.91875300  1
