# generated using pymatgen
data_Ca(CrN)2
_symmetry_space_group_name_H-M   'P 1'
_cell_length_a   3.20486700
_cell_length_b   3.20486700
_cell_length_c   7.26293100
_cell_angle_alpha   90.00000000
_cell_angle_beta   90.00000000
_cell_angle_gamma   90.00000000
_symmetry_Int_Tables_number   1
_chemical_formula_structural   Ca(CrN)2
_chemical_formula_sum   'Ca1 Cr2 N2'
_cell_volume   74.59881707
_cell_formula_units_Z   1
loop_
 _symmetry_equiv_pos_site_id
 _symmetry_equiv_pos_as_xyz
  1  'x, y, z'
loop_
 _atom_site_type_symbol
 _atom_site_label
 _atom_site_symmetry_multiplicity
 _atom_site_fract_x
 _atom_site_fract_y
 _atom_site_fract_z
 _atom_site_occupancy
  Ca  Ca0  1  0.50000000  0.50000000  0.00000000  1
  Cr  Cr1  1  0.00000000  0.00000000  0.65461500  1
  Cr  Cr2  1  0.00000000  0.00000000  0.34538500  1
  N  N3  1  0.00000000  0.50000000  0.22973200  1
  N  N4  1  0.50000000  0.00000000  0.77026800  1
