# generated using pymatgen
data_Ba2MgTi2CuF14
_symmetry_space_group_name_H-M   'P 1'
_cell_length_a   7.63015112
_cell_length_b   7.63015112
_cell_length_c   14.94947144
_cell_angle_alpha   86.98826296
_cell_angle_beta   86.98826296
_cell_angle_gamma   40.82003932
_symmetry_Int_Tables_number   1
_chemical_formula_structural   Ba2MgTi2CuF14
_chemical_formula_sum   'Ba4 Mg2 Ti4 Cu2 F28'
_cell_volume   568.03794223
_cell_formula_units_Z   2
loop_
 _symmetry_equiv_pos_site_id
 _symmetry_equiv_pos_as_xyz
  1  'x, y, z'
loop_
 _atom_site_type_symbol
 _atom_site_label
 _atom_site_symmetry_multiplicity
 _atom_site_fract_x
 _atom_site_fract_y
 _atom_site_fract_z
 _atom_site_occupancy
  Ba  Ba0  1  0.08713300  0.27205100  0.87455800  1
  Ba  Ba1  1  0.27205100  0.08713300  0.37455800  1
  Ba  Ba2  1  0.91286700  0.72794900  0.12544200  1
  Ba  Ba3  1  0.72794900  0.91286700  0.62544200  1
  Mg  Mg4  1  0.45000600  0.54999400  0.75000000  1
  Mg  Mg5  1  0.54999400  0.45000600  0.25000000  1
  Ti  Ti6  1  0.10225600  0.14282200  0.62548400  1
  Ti  Ti7  1  0.89774400  0.85717800  0.37451600  1
  Ti  Ti8  1  0.14282200  0.10225600  0.12548400  1
  Ti  Ti9  1  0.85717800  0.89774400  0.87451600  1
  Cu  Cu10  1  0.50000000  0.50000000  0.50000000  1
  Cu  Cu11  1  0.50000000  0.50000000  0.00000000  1
  F  F12  1  0.89549800  0.10596800  0.16381000  1
  F  F13  1  0.87511900  0.42224000  0.04641800  1
  F  F14  1  0.12488100  0.57776000  0.95358200  1
  F  F15  1  0.64379900  0.85747500  0.89687800  1
  F  F16  1  0.60808500  0.48428400  0.86774400  1
  F  F17  1  0.51571600  0.39191500  0.63225600  1
  F  F18  1  0.42224000  0.87511900  0.54641800  1
  F  F19  1  0.89403200  0.10450200  0.33619000  1
  F  F20  1  0.35597300  0.97753800  0.72450600  1
  F  F21  1  0.35620100  0.14252500  0.10312200  1
  F  F22  1  0.80484200  0.42214000  0.70756300  1
  F  F23  1  0.14252500  0.35620100  0.60312200  1
  F  F24  1  0.42214000  0.80484200  0.20756300  1
  F  F25  1  0.19515800  0.57786000  0.29243700  1
  F  F26  1  0.48428400  0.60808500  0.36774400  1
  F  F27  1  0.64402700  0.02246200  0.27549400  1
  F  F28  1  0.09741600  0.73581900  0.48258300  1
  F  F29  1  0.10450200  0.89403200  0.83619000  1
  F  F30  1  0.90258400  0.26418100  0.51741700  1
  F  F31  1  0.73581900  0.09741600  0.98258300  1
  F  F32  1  0.57776000  0.12488100  0.45358200  1
  F  F33  1  0.57786000  0.19515800  0.79243700  1
  F  F34  1  0.97753800  0.35597300  0.22450600  1
  F  F35  1  0.26418100  0.90258400  0.01741700  1
  F  F36  1  0.39191500  0.51571600  0.13225600  1
  F  F37  1  0.10596800  0.89549800  0.66381000  1
  F  F38  1  0.02246200  0.64402700  0.77549400  1
  F  F39  1  0.85747500  0.64379900  0.39687800  1
