# generated using pymatgen
data_Cr9O13
_symmetry_space_group_name_H-M   'P 1'
_cell_length_a   5.24481332
_cell_length_b   5.24481332
_cell_length_c   17.13902216
_cell_angle_alpha   81.35482565
_cell_angle_beta   81.35482565
_cell_angle_gamma   33.44575445
_symmetry_Int_Tables_number   1
_chemical_formula_structural   Cr9O13
_chemical_formula_sum   'Cr9 O13'
_cell_volume   256.62414737
_cell_formula_units_Z   1
loop_
 _symmetry_equiv_pos_site_id
 _symmetry_equiv_pos_as_xyz
  1  'x, y, z'
loop_
 _atom_site_type_symbol
 _atom_site_label
 _atom_site_symmetry_multiplicity
 _atom_site_fract_x
 _atom_site_fract_y
 _atom_site_fract_z
 _atom_site_occupancy
  Cr  Cr0  1  0.50000000  0.50000000  0.50000000  1
  Cr  Cr1  1  0.35520700  0.35520700  0.04079800  1
  Cr  Cr2  1  0.64479300  0.64479300  0.95920200  1
  Cr  Cr3  1  0.25231200  0.25231200  0.41855800  1
  Cr  Cr4  1  0.74768800  0.74768800  0.58144200  1
  Cr  Cr5  1  0.05918600  0.05918600  0.13138200  1
  Cr  Cr6  1  0.94081400  0.94081400  0.86861800  1
  Cr  Cr7  1  0.00738000  0.00738000  0.32625000  1
  Cr  Cr8  1  0.99262000  0.99262000  0.67375000  1
  O  O9  1  0.00000000  0.00000000  0.00000000  1
  O  O10  1  0.11018200  0.11018200  0.22866100  1
  O  O11  1  0.88981800  0.88981800  0.77133900  1
  O  O12  1  0.71825900  0.71825900  0.06676300  1
  O  O13  1  0.28174100  0.28174100  0.93323700  1
  O  O14  1  0.43778100  0.43778100  0.13516800  1
  O  O15  1  0.56221900  0.56221900  0.86483200  1
  O  O16  1  0.38672200  0.38672200  0.32457600  1
  O  O17  1  0.61327800  0.61327800  0.67542400  1
  O  O18  1  0.62641200  0.62641200  0.39248800  1
  O  O19  1  0.37358800  0.37358800  0.60751200  1
  O  O20  1  0.86007600  0.86007600  0.46422100  1
  O  O21  1  0.13992400  0.13992400  0.53577900  1
