# generated using pymatgen
data_Ca2Ta2CuO8
_symmetry_space_group_name_H-M   'P 1'
_cell_length_a   5.40318600
_cell_length_b   6.71245420
_cell_length_c   9.99932846
_cell_angle_alpha   108.72863526
_cell_angle_beta   92.84601649
_cell_angle_gamma   90.62878101
_symmetry_Int_Tables_number   1
_chemical_formula_structural   Ca2Ta2CuO8
_chemical_formula_sum   'Ca4 Ta4 Cu2 O16'
_cell_volume   342.89649938
_cell_formula_units_Z   2
loop_
 _symmetry_equiv_pos_site_id
 _symmetry_equiv_pos_as_xyz
  1  'x, y, z'
loop_
 _atom_site_type_symbol
 _atom_site_label
 _atom_site_symmetry_multiplicity
 _atom_site_fract_x
 _atom_site_fract_y
 _atom_site_fract_z
 _atom_site_occupancy
  Ca  Ca0  1  0.75616100  0.45782000  0.58598300  1
  Ca  Ca1  1  0.74397300  0.87215800  0.41648900  1
  Ca  Ca2  1  0.24383900  0.54218000  0.41401700  1
  Ca  Ca3  1  0.25602700  0.12784200  0.58351100  1
  Ta  Ta4  1  0.73351700  0.26116300  0.23013900  1
  Ta  Ta5  1  0.76737900  0.02353200  0.76941500  1
  Ta  Ta6  1  0.26648300  0.73883700  0.76986100  1
  Ta  Ta7  1  0.23262100  0.97646800  0.23058500  1
  Cu  Cu8  1  0.74901200  0.69698800  0.99964900  1
  Cu  Cu9  1  0.25098800  0.30301200  0.00035100  1
  O  O10  1  0.06548400  0.19828200  0.14625200  1
  O  O11  1  0.44004900  0.03786900  0.85523200  1
  O  O12  1  0.93451600  0.80171800  0.85374800  1
  O  O13  1  0.55995100  0.96213100  0.14476800  1
  O  O14  1  0.54396000  0.38564600  0.11777200  1
  O  O15  1  0.96351400  0.25488300  0.87955300  1
  O  O16  1  0.45604000  0.61435400  0.88222800  1
  O  O17  1  0.03648600  0.74511700  0.12044700  1
  O  O18  1  0.47618000  0.25086600  0.36973400  1
  O  O19  1  0.02432200  0.87782800  0.63143600  1
  O  O20  1  0.33158100  0.84762100  0.37132400  1
  O  O21  1  0.16751200  0.47294100  0.62899200  1
  O  O22  1  0.66841900  0.15237900  0.62867600  1
  O  O23  1  0.83248800  0.52705900  0.37100800  1
  O  O24  1  0.97567800  0.12217200  0.36856400  1
  O  O25  1  0.52382000  0.74913400  0.63026600  1
