# generated using pymatgen
data_V2ZnO6
_symmetry_space_group_name_H-M   'P 1'
_cell_length_a   5.20730300
_cell_length_b   4.92934900
_cell_length_c   9.47409016
_cell_angle_alpha   58.51035149
_cell_angle_beta   90.00000000
_cell_angle_gamma   90.00000000
_symmetry_Int_Tables_number   1
_chemical_formula_structural   V2ZnO6
_chemical_formula_sum   'V4 Zn2 O12'
_cell_volume   207.37375362
_cell_formula_units_Z   2
loop_
 _symmetry_equiv_pos_site_id
 _symmetry_equiv_pos_as_xyz
  1  'x, y, z'
loop_
 _atom_site_type_symbol
 _atom_site_label
 _atom_site_symmetry_multiplicity
 _atom_site_fract_x
 _atom_site_fract_y
 _atom_site_fract_z
 _atom_site_occupancy
  V  V0  1  0.25016800  0.45384800  0.01653000  1
  V  V1  1  0.73417200  0.95840600  0.04379800  1
  V  V2  1  0.74983200  0.45384800  0.51653000  1
  V  V3  1  0.26582800  0.95840600  0.54379800  1
  Zn  Zn4  1  0.79238600  0.68724200  0.76811200  1
  Zn  Zn5  1  0.20761400  0.68724200  0.26811200  1
  O  O6  1  0.57662600  0.75178000  0.56596000  1
  O  O7  1  0.46714200  0.37433300  0.43760200  1
  O  O8  1  0.01596900  0.30224200  0.93385900  1
  O  O9  1  0.95077000  0.70361800  0.02669200  1
  O  O10  1  0.98403100  0.30224200  0.43385900  1
  O  O11  1  0.04923000  0.70361800  0.52669200  1
  O  O12  1  0.42337400  0.75178000  0.06596000  1
  O  O13  1  0.53285800  0.37433300  0.93760200  1
  O  O14  1  0.73934700  0.13627300  0.71441200  1
  O  O15  1  0.26065300  0.13627300  0.21441200  1
  O  O16  1  0.22147000  0.86954500  0.73860100  1
  O  O17  1  0.77853000  0.86954500  0.23860100  1
