# generated using pymatgen
data_Ta2Zn2WO8
_symmetry_space_group_name_H-M   'P 1'
_cell_length_a   5.34439700
_cell_length_b   5.98332699
_cell_length_c   10.26020830
_cell_angle_alpha   105.03537055
_cell_angle_beta   90.73260925
_cell_angle_gamma   91.18839774
_symmetry_Int_Tables_number   1
_chemical_formula_structural   Ta2Zn2WO8
_chemical_formula_sum   'Ta4 Zn4 W2 O16'
_cell_volume   316.73727334
_cell_formula_units_Z   2
loop_
 _symmetry_equiv_pos_site_id
 _symmetry_equiv_pos_as_xyz
  1  'x, y, z'
loop_
 _atom_site_type_symbol
 _atom_site_label
 _atom_site_symmetry_multiplicity
 _atom_site_fract_x
 _atom_site_fract_y
 _atom_site_fract_z
 _atom_site_occupancy
  Ta  Ta0  1  0.26477300  0.04020400  0.76192000  1
  Ta  Ta1  1  0.19995300  0.24267100  0.24176100  1
  Ta  Ta2  1  0.75815100  0.98587700  0.22841000  1
  Ta  Ta3  1  0.76231100  0.72866900  0.76268900  1
  Zn  Zn4  1  0.22209900  0.85324400  0.41959100  1
  Zn  Zn5  1  0.25960400  0.44458800  0.56394600  1
  Zn  Zn6  1  0.76665500  0.13644500  0.55038600  1
  Zn  Zn7  1  0.70906000  0.56672900  0.42275000  1
  W  W8  1  0.26729600  0.64207300  0.00051400  1
  W  W9  1  0.75802700  0.34525500  0.00320300  1
  O  O10  1  0.93844800  0.04511200  0.86015000  1
  O  O11  1  0.56614100  0.17592300  0.13827200  1
  O  O12  1  0.08717700  0.91935600  0.12972400  1
  O  O13  1  0.43878800  0.81529600  0.85841800  1
  O  O14  1  0.41394500  0.31053200  0.88118500  1
  O  O15  1  0.10510900  0.42620800  0.11995800  1
  O  O16  1  0.61085600  0.67367400  0.11424900  1
  O  O17  1  0.91199700  0.56579200  0.88018200  1
  O  O18  1  0.57397400  0.94111800  0.65235700  1
  O  O19  1  0.91257400  0.29020000  0.37677900  1
  O  O20  1  0.63336400  0.46270900  0.62032900  1
  O  O21  1  0.85338800  0.85071700  0.39042600  1
  O  O22  1  0.34597300  0.54100100  0.39446300  1
  O  O23  1  0.13693900  0.16935600  0.61797200  1
  O  O24  1  0.07262700  0.73061500  0.65469900  1
  O  O25  1  0.42113400  0.07279100  0.35293600  1
