# generated using pymatgen
data_SrCaTi(PO4)2
_symmetry_space_group_name_H-M   'P 1'
_cell_length_a   5.76841600
_cell_length_b   6.85003468
_cell_length_c   9.68405114
_cell_angle_alpha   107.91253218
_cell_angle_beta   105.26838139
_cell_angle_gamma   97.07601690
_symmetry_Int_Tables_number   1
_chemical_formula_structural   SrCaTi(PO4)2
_chemical_formula_sum   'Sr2 Ca2 Ti2 P4 O16'
_cell_volume   342.45429798
_cell_formula_units_Z   2
loop_
 _symmetry_equiv_pos_site_id
 _symmetry_equiv_pos_as_xyz
  1  'x, y, z'
loop_
 _atom_site_type_symbol
 _atom_site_label
 _atom_site_symmetry_multiplicity
 _atom_site_fract_x
 _atom_site_fract_y
 _atom_site_fract_z
 _atom_site_occupancy
  Sr  Sr0  1  0.78662500  0.25847800  0.06012900  1
  Sr  Sr1  1  0.21337500  0.74152200  0.93987100  1
  Ca  Ca2  1  0.66025000  0.23579700  0.66179200  1
  Ca  Ca3  1  0.33975000  0.76420300  0.33820800  1
  Ti  Ti4  1  0.94150500  0.67560900  0.55159700  1
  Ti  Ti5  1  0.05849500  0.32439100  0.44840300  1
  P  P6  1  0.83507200  0.81390700  0.22438000  1
  P  P7  1  0.16492800  0.18609300  0.77562000  1
  P  P8  1  0.43901900  0.26278700  0.29427700  1
  P  P9  1  0.56098100  0.73721300  0.70572300  1
  O  O10  1  0.02945400  0.31491300  0.87967700  1
  O  O11  1  0.55550600  0.71630600  0.16585600  1
  O  O12  1  0.11269400  0.95265900  0.75998100  1
  O  O13  1  0.75225300  0.59148000  0.69748600  1
  O  O14  1  0.44449400  0.28369400  0.83414400  1
  O  O15  1  0.58467000  0.85133700  0.59057600  1
  O  O16  1  0.41533000  0.14866300  0.40942400  1
  O  O17  1  0.61323500  0.88230500  0.87008500  1
  O  O18  1  0.88730600  0.04734100  0.24001900  1
  O  O19  1  0.38676500  0.11769500  0.12991500  1
  O  O20  1  0.97054600  0.68508700  0.12032300  1
  O  O21  1  0.95844200  0.80124000  0.38573100  1
  O  O22  1  0.04155800  0.19876000  0.61426900  1
  O  O23  1  0.70654900  0.40582400  0.35494300  1
  O  O24  1  0.24774700  0.40852000  0.30251400  1
  O  O25  1  0.29345100  0.59417600  0.64505700  1
