# generated using pymatgen
data_CaWO2
_symmetry_space_group_name_H-M   'P 1'
_cell_length_a   3.15978600
_cell_length_b   8.35275928
_cell_length_c   8.52295961
_cell_angle_alpha   87.63434705
_cell_angle_beta   79.58001701
_cell_angle_gamma   79.37402703
_symmetry_Int_Tables_number   1
_chemical_formula_structural   CaWO2
_chemical_formula_sum   'Ca4 W4 O8'
_cell_volume   217.43508678
_cell_formula_units_Z   4
loop_
 _symmetry_equiv_pos_site_id
 _symmetry_equiv_pos_as_xyz
  1  'x, y, z'
loop_
 _atom_site_type_symbol
 _atom_site_label
 _atom_site_symmetry_multiplicity
 _atom_site_fract_x
 _atom_site_fract_y
 _atom_site_fract_z
 _atom_site_occupancy
  Ca  Ca0  1  0.65086000  0.69827500  0.02733700  1
  Ca  Ca1  1  0.39088800  0.27520400  0.95521400  1
  Ca  Ca2  1  0.66679600  0.94922700  0.69502800  1
  Ca  Ca3  1  0.37584200  0.02692900  0.28410600  1
  W  W4  1  0.66216000  0.37795800  0.31703900  1
  W  W5  1  0.02731600  0.64773000  0.37745900  1
  W  W6  1  0.00171400  0.32275400  0.60565300  1
  W  W7  1  0.36150900  0.59428700  0.66307400  1
  O  O8  1  0.88214700  0.47872000  0.81900100  1
  O  O9  1  0.74450900  0.16075600  0.46861300  1
  O  O10  1  0.33089000  0.80234300  0.50378600  1
  O  O11  1  0.17943000  0.49490800  0.16355600  1
  O  O12  1  0.84304600  0.19667000  0.14010800  1
  O  O13  1  0.01094500  0.83086500  0.20317600  1
  O  O14  1  0.19775600  0.77797000  0.83683400  1
  O  O15  1  0.02875000  0.13978500  0.77935300  1
