# generated using pymatgen
data_YNiF5
_symmetry_space_group_name_H-M   'P 1'
_cell_length_a   5.73212414
_cell_length_b   5.73212414
_cell_length_c   5.73212414
_cell_angle_alpha   137.30766005
_cell_angle_beta   105.88113921
_cell_angle_gamma   89.50450744
_symmetry_Int_Tables_number   1
_chemical_formula_structural   YNiF5
_chemical_formula_sum   'Y1 Ni1 F5'
_cell_volume   117.36142077
_cell_formula_units_Z   1
loop_
 _symmetry_equiv_pos_site_id
 _symmetry_equiv_pos_as_xyz
  1  'x, y, z'
loop_
 _atom_site_type_symbol
 _atom_site_label
 _atom_site_symmetry_multiplicity
 _atom_site_fract_x
 _atom_site_fract_y
 _atom_site_fract_z
 _atom_site_occupancy
  Y  Y0  1  0.50000000  0.50000000  0.00000000  1
  Ni  Ni1  1  0.00000000  0.00000000  0.00000000  1
  F  F2  1  0.81714700  0.50000000  0.31714700  1
  F  F3  1  0.18285300  0.50000000  0.68285300  1
  F  F4  1  0.23031600  0.23031600  0.00000000  1
  F  F5  1  0.76968400  0.76968400  0.00000000  1
  F  F6  1  0.50000000  0.00000000  0.50000000  1
