# generated using pymatgen
data_Ca4Ti5(TeO6)3
_symmetry_space_group_name_H-M   'P 1'
_cell_length_a   9.00981004
_cell_length_b   9.00981004
_cell_length_c   11.65198913
_cell_angle_alpha   85.68716652
_cell_angle_beta   85.68716652
_cell_angle_gamma   69.77195491
_symmetry_Int_Tables_number   1
_chemical_formula_structural   Ca4Ti5(TeO6)3
_chemical_formula_sum   'Ca8 Ti10 Te6 O36'
_cell_volume   883.79459812
_cell_formula_units_Z   2
loop_
 _symmetry_equiv_pos_site_id
 _symmetry_equiv_pos_as_xyz
  1  'x, y, z'
loop_
 _atom_site_type_symbol
 _atom_site_label
 _atom_site_symmetry_multiplicity
 _atom_site_fract_x
 _atom_site_fract_y
 _atom_site_fract_z
 _atom_site_occupancy
  Ca  Ca0  1  0.93486100  0.64337500  0.35915400  1
  Ca  Ca1  1  0.27246100  0.62572400  0.53646900  1
  Ca  Ca2  1  0.35662500  0.06513900  0.14084600  1
  Ca  Ca3  1  0.37427600  0.72753900  0.96353100  1
  Ca  Ca4  1  0.62572400  0.27246100  0.03646900  1
  Ca  Ca5  1  0.64337500  0.93486100  0.85915400  1
  Ca  Ca6  1  0.06513900  0.35662500  0.64084600  1
  Ca  Ca7  1  0.72753900  0.37427600  0.46353100  1
  Ti  Ti8  1  0.01402100  0.68913300  0.81487900  1
  Ti  Ti9  1  0.68913300  0.01402100  0.31487900  1
  Ti  Ti10  1  0.45159600  0.87520500  0.42825000  1
  Ti  Ti11  1  0.87520500  0.45159600  0.92825000  1
  Ti  Ti12  1  0.12479500  0.54840400  0.07175000  1
  Ti  Ti13  1  0.87806900  0.12193100  0.75000000  1
  Ti  Ti14  1  0.12193100  0.87806900  0.25000000  1
  Ti  Ti15  1  0.54840400  0.12479500  0.57175000  1
  Ti  Ti16  1  0.98597900  0.31086700  0.18512100  1
  Ti  Ti17  1  0.31086700  0.98597900  0.68512100  1
  Te  Te18  1  0.34994000  0.34295500  0.85174100  1
  Te  Te19  1  0.00000000  0.00000000  0.50000000  1
  Te  Te20  1  0.00000000  0.00000000  0.00000000  1
  Te  Te21  1  0.34295500  0.34994000  0.35174100  1
  Te  Te22  1  0.65006000  0.65704500  0.14825900  1
  Te  Te23  1  0.65704500  0.65006000  0.64825900  1
  O  O24  1  0.44398800  0.15532400  0.94724100  1
  O  O25  1  0.09675100  0.73827600  0.95022300  1
  O  O26  1  0.13210500  0.66167700  0.19166500  1
  O  O27  1  0.07510200  0.10929700  0.23945200  1
  O  O28  1  0.26172400  0.90324900  0.54977700  1
  O  O29  1  0.89070300  0.92489800  0.26054800  1
  O  O30  1  0.47051300  0.34845400  0.48564500  1
  O  O31  1  0.77832400  0.10111300  0.90525900  1
  O  O32  1  0.22167600  0.89888700  0.09474100  1
  O  O33  1  0.65854900  0.81597900  0.34515900  1
  O  O34  1  0.14815000  0.57650000  0.70134800  1
  O  O35  1  0.34145100  0.18402100  0.65484100  1
  O  O36  1  0.90324900  0.26172400  0.04977700  1
  O  O37  1  0.08799800  0.45155900  0.91216900  1
  O  O38  1  0.42350000  0.85185000  0.79865200  1
  O  O39  1  0.52948700  0.65154600  0.51435500  1
  O  O40  1  0.85185000  0.42350000  0.29865200  1
  O  O41  1  0.54844100  0.91200200  0.58783100  1
  O  O42  1  0.33832300  0.86789500  0.30833500  1
  O  O43  1  0.57650000  0.14815000  0.20134800  1
  O  O44  1  0.15532400  0.44398800  0.44724100  1
  O  O45  1  0.91200200  0.54844100  0.08783100  1
  O  O46  1  0.89888700  0.22167600  0.59474100  1
  O  O47  1  0.34845400  0.47051300  0.98564500  1
  O  O48  1  0.86789500  0.33832300  0.80833500  1
  O  O49  1  0.10929700  0.07510200  0.73945200  1
  O  O50  1  0.81597900  0.65854900  0.84515900  1
  O  O51  1  0.65154600  0.52948700  0.01435500  1
  O  O52  1  0.73827600  0.09675100  0.45022300  1
  O  O53  1  0.45155900  0.08799800  0.41216900  1
  O  O54  1  0.55601200  0.84467600  0.05275900  1
  O  O55  1  0.92489800  0.89070300  0.76054800  1
  O  O56  1  0.10111300  0.77832400  0.40525900  1
  O  O57  1  0.18402100  0.34145100  0.15484100  1
  O  O58  1  0.66167700  0.13210500  0.69166500  1
  O  O59  1  0.84467600  0.55601200  0.55275900  1
