# generated using pymatgen
data_Ba2YTlW2O7
_symmetry_space_group_name_H-M   'P 1'
_cell_length_a   4.03778600
_cell_length_b   4.21913400
_cell_length_c   13.13402000
_cell_angle_alpha   90.00000000
_cell_angle_beta   90.00000000
_cell_angle_gamma   90.00000000
_symmetry_Int_Tables_number   1
_chemical_formula_structural   Ba2YTlW2O7
_chemical_formula_sum   'Ba2 Y1 Tl1 W2 O7'
_cell_volume   223.75064195
_cell_formula_units_Z   1
loop_
 _symmetry_equiv_pos_site_id
 _symmetry_equiv_pos_as_xyz
  1  'x, y, z'
loop_
 _atom_site_type_symbol
 _atom_site_label
 _atom_site_symmetry_multiplicity
 _atom_site_fract_x
 _atom_site_fract_y
 _atom_site_fract_z
 _atom_site_occupancy
  Ba  Ba0  1  0.00000000  0.00000000  0.19030200  1
  Ba  Ba1  1  0.00000000  0.00000000  0.80969800  1
  Y  Y2  1  0.00000000  0.00000000  0.50000000  1
  Tl  Tl3  1  0.50000000  0.50000000  0.00000000  1
  W  W4  1  0.50000000  0.50000000  0.37394900  1
  W  W5  1  0.50000000  0.50000000  0.62605100  1
  O  O6  1  0.50000000  0.50000000  0.21768200  1
  O  O7  1  0.00000000  0.50000000  0.38724800  1
  O  O8  1  0.50000000  0.00000000  0.38589700  1
  O  O9  1  0.50000000  0.00000000  0.61410300  1
  O  O10  1  0.00000000  0.00000000  0.00000000  1
  O  O11  1  0.00000000  0.50000000  0.61275200  1
  O  O12  1  0.50000000  0.50000000  0.78231800  1
