# generated using pymatgen
data_MnZnSiO5
_symmetry_space_group_name_H-M   'P 1'
_cell_length_a   5.28509610
_cell_length_b   5.28509610
_cell_length_c   7.08789503
_cell_angle_alpha   73.86541369
_cell_angle_beta   73.86541369
_cell_angle_gamma   101.61269065
_symmetry_Int_Tables_number   1
_chemical_formula_structural   MnZnSiO5
_chemical_formula_sum   'Mn2 Zn2 Si2 O10'
_cell_volume   174.17127882
_cell_formula_units_Z   2
loop_
 _symmetry_equiv_pos_site_id
 _symmetry_equiv_pos_as_xyz
  1  'x, y, z'
loop_
 _atom_site_type_symbol
 _atom_site_label
 _atom_site_symmetry_multiplicity
 _atom_site_fract_x
 _atom_site_fract_y
 _atom_site_fract_z
 _atom_site_occupancy
  Mn  Mn0  1  0.50000000  0.50000000  0.50000000  1
  Mn  Mn1  1  0.50000000  0.50000000  0.00000000  1
  Zn  Zn2  1  0.83310000  0.16690000  0.75000000  1
  Zn  Zn3  1  0.16690000  0.83310000  0.25000000  1
  Si  Si4  1  0.17914500  0.82085500  0.75000000  1
  Si  Si5  1  0.82085500  0.17914500  0.25000000  1
  O  O6  1  0.38607100  0.80378300  0.88355200  1
  O  O7  1  0.19621700  0.61392900  0.61644800  1
  O  O8  1  0.61392900  0.19621700  0.11644800  1
  O  O9  1  0.80378300  0.38607100  0.38355200  1
  O  O10  1  0.77528200  0.85273000  0.40721300  1
  O  O11  1  0.14727000  0.22471800  0.09278700  1
  O  O12  1  0.22471800  0.14727000  0.59278700  1
  O  O13  1  0.85273000  0.77528200  0.90721300  1
  O  O14  1  0.41439100  0.58560900  0.25000000  1
  O  O15  1  0.58560900  0.41439100  0.75000000  1
