# generated using pymatgen
data_CaNiF5
_symmetry_space_group_name_H-M   'P 1'
_cell_length_a   5.48167438
_cell_length_b   5.48167438
_cell_length_c   7.73568845
_cell_angle_alpha   69.29382363
_cell_angle_beta   69.29382363
_cell_angle_gamma   70.67974723
_symmetry_Int_Tables_number   1
_chemical_formula_structural   CaNiF5
_chemical_formula_sum   'Ca2 Ni2 F10'
_cell_volume   197.68048994
_cell_formula_units_Z   2
loop_
 _symmetry_equiv_pos_site_id
 _symmetry_equiv_pos_as_xyz
  1  'x, y, z'
loop_
 _atom_site_type_symbol
 _atom_site_label
 _atom_site_symmetry_multiplicity
 _atom_site_fract_x
 _atom_site_fract_y
 _atom_site_fract_z
 _atom_site_occupancy
  Ca  Ca0  1  0.54922800  0.45077200  0.25000000  1
  Ca  Ca1  1  0.45077200  0.54922800  0.75000000  1
  Ni  Ni2  1  0.00000000  0.00000000  0.50000000  1
  Ni  Ni3  1  0.00000000  0.00000000  0.00000000  1
  F  F4  1  0.08499500  0.91500500  0.75000000  1
  F  F5  1  0.91500500  0.08499500  0.25000000  1
  F  F6  1  0.20775300  0.23669400  0.89132400  1
  F  F7  1  0.76330600  0.79224700  0.60867600  1
  F  F8  1  0.71831400  0.29835800  0.53170200  1
  F  F9  1  0.70164200  0.28168600  0.96829800  1
  F  F10  1  0.28168600  0.70164200  0.46829800  1
  F  F11  1  0.29835800  0.71831400  0.03170200  1
  F  F12  1  0.23669400  0.20775300  0.39132400  1
  F  F13  1  0.79224700  0.76330600  0.10867600  1
