# generated using pymatgen
data_Mg4Fe5(TeO6)3
_symmetry_space_group_name_H-M   'P 1'
_cell_length_a   8.73255991
_cell_length_b   8.73255991
_cell_length_c   10.67856115
_cell_angle_alpha   84.82941252
_cell_angle_beta   84.82941252
_cell_angle_gamma   63.24252261
_symmetry_Int_Tables_number   1
_chemical_formula_structural   Mg4Fe5(TeO6)3
_chemical_formula_sum   'Mg8 Fe10 Te6 O36'
_cell_volume   723.04039886
_cell_formula_units_Z   2
loop_
 _symmetry_equiv_pos_site_id
 _symmetry_equiv_pos_as_xyz
  1  'x, y, z'
loop_
 _atom_site_type_symbol
 _atom_site_label
 _atom_site_symmetry_multiplicity
 _atom_site_fract_x
 _atom_site_fract_y
 _atom_site_fract_z
 _atom_site_occupancy
  Mg  Mg0  1  0.12792600  0.45204500  0.67396200  1
  Mg  Mg1  1  0.52147000  0.43941300  0.77565600  1
  Mg  Mg2  1  0.54795500  0.87207400  0.32603800  1
  Mg  Mg3  1  0.56058700  0.47853000  0.22434400  1
  Mg  Mg4  1  0.82452100  0.12098400  0.28476500  1
  Mg  Mg5  1  0.85026700  0.75046400  0.16756600  1
  Mg  Mg6  1  0.24953600  0.14973300  0.83243400  1
  Mg  Mg7  1  0.87901600  0.17547900  0.71523500  1
  Fe  Fe8  1  0.21043000  0.50767200  0.02090800  1
  Fe  Fe9  1  0.90423100  0.81235500  0.52404100  1
  Fe  Fe10  1  0.66913200  0.66856700  0.69963400  1
  Fe  Fe11  1  0.05257600  0.27432200  0.19373100  1
  Fe  Fe12  1  0.33143300  0.33086800  0.30036600  1
  Fe  Fe13  1  0.02019400  0.97980600  0.00000000  1
  Fe  Fe14  1  0.37813300  0.62186700  0.50000000  1
  Fe  Fe15  1  0.72567800  0.94742400  0.80626900  1
  Fe  Fe16  1  0.18764500  0.09576900  0.47595900  1
  Fe  Fe17  1  0.49232800  0.78957000  0.97909200  1
  Te  Te18  1  0.53609100  0.13736600  0.04884900  1
  Te  Te19  1  0.19283700  0.80459900  0.74401100  1
  Te  Te20  1  0.19540100  0.80716300  0.25598900  1
  Te  Te21  1  0.53357300  0.14841200  0.56060100  1
  Te  Te22  1  0.85158800  0.46642700  0.43939900  1
  Te  Te23  1  0.86263400  0.46390900  0.95115100  1
  O  O24  1  0.59961000  0.91174900  0.13846800  1
  O  O25  1  0.29471100  0.53571700  0.17601200  1
  O  O26  1  0.44180900  0.41073200  0.40737700  1
  O  O27  1  0.27820300  0.87100300  0.56546700  1
  O  O28  1  0.46428300  0.70528900  0.82398800  1
  O  O29  1  0.12899700  0.72179700  0.43453300  1
  O  O30  1  0.63914100  0.19625300  0.70992600  1
  O  O31  1  0.94531200  0.91903500  0.17179700  1
  O  O32  1  0.44616100  0.70990100  0.32468800  1
  O  O33  1  0.90526600  0.59633000  0.60158900  1
  O  O34  1  0.43937400  0.35522500  0.94367000  1
  O  O35  1  0.47234800  0.02881700  0.91679400  1
  O  O36  1  0.10649100  0.04797800  0.31732400  1
  O  O37  1  0.30042100  0.23712700  0.12937600  1
  O  O38  1  0.64477500  0.56062600  0.05633000  1
  O  O39  1  0.77380200  0.40558700  0.81059600  1
  O  O40  1  0.97492700  0.23342500  0.55715900  1
  O  O41  1  0.76287300  0.69957900  0.87062400  1
  O  O42  1  0.58926800  0.55819100  0.59262300  1
  O  O43  1  0.76657500  0.02507300  0.44284100  1
  O  O44  1  0.29415300  0.20650200  0.65271400  1
  O  O45  1  0.09362100  0.37140200  0.36216200  1
  O  O46  1  0.08096500  0.05468800  0.82820300  1
  O  O47  1  0.59441300  0.22619800  0.18940400  1
  O  O48  1  0.94454400  0.24009600  0.04095400  1
  O  O49  1  0.26470100  0.89169200  0.06337300  1
  O  O50  1  0.97118300  0.52765200  0.08320600  1
  O  O51  1  0.80374700  0.36085900  0.29007400  1
  O  O52  1  0.95202200  0.89350900  0.68267600  1
  O  O53  1  0.62859800  0.90637900  0.63783800  1
  O  O54  1  0.79349800  0.70584700  0.34728600  1
  O  O55  1  0.10830800  0.73529900  0.93662700  1
  O  O56  1  0.29009900  0.55383900  0.67531200  1
  O  O57  1  0.40367000  0.09473400  0.39841100  1
  O  O58  1  0.75990400  0.05545600  0.95904600  1
  O  O59  1  0.08825100  0.40039000  0.86153200  1
