# generated using pymatgen
data_TaF5
_symmetry_space_group_name_H-M   'P 1'
_cell_length_a   10.08657100
_cell_length_b   5.53967100
_cell_length_c   7.94366079
_cell_angle_alpha   69.06665542
_cell_angle_beta   90.00000000
_cell_angle_gamma   90.00000000
_symmetry_Int_Tables_number   1
_chemical_formula_structural   TaF5
_chemical_formula_sum   'Ta4 F20'
_cell_volume   414.56588169
_cell_formula_units_Z   4
loop_
 _symmetry_equiv_pos_site_id
 _symmetry_equiv_pos_as_xyz
  1  'x, y, z'
loop_
 _atom_site_type_symbol
 _atom_site_label
 _atom_site_symmetry_multiplicity
 _atom_site_fract_x
 _atom_site_fract_y
 _atom_site_fract_z
 _atom_site_occupancy
  Ta  Ta0  1  0.75134800  0.11832900  0.59821900  1
  Ta  Ta1  1  0.25134800  0.88167100  0.90178100  1
  Ta  Ta2  1  0.24865200  0.88167100  0.40178100  1
  Ta  Ta3  1  0.74865200  0.11832900  0.09821900  1
  F  F4  1  0.86844300  0.39602500  0.56984000  1
  F  F5  1  0.36844300  0.60397500  0.93016000  1
  F  F6  1  0.13155700  0.60397500  0.43016000  1
  F  F7  1  0.63155700  0.39602500  0.06984000  1
  F  F8  1  0.61672400  0.35629000  0.48561000  1
  F  F9  1  0.11672400  0.64371000  0.01439000  1
  F  F10  1  0.38327600  0.64371000  0.51439000  1
  F  F11  1  0.88327600  0.35629000  0.98561000  1
  F  F12  1  0.39084200  0.11455200  0.79834100  1
  F  F13  1  0.89084200  0.88544800  0.70165900  1
  F  F14  1  0.60915800  0.88544800  0.20165900  1
  F  F15  1  0.10915800  0.11455200  0.29834100  1
  F  F16  1  0.13638600  0.16207300  0.87326900  1
  F  F17  1  0.63638600  0.83792700  0.62673100  1
  F  F18  1  0.86361400  0.83792700  0.12673100  1
  F  F19  1  0.36361400  0.16207300  0.37326900  1
  F  F20  1  0.69823400  0.11706300  0.84667600  1
  F  F21  1  0.19823400  0.88293700  0.65332400  1
  F  F22  1  0.30176600  0.88293700  0.15332400  1
  F  F23  1  0.80176600  0.11706300  0.34667600  1
