# generated using pymatgen
data_MgMo3O8
_symmetry_space_group_name_H-M   'P 1'
_cell_length_a   6.23001262
_cell_length_b   6.23001262
_cell_length_c   9.42914400
_cell_angle_alpha   90.00000000
_cell_angle_beta   90.00000000
_cell_angle_gamma   119.90676690
_symmetry_Int_Tables_number   1
_chemical_formula_structural   MgMo3O8
_chemical_formula_sum   'Mg2 Mo6 O16'
_cell_volume   317.24004051
_cell_formula_units_Z   2
loop_
 _symmetry_equiv_pos_site_id
 _symmetry_equiv_pos_as_xyz
  1  'x, y, z'
loop_
 _atom_site_type_symbol
 _atom_site_label
 _atom_site_symmetry_multiplicity
 _atom_site_fract_x
 _atom_site_fract_y
 _atom_site_fract_z
 _atom_site_occupancy
  Mg  Mg0  1  0.33674000  0.66326000  0.53162100  1
  Mg  Mg1  1  0.66326000  0.33674000  0.03162100  1
  Mo  Mo2  1  0.16581100  0.83418900  0.23945100  1
  Mo  Mo3  1  0.16455300  0.33862400  0.24510000  1
  Mo  Mo4  1  0.66137600  0.83544700  0.24510000  1
  Mo  Mo5  1  0.83418900  0.16581100  0.73945100  1
  Mo  Mo6  1  0.83544700  0.66137600  0.74510000  1
  Mo  Mo7  1  0.33862400  0.16455300  0.74510000  1
  O  O8  1  0.99405800  0.00594200  0.34792200  1
  O  O9  1  0.00594200  0.99405800  0.84792200  1
  O  O10  1  0.34042400  0.65957600  0.12743400  1
  O  O11  1  0.65957600  0.34042400  0.62743400  1
  O  O12  1  0.47212000  0.52788000  0.36492100  1
  O  O13  1  0.48124900  0.94416600  0.36237100  1
  O  O14  1  0.05583400  0.51875100  0.36237100  1
  O  O15  1  0.52788000  0.47212000  0.86492100  1
  O  O16  1  0.51875100  0.05583400  0.86237100  1
  O  O17  1  0.94416600  0.48124900  0.86237100  1
  O  O18  1  0.16714600  0.83285400  0.64020800  1
  O  O19  1  0.17217000  0.32636500  0.64475000  1
  O  O20  1  0.67363500  0.82783000  0.64475000  1
  O  O21  1  0.83285400  0.16714600  0.14020800  1
  O  O22  1  0.82783000  0.67363500  0.14475000  1
  O  O23  1  0.32636500  0.17217000  0.14475000  1
