# generated using pymatgen
data_Sr2CoSO3
_symmetry_space_group_name_H-M   'P 1'
_cell_length_a   4.03002300
_cell_length_b   4.03002300
_cell_length_c   14.35390600
_cell_angle_alpha   90.00000000
_cell_angle_beta   90.00000000
_cell_angle_gamma   90.00000000
_symmetry_Int_Tables_number   1
_chemical_formula_structural   Sr2CoSO3
_chemical_formula_sum   'Sr4 Co2 S2 O6'
_cell_volume   233.12301289
_cell_formula_units_Z   2
loop_
 _symmetry_equiv_pos_site_id
 _symmetry_equiv_pos_as_xyz
  1  'x, y, z'
loop_
 _atom_site_type_symbol
 _atom_site_label
 _atom_site_symmetry_multiplicity
 _atom_site_fract_x
 _atom_site_fract_y
 _atom_site_fract_z
 _atom_site_occupancy
  Sr  Sr0  1  0.50000000  0.00000000  0.16601700  1
  Sr  Sr1  1  0.00000000  0.50000000  0.83398300  1
  Sr  Sr2  1  0.50000000  0.00000000  0.40358500  1
  Sr  Sr3  1  0.00000000  0.50000000  0.59641500  1
  Co  Co4  1  0.00000000  0.50000000  0.29297100  1
  Co  Co5  1  0.50000000  0.00000000  0.70702900  1
  S  S6  1  0.00000000  0.50000000  0.11948900  1
  S  S7  1  0.50000000  0.00000000  0.88051100  1
  O  O8  1  0.50000000  0.50000000  0.28699500  1
  O  O9  1  0.00000000  0.00000000  0.28699500  1
  O  O10  1  0.00000000  0.00000000  0.71300500  1
  O  O11  1  0.50000000  0.50000000  0.71300500  1
  O  O12  1  0.00000000  0.50000000  0.42320100  1
  O  O13  1  0.50000000  0.00000000  0.57679900  1
