# generated using pymatgen
data_Ba2AlTlCo2O7
_symmetry_space_group_name_H-M   'P 1'
_cell_length_a   4.04302500
_cell_length_b   4.26710351
_cell_length_c   11.55869478
_cell_angle_alpha   89.57168662
_cell_angle_beta   81.28660392
_cell_angle_gamma   89.81805946
_symmetry_Int_Tables_number   1
_chemical_formula_structural   Ba2AlTlCo2O7
_chemical_formula_sum   'Ba2 Al1 Tl1 Co2 O7'
_cell_volume   197.10324590
_cell_formula_units_Z   1
loop_
 _symmetry_equiv_pos_site_id
 _symmetry_equiv_pos_as_xyz
  1  'x, y, z'
loop_
 _atom_site_type_symbol
 _atom_site_label
 _atom_site_symmetry_multiplicity
 _atom_site_fract_x
 _atom_site_fract_y
 _atom_site_fract_z
 _atom_site_occupancy
  Ba  Ba0  1  0.39244600  0.51730000  0.22241900  1
  Ba  Ba1  1  0.60726500  0.52033700  0.77726400  1
  Al  Al2  1  0.50361700  0.37173500  0.50048300  1
  Tl  Tl3  1  0.00063200  0.08128000  0.00034700  1
  Co  Co4  1  0.86469500  0.98928800  0.37435600  1
  Co  Co5  1  0.13402700  0.98731200  0.61746600  1
  O  O6  1  0.92530400  0.98261400  0.18671400  1
  O  O7  1  0.80221900  0.53060600  0.38735600  1
  O  O8  1  0.33007200  0.08112100  0.41120000  1
  O  O9  1  0.66406800  0.07976600  0.59437400  1
  O  O10  1  0.49915400  0.34802100  0.00154900  1
  O  O11  1  0.19739700  0.52874000  0.61011700  1
  O  O12  1  0.07910000  0.98187600  0.81635400  1
