# generated using pymatgen
data_Ca4Cr5(TeO6)3
_symmetry_space_group_name_H-M   'P 1'
_cell_length_a   9.06030697
_cell_length_b   9.06030697
_cell_length_c   10.92120632
_cell_angle_alpha   82.20669098
_cell_angle_beta   82.20669098
_cell_angle_gamma   67.41321385
_symmetry_Int_Tables_number   1
_chemical_formula_structural   Ca4Cr5(TeO6)3
_chemical_formula_sum   'Ca8 Cr10 Te6 O36'
_cell_volume   816.67854795
_cell_formula_units_Z   2
loop_
 _symmetry_equiv_pos_site_id
 _symmetry_equiv_pos_as_xyz
  1  'x, y, z'
loop_
 _atom_site_type_symbol
 _atom_site_label
 _atom_site_symmetry_multiplicity
 _atom_site_fract_x
 _atom_site_fract_y
 _atom_site_fract_z
 _atom_site_occupancy
  Ca  Ca0  1  0.57569700  0.86204500  0.38818100  1
  Ca  Ca1  1  0.55255500  0.51889100  0.23949100  1
  Ca  Ca2  1  0.13795500  0.42430300  0.61181900  1
  Ca  Ca3  1  0.48110900  0.44744500  0.76050900  1
  Ca  Ca4  1  0.89101300  0.18031900  0.74414200  1
  Ca  Ca5  1  0.24967200  0.15997700  0.89536200  1
  Ca  Ca6  1  0.84002300  0.75032800  0.10463800  1
  Ca  Ca7  1  0.81968100  0.10898700  0.25585800  1
  Cr  Cr8  1  0.48071900  0.79233500  0.95471900  1
  Cr  Cr9  1  0.17385600  0.10877900  0.46562600  1
  Cr  Cr10  1  0.33616000  0.32979500  0.30796300  1
  Cr  Cr11  1  0.73660000  0.93461900  0.81124700  1
  Cr  Cr12  1  0.67020500  0.66384000  0.69203700  1
  Cr  Cr13  1  0.04906700  0.95093300  0.00000000  1
  Cr  Cr14  1  0.34355800  0.65644200  0.50000000  1
  Cr  Cr15  1  0.06538100  0.26340000  0.18875300  1
  Cr  Cr16  1  0.89122100  0.82614400  0.53437400  1
  Cr  Cr17  1  0.20766500  0.51928100  0.04528100  1
  Te  Te18  1  0.85595000  0.46700000  0.92057800  1
  Te  Te19  1  0.18795100  0.82363300  0.25963900  1
  Te  Te20  1  0.17636700  0.81204900  0.74036100  1
  Te  Te21  1  0.85795200  0.45979100  0.41991100  1
  Te  Te22  1  0.54020900  0.14204800  0.58008900  1
  Te  Te23  1  0.53300000  0.14405000  0.07942200  1
  O  O24  1  0.04608200  0.38365400  0.81687900  1
  O  O25  1  0.46980200  0.71344000  0.81105700  1
  O  O26  1  0.56343800  0.60828500  0.56538800  1
  O  O27  1  0.11067300  0.75096300  0.42732200  1
  O  O28  1  0.28656000  0.53019800  0.18894300  1
  O  O29  1  0.24903700  0.88932700  0.57267800  1
  O  O30  1  0.83450400  0.34965200  0.27646300  1
  O  O31  1  0.11594000  0.01971700  0.82419600  1
  O  O32  1  0.25202100  0.58803300  0.66035700  1
  O  O33  1  0.38592300  0.11997700  0.42765800  1
  O  O34  1  0.60674200  0.65333400  0.06193000  1
  O  O35  1  0.02405600  0.47352200  0.08641400  1
  O  O36  1  0.94973600  0.89052300  0.69337000  1
  O  O37  1  0.78996300  0.69104800  0.83906000  1
  O  O38  1  0.34666600  0.39325800  0.93807000  1
  O  O39  1  0.56025700  0.26514400  0.21066500  1
  O  O40  1  0.76485900  0.97397700  0.42368500  1
  O  O41  1  0.30895200  0.21003700  0.16094000  1
  O  O42  1  0.39171500  0.43656200  0.43461200  1
  O  O43  1  0.02602300  0.23514100  0.57631500  1
  O  O44  1  0.79949200  0.65118800  0.31402000  1
  O  O45  1  0.65124200  0.89999400  0.64563500  1
  O  O46  1  0.98028300  0.88406000  0.17580400  1
  O  O47  1  0.73485600  0.43974300  0.78933500  1
  O  O48  1  0.82140600  0.99457100  0.94750000  1
  O  O49  1  0.09690800  0.71837700  0.97262500  1
  O  O50  1  0.52647800  0.97594400  0.91358600  1
  O  O51  1  0.65034800  0.16549600  0.72353700  1
  O  O52  1  0.10947700  0.05026400  0.30663000  1
  O  O53  1  0.10000600  0.34875800  0.35436500  1
  O  O54  1  0.34881200  0.20050800  0.68598000  1
  O  O55  1  0.28162300  0.90309200  0.02737500  1
  O  O56  1  0.41196700  0.74797900  0.33964300  1
  O  O57  1  0.88002300  0.61407700  0.57234200  1
  O  O58  1  0.00542900  0.17859400  0.05250000  1
  O  O59  1  0.61634600  0.95391800  0.18312100  1
