# generated using pymatgen
data_Mg4Mn5(TeO6)3
_symmetry_space_group_name_H-M   'P 1'
_cell_length_a   8.89701117
_cell_length_b   8.89701117
_cell_length_c   10.71589040
_cell_angle_alpha   87.28404914
_cell_angle_beta   87.28404914
_cell_angle_gamma   61.01685500
_symmetry_Int_Tables_number   1
_chemical_formula_structural   Mg4Mn5(TeO6)3
_chemical_formula_sum   'Mg8 Mn10 Te6 O36'
_cell_volume   740.88149562
_cell_formula_units_Z   2
loop_
 _symmetry_equiv_pos_site_id
 _symmetry_equiv_pos_as_xyz
  1  'x, y, z'
loop_
 _atom_site_type_symbol
 _atom_site_label
 _atom_site_symmetry_multiplicity
 _atom_site_fract_x
 _atom_site_fract_y
 _atom_site_fract_z
 _atom_site_occupancy
  Mg  Mg0  1  0.93386400  0.65627100  0.42756500  1
  Mg  Mg1  1  0.32133100  0.62681700  0.55016300  1
  Mg  Mg2  1  0.34372900  0.06613600  0.07243500  1
  Mg  Mg3  1  0.37318300  0.67866900  0.94983700  1
  Mg  Mg4  1  0.62681700  0.32133100  0.05016300  1
  Mg  Mg5  1  0.65627100  0.93386400  0.92756500  1
  Mg  Mg6  1  0.06613600  0.34372900  0.57243500  1
  Mg  Mg7  1  0.67866900  0.37318300  0.44983700  1
  Mn  Mn8  1  0.00323300  0.71535500  0.76002100  1
  Mn  Mn9  1  0.71535500  0.00323300  0.26002100  1
  Mn  Mn10  1  0.45073700  0.87636300  0.44183800  1
  Mn  Mn11  1  0.87636300  0.45073700  0.94183800  1
  Mn  Mn12  1  0.12363700  0.54926300  0.05816200  1
  Mn  Mn13  1  0.81049000  0.18951000  0.75000000  1
  Mn  Mn14  1  0.18951000  0.81049000  0.25000000  1
  Mn  Mn15  1  0.54926300  0.12363700  0.55816200  1
  Mn  Mn16  1  0.99676700  0.28464500  0.23997900  1
  Mn  Mn17  1  0.28464500  0.99676700  0.73997900  1
  Te  Te18  1  0.34008600  0.33531300  0.80568200  1
  Te  Te19  1  0.00000000  0.00000000  0.50000000  1
  Te  Te20  1  0.00000000  0.00000000  0.00000000  1
  Te  Te21  1  0.33531300  0.34008600  0.30568200  1
  Te  Te22  1  0.65991400  0.66468700  0.19431800  1
  Te  Te23  1  0.66468700  0.65991400  0.69431800  1
  O  O24  1  0.41181900  0.11482900  0.89974900  1
  O  O25  1  0.09746400  0.76726400  0.93346400  1
  O  O26  1  0.24222300  0.55813800  0.21661200  1
  O  O27  1  0.08790400  0.04928200  0.34318700  1
  O  O28  1  0.23273600  0.90253600  0.56653600  1
  O  O29  1  0.95071800  0.91209600  0.15681300  1
  O  O30  1  0.42970100  0.41447300  0.43810600  1
  O  O31  1  0.76535400  0.08244500  0.94395700  1
  O  O32  1  0.23464600  0.91755500  0.05604300  1
  O  O33  1  0.72861900  0.76959400  0.32588600  1
  O  O34  1  0.24955800  0.54511000  0.70244300  1
  O  O35  1  0.27138100  0.23040600  0.67411400  1
  O  O36  1  0.90253600  0.23273600  0.06653600  1
  O  O37  1  0.11490900  0.43448400  0.89004400  1
  O  O38  1  0.45489000  0.75044200  0.79755700  1
  O  O39  1  0.57029900  0.58552700  0.56189400  1
  O  O40  1  0.75044200  0.45489000  0.29755700  1
  O  O41  1  0.56551600  0.88509100  0.60995600  1
  O  O42  1  0.44186200  0.75777700  0.28338800  1
  O  O43  1  0.54511000  0.24955800  0.20244300  1
  O  O44  1  0.11482900  0.41181900  0.39974900  1
  O  O45  1  0.88509100  0.56551600  0.10995600  1
  O  O46  1  0.91755500  0.23464600  0.55604300  1
  O  O47  1  0.41447300  0.42970100  0.93810600  1
  O  O48  1  0.75777700  0.44186200  0.78338800  1
  O  O49  1  0.04928200  0.08790400  0.84318700  1
  O  O50  1  0.76959400  0.72861900  0.82588600  1
  O  O51  1  0.58552700  0.57029900  0.06189400  1
  O  O52  1  0.76726400  0.09746400  0.43346400  1
  O  O53  1  0.43448400  0.11490900  0.39004400  1
  O  O54  1  0.58818100  0.88517100  0.10025100  1
  O  O55  1  0.91209600  0.95071800  0.65681300  1
  O  O56  1  0.08244500  0.76535400  0.44395700  1
  O  O57  1  0.23040600  0.27138100  0.17411400  1
  O  O58  1  0.55813800  0.24222300  0.71661200  1
  O  O59  1  0.88517100  0.58818100  0.60025100  1
