# generated using pymatgen
data_ZnCrSF5
_symmetry_space_group_name_H-M   'P 1'
_cell_length_a   6.01328200
_cell_length_b   6.17909339
_cell_length_c   7.34068705
_cell_angle_alpha   78.70673392
_cell_angle_beta   73.52247257
_cell_angle_gamma   73.78530409
_symmetry_Int_Tables_number   1
_chemical_formula_structural   ZnCrSF5
_chemical_formula_sum   'Zn2 Cr2 S2 F10'
_cell_volume   249.12662890
_cell_formula_units_Z   2
loop_
 _symmetry_equiv_pos_site_id
 _symmetry_equiv_pos_as_xyz
  1  'x, y, z'
loop_
 _atom_site_type_symbol
 _atom_site_label
 _atom_site_symmetry_multiplicity
 _atom_site_fract_x
 _atom_site_fract_y
 _atom_site_fract_z
 _atom_site_occupancy
  Zn  Zn0  1  0.54629100  0.32464100  0.84323500  1
  Zn  Zn1  1  0.25994600  0.00015000  0.32923300  1
  Cr  Cr2  1  0.00705600  0.48781700  0.48924200  1
  Cr  Cr3  1  0.98407900  0.48611300  0.00103300  1
  S  S4  1  0.47141200  0.03797300  0.70605700  1
  S  S5  1  0.56661500  0.09679400  0.43222300  1
  F  F6  1  0.21867100  0.16857300  0.07694100  1
  F  F7  1  0.01699600  0.16820200  0.54389100  1
  F  F8  1  0.77627200  0.77065200  0.97184700  1
  F  F9  1  0.04402600  0.79823300  0.39253300  1
  F  F10  1  0.34026100  0.39891500  0.34247600  1
  F  F11  1  0.75475700  0.31025000  0.00808500  1
  F  F12  1  0.68041700  0.55180700  0.63578900  1
  F  F13  1  0.27872300  0.57694800  0.96513500  1
  F  F14  1  0.87581300  0.49440800  0.27544400  1
  F  F15  1  0.11068100  0.47776000  0.71970300  1
