# generated using pymatgen
data_Mn5(TeO6)3
_symmetry_space_group_name_H-M   'P 1'
_cell_length_a   8.42183225
_cell_length_b   8.42183225
_cell_length_c   10.42451488
_cell_angle_alpha   83.88298780
_cell_angle_beta   83.88298780
_cell_angle_gamma   61.88943512
_symmetry_Int_Tables_number   1
_chemical_formula_structural   Mn5(TeO6)3
_chemical_formula_sum   'Mn10 Te6 O36'
_cell_volume   647.11158592
_cell_formula_units_Z   2
loop_
 _symmetry_equiv_pos_site_id
 _symmetry_equiv_pos_as_xyz
  1  'x, y, z'
loop_
 _atom_site_type_symbol
 _atom_site_label
 _atom_site_symmetry_multiplicity
 _atom_site_fract_x
 _atom_site_fract_y
 _atom_site_fract_z
 _atom_site_occupancy
  Mn  Mn0  1  0.00026200  0.68324900  0.77116000  1
  Mn  Mn1  1  0.68324900  0.00026200  0.27116000  1
  Mn  Mn2  1  0.47974700  0.83106900  0.46306000  1
  Mn  Mn3  1  0.83106900  0.47974700  0.96306000  1
  Mn  Mn4  1  0.16893100  0.52025300  0.03694000  1
  Mn  Mn5  1  0.83176600  0.16823400  0.75000000  1
  Mn  Mn6  1  0.16823400  0.83176600  0.25000000  1
  Mn  Mn7  1  0.52025300  0.16893100  0.53694000  1
  Mn  Mn8  1  0.99973800  0.31675100  0.22884000  1
  Mn  Mn9  1  0.31675100  0.99973800  0.72884000  1
  Te  Te10  1  0.34576100  0.32839000  0.79053900  1
  Te  Te11  1  0.00000000  0.00000000  0.50000000  1
  Te  Te12  1  0.00000000  0.00000000  0.00000000  1
  Te  Te13  1  0.32839000  0.34576100  0.29053900  1
  Te  Te14  1  0.65423900  0.67161000  0.20946100  1
  Te  Te15  1  0.67161000  0.65423900  0.70946100  1
  O  O16  1  0.38816600  0.09046000  0.85898500  1
  O  O17  1  0.06598000  0.75349000  0.93896300  1
  O  O18  1  0.24494100  0.57743400  0.19022100  1
  O  O19  1  0.06658200  0.08395300  0.32592400  1
  O  O20  1  0.24651000  0.93402000  0.56103700  1
  O  O21  1  0.91604700  0.93341800  0.17407600  1
  O  O22  1  0.39922100  0.40302800  0.43736100  1
  O  O23  1  0.77960500  0.09289000  0.92014500  1
  O  O24  1  0.22039500  0.90711000  0.07985500  1
  O  O25  1  0.71467700  0.76444600  0.35981100  1
  O  O26  1  0.24030100  0.56487300  0.70241000  1
  O  O27  1  0.28532300  0.23555400  0.64018900  1
  O  O28  1  0.93402000  0.24651000  0.06103700  1
  O  O29  1  0.08430500  0.45231600  0.88287600  1
  O  O30  1  0.43512700  0.75969900  0.79759000  1
  O  O31  1  0.60077900  0.59697200  0.56263900  1
  O  O32  1  0.75969900  0.43512700  0.29759000  1
  O  O33  1  0.54768400  0.91569500  0.61712400  1
  O  O34  1  0.42256600  0.75505900  0.30977900  1
  O  O35  1  0.56487300  0.24030100  0.20241000  1
  O  O36  1  0.09046000  0.38816600  0.35898500  1
  O  O37  1  0.91569500  0.54768400  0.11712400  1
  O  O38  1  0.90711000  0.22039500  0.57985500  1
  O  O39  1  0.40302800  0.39922100  0.93736100  1
  O  O40  1  0.75505900  0.42256600  0.80977900  1
  O  O41  1  0.08395300  0.06658200  0.82592400  1
  O  O42  1  0.76444600  0.71467700  0.85981100  1
  O  O43  1  0.59697200  0.60077900  0.06263900  1
  O  O44  1  0.75349000  0.06598000  0.43896300  1
  O  O45  1  0.45231600  0.08430500  0.38287600  1
  O  O46  1  0.61183400  0.90954000  0.14101500  1
  O  O47  1  0.93341800  0.91604700  0.67407600  1
  O  O48  1  0.09289000  0.77960500  0.42014500  1
  O  O49  1  0.23555400  0.28532300  0.14018900  1
  O  O50  1  0.57743400  0.24494100  0.69022100  1
  O  O51  1  0.90954000  0.61183400  0.64101500  1
