# generated using pymatgen
data_Sr3Fe2S2O5
_symmetry_space_group_name_H-M   'P 1'
_cell_length_a   4.02076900
_cell_length_b   4.02076900
_cell_length_c   11.95253452
_cell_angle_alpha   99.68302262
_cell_angle_beta   99.68302262
_cell_angle_gamma   90.00000000
_symmetry_Int_Tables_number   1
_chemical_formula_structural   Sr3Fe2S2O5
_chemical_formula_sum   'Sr3 Fe2 S2 O5'
_cell_volume   187.68546442
_cell_formula_units_Z   1
loop_
 _symmetry_equiv_pos_site_id
 _symmetry_equiv_pos_as_xyz
  1  'x, y, z'
loop_
 _atom_site_type_symbol
 _atom_site_label
 _atom_site_symmetry_multiplicity
 _atom_site_fract_x
 _atom_site_fract_y
 _atom_site_fract_z
 _atom_site_occupancy
  Sr  Sr0  1  0.50000000  0.50000000  0.00000000  1
  Sr  Sr1  1  0.65883900  0.65883900  0.31767700  1
  Sr  Sr2  1  0.34116100  0.34116100  0.68232300  1
  Fe  Fe3  1  0.08259700  0.08259700  0.16519400  1
  Fe  Fe4  1  0.91740300  0.91740300  0.83480600  1
  S  S5  1  0.19134800  0.19134800  0.38269500  1
  S  S6  1  0.80865200  0.80865200  0.61730500  1
  O  O7  1  0.08455000  0.58455000  0.16909900  1
  O  O8  1  0.58455000  0.08455000  0.16909900  1
  O  O9  1  0.91545000  0.41545000  0.83090100  1
  O  O10  1  0.41545000  0.91545000  0.83090100  1
  O  O11  1  0.00000000  0.00000000  0.00000000  1
