# generated using pymatgen
data_SrCr(PO4)2
_symmetry_space_group_name_H-M   'P 1'
_cell_length_a   5.64875300
_cell_length_b   7.12574587
_cell_length_c   9.11255518
_cell_angle_alpha   110.12270514
_cell_angle_beta   101.79954038
_cell_angle_gamma   99.36312842
_symmetry_Int_Tables_number   1
_chemical_formula_structural   SrCr(PO4)2
_chemical_formula_sum   'Sr2 Cr2 P4 O16'
_cell_volume   326.11074307
_cell_formula_units_Z   2
loop_
 _symmetry_equiv_pos_site_id
 _symmetry_equiv_pos_as_xyz
  1  'x, y, z'
loop_
 _atom_site_type_symbol
 _atom_site_label
 _atom_site_symmetry_multiplicity
 _atom_site_fract_x
 _atom_site_fract_y
 _atom_site_fract_z
 _atom_site_occupancy
  Sr  Sr0  1  0.24833700  0.77035400  0.03699200  1
  Sr  Sr1  1  0.75166300  0.22964600  0.96300800  1
  Cr  Cr2  1  0.66785600  0.84270100  0.55735300  1
  Cr  Cr3  1  0.33214400  0.15729900  0.44264700  1
  P  P4  1  0.40348300  0.43468900  0.23788000  1
  P  P5  1  0.59651700  0.56531100  0.76212000  1
  P  P6  1  0.85349100  0.02840900  0.30711200  1
  P  P7  1  0.14650900  0.97159100  0.69288800  1
  O  O8  1  0.82241700  0.55668200  0.88184000  1
  O  O9  1  0.63897400  0.46190900  0.18580000  1
  O  O10  1  0.64500500  0.77769600  0.73926100  1
  O  O11  1  0.93766700  0.09586600  0.70118700  1
  O  O12  1  0.36102600  0.53809100  0.81420000  1
  O  O13  1  0.97571000  0.75810400  0.56354200  1
  O  O14  1  0.02429000  0.24189600  0.43645800  1
  O  O15  1  0.27357200  0.98794400  0.86196300  1
  O  O16  1  0.35499500  0.22230400  0.26073900  1
  O  O17  1  0.72642800  0.01205600  0.13803700  1
  O  O18  1  0.17758300  0.44331800  0.11816000  1
  O  O19  1  0.42818100  0.60719300  0.40971200  1
  O  O20  1  0.57181900  0.39280700  0.59028800  1
  O  O21  1  0.64021300  0.95654000  0.38012600  1
  O  O22  1  0.06233300  0.90413400  0.29881300  1
  O  O23  1  0.35978700  0.04346000  0.61987400  1
