# generated using pymatgen
data_MgVPO5
_symmetry_space_group_name_H-M   'P 1'
_cell_length_a   5.30665900
_cell_length_b   5.45143155
_cell_length_c   7.04879895
_cell_angle_alpha   105.51309762
_cell_angle_beta   104.48203936
_cell_angle_gamma   101.23646009
_symmetry_Int_Tables_number   1
_chemical_formula_structural   MgVPO5
_chemical_formula_sum   'Mg2 V2 P2 O10'
_cell_volume   182.60163795
_cell_formula_units_Z   2
loop_
 _symmetry_equiv_pos_site_id
 _symmetry_equiv_pos_as_xyz
  1  'x, y, z'
loop_
 _atom_site_type_symbol
 _atom_site_label
 _atom_site_symmetry_multiplicity
 _atom_site_fract_x
 _atom_site_fract_y
 _atom_site_fract_z
 _atom_site_occupancy
  Mg  Mg0  1  0.78414900  0.63428500  0.23725100  1
  Mg  Mg1  1  0.17545300  0.32550800  0.70724700  1
  V  V2  1  0.50033500  0.00405500  0.49435200  1
  V  V3  1  0.50206200  0.99688000  0.99310600  1
  P  P4  1  0.17103800  0.35379900  0.25182800  1
  P  P5  1  0.83783900  0.65930100  0.73869400  1
  O  O6  1  0.39123800  0.34228000  0.14388300  1
  O  O7  1  0.18837100  0.18036300  0.39451600  1
  O  O8  1  0.63096900  0.66467200  0.85923300  1
  O  O9  1  0.82365900  0.85098200  0.61120000  1
  O  O10  1  0.78986800  0.37093400  0.59027500  1
  O  O11  1  0.13035200  0.70971800  0.88493600  1
  O  O12  1  0.19769700  0.64410800  0.38335900  1
  O  O13  1  0.88210000  0.27843400  0.09326100  1
  O  O14  1  0.40964200  0.09861000  0.74819400  1
  O  O15  1  0.59850600  0.90786900  0.24316500  1
