# generated using pymatgen
data_MnS2
_symmetry_space_group_name_H-M   'P 1'
_cell_length_a   6.77572487
_cell_length_b   6.77572487
_cell_length_c   6.77572487
_cell_angle_alpha   60.00000000
_cell_angle_beta   60.00000000
_cell_angle_gamma   60.00000000
_symmetry_Int_Tables_number   1
_chemical_formula_structural   MnS2
_chemical_formula_sum   'Mn4 S8'
_cell_volume   219.96434534
_cell_formula_units_Z   4
loop_
 _symmetry_equiv_pos_site_id
 _symmetry_equiv_pos_as_xyz
  1  'x, y, z'
loop_
 _atom_site_type_symbol
 _atom_site_label
 _atom_site_symmetry_multiplicity
 _atom_site_fract_x
 _atom_site_fract_y
 _atom_site_fract_z
 _atom_site_occupancy
  Mn  Mn0  1  0.62500000  0.62500000  0.12500000  1
  Mn  Mn1  1  0.62500000  0.12500000  0.62500000  1
  Mn  Mn2  1  0.12500000  0.62500000  0.62500000  1
  Mn  Mn3  1  0.62500000  0.62500000  0.62500000  1
  S  S4  1  0.86923500  0.86923500  0.86923500  1
  S  S5  1  0.85770500  0.38076500  0.38076500  1
  S  S6  1  0.38076500  0.38076500  0.85770500  1
  S  S7  1  0.38076500  0.85770500  0.38076500  1
  S  S8  1  0.38076500  0.38076500  0.38076500  1
  S  S9  1  0.39229500  0.86923500  0.86923500  1
  S  S10  1  0.86923500  0.39229500  0.86923500  1
  S  S11  1  0.86923500  0.86923500  0.39229500  1
