# generated using pymatgen
data_TaReO6
_symmetry_space_group_name_H-M   'P 1'
_cell_length_a   7.50785200
_cell_length_b   5.29283100
_cell_length_c   5.42421643
_cell_angle_alpha   89.92675642
_cell_angle_beta   90.00000000
_cell_angle_gamma   90.00000000
_symmetry_Int_Tables_number   1
_chemical_formula_structural   TaReO6
_chemical_formula_sum   'Ta2 Re2 O12'
_cell_volume   215.54620718
_cell_formula_units_Z   2
loop_
 _symmetry_equiv_pos_site_id
 _symmetry_equiv_pos_as_xyz
  1  'x, y, z'
loop_
 _atom_site_type_symbol
 _atom_site_label
 _atom_site_symmetry_multiplicity
 _atom_site_fract_x
 _atom_site_fract_y
 _atom_site_fract_z
 _atom_site_occupancy
  Ta  Ta0  1  0.00000000  0.00000000  0.50000000  1
  Ta  Ta1  1  0.50000000  0.00000000  0.50000000  1
  Re  Re2  1  0.00000000  0.50000000  0.00000000  1
  Re  Re3  1  0.50000000  0.50000000  0.00000000  1
  O  O4  1  0.45734800  0.22295300  0.20523100  1
  O  O5  1  0.53884400  0.70395900  0.27573700  1
  O  O6  1  0.54265200  0.77704700  0.79476900  1
  O  O7  1  0.03884400  0.29604100  0.72426300  1
  O  O8  1  0.25000000  0.91328800  0.51622600  1
  O  O9  1  0.46115600  0.29604100  0.72426300  1
  O  O10  1  0.96115600  0.70395900  0.27573700  1
  O  O11  1  0.04265200  0.22295300  0.20523100  1
  O  O12  1  0.75000000  0.41982600  0.99215700  1
  O  O13  1  0.95734800  0.77704700  0.79476900  1
  O  O14  1  0.25000000  0.58017400  0.00784300  1
  O  O15  1  0.75000000  0.08671200  0.48377400  1
