# generated using pymatgen
data_Zn3W2O7
_symmetry_space_group_name_H-M   'P 1'
_cell_length_a   9.83238476
_cell_length_b   9.83238476
_cell_length_c   5.38912000
_cell_angle_alpha   90.00000000
_cell_angle_beta   90.00000000
_cell_angle_gamma   147.84620598
_symmetry_Int_Tables_number   1
_chemical_formula_structural   Zn3W2O7
_chemical_formula_sum   'Zn6 W4 O14'
_cell_volume   277.27154853
_cell_formula_units_Z   2
loop_
 _symmetry_equiv_pos_site_id
 _symmetry_equiv_pos_as_xyz
  1  'x, y, z'
loop_
 _atom_site_type_symbol
 _atom_site_label
 _atom_site_symmetry_multiplicity
 _atom_site_fract_x
 _atom_site_fract_y
 _atom_site_fract_z
 _atom_site_occupancy
  Zn  Zn0  1  0.74026900  0.74026900  0.26049700  1
  Zn  Zn1  1  0.25973100  0.25973100  0.76049700  1
  Zn  Zn2  1  0.98518600  0.57826600  0.21844500  1
  Zn  Zn3  1  0.01481400  0.42173400  0.71844500  1
  Zn  Zn4  1  0.57826600  0.98518600  0.21844500  1
  Zn  Zn5  1  0.42173400  0.01481400  0.71844500  1
  W  W6  1  0.14937000  0.35627000  0.24274600  1
  W  W7  1  0.85063000  0.64373000  0.74274600  1
  W  W8  1  0.64373000  0.85063000  0.74274600  1
  W  W9  1  0.35627000  0.14937000  0.24274600  1
  O  O10  1  0.33969200  0.92915900  0.34337900  1
  O  O11  1  0.66030800  0.07084100  0.84337900  1
  O  O12  1  0.07084100  0.66030800  0.84337900  1
  O  O13  1  0.92915900  0.33969200  0.34337900  1
  O  O14  1  0.55525600  0.28965000  0.90571000  1
  O  O15  1  0.44474400  0.71035000  0.40571000  1
  O  O16  1  0.71035000  0.44474400  0.40571000  1
  O  O17  1  0.28965000  0.55525600  0.90571000  1
  O  O18  1  0.00149800  0.84838100  0.08079500  1
  O  O19  1  0.99850200  0.15161900  0.58079500  1
  O  O20  1  0.37612500  0.37612500  0.13735000  1
  O  O21  1  0.62387500  0.62387500  0.63735000  1
  O  O22  1  0.84838100  0.00149800  0.08079500  1
  O  O23  1  0.15161900  0.99850200  0.58079500  1
