# generated using pymatgen
data_Ca3Mo2O7
_symmetry_space_group_name_H-M   'P 1'
_cell_length_a   10.23368361
_cell_length_b   10.23368361
_cell_length_c   5.78106800
_cell_angle_alpha   90.00000000
_cell_angle_beta   90.00000000
_cell_angle_gamma   148.11903815
_symmetry_Int_Tables_number   1
_chemical_formula_structural   Ca3Mo2O7
_chemical_formula_sum   'Ca6 Mo4 O14'
_cell_volume   319.76758794
_cell_formula_units_Z   2
loop_
 _symmetry_equiv_pos_site_id
 _symmetry_equiv_pos_as_xyz
  1  'x, y, z'
loop_
 _atom_site_type_symbol
 _atom_site_label
 _atom_site_symmetry_multiplicity
 _atom_site_fract_x
 _atom_site_fract_y
 _atom_site_fract_z
 _atom_site_occupancy
  Ca  Ca0  1  0.24311300  0.24311300  0.30245400  1
  Ca  Ca1  1  0.75688700  0.75688700  0.80245400  1
  Ca  Ca2  1  0.04768200  0.42661700  0.19614600  1
  Ca  Ca3  1  0.95231800  0.57338300  0.69614600  1
  Ca  Ca4  1  0.42661700  0.04768200  0.19614600  1
  Ca  Ca5  1  0.57338300  0.95231800  0.69614600  1
  Mo  Mo6  1  0.84964600  0.64832900  0.25046300  1
  Mo  Mo7  1  0.15035400  0.35167100  0.75046300  1
  Mo  Mo8  1  0.35167100  0.15035400  0.75046300  1
  Mo  Mo9  1  0.64832900  0.84964600  0.25046300  1
  O  O10  1  0.63542300  0.03642700  0.28456900  1
  O  O11  1  0.36457700  0.96357300  0.78456900  1
  O  O12  1  0.96357300  0.36457700  0.78456900  1
  O  O13  1  0.03642700  0.63542300  0.28456900  1
  O  O14  1  0.43045500  0.66804700  0.94312800  1
  O  O15  1  0.56954500  0.33195300  0.44312800  1
  O  O16  1  0.33195300  0.56954500  0.44312800  1
  O  O17  1  0.66804700  0.43045500  0.94312800  1
  O  O18  1  0.96738600  0.12922600  0.05944800  1
  O  O19  1  0.03261400  0.87077400  0.55944800  1
  O  O20  1  0.65077100  0.65077100  0.21003400  1
  O  O21  1  0.34922900  0.34922900  0.71003400  1
  O  O22  1  0.12922600  0.96738600  0.05944800  1
  O  O23  1  0.87077400  0.03261400  0.55944800  1
