# generated using pymatgen
data_Ca(Sn2O3)2
_symmetry_space_group_name_H-M   'P 1'
_cell_length_a   5.74170540
_cell_length_b   5.74170540
_cell_length_c   17.65925900
_cell_angle_alpha   90.00000000
_cell_angle_beta   90.00000000
_cell_angle_gamma   145.56351036
_symmetry_Int_Tables_number   1
_chemical_formula_structural   Ca(Sn2O3)2
_chemical_formula_sum   'Ca2 Sn8 O12'
_cell_volume   329.21608097
_cell_formula_units_Z   2
loop_
 _symmetry_equiv_pos_site_id
 _symmetry_equiv_pos_as_xyz
  1  'x, y, z'
loop_
 _atom_site_type_symbol
 _atom_site_label
 _atom_site_symmetry_multiplicity
 _atom_site_fract_x
 _atom_site_fract_y
 _atom_site_fract_z
 _atom_site_occupancy
  Ca  Ca0  1  0.32269300  0.67730700  0.75000000  1
  Ca  Ca1  1  0.67730700  0.32269300  0.25000000  1
  Sn  Sn2  1  0.14314600  0.85685400  0.05368100  1
  Sn  Sn3  1  0.59569000  0.40431000  0.64017800  1
  Sn  Sn4  1  0.85685400  0.14314600  0.94631900  1
  Sn  Sn5  1  0.40431000  0.59569000  0.35982200  1
  Sn  Sn6  1  0.14314600  0.85685400  0.44631900  1
  Sn  Sn7  1  0.85685400  0.14314600  0.55368100  1
  Sn  Sn8  1  0.40431000  0.59569000  0.14017800  1
  Sn  Sn9  1  0.59569000  0.40431000  0.85982200  1
  O  O10  1  0.50000000  0.50000000  0.50000000  1
  O  O11  1  0.50000000  0.50000000  0.00000000  1
  O  O12  1  0.95587000  0.04413000  0.83730400  1
  O  O13  1  0.04413000  0.95587000  0.16269600  1
  O  O14  1  0.04413000  0.95587000  0.33730400  1
  O  O15  1  0.95587000  0.04413000  0.66269600  1
  O  O16  1  0.23181400  0.76818600  0.87307200  1
  O  O17  1  0.76818600  0.23181400  0.12692800  1
  O  O18  1  0.76818600  0.23181400  0.37307200  1
  O  O19  1  0.23181400  0.76818600  0.62692800  1
  O  O20  1  0.66561400  0.33438600  0.75000000  1
  O  O21  1  0.33438600  0.66561400  0.25000000  1
