# generated using pymatgen
data_YNiO3
_symmetry_space_group_name_H-M   'P 1'
_cell_length_a   6.18090857
_cell_length_b   6.18090857
_cell_length_c   11.35973600
_cell_angle_alpha   90.00000000
_cell_angle_beta   90.00000000
_cell_angle_gamma   120.00000606
_symmetry_Int_Tables_number   1
_chemical_formula_structural   YNiO3
_chemical_formula_sum   'Y6 Ni6 O18'
_cell_volume   375.84041757
_cell_formula_units_Z   6
loop_
 _symmetry_equiv_pos_site_id
 _symmetry_equiv_pos_as_xyz
  1  'x, y, z'
loop_
 _atom_site_type_symbol
 _atom_site_label
 _atom_site_symmetry_multiplicity
 _atom_site_fract_x
 _atom_site_fract_y
 _atom_site_fract_z
 _atom_site_occupancy
  Y  Y0  1  0.66666700  0.33333300  0.23341700  1
  Y  Y1  1  0.33333300  0.66666700  0.73341700  1
  Y  Y2  1  0.66666700  0.33333300  0.73341700  1
  Y  Y3  1  0.33333300  0.66666700  0.23341700  1
  Y  Y4  1  0.00000000  0.00000000  0.77691400  1
  Y  Y5  1  0.00000000  0.00000000  0.27691400  1
  Ni  Ni6  1  0.66732600  0.00000000  0.50143100  1
  Ni  Ni7  1  0.66732600  0.66732600  0.00143100  1
  Ni  Ni8  1  0.00000000  0.33267400  0.00143100  1
  Ni  Ni9  1  0.00000000  0.66732600  0.50143100  1
  Ni  Ni10  1  0.33267400  0.33267400  0.50143100  1
  Ni  Ni11  1  0.33267400  0.00000000  0.00143100  1
  O  O12  1  0.66666700  0.33333300  0.01918600  1
  O  O13  1  0.33333300  0.66666700  0.51918600  1
  O  O14  1  0.66666700  0.33333300  0.51918600  1
  O  O15  1  0.33333300  0.66666700  0.01918600  1
  O  O16  1  0.00000000  0.00000000  0.98039800  1
  O  O17  1  0.00000000  0.00000000  0.48039800  1
  O  O18  1  0.35728400  0.00000000  0.83811400  1
  O  O19  1  0.35728400  0.35728400  0.33811400  1
  O  O20  1  0.00000000  0.64271600  0.33811400  1
  O  O21  1  0.00000000  0.35728400  0.83811400  1
  O  O22  1  0.64271600  0.64271600  0.83811400  1
  O  O23  1  0.64271600  0.00000000  0.33811400  1
  O  O24  1  0.30947700  0.00000000  0.16461400  1
  O  O25  1  0.30947700  0.30947700  0.66461400  1
  O  O26  1  0.00000000  0.69052300  0.66461400  1
  O  O27  1  0.00000000  0.30947700  0.16461400  1
  O  O28  1  0.69052300  0.69052300  0.16461400  1
  O  O29  1  0.69052300  0.00000000  0.66461400  1
