# generated using pymatgen
data_Ca2TaTiO6
_symmetry_space_group_name_H-M   'P 1'
_cell_length_a   7.82282800
_cell_length_b   5.47684800
_cell_length_c   5.63533196
_cell_angle_alpha   89.95226480
_cell_angle_beta   90.00000000
_cell_angle_gamma   90.00000000
_symmetry_Int_Tables_number   1
_chemical_formula_structural   Ca2TaTiO6
_chemical_formula_sum   'Ca4 Ta2 Ti2 O12'
_cell_volume   241.44255742
_cell_formula_units_Z   2
loop_
 _symmetry_equiv_pos_site_id
 _symmetry_equiv_pos_as_xyz
  1  'x, y, z'
loop_
 _atom_site_type_symbol
 _atom_site_label
 _atom_site_symmetry_multiplicity
 _atom_site_fract_x
 _atom_site_fract_y
 _atom_site_fract_z
 _atom_site_occupancy
  Ca  Ca0  1  0.75000000  0.98958900  0.04334500  1
  Ca  Ca1  1  0.75000000  0.51178000  0.56079900  1
  Ca  Ca2  1  0.25000000  0.48822000  0.43920100  1
  Ca  Ca3  1  0.25000000  0.01041100  0.95665500  1
  Ta  Ta4  1  0.00000000  0.00000000  0.50000000  1
  Ta  Ta5  1  0.50000000  0.00000000  0.50000000  1
  Ti  Ti6  1  0.00000000  0.50000000  0.00000000  1
  Ti  Ti7  1  0.50000000  0.50000000  0.00000000  1
  O  O8  1  0.45405700  0.20182700  0.20953700  1
  O  O9  1  0.54397200  0.70601200  0.29561700  1
  O  O10  1  0.54594300  0.79817300  0.79046300  1
  O  O11  1  0.04397200  0.29398800  0.70438300  1
  O  O12  1  0.25000000  0.91214500  0.52591100  1
  O  O13  1  0.45602800  0.29398800  0.70438300  1
  O  O14  1  0.95602800  0.70601200  0.29561700  1
  O  O15  1  0.04594300  0.20182700  0.20953700  1
  O  O16  1  0.75000000  0.41650600  0.97664900  1
  O  O17  1  0.95405700  0.79817300  0.79046300  1
  O  O18  1  0.25000000  0.58349400  0.02335100  1
  O  O19  1  0.75000000  0.08785500  0.47408900  1
