# generated using pymatgen
data_V2Zn2O5
_symmetry_space_group_name_H-M   'P 1'
_cell_length_a   3.51733700
_cell_length_b   5.67190700
_cell_length_c   10.87453800
_cell_angle_alpha   90.00000000
_cell_angle_beta   90.00000000
_cell_angle_gamma   90.00000000
_symmetry_Int_Tables_number   1
_chemical_formula_structural   V2Zn2O5
_chemical_formula_sum   'V4 Zn4 O10'
_cell_volume   216.94712392
_cell_formula_units_Z   2
loop_
 _symmetry_equiv_pos_site_id
 _symmetry_equiv_pos_as_xyz
  1  'x, y, z'
loop_
 _atom_site_type_symbol
 _atom_site_label
 _atom_site_symmetry_multiplicity
 _atom_site_fract_x
 _atom_site_fract_y
 _atom_site_fract_z
 _atom_site_occupancy
  V  V0  1  0.50000000  0.26079800  0.13704800  1
  V  V1  1  0.50000000  0.73920200  0.86295200  1
  V  V2  1  0.50000000  0.23920200  0.63704800  1
  V  V3  1  0.50000000  0.76079800  0.36295200  1
  Zn  Zn4  1  0.00000000  0.28558000  0.40048200  1
  Zn  Zn5  1  0.00000000  0.71442000  0.59951800  1
  Zn  Zn6  1  0.00000000  0.78558000  0.09951800  1
  Zn  Zn7  1  0.00000000  0.21442000  0.90048200  1
  O  O8  1  0.50000000  0.50000000  0.00000000  1
  O  O9  1  0.50000000  0.13472000  0.80555000  1
  O  O10  1  0.50000000  0.63472000  0.69445000  1
  O  O11  1  0.50000000  0.36528000  0.30555000  1
  O  O12  1  0.00000000  0.33574300  0.58430400  1
  O  O13  1  0.00000000  0.66425700  0.41569600  1
  O  O14  1  0.50000000  0.86528000  0.19445000  1
  O  O15  1  0.00000000  0.16425700  0.08430400  1
  O  O16  1  0.50000000  0.00000000  0.50000000  1
  O  O17  1  0.00000000  0.83574300  0.91569600  1
