# generated using pymatgen
data_Mg2Sn2O5
_symmetry_space_group_name_H-M   'P 1'
_cell_length_a   3.96014300
_cell_length_b   5.55440900
_cell_length_c   10.54177600
_cell_angle_alpha   90.00000000
_cell_angle_beta   90.00000000
_cell_angle_gamma   90.00000000
_symmetry_Int_Tables_number   1
_chemical_formula_structural   Mg2Sn2O5
_chemical_formula_sum   'Mg4 Sn4 O10'
_cell_volume   231.87958167
_cell_formula_units_Z   2
loop_
 _symmetry_equiv_pos_site_id
 _symmetry_equiv_pos_as_xyz
  1  'x, y, z'
loop_
 _atom_site_type_symbol
 _atom_site_label
 _atom_site_symmetry_multiplicity
 _atom_site_fract_x
 _atom_site_fract_y
 _atom_site_fract_z
 _atom_site_occupancy
  Mg  Mg0  1  0.50000000  0.63969100  0.89326900  1
  Mg  Mg1  1  0.50000000  0.36030900  0.10673100  1
  Mg  Mg2  1  0.50000000  0.13969100  0.60673100  1
  Mg  Mg3  1  0.50000000  0.86030900  0.39326900  1
  Sn  Sn4  1  0.00000000  0.65824600  0.61249300  1
  Sn  Sn5  1  0.00000000  0.34175400  0.38750700  1
  Sn  Sn6  1  0.00000000  0.84175400  0.11249300  1
  Sn  Sn7  1  0.00000000  0.15824600  0.88750700  1
  O  O8  1  0.00000000  0.00000000  0.50000000  1
  O  O9  1  0.00000000  0.70621600  0.29767800  1
  O  O10  1  0.00000000  0.20621600  0.20232200  1
  O  O11  1  0.00000000  0.79378400  0.79767800  1
  O  O12  1  0.50000000  0.73208200  0.09876100  1
  O  O13  1  0.50000000  0.26791800  0.90123900  1
  O  O14  1  0.00000000  0.29378400  0.70232200  1
  O  O15  1  0.50000000  0.76791800  0.59876100  1
  O  O16  1  0.00000000  0.50000000  0.00000000  1
  O  O17  1  0.50000000  0.23208200  0.40123900  1
