# generated using pymatgen
data_MgTi3(P2O7)2
_symmetry_space_group_name_H-M   'P 1'
_cell_length_a   7.39175800
_cell_length_b   7.37116400
_cell_length_c   9.67073997
_cell_angle_alpha   71.68934378
_cell_angle_beta   90.00000000
_cell_angle_gamma   90.00000000
_symmetry_Int_Tables_number   1
_chemical_formula_structural   MgTi3(P2O7)2
_chemical_formula_sum   'Mg2 Ti6 P8 O28'
_cell_volume   500.23915278
_cell_formula_units_Z   2
loop_
 _symmetry_equiv_pos_site_id
 _symmetry_equiv_pos_as_xyz
  1  'x, y, z'
loop_
 _atom_site_type_symbol
 _atom_site_label
 _atom_site_symmetry_multiplicity
 _atom_site_fract_x
 _atom_site_fract_y
 _atom_site_fract_z
 _atom_site_occupancy
  Mg  Mg0  1  0.00000000  0.50000000  0.00000000  1
  Mg  Mg1  1  0.50000000  0.50000000  0.50000000  1
  Ti  Ti2  1  0.16440600  0.82675700  0.51323400  1
  Ti  Ti3  1  0.66440600  0.17324300  0.98676600  1
  Ti  Ti4  1  0.83559400  0.17324300  0.48676600  1
  Ti  Ti5  1  0.33559400  0.82675700  0.01323400  1
  Ti  Ti6  1  0.00000000  0.00000000  0.00000000  1
  Ti  Ti7  1  0.50000000  0.00000000  0.50000000  1
  P  P8  1  0.92945900  0.43319300  0.69725600  1
  P  P9  1  0.42945900  0.56680700  0.80274400  1
  P  P10  1  0.07054100  0.56680700  0.30274400  1
  P  P11  1  0.57054100  0.43319300  0.19725600  1
  P  P12  1  0.20714000  0.14245900  0.67857300  1
  P  P13  1  0.70714000  0.85754100  0.82142700  1
  P  P14  1  0.79286000  0.85754100  0.32142700  1
  P  P15  1  0.29286000  0.14245900  0.17857300  1
  O  O16  1  0.38770400  0.20285100  0.59833200  1
  O  O17  1  0.88770400  0.79714900  0.90166800  1
  O  O18  1  0.61229600  0.79714900  0.40166800  1
  O  O19  1  0.11229600  0.20285100  0.09833200  1
  O  O20  1  0.39902300  0.65355200  0.63476100  1
  O  O21  1  0.89902300  0.34644800  0.86523900  1
  O  O22  1  0.60097700  0.34644800  0.36523900  1
  O  O23  1  0.10097700  0.65355200  0.13476100  1
  O  O24  1  0.78056400  0.37600400  0.60762000  1
  O  O25  1  0.28056400  0.62399600  0.89238000  1
  O  O26  1  0.21943600  0.62399600  0.39238000  1
  O  O27  1  0.71943600  0.37600400  0.10762000  1
  O  O28  1  0.11769000  0.34378000  0.66562900  1
  O  O29  1  0.61769000  0.65622000  0.83437100  1
  O  O30  1  0.88231000  0.65622000  0.33437100  1
  O  O31  1  0.38231000  0.34378000  0.16562900  1
  O  O32  1  0.52496100  0.64303700  0.15527900  1
  O  O33  1  0.02496100  0.35696300  0.34472100  1
  O  O34  1  0.47503900  0.35696300  0.84472100  1
  O  O35  1  0.97503900  0.64303700  0.65527900  1
  O  O36  1  0.78913600  0.96361400  0.15649500  1
  O  O37  1  0.28913600  0.03638600  0.34350500  1
  O  O38  1  0.21086400  0.03638600  0.84350500  1
  O  O39  1  0.71086400  0.96361400  0.65649500  1
  O  O40  1  0.42121000  0.04113700  0.10189100  1
  O  O41  1  0.92121000  0.95886300  0.39810900  1
  O  O42  1  0.57879000  0.95886300  0.89810900  1
  O  O43  1  0.07879000  0.04113700  0.60189100  1
