# generated using pymatgen
data_Mg2Fe2O5
_symmetry_space_group_name_H-M   'P 1'
_cell_length_a   3.53551100
_cell_length_b   5.60981000
_cell_length_c   10.60172900
_cell_angle_alpha   90.00000000
_cell_angle_beta   90.00000000
_cell_angle_gamma   90.00000000
_symmetry_Int_Tables_number   1
_chemical_formula_structural   Mg2Fe2O5
_chemical_formula_sum   'Mg4 Fe4 O10'
_cell_volume   210.26986881
_cell_formula_units_Z   2
loop_
 _symmetry_equiv_pos_site_id
 _symmetry_equiv_pos_as_xyz
  1  'x, y, z'
loop_
 _atom_site_type_symbol
 _atom_site_label
 _atom_site_symmetry_multiplicity
 _atom_site_fract_x
 _atom_site_fract_y
 _atom_site_fract_z
 _atom_site_occupancy
  Mg  Mg0  1  0.50000000  0.79134800  0.90239700  1
  Mg  Mg1  1  0.50000000  0.20865200  0.09760300  1
  Mg  Mg2  1  0.50000000  0.29134800  0.59760300  1
  Mg  Mg3  1  0.50000000  0.70865200  0.40239700  1
  Fe  Fe4  1  0.00000000  0.76044200  0.63981800  1
  Fe  Fe5  1  0.00000000  0.23955800  0.36018200  1
  Fe  Fe6  1  0.00000000  0.73955800  0.13981800  1
  Fe  Fe7  1  0.00000000  0.26044200  0.86018200  1
  O  O8  1  0.00000000  0.00000000  0.50000000  1
  O  O9  1  0.00000000  0.63961600  0.30945100  1
  O  O10  1  0.00000000  0.13961600  0.19054900  1
  O  O11  1  0.00000000  0.86038400  0.80945100  1
  O  O12  1  0.50000000  0.83416400  0.09036700  1
  O  O13  1  0.50000000  0.16583600  0.90963300  1
  O  O14  1  0.00000000  0.36038400  0.69054900  1
  O  O15  1  0.50000000  0.66583600  0.59036700  1
  O  O16  1  0.00000000  0.50000000  0.00000000  1
  O  O17  1  0.50000000  0.33416400  0.40963300  1
