# generated using pymatgen
data_TaZn2AgO6
_symmetry_space_group_name_H-M   'P 1'
_cell_length_a   7.51989400
_cell_length_b   5.62109400
_cell_length_c   5.69465282
_cell_angle_alpha   76.99243256
_cell_angle_beta   90.00000000
_cell_angle_gamma   90.00000000
_symmetry_Int_Tables_number   1
_chemical_formula_structural   TaZn2AgO6
_chemical_formula_sum   'Ta2 Zn4 Ag2 O12'
_cell_volume   234.53653535
_cell_formula_units_Z   2
loop_
 _symmetry_equiv_pos_site_id
 _symmetry_equiv_pos_as_xyz
  1  'x, y, z'
loop_
 _atom_site_type_symbol
 _atom_site_label
 _atom_site_symmetry_multiplicity
 _atom_site_fract_x
 _atom_site_fract_y
 _atom_site_fract_z
 _atom_site_occupancy
  Ta  Ta0  1  0.00000000  0.00000000  0.50000000  1
  Ta  Ta1  1  0.50000000  0.00000000  0.50000000  1
  Zn  Zn2  1  0.75000000  0.96592100  0.05499600  1
  Zn  Zn3  1  0.75000000  0.47716500  0.54107900  1
  Zn  Zn4  1  0.25000000  0.52283500  0.45892100  1
  Zn  Zn5  1  0.25000000  0.03407900  0.94500400  1
  Ag  Ag6  1  0.00000000  0.50000000  0.00000000  1
  Ag  Ag7  1  0.50000000  0.50000000  0.00000000  1
  O  O8  1  0.43795400  0.15409900  0.15681000  1
  O  O9  1  0.57637300  0.72340300  0.37028700  1
  O  O10  1  0.56204600  0.84590100  0.84319000  1
  O  O11  1  0.07637300  0.27659700  0.62971300  1
  O  O12  1  0.25000000  0.85375400  0.54932700  1
  O  O13  1  0.42362700  0.27659700  0.62971300  1
  O  O14  1  0.92362700  0.72340300  0.37028700  1
  O  O15  1  0.06204600  0.15409900  0.15681000  1
  O  O16  1  0.75000000  0.35889600  0.90781400  1
  O  O17  1  0.93795400  0.84590100  0.84319000  1
  O  O18  1  0.25000000  0.64110400  0.09218600  1
  O  O19  1  0.75000000  0.14624600  0.45067300  1
