# generated using pymatgen
data_CrF5
_symmetry_space_group_name_H-M   'P 1'
_cell_length_a   9.77039300
_cell_length_b   5.34848400
_cell_length_c   7.39271633
_cell_angle_alpha   69.88188898
_cell_angle_beta   90.00000000
_cell_angle_gamma   90.00000000
_symmetry_Int_Tables_number   1
_chemical_formula_structural   CrF5
_chemical_formula_sum   'Cr4 F20'
_cell_volume   362.74855973
_cell_formula_units_Z   4
loop_
 _symmetry_equiv_pos_site_id
 _symmetry_equiv_pos_as_xyz
  1  'x, y, z'
loop_
 _atom_site_type_symbol
 _atom_site_label
 _atom_site_symmetry_multiplicity
 _atom_site_fract_x
 _atom_site_fract_y
 _atom_site_fract_z
 _atom_site_occupancy
  Cr  Cr0  1  0.75167200  0.11839400  0.59660500  1
  Cr  Cr1  1  0.25167200  0.88160600  0.90339500  1
  Cr  Cr2  1  0.24832800  0.88160600  0.40339500  1
  Cr  Cr3  1  0.74832800  0.11839400  0.09660500  1
  F  F4  1  0.86396800  0.38620100  0.56959100  1
  F  F5  1  0.36396800  0.61379900  0.93040900  1
  F  F6  1  0.13603200  0.61379900  0.43040900  1
  F  F7  1  0.63603200  0.38620100  0.06959100  1
  F  F8  1  0.62156600  0.34797200  0.49253200  1
  F  F9  1  0.12156600  0.65202800  0.00746800  1
  F  F10  1  0.37843400  0.65202800  0.50746800  1
  F  F11  1  0.87843400  0.34797200  0.99253200  1
  F  F12  1  0.38413000  0.10910000  0.80165000  1
  F  F13  1  0.88413000  0.89090000  0.69835000  1
  F  F14  1  0.61587000  0.89090000  0.19835000  1
  F  F15  1  0.11587000  0.10910000  0.30165000  1
  F  F16  1  0.14062100  0.15187800  0.87409600  1
  F  F17  1  0.64062100  0.84812200  0.62590400  1
  F  F18  1  0.85937900  0.84812200  0.12590400  1
  F  F19  1  0.35937900  0.15187800  0.37409600  1
  F  F20  1  0.69524200  0.11711200  0.84638700  1
  F  F21  1  0.19524200  0.88288800  0.65361300  1
  F  F22  1  0.30475800  0.88288800  0.15361300  1
  F  F23  1  0.80475800  0.11711200  0.34638700  1
