# generated using pymatgen
data_Zn3Si3(SnO6)2
_symmetry_space_group_name_H-M   'P 1'
_cell_length_a   10.70327725
_cell_length_b   10.70327725
_cell_length_c   10.70327725
_cell_angle_alpha   109.47122063
_cell_angle_beta   109.47122063
_cell_angle_gamma   109.47122063
_symmetry_Int_Tables_number   1
_chemical_formula_structural   Zn3Si3(SnO6)2
_chemical_formula_sum   'Zn12 Si12 Sn8 O48'
_cell_volume   943.90532164
_cell_formula_units_Z   4
loop_
 _symmetry_equiv_pos_site_id
 _symmetry_equiv_pos_as_xyz
  1  'x, y, z'
loop_
 _atom_site_type_symbol
 _atom_site_label
 _atom_site_symmetry_multiplicity
 _atom_site_fract_x
 _atom_site_fract_y
 _atom_site_fract_z
 _atom_site_occupancy
  Zn  Zn0  1  0.25000000  0.37500000  0.12500000  1
  Zn  Zn1  1  0.75000000  0.12500000  0.37500000  1
  Zn  Zn2  1  0.37500000  0.12500000  0.25000000  1
  Zn  Zn3  1  0.12500000  0.37500000  0.75000000  1
  Zn  Zn4  1  0.25000000  0.87500000  0.62500000  1
  Zn  Zn5  1  0.12500000  0.25000000  0.37500000  1
  Zn  Zn6  1  0.62500000  0.25000000  0.87500000  1
  Zn  Zn7  1  0.75000000  0.62500000  0.87500000  1
  Zn  Zn8  1  0.87500000  0.75000000  0.62500000  1
  Zn  Zn9  1  0.87500000  0.62500000  0.25000000  1
  Zn  Zn10  1  0.62500000  0.87500000  0.75000000  1
  Zn  Zn11  1  0.37500000  0.75000000  0.12500000  1
  Si  Si12  1  0.12500000  0.75000000  0.87500000  1
  Si  Si13  1  0.87500000  0.25000000  0.12500000  1
  Si  Si14  1  0.75000000  0.37500000  0.62500000  1
  Si  Si15  1  0.12500000  0.87500000  0.25000000  1
  Si  Si16  1  0.25000000  0.12500000  0.87500000  1
  Si  Si17  1  0.37500000  0.62500000  0.75000000  1
  Si  Si18  1  0.37500000  0.25000000  0.62500000  1
  Si  Si19  1  0.87500000  0.12500000  0.75000000  1
  Si  Si20  1  0.62500000  0.37500000  0.25000000  1
  Si  Si21  1  0.75000000  0.87500000  0.12500000  1
  Si  Si22  1  0.25000000  0.62500000  0.37500000  1
  Si  Si23  1  0.62500000  0.75000000  0.37500000  1
  Sn  Sn24  1  0.50000000  0.00000000  0.00000000  1
  Sn  Sn25  1  0.50000000  0.50000000  0.00000000  1
  Sn  Sn26  1  0.00000000  0.50000000  0.50000000  1
  Sn  Sn27  1  0.00000000  0.00000000  0.50000000  1
  Sn  Sn28  1  0.50000000  0.50000000  0.50000000  1
  Sn  Sn29  1  0.00000000  0.50000000  0.00000000  1
  Sn  Sn30  1  0.50000000  0.00000000  0.50000000  1
  Sn  Sn31  1  0.00000000  0.00000000  0.00000000  1
  O  O32  1  0.58653800  0.88973400  0.37623400  1
  O  O33  1  0.37623400  0.58653800  0.88973400  1
  O  O34  1  0.28969600  0.30319600  0.91346200  1
  O  O35  1  0.48650000  0.61026600  0.19680400  1
  O  O36  1  0.30319600  0.88973400  0.01350000  1
  O  O37  1  0.12376600  0.01350000  0.21030400  1
  O  O38  1  0.37623400  0.28969600  0.48650000  1
  O  O39  1  0.88973400  0.37623400  0.58653800  1
  O  O40  1  0.19680400  0.21030400  0.58653800  1
  O  O41  1  0.48650000  0.37623400  0.28969600  1
  O  O42  1  0.88973400  0.01350000  0.30319600  1
  O  O43  1  0.61026600  0.91346200  0.12376600  1
  O  O44  1  0.91346200  0.12376600  0.61026600  1
  O  O45  1  0.28969600  0.48650000  0.37623400  1
  O  O46  1  0.58653800  0.19680400  0.21030400  1
  O  O47  1  0.21030400  0.58653800  0.19680400  1
  O  O48  1  0.01350000  0.30319600  0.88973400  1
  O  O49  1  0.91346200  0.28969600  0.30319600  1
  O  O50  1  0.01350000  0.21030400  0.12376600  1
  O  O51  1  0.80319600  0.78969600  0.41346200  1
  O  O52  1  0.19680400  0.48650000  0.61026600  1
  O  O53  1  0.61026600  0.19680400  0.48650000  1
  O  O54  1  0.21030400  0.12376600  0.01350000  1
  O  O55  1  0.12376600  0.61026600  0.91346200  1
  O  O56  1  0.41346200  0.11026600  0.62376600  1
  O  O57  1  0.62376600  0.41346200  0.11026600  1
  O  O58  1  0.71030400  0.69680400  0.08653800  1
  O  O59  1  0.51350000  0.38973400  0.80319600  1
  O  O60  1  0.69680400  0.11026600  0.98650000  1
  O  O61  1  0.87623400  0.98650000  0.78969600  1
  O  O62  1  0.62376600  0.71030400  0.51350000  1
  O  O63  1  0.11026600  0.62376600  0.41346200  1
  O  O64  1  0.87623400  0.38973400  0.08653800  1
  O  O65  1  0.78969600  0.87623400  0.98650000  1
  O  O66  1  0.38973400  0.80319600  0.51350000  1
  O  O67  1  0.69680400  0.08653800  0.71030400  1
  O  O68  1  0.80319600  0.51350000  0.38973400  1
  O  O69  1  0.98650000  0.78969600  0.87623400  1
  O  O70  1  0.08653800  0.71030400  0.69680400  1
  O  O71  1  0.98650000  0.69680400  0.11026600  1
  O  O72  1  0.78969600  0.41346200  0.80319600  1
  O  O73  1  0.41346200  0.80319600  0.78969600  1
  O  O74  1  0.71030400  0.51350000  0.62376600  1
  O  O75  1  0.08653800  0.87623400  0.38973400  1
  O  O76  1  0.38973400  0.08653800  0.87623400  1
  O  O77  1  0.11026600  0.98650000  0.69680400  1
  O  O78  1  0.51350000  0.62376600  0.71030400  1
  O  O79  1  0.30319600  0.91346200  0.28969600  1
