# generated using pymatgen
data_Y(SnO2)2
_symmetry_space_group_name_H-M   'P 1'
_cell_length_a   7.12514266
_cell_length_b   7.12514266
_cell_length_c   7.12514288
_cell_angle_alpha   56.35947461
_cell_angle_beta   56.35947461
_cell_angle_gamma   56.35948037
_symmetry_Int_Tables_number   1
_chemical_formula_structural   Y(SnO2)2
_chemical_formula_sum   'Y2 Sn4 O8'
_cell_volume   234.24257386
_cell_formula_units_Z   2
loop_
 _symmetry_equiv_pos_site_id
 _symmetry_equiv_pos_as_xyz
  1  'x, y, z'
loop_
 _atom_site_type_symbol
 _atom_site_label
 _atom_site_symmetry_multiplicity
 _atom_site_fract_x
 _atom_site_fract_y
 _atom_site_fract_z
 _atom_site_occupancy
  Y  Y0  1  0.63362800  0.63362800  0.63362800  1
  Y  Y1  1  0.36637200  0.36637200  0.36637200  1
  Sn  Sn2  1  0.50000000  0.00000000  0.00000000  1
  Sn  Sn3  1  0.00000000  0.00000000  0.00000000  1
  Sn  Sn4  1  0.00000000  0.50000000  0.00000000  1
  Sn  Sn5  1  0.00000000  0.00000000  0.50000000  1
  O  O6  1  0.78056500  0.23180100  0.78056500  1
  O  O7  1  0.21943500  0.21943500  0.76819900  1
  O  O8  1  0.76819900  0.21943500  0.21943500  1
  O  O9  1  0.24991500  0.24991500  0.24991500  1
  O  O10  1  0.78056500  0.78056500  0.23180100  1
  O  O11  1  0.21943500  0.76819900  0.21943500  1
  O  O12  1  0.23180100  0.78056500  0.78056500  1
  O  O13  1  0.75008500  0.75008500  0.75008500  1
