# generated using pymatgen
data_Mg2TaSnO6
_symmetry_space_group_name_H-M   'P 1'
_cell_length_a   7.82250800
_cell_length_b   5.45312600
_cell_length_c   5.53927491
_cell_angle_alpha   88.00518430
_cell_angle_beta   90.00000000
_cell_angle_gamma   90.00000000
_symmetry_Int_Tables_number   1
_chemical_formula_structural   Mg2TaSnO6
_chemical_formula_sum   'Mg4 Ta2 Sn2 O12'
_cell_volume   236.14632818
_cell_formula_units_Z   2
loop_
 _symmetry_equiv_pos_site_id
 _symmetry_equiv_pos_as_xyz
  1  'x, y, z'
loop_
 _atom_site_type_symbol
 _atom_site_label
 _atom_site_symmetry_multiplicity
 _atom_site_fract_x
 _atom_site_fract_y
 _atom_site_fract_z
 _atom_site_occupancy
  Mg  Mg0  1  0.75000000  0.01166700  0.03716400  1
  Mg  Mg1  1  0.75000000  0.49176400  0.53962900  1
  Mg  Mg2  1  0.25000000  0.50823600  0.46037100  1
  Mg  Mg3  1  0.25000000  0.98833300  0.96283600  1
  Ta  Ta4  1  0.00000000  0.00000000  0.50000000  1
  Ta  Ta5  1  0.50000000  0.00000000  0.50000000  1
  Sn  Sn6  1  0.00000000  0.50000000  0.00000000  1
  Sn  Sn7  1  0.50000000  0.50000000  0.00000000  1
  O  O8  1  0.43066000  0.14119200  0.18188300  1
  O  O9  1  0.57122500  0.69003200  0.34862700  1
  O  O10  1  0.56934000  0.85880800  0.81811700  1
  O  O11  1  0.07122500  0.30996800  0.65137300  1
  O  O12  1  0.25000000  0.86744800  0.58061300  1
  O  O13  1  0.42877500  0.30996800  0.65137300  1
  O  O14  1  0.92877500  0.69003200  0.34862700  1
  O  O15  1  0.06934000  0.14119200  0.18188300  1
  O  O16  1  0.75000000  0.37263600  0.90560200  1
  O  O17  1  0.93066000  0.85880800  0.81811700  1
  O  O18  1  0.25000000  0.62736400  0.09439800  1
  O  O19  1  0.75000000  0.13255200  0.41938700  1
