# generated using pymatgen
data_YVO3
_symmetry_space_group_name_H-M   'P 1'
_cell_length_a   6.14666025
_cell_length_b   6.14666025
_cell_length_c   12.05651300
_cell_angle_alpha   90.00000000
_cell_angle_beta   90.00000000
_cell_angle_gamma   120.00000272
_symmetry_Int_Tables_number   1
_chemical_formula_structural   YVO3
_chemical_formula_sum   'Y6 V6 O18'
_cell_volume   394.48523802
_cell_formula_units_Z   6
loop_
 _symmetry_equiv_pos_site_id
 _symmetry_equiv_pos_as_xyz
  1  'x, y, z'
loop_
 _atom_site_type_symbol
 _atom_site_label
 _atom_site_symmetry_multiplicity
 _atom_site_fract_x
 _atom_site_fract_y
 _atom_site_fract_z
 _atom_site_occupancy
  Y  Y0  1  0.66666700  0.33333300  0.22949900  1
  Y  Y1  1  0.33333300  0.66666700  0.72949900  1
  Y  Y2  1  0.66666700  0.33333300  0.72949900  1
  Y  Y3  1  0.33333300  0.66666700  0.22949900  1
  Y  Y4  1  0.00000000  0.00000000  0.77307400  1
  Y  Y5  1  0.00000000  0.00000000  0.27307400  1
  V  V6  1  0.66445300  0.00000000  0.49750200  1
  V  V7  1  0.66445300  0.66445300  0.99750200  1
  V  V8  1  0.00000000  0.33554700  0.99750200  1
  V  V9  1  0.00000000  0.66445300  0.49750200  1
  V  V10  1  0.33554700  0.33554700  0.49750200  1
  V  V11  1  0.33554700  0.00000000  0.99750200  1
  O  O12  1  0.66666700  0.33333300  0.02474400  1
  O  O13  1  0.33333300  0.66666700  0.52474400  1
  O  O14  1  0.66666700  0.33333300  0.52474400  1
  O  O15  1  0.33333300  0.66666700  0.02474400  1
  O  O16  1  0.00000000  0.00000000  0.98199500  1
  O  O17  1  0.00000000  0.00000000  0.48199500  1
  O  O18  1  0.36009100  0.00000000  0.83876400  1
  O  O19  1  0.36009100  0.36009100  0.33876400  1
  O  O20  1  0.00000000  0.63990900  0.33876400  1
  O  O21  1  0.00000000  0.36009100  0.83876400  1
  O  O22  1  0.63990900  0.63990900  0.83876400  1
  O  O23  1  0.63990900  0.00000000  0.33876400  1
  O  O24  1  0.30739100  0.00000000  0.16754900  1
  O  O25  1  0.30739100  0.30739100  0.66754900  1
  O  O26  1  0.00000000  0.69260900  0.66754900  1
  O  O27  1  0.00000000  0.30739100  0.16754900  1
  O  O28  1  0.69260900  0.69260900  0.16754900  1
  O  O29  1  0.69260900  0.00000000  0.66754900  1
