# generated using pymatgen
data_Ca2Sb2O5
_symmetry_space_group_name_H-M   'P 1'
_cell_length_a   4.27186300
_cell_length_b   6.40225900
_cell_length_c   10.30064100
_cell_angle_alpha   90.00000000
_cell_angle_beta   90.00000000
_cell_angle_gamma   90.00000000
_symmetry_Int_Tables_number   1
_chemical_formula_structural   Ca2Sb2O5
_chemical_formula_sum   'Ca4 Sb4 O10'
_cell_volume   281.71813646
_cell_formula_units_Z   2
loop_
 _symmetry_equiv_pos_site_id
 _symmetry_equiv_pos_as_xyz
  1  'x, y, z'
loop_
 _atom_site_type_symbol
 _atom_site_label
 _atom_site_symmetry_multiplicity
 _atom_site_fract_x
 _atom_site_fract_y
 _atom_site_fract_z
 _atom_site_occupancy
  Ca  Ca0  1  0.00000000  0.16035900  0.36070200  1
  Ca  Ca1  1  0.00000000  0.83964100  0.63929800  1
  Ca  Ca2  1  0.00000000  0.66035900  0.13929800  1
  Ca  Ca3  1  0.00000000  0.33964100  0.86070200  1
  Sb  Sb4  1  0.50000000  0.21892400  0.10769200  1
  Sb  Sb5  1  0.50000000  0.78107600  0.89230800  1
  Sb  Sb6  1  0.50000000  0.28107600  0.60769200  1
  Sb  Sb7  1  0.50000000  0.71892400  0.39230800  1
  O  O8  1  0.50000000  0.50000000  0.00000000  1
  O  O9  1  0.50000000  0.18171600  0.79090400  1
  O  O10  1  0.50000000  0.68171600  0.70909600  1
  O  O11  1  0.50000000  0.31828400  0.29090400  1
  O  O12  1  0.00000000  0.21348900  0.62174500  1
  O  O13  1  0.00000000  0.78651100  0.37825500  1
  O  O14  1  0.50000000  0.81828400  0.20909600  1
  O  O15  1  0.00000000  0.28651100  0.12174500  1
  O  O16  1  0.50000000  0.00000000  0.50000000  1
  O  O17  1  0.00000000  0.71348900  0.87825500  1
