# generated using pymatgen
data_Mg3Ge3(SbO6)2
_symmetry_space_group_name_H-M   'P 1'
_cell_length_a   10.95250550
_cell_length_b   10.95250550
_cell_length_c   10.95250550
_cell_angle_alpha   109.47122063
_cell_angle_beta   109.47122063
_cell_angle_gamma   109.47122063
_symmetry_Int_Tables_number   1
_chemical_formula_structural   Mg3Ge3(SbO6)2
_chemical_formula_sum   'Mg12 Ge12 Sb8 O48'
_cell_volume   1011.38975325
_cell_formula_units_Z   4
loop_
 _symmetry_equiv_pos_site_id
 _symmetry_equiv_pos_as_xyz
  1  'x, y, z'
loop_
 _atom_site_type_symbol
 _atom_site_label
 _atom_site_symmetry_multiplicity
 _atom_site_fract_x
 _atom_site_fract_y
 _atom_site_fract_z
 _atom_site_occupancy
  Mg  Mg0  1  0.25000000  0.87500000  0.62500000  1
  Mg  Mg1  1  0.75000000  0.62500000  0.87500000  1
  Mg  Mg2  1  0.62500000  0.87500000  0.75000000  1
  Mg  Mg3  1  0.87500000  0.62500000  0.25000000  1
  Mg  Mg4  1  0.62500000  0.25000000  0.87500000  1
  Mg  Mg5  1  0.87500000  0.75000000  0.62500000  1
  Mg  Mg6  1  0.75000000  0.12500000  0.37500000  1
  Mg  Mg7  1  0.25000000  0.37500000  0.12500000  1
  Mg  Mg8  1  0.37500000  0.12500000  0.25000000  1
  Mg  Mg9  1  0.12500000  0.37500000  0.75000000  1
  Mg  Mg10  1  0.37500000  0.75000000  0.12500000  1
  Mg  Mg11  1  0.12500000  0.25000000  0.37500000  1
  Ge  Ge12  1  0.12500000  0.75000000  0.87500000  1
  Ge  Ge13  1  0.87500000  0.25000000  0.12500000  1
  Ge  Ge14  1  0.62500000  0.37500000  0.25000000  1
  Ge  Ge15  1  0.75000000  0.87500000  0.12500000  1
  Ge  Ge16  1  0.87500000  0.12500000  0.75000000  1
  Ge  Ge17  1  0.25000000  0.62500000  0.37500000  1
  Ge  Ge18  1  0.75000000  0.37500000  0.62500000  1
  Ge  Ge19  1  0.25000000  0.12500000  0.87500000  1
  Ge  Ge20  1  0.12500000  0.87500000  0.25000000  1
  Ge  Ge21  1  0.37500000  0.62500000  0.75000000  1
  Ge  Ge22  1  0.62500000  0.75000000  0.37500000  1
  Ge  Ge23  1  0.37500000  0.25000000  0.62500000  1
  Sb  Sb24  1  0.50000000  0.50000000  0.50000000  1
  Sb  Sb25  1  0.50000000  0.00000000  0.50000000  1
  Sb  Sb26  1  0.00000000  0.50000000  0.50000000  1
  Sb  Sb27  1  0.50000000  0.50000000  0.00000000  1
  Sb  Sb28  1  0.00000000  0.00000000  0.50000000  1
  Sb  Sb29  1  0.00000000  0.50000000  0.00000000  1
  Sb  Sb30  1  0.50000000  0.00000000  0.00000000  1
  Sb  Sb31  1  0.00000000  0.00000000  0.00000000  1
  O  O32  1  0.40803500  0.80548400  0.77398200  1
  O  O33  1  0.86594600  0.39744900  0.09196400  1
  O  O34  1  0.10255100  0.96849700  0.69451600  1
  O  O35  1  0.53150300  0.63405400  0.72601800  1
  O  O36  1  0.69451600  0.09196400  0.72601800  1
  O  O37  1  0.63405400  0.72601800  0.53150300  1
  O  O38  1  0.63405400  0.40803500  0.10255100  1
  O  O39  1  0.72601800  0.53150300  0.63405400  1
  O  O40  1  0.80548400  0.53150300  0.39744900  1
  O  O41  1  0.96849700  0.77398200  0.86594600  1
  O  O42  1  0.77398200  0.86594600  0.96849700  1
  O  O43  1  0.72601800  0.69451600  0.09196500  1
  O  O44  1  0.40803500  0.10255100  0.63405400  1
  O  O45  1  0.39744900  0.80548400  0.53150300  1
  O  O46  1  0.09196500  0.72601800  0.69451600  1
  O  O47  1  0.10255100  0.63405400  0.40803500  1
  O  O48  1  0.53150300  0.39744900  0.80548400  1
  O  O49  1  0.09196400  0.86594600  0.39744900  1
  O  O50  1  0.96849700  0.69451600  0.10255100  1
  O  O51  1  0.19451600  0.46849700  0.60255100  1
  O  O52  1  0.69451600  0.10255100  0.96849700  1
  O  O53  1  0.77398200  0.40803500  0.80548400  1
  O  O54  1  0.39744900  0.09196400  0.86594600  1
  O  O55  1  0.86594600  0.96849700  0.77398200  1
  O  O56  1  0.59196400  0.19451600  0.22601800  1
  O  O57  1  0.13405400  0.60255100  0.90803500  1
  O  O58  1  0.89744900  0.03150300  0.30548400  1
  O  O59  1  0.46849700  0.36594600  0.27398200  1
  O  O60  1  0.30548400  0.90803500  0.27398200  1
  O  O61  1  0.36594600  0.27398200  0.46849700  1
  O  O62  1  0.36594600  0.59196400  0.89744900  1
  O  O63  1  0.27398200  0.46849700  0.36594600  1
  O  O64  1  0.13405400  0.03150300  0.22601800  1
  O  O65  1  0.60255100  0.90803500  0.13405400  1
  O  O66  1  0.22601800  0.59196400  0.19451600  1
  O  O67  1  0.19451600  0.22601800  0.59196500  1
  O  O68  1  0.30548400  0.89744900  0.03150300  1
  O  O69  1  0.03150300  0.30548400  0.89744900  1
  O  O70  1  0.90803500  0.13405400  0.60255100  1
  O  O71  1  0.46849700  0.60255100  0.19451600  1
  O  O72  1  0.89744900  0.36594600  0.59196500  1
  O  O73  1  0.90803500  0.27398200  0.30548400  1
  O  O74  1  0.60255100  0.19451600  0.46849700  1
  O  O75  1  0.59196400  0.89744900  0.36594600  1
  O  O76  1  0.27398200  0.30548400  0.90803500  1
  O  O77  1  0.22601800  0.13405400  0.03150300  1
  O  O78  1  0.03150300  0.22601800  0.13405400  1
  O  O79  1  0.80548400  0.77398200  0.40803500  1
