# generated using pymatgen
data_Zn3Co2O7
_symmetry_space_group_name_H-M   'P 1'
_cell_length_a   9.38369957
_cell_length_b   9.38369957
_cell_length_c   5.06108100
_cell_angle_alpha   90.00000000
_cell_angle_beta   90.00000000
_cell_angle_gamma   148.79181961
_symmetry_Int_Tables_number   1
_chemical_formula_structural   Zn3Co2O7
_chemical_formula_sum   'Zn6 Co4 O14'
_cell_volume   230.91186556
_cell_formula_units_Z   2
loop_
 _symmetry_equiv_pos_site_id
 _symmetry_equiv_pos_as_xyz
  1  'x, y, z'
loop_
 _atom_site_type_symbol
 _atom_site_label
 _atom_site_symmetry_multiplicity
 _atom_site_fract_x
 _atom_site_fract_y
 _atom_site_fract_z
 _atom_site_occupancy
  Zn  Zn0  1  0.24717500  0.24717500  0.29433200  1
  Zn  Zn1  1  0.75282500  0.75282500  0.79433200  1
  Zn  Zn2  1  0.03477400  0.42941100  0.19808000  1
  Zn  Zn3  1  0.96522600  0.57058900  0.69808000  1
  Zn  Zn4  1  0.42941100  0.03477400  0.19808000  1
  Zn  Zn5  1  0.57058900  0.96522600  0.69808000  1
  Co  Co6  1  0.84957000  0.64754200  0.24806400  1
  Co  Co7  1  0.15043000  0.35245800  0.74806400  1
  Co  Co8  1  0.35245800  0.15043000  0.74806400  1
  Co  Co9  1  0.64754200  0.84957000  0.24806400  1
  O  O10  1  0.65089800  0.05355100  0.30823000  1
  O  O11  1  0.34910200  0.94644900  0.80823000  1
  O  O12  1  0.94644900  0.34910200  0.80823000  1
  O  O13  1  0.05355100  0.65089800  0.30823000  1
  O  O14  1  0.44088100  0.69911100  0.93880300  1
  O  O15  1  0.55911900  0.30088900  0.43880300  1
  O  O16  1  0.30088900  0.55911900  0.43880300  1
  O  O17  1  0.69911100  0.44088100  0.93880300  1
  O  O18  1  0.99457600  0.14598000  0.05977100  1
  O  O19  1  0.00542400  0.85402000  0.55977100  1
  O  O20  1  0.63022600  0.63022600  0.17977000  1
  O  O21  1  0.36977400  0.36977400  0.67977000  1
  O  O22  1  0.14598000  0.99457600  0.05977100  1
  O  O23  1  0.85402000  0.00542400  0.55977100  1
