# generated using pymatgen
data_YCoO3
_symmetry_space_group_name_H-M   'P 1'
_cell_length_a   6.16575435
_cell_length_b   6.16575435
_cell_length_c   11.42833200
_cell_angle_alpha   90.00000000
_cell_angle_beta   90.00000000
_cell_angle_gamma   120.00000374
_symmetry_Int_Tables_number   1
_chemical_formula_structural   YCoO3
_chemical_formula_sum   'Y6 Co6 O18'
_cell_volume   376.25813590
_cell_formula_units_Z   6
loop_
 _symmetry_equiv_pos_site_id
 _symmetry_equiv_pos_as_xyz
  1  'x, y, z'
loop_
 _atom_site_type_symbol
 _atom_site_label
 _atom_site_symmetry_multiplicity
 _atom_site_fract_x
 _atom_site_fract_y
 _atom_site_fract_z
 _atom_site_occupancy
  Y  Y0  1  0.66666700  0.33333300  0.23044300  1
  Y  Y1  1  0.33333300  0.66666700  0.73044300  1
  Y  Y2  1  0.66666700  0.33333300  0.73044300  1
  Y  Y3  1  0.33333300  0.66666700  0.23044300  1
  Y  Y4  1  0.00000000  0.00000000  0.77613800  1
  Y  Y5  1  0.00000000  0.00000000  0.27613800  1
  Co  Co6  1  0.66559800  0.00000000  0.49956400  1
  Co  Co7  1  0.66559800  0.66559800  0.99956400  1
  Co  Co8  1  0.00000000  0.33440200  0.99956400  1
  Co  Co9  1  0.00000000  0.66559800  0.49956400  1
  Co  Co10  1  0.33440200  0.33440200  0.49956400  1
  Co  Co11  1  0.33440200  0.00000000  0.99956400  1
  O  O12  1  0.66666700  0.33333300  0.02192600  1
  O  O13  1  0.33333300  0.66666700  0.52192600  1
  O  O14  1  0.66666700  0.33333300  0.52192600  1
  O  O15  1  0.33333300  0.66666700  0.02192600  1
  O  O16  1  0.00000000  0.00000000  0.98201400  1
  O  O17  1  0.00000000  0.00000000  0.48201400  1
  O  O18  1  0.35873100  0.00000000  0.83976000  1
  O  O19  1  0.35873100  0.35873100  0.33976000  1
  O  O20  1  0.00000000  0.64126900  0.33976000  1
  O  O21  1  0.00000000  0.35873100  0.83976000  1
  O  O22  1  0.64126900  0.64126900  0.83976000  1
  O  O23  1  0.64126900  0.00000000  0.33976000  1
  O  O24  1  0.30764500  0.00000000  0.16471300  1
  O  O25  1  0.30764500  0.30764500  0.66471300  1
  O  O26  1  0.00000000  0.69235500  0.66471300  1
  O  O27  1  0.00000000  0.30764500  0.16471300  1
  O  O28  1  0.69235500  0.69235500  0.16471300  1
  O  O29  1  0.69235500  0.00000000  0.66471300  1
