# generated using pymatgen
data_Sb2O3
_symmetry_space_group_name_H-M   'P 1'
_cell_length_a   6.72618377
_cell_length_b   6.72618377
_cell_length_c   16.64689900
_cell_angle_alpha   90.00000000
_cell_angle_beta   90.00000000
_cell_angle_gamma   151.10285957
_symmetry_Int_Tables_number   1
_chemical_formula_structural   Sb2O3
_chemical_formula_sum   'Sb8 O12'
_cell_volume   363.94226961
_cell_formula_units_Z   4
loop_
 _symmetry_equiv_pos_site_id
 _symmetry_equiv_pos_as_xyz
  1  'x, y, z'
loop_
 _atom_site_type_symbol
 _atom_site_label
 _atom_site_symmetry_multiplicity
 _atom_site_fract_x
 _atom_site_fract_y
 _atom_site_fract_z
 _atom_site_occupancy
  Sb  Sb0  1  0.62732700  0.37267300  0.05516900  1
  Sb  Sb1  1  0.37267300  0.62732700  0.94483100  1
  Sb  Sb2  1  0.62732700  0.37267300  0.44483100  1
  Sb  Sb3  1  0.37267300  0.62732700  0.55516900  1
  Sb  Sb4  1  0.09458200  0.90541800  0.63258700  1
  Sb  Sb5  1  0.90541800  0.09458200  0.36741300  1
  Sb  Sb6  1  0.90541800  0.09458200  0.13258700  1
  Sb  Sb7  1  0.09458200  0.90541800  0.86741300  1
  O  O8  1  0.00000000  0.00000000  0.50000000  1
  O  O9  1  0.00000000  0.00000000  0.00000000  1
  O  O10  1  0.49671300  0.50328700  0.86234400  1
  O  O11  1  0.50328700  0.49671300  0.13765600  1
  O  O12  1  0.50328700  0.49671300  0.36234400  1
  O  O13  1  0.49671300  0.50328700  0.63765600  1
  O  O14  1  0.82178100  0.17821900  0.88441500  1
  O  O15  1  0.17821900  0.82178100  0.11558500  1
  O  O16  1  0.17821900  0.82178100  0.38441500  1
  O  O17  1  0.82178100  0.17821900  0.61558500  1
  O  O18  1  0.10697900  0.89302100  0.75000000  1
  O  O19  1  0.89302100  0.10697900  0.25000000  1
