# generated using pymatgen
data_BiO2
_symmetry_space_group_name_H-M   'P 1'
_cell_length_a   7.02230997
_cell_length_b   7.02230997
_cell_length_c   7.02230997
_cell_angle_alpha   60.00000000
_cell_angle_beta   60.00000000
_cell_angle_gamma   60.00000000
_symmetry_Int_Tables_number   1
_chemical_formula_structural   BiO2
_chemical_formula_sum   'Bi4 O8'
_cell_volume   244.86402794
_cell_formula_units_Z   4
loop_
 _symmetry_equiv_pos_site_id
 _symmetry_equiv_pos_as_xyz
  1  'x, y, z'
loop_
 _atom_site_type_symbol
 _atom_site_label
 _atom_site_symmetry_multiplicity
 _atom_site_fract_x
 _atom_site_fract_y
 _atom_site_fract_z
 _atom_site_occupancy
  Bi  Bi0  1  0.12500000  0.12500000  0.12500000  1
  Bi  Bi1  1  0.12500000  0.12500000  0.62500000  1
  Bi  Bi2  1  0.12500000  0.62500000  0.12500000  1
  Bi  Bi3  1  0.62500000  0.12500000  0.12500000  1
  O  O4  1  0.93647000  0.35451000  0.35451000  1
  O  O5  1  0.35451000  0.35451000  0.35451000  1
  O  O6  1  0.31353000  0.89549000  0.89549000  1
  O  O7  1  0.89549000  0.89549000  0.31353000  1
  O  O8  1  0.89549000  0.89549000  0.89549000  1
  O  O9  1  0.89549000  0.31353000  0.89549000  1
  O  O10  1  0.35451000  0.93647000  0.35451000  1
  O  O11  1  0.35451000  0.35451000  0.93647000  1
