# generated using pymatgen
data_Mg2Cr2O5
_symmetry_space_group_name_H-M   'P 1'
_cell_length_a   3.77044300
_cell_length_b   5.04490700
_cell_length_c   10.56447400
_cell_angle_alpha   90.00000000
_cell_angle_beta   90.00000000
_cell_angle_gamma   90.00000000
_symmetry_Int_Tables_number   1
_chemical_formula_structural   Mg2Cr2O5
_chemical_formula_sum   'Mg4 Cr4 O10'
_cell_volume   200.95250438
_cell_formula_units_Z   2
loop_
 _symmetry_equiv_pos_site_id
 _symmetry_equiv_pos_as_xyz
  1  'x, y, z'
loop_
 _atom_site_type_symbol
 _atom_site_label
 _atom_site_symmetry_multiplicity
 _atom_site_fract_x
 _atom_site_fract_y
 _atom_site_fract_z
 _atom_site_occupancy
  Mg  Mg0  1  0.50000000  0.25719800  0.90401600  1
  Mg  Mg1  1  0.50000000  0.74280200  0.09598400  1
  Mg  Mg2  1  0.50000000  0.75719800  0.59598400  1
  Mg  Mg3  1  0.50000000  0.24280200  0.40401600  1
  Cr  Cr4  1  0.00000000  0.23599500  0.63836200  1
  Cr  Cr5  1  0.00000000  0.76400500  0.36163800  1
  Cr  Cr6  1  0.00000000  0.26400500  0.13836200  1
  Cr  Cr7  1  0.00000000  0.73599500  0.86163800  1
  O  O8  1  0.00000000  0.50000000  0.50000000  1
  O  O9  1  0.00000000  0.14650900  0.31234600  1
  O  O10  1  0.00000000  0.64650900  0.18765400  1
  O  O11  1  0.00000000  0.35349100  0.81234600  1
  O  O12  1  0.50000000  0.31121100  0.09966200  1
  O  O13  1  0.50000000  0.68878900  0.90033800  1
  O  O14  1  0.00000000  0.85349100  0.68765400  1
  O  O15  1  0.50000000  0.18878900  0.59966200  1
  O  O16  1  0.00000000  0.00000000  0.00000000  1
  O  O17  1  0.50000000  0.81121100  0.40033800  1
