# generated using pymatgen
data_Ca(BiO2)2
_symmetry_space_group_name_H-M   'P 1'
_cell_length_a   7.02588382
_cell_length_b   7.02588382
_cell_length_c   23.31469705
_cell_angle_alpha   81.24563353
_cell_angle_beta   81.24563353
_cell_angle_gamma   59.95170078
_symmetry_Int_Tables_number   1
_chemical_formula_structural   Ca(BiO2)2
_chemical_formula_sum   'Ca8 Bi16 O32'
_cell_volume   980.71219716
_cell_formula_units_Z   8
loop_
 _symmetry_equiv_pos_site_id
 _symmetry_equiv_pos_as_xyz
  1  'x, y, z'
loop_
 _atom_site_type_symbol
 _atom_site_label
 _atom_site_symmetry_multiplicity
 _atom_site_fract_x
 _atom_site_fract_y
 _atom_site_fract_z
 _atom_site_occupancy
  Ca  Ca0  1  0.65401400  0.65401400  0.03037000  1
  Ca  Ca1  1  0.12435100  0.12435100  0.12512000  1
  Ca  Ca2  1  0.90341100  0.90341100  0.28114500  1
  Ca  Ca3  1  0.37414000  0.37414000  0.37577300  1
  Ca  Ca4  1  0.62499900  0.62499900  0.62486700  1
  Ca  Ca5  1  0.50004700  0.50004700  0.50007200  1
  Ca  Ca6  1  0.87518000  0.87518000  0.87422300  1
  Ca  Ca7  1  0.75051800  0.75051800  0.74885400  1
  Bi  Bi8  1  0.63029900  0.12372800  0.12530200  1
  Bi  Bi9  1  0.25005600  0.25005600  0.25347000  1
  Bi  Bi10  1  0.12372800  0.63029900  0.12530200  1
  Bi  Bi11  1  0.15306600  0.15306600  0.53278600  1
  Bi  Bi12  1  0.87339100  0.37457100  0.37613900  1
  Bi  Bi13  1  0.59718700  0.59718700  0.21921700  1
  Bi  Bi14  1  0.40355900  0.40355900  0.78176900  1
  Bi  Bi15  1  0.37457100  0.87339100  0.37613900  1
  Bi  Bi16  1  0.12476600  0.62511600  0.62468700  1
  Bi  Bi17  1  0.84691100  0.84691100  0.46765900  1
  Bi  Bi18  1  0.62511600  0.12476600  0.62468700  1
  Bi  Bi19  1  0.87396300  0.38134300  0.87384300  1
  Bi  Bi20  1  0.38134300  0.87396300  0.87384300  1
  Bi  Bi21  1  0.09664900  0.09664900  0.71761900  1
  Bi  Bi22  1  0.00075100  0.00075100  0.00190300  1
  Bi  Bi23  1  0.34675000  0.34675000  0.96940600  1
  O  O24  1  0.28549400  0.82427200  0.06454200  1
  O  O25  1  0.93865000  0.93865000  0.18046200  1
  O  O26  1  0.82427200  0.28549400  0.06454200  1
  O  O27  1  0.82175700  0.82175700  0.06447200  1
  O  O28  1  0.43416900  0.43416900  0.18635400  1
  O  O29  1  0.53454700  0.07615700  0.31496600  1
  O  O30  1  0.42716200  0.95509000  0.18471900  1
  O  O31  1  0.18973200  0.18973200  0.43342000  1
  O  O32  1  0.07615700  0.53454700  0.31496600  1
  O  O33  1  0.30853200  0.30853200  0.06779000  1
  O  O34  1  0.07138900  0.07138900  0.31434100  1
  O  O35  1  0.95509000  0.42716200  0.18471900  1
  O  O36  1  0.78722900  0.32320700  0.56471400  1
  O  O37  1  0.67878600  0.67878600  0.43654900  1
  O  O38  1  0.67692500  0.21076900  0.43556700  1
  O  O39  1  0.44036000  0.44036000  0.68228400  1
  O  O40  1  0.32320700  0.78722900  0.56471400  1
  O  O41  1  0.55937500  0.55937500  0.31964300  1
  O  O42  1  0.32278800  0.32278800  0.56373100  1
  O  O43  1  0.21076900  0.67692500  0.43556700  1
  O  O44  1  0.92769600  0.92769600  0.68621800  1
  O  O45  1  0.03846100  0.57179800  0.81414300  1
  O  O46  1  0.92639900  0.46264900  0.68520200  1
  O  O47  1  0.68959200  0.68959200  0.92935100  1
  O  O48  1  0.57179800  0.03846100  0.81414300  1
  O  O49  1  0.80969300  0.80969300  0.56792900  1
  O  O50  1  0.57318900  0.57318900  0.81377600  1
  O  O51  1  0.46264900  0.92639900  0.68520200  1
  O  O52  1  0.18274000  0.18274000  0.93608900  1
  O  O53  1  0.17605100  0.70768600  0.93454600  1
  O  O54  1  0.05883400  0.05883400  0.81659300  1
  O  O55  1  0.70768600  0.17605100  0.93454600  1
