# generated using pymatgen
data_Ca2TaFeO6
_symmetry_space_group_name_H-M   'P 1'
_cell_length_a   7.81209200
_cell_length_b   5.48028900
_cell_length_c   5.65526217
_cell_angle_alpha   89.65898486
_cell_angle_beta   90.00000000
_cell_angle_gamma   90.00000000
_symmetry_Int_Tables_number   1
_chemical_formula_structural   Ca2TaFeO6
_chemical_formula_sum   'Ca4 Ta2 Fe2 O12'
_cell_volume   242.11174672
_cell_formula_units_Z   2
loop_
 _symmetry_equiv_pos_site_id
 _symmetry_equiv_pos_as_xyz
  1  'x, y, z'
loop_
 _atom_site_type_symbol
 _atom_site_label
 _atom_site_symmetry_multiplicity
 _atom_site_fract_x
 _atom_site_fract_y
 _atom_site_fract_z
 _atom_site_occupancy
  Ca  Ca0  1  0.75000000  0.99119900  0.04205000  1
  Ca  Ca1  1  0.75000000  0.51220200  0.56521400  1
  Ca  Ca2  1  0.25000000  0.48779800  0.43478600  1
  Ca  Ca3  1  0.25000000  0.00880100  0.95795000  1
  Ta  Ta4  1  0.00000000  0.00000000  0.50000000  1
  Ta  Ta5  1  0.50000000  0.00000000  0.50000000  1
  Fe  Fe6  1  0.00000000  0.50000000  0.00000000  1
  Fe  Fe7  1  0.50000000  0.50000000  0.00000000  1
  O  O8  1  0.45118400  0.19629000  0.21099200  1
  O  O9  1  0.54577600  0.70877500  0.30293000  1
  O  O10  1  0.54881600  0.80371000  0.78900800  1
  O  O11  1  0.04577600  0.29122500  0.69707000  1
  O  O12  1  0.25000000  0.90792000  0.52924500  1
  O  O13  1  0.45422400  0.29122500  0.69707000  1
  O  O14  1  0.95422400  0.70877500  0.30293000  1
  O  O15  1  0.04881600  0.19629000  0.21099200  1
  O  O16  1  0.75000000  0.40869900  0.97203400  1
  O  O17  1  0.95118400  0.80371000  0.78900800  1
  O  O18  1  0.25000000  0.59130100  0.02796600  1
  O  O19  1  0.75000000  0.09208000  0.47075500  1
