# generated using pymatgen
data_TiZn2WO6
_symmetry_space_group_name_H-M   'P 1'
_cell_length_a   5.30871300
_cell_length_b   5.27984500
_cell_length_c   9.28154807
_cell_angle_alpha   56.78954849
_cell_angle_beta   90.00000000
_cell_angle_gamma   90.00000000
_symmetry_Int_Tables_number   1
_chemical_formula_structural   TiZn2WO6
_chemical_formula_sum   'Ti2 Zn4 W2 O12'
_cell_volume   217.66176038
_cell_formula_units_Z   2
loop_
 _symmetry_equiv_pos_site_id
 _symmetry_equiv_pos_as_xyz
  1  'x, y, z'
loop_
 _atom_site_type_symbol
 _atom_site_label
 _atom_site_symmetry_multiplicity
 _atom_site_fract_x
 _atom_site_fract_y
 _atom_site_fract_z
 _atom_site_occupancy
  Ti  Ti0  1  0.00000000  0.50000000  0.00000000  1
  Ti  Ti1  1  0.50000000  0.50000000  0.50000000  1
  Zn  Zn2  1  0.03129500  0.24730500  0.74650600  1
  Zn  Zn3  1  0.53129500  0.75269500  0.75349400  1
  Zn  Zn4  1  0.96870500  0.75269500  0.25349400  1
  Zn  Zn5  1  0.46870500  0.24730500  0.24650600  1
  W  W6  1  0.00000000  0.00000000  0.50000000  1
  W  W7  1  0.50000000  0.00000000  0.00000000  1
  O  O8  1  0.32601600  0.75581700  0.56589600  1
  O  O9  1  0.82601600  0.24418300  0.93410400  1
  O  O10  1  0.67398400  0.24418300  0.43410400  1
  O  O11  1  0.17398400  0.75581700  0.06589600  1
  O  O12  1  0.18714300  0.40562400  0.43103600  1
  O  O13  1  0.68714300  0.59437600  0.06896400  1
  O  O14  1  0.81285700  0.59437600  0.56896400  1
  O  O15  1  0.31285700  0.40562400  0.93103600  1
  O  O16  1  0.42198500  0.13826600  0.74482200  1
  O  O17  1  0.92198500  0.86173400  0.75517800  1
  O  O18  1  0.07801500  0.13826600  0.24482200  1
  O  O19  1  0.57801500  0.86173400  0.25517800  1
