# generated using pymatgen
data_TiO2
_symmetry_space_group_name_H-M   'P 1'
_cell_length_a   5.93157811
_cell_length_b   5.93157811
_cell_length_c   19.76066355
_cell_angle_alpha   80.46788700
_cell_angle_beta   80.46788700
_cell_angle_gamma   61.45291424
_symmetry_Int_Tables_number   1
_chemical_formula_structural   TiO2
_chemical_formula_sum   'Ti16 O32'
_cell_volume   599.28647105
_cell_formula_units_Z   16
loop_
 _symmetry_equiv_pos_site_id
 _symmetry_equiv_pos_as_xyz
  1  'x, y, z'
loop_
 _atom_site_type_symbol
 _atom_site_label
 _atom_site_symmetry_multiplicity
 _atom_site_fract_x
 _atom_site_fract_y
 _atom_site_fract_z
 _atom_site_occupancy
  Ti  Ti0  1  0.38259900  0.84944000  0.87409200  1
  Ti  Ti1  1  0.25381400  0.25381400  0.73763700  1
  Ti  Ti2  1  0.84944000  0.38259900  0.87409200  1
  Ti  Ti3  1  0.34774800  0.34774800  0.46594800  1
  Ti  Ti4  1  0.12631000  0.62773300  0.62206100  1
  Ti  Ti5  1  0.90117600  0.90117600  0.77863600  1
  Ti  Ti6  1  0.09446200  0.09446200  0.22265100  1
  Ti  Ti7  1  0.62773300  0.12631000  0.62206100  1
  Ti  Ti8  1  0.87421900  0.37869600  0.37665500  1
  Ti  Ti9  1  0.65374600  0.65374600  0.53410200  1
  Ti  Ti10  1  0.37869600  0.87421900  0.37665500  1
  Ti  Ti11  1  0.10123500  0.62859400  0.13037200  1
  Ti  Ti12  1  0.62859400  0.10123500  0.13037200  1
  Ti  Ti13  1  0.40524300  0.40524300  0.28322200  1
  Ti  Ti14  1  0.49709600  0.49709600  0.99310000  1
  Ti  Ti15  1  0.14762000  0.14762000  0.02939200  1
  O  O16  1  0.68386700  0.23385700  0.93785300  1
  O  O17  1  0.57440100  0.57440100  0.82288800  1
  O  O18  1  0.23385700  0.68386700  0.93785300  1
  O  O19  1  0.67325400  0.67325400  0.93266100  1
  O  O20  1  0.07194900  0.07194900  0.81480400  1
  O  O21  1  0.43824300  0.98943100  0.68492200  1
  O  O22  1  0.56182400  0.04824600  0.80899800  1
  O  O23  1  0.32712500  0.32712500  0.56286300  1
  O  O24  1  0.98943100  0.43824300  0.68492200  1
  O  O25  1  0.17552700  0.17552700  0.93640200  1
  O  O26  1  0.42492500  0.42492500  0.67947100  1
  O  O27  1  0.04824600  0.56182400  0.80899800  1
  O  O28  1  0.21900000  0.67943700  0.43315900  1
  O  O29  1  0.81387900  0.81387900  0.57152600  1
  O  O30  1  0.32709500  0.78662000  0.56748000  1
  O  O31  1  0.06977200  0.06977200  0.31963000  1
  O  O32  1  0.67943700  0.21900000  0.43315900  1
  O  O33  1  0.92814400  0.92814400  0.68264500  1
  O  O34  1  0.18340600  0.18340600  0.43036100  1
  O  O35  1  0.78662000  0.32709500  0.56748000  1
  O  O36  1  0.56919200  0.56919200  0.32025500  1
  O  O37  1  0.96484000  0.41945200  0.18474000  1
  O  O38  1  0.07358900  0.52888500  0.31583700  1
  O  O39  1  0.81332600  0.81332600  0.08364900  1
  O  O40  1  0.41945200  0.96484000  0.18474000  1
  O  O41  1  0.67928100  0.67928100  0.43283900  1
  O  O42  1  0.93785100  0.93785100  0.18219900  1
  O  O43  1  0.52888500  0.07358900  0.31583700  1
  O  O44  1  0.32135500  0.32135500  0.06574100  1
  O  O45  1  0.80213300  0.28974900  0.05991600  1
  O  O46  1  0.42387700  0.42387700  0.18558800  1
  O  O47  1  0.28974900  0.80213300  0.05991600  1
