# generated using pymatgen
data_CaCuO2
_symmetry_space_group_name_H-M   'P 1'
_cell_length_a   3.60067700
_cell_length_b   7.78358570
_cell_length_c   8.21691900
_cell_angle_alpha   105.44726433
_cell_angle_beta   98.23096089
_cell_angle_gamma   94.78304211
_symmetry_Int_Tables_number   1
_chemical_formula_structural   CaCuO2
_chemical_formula_sum   'Ca4 Cu4 O8'
_cell_volume   217.89380314
_cell_formula_units_Z   4
loop_
 _symmetry_equiv_pos_site_id
 _symmetry_equiv_pos_as_xyz
  1  'x, y, z'
loop_
 _atom_site_type_symbol
 _atom_site_label
 _atom_site_symmetry_multiplicity
 _atom_site_fract_x
 _atom_site_fract_y
 _atom_site_fract_z
 _atom_site_occupancy
  Ca  Ca0  1  0.40630300  0.65713100  0.34306000  1
  Ca  Ca1  1  0.59369700  0.34286900  0.65694000  1
  Ca  Ca2  1  0.25745500  0.28878400  0.98893100  1
  Ca  Ca3  1  0.74254500  0.71121600  0.01106900  1
  Cu  Cu4  1  0.14318400  0.69145200  0.70436000  1
  Cu  Cu5  1  0.82524000  0.98336300  0.64946900  1
  Cu  Cu6  1  0.17476000  0.01663700  0.35053100  1
  Cu  Cu7  1  0.85681600  0.30854800  0.29564000  1
  O  O8  1  0.34388700  0.23682400  0.30716300  1
  O  O9  1  0.31275200  0.84717900  0.17180700  1
  O  O10  1  0.68724800  0.15282100  0.82819300  1
  O  O11  1  0.65611300  0.76317600  0.69283700  1
  O  O12  1  0.19938600  0.51137500  0.83175000  1
  O  O13  1  0.99111700  0.83495000  0.45936100  1
  O  O14  1  0.80061400  0.48862500  0.16825000  1
  O  O15  1  0.00888300  0.16505000  0.54063900  1
