# generated using pymatgen
data_TaZn2WO6
_symmetry_space_group_name_H-M   'P 1'
_cell_length_a   5.53894200
_cell_length_b   5.41208600
_cell_length_c   9.53458883
_cell_angle_alpha   55.78570654
_cell_angle_beta   90.00000000
_cell_angle_gamma   90.00000000
_symmetry_Int_Tables_number   1
_chemical_formula_structural   TaZn2WO6
_chemical_formula_sum   'Ta2 Zn4 W2 O12'
_cell_volume   236.35655269
_cell_formula_units_Z   2
loop_
 _symmetry_equiv_pos_site_id
 _symmetry_equiv_pos_as_xyz
  1  'x, y, z'
loop_
 _atom_site_type_symbol
 _atom_site_label
 _atom_site_symmetry_multiplicity
 _atom_site_fract_x
 _atom_site_fract_y
 _atom_site_fract_z
 _atom_site_occupancy
  Ta  Ta0  1  0.00000000  0.50000000  0.00000000  1
  Ta  Ta1  1  0.50000000  0.50000000  0.50000000  1
  Zn  Zn2  1  0.99149500  0.25061000  0.74391500  1
  Zn  Zn3  1  0.49149500  0.74939000  0.75608500  1
  Zn  Zn4  1  0.00850500  0.74939000  0.25608500  1
  Zn  Zn5  1  0.50850500  0.25061000  0.24391500  1
  W  W6  1  0.00000000  0.00000000  0.50000000  1
  W  W7  1  0.50000000  0.00000000  0.00000000  1
  O  O8  1  0.32728100  0.73373700  0.57374200  1
  O  O9  1  0.82728100  0.26626300  0.92625800  1
  O  O10  1  0.67271900  0.26626300  0.42625800  1
  O  O11  1  0.17271900  0.73373700  0.07374200  1
  O  O12  1  0.18756800  0.39777800  0.44025400  1
  O  O13  1  0.68756800  0.60222200  0.05974600  1
  O  O14  1  0.81243200  0.60222200  0.55974600  1
  O  O15  1  0.31243200  0.39777800  0.94025400  1
  O  O16  1  0.46181600  0.12716900  0.73908900  1
  O  O17  1  0.96181600  0.87283100  0.76091100  1
  O  O18  1  0.03818400  0.12716900  0.23908900  1
  O  O19  1  0.53818400  0.87283100  0.26091100  1
