# generated using pymatgen
data_MgV2O4
_symmetry_space_group_name_H-M   'P 1'
_cell_length_a   6.05390174
_cell_length_b   6.05390174
_cell_length_c   20.03550183
_cell_angle_alpha   81.29228262
_cell_angle_beta   81.29228262
_cell_angle_gamma   60.13892965
_symmetry_Int_Tables_number   1
_chemical_formula_structural   MgV2O4
_chemical_formula_sum   'Mg8 V16 O32'
_cell_volume   626.98724363
_cell_formula_units_Z   8
loop_
 _symmetry_equiv_pos_site_id
 _symmetry_equiv_pos_as_xyz
  1  'x, y, z'
loop_
 _atom_site_type_symbol
 _atom_site_label
 _atom_site_symmetry_multiplicity
 _atom_site_fract_x
 _atom_site_fract_y
 _atom_site_fract_z
 _atom_site_occupancy
  Mg  Mg0  1  0.65325100  0.65325100  0.03049200  1
  Mg  Mg1  1  0.12319900  0.12319900  0.12545100  1
  Mg  Mg2  1  0.90262800  0.90262800  0.28173100  1
  Mg  Mg3  1  0.37466900  0.37466900  0.37558700  1
  Mg  Mg4  1  0.62510200  0.62510200  0.62460100  1
  Mg  Mg5  1  0.49976900  0.49976900  0.50023400  1
  Mg  Mg6  1  0.87378000  0.87378000  0.87420500  1
  Mg  Mg7  1  0.74983800  0.74983800  0.74905400  1
  V  V8  1  0.63037900  0.12285800  0.12511800  1
  V  V9  1  0.25120200  0.25120200  0.25221700  1
  V  V10  1  0.12285800  0.63037900  0.12511800  1
  V  V11  1  0.15287700  0.15287700  0.53307900  1
  V  V12  1  0.87746200  0.37340900  0.37496600  1
  V  V13  1  0.59687600  0.59687600  0.21904100  1
  V  V14  1  0.40266100  0.40266100  0.78190600  1
  V  V15  1  0.37340900  0.87746200  0.37496600  1
  V  V16  1  0.12489000  0.62539400  0.62447900  1
  V  V17  1  0.84859100  0.84859100  0.46636000  1
  V  V18  1  0.62539400  0.12489000  0.62447900  1
  V  V19  1  0.87453700  0.37774000  0.87462600  1
  V  V20  1  0.37774000  0.87453700  0.87462600  1
  V  V21  1  0.09707500  0.09707500  0.71704000  1
  V  V22  1  0.99922200  0.99922200  0.00218700  1
  V  V23  1  0.34625400  0.34625400  0.96970800  1
  O  O24  1  0.28287500  0.81874500  0.06430000  1
  O  O25  1  0.93696500  0.93696500  0.18087200  1
  O  O26  1  0.81874500  0.28287500  0.06430000  1
  O  O27  1  0.82144700  0.82144700  0.06496100  1
  O  O28  1  0.43112800  0.43112800  0.18559400  1
  O  O29  1  0.53142700  0.07035400  0.31428000  1
  O  O30  1  0.43268500  0.96285100  0.18623600  1
  O  O31  1  0.18724400  0.18724400  0.43428400  1
  O  O32  1  0.07035400  0.53142700  0.31428000  1
  O  O33  1  0.31263100  0.31263100  0.06801500  1
  O  O34  1  0.07236700  0.07236700  0.31644000  1
  O  O35  1  0.96285100  0.43268500  0.18623600  1
  O  O36  1  0.79113800  0.31811000  0.56516000  1
  O  O37  1  0.68176900  0.68176900  0.43312600  1
  O  O38  1  0.68553200  0.20748100  0.43415300  1
  O  O39  1  0.43360600  0.43360600  0.68171500  1
  O  O40  1  0.31811000  0.79113800  0.56516000  1
  O  O41  1  0.56311300  0.56311300  0.31692300  1
  O  O42  1  0.31981000  0.31981000  0.56528300  1
  O  O43  1  0.20748100  0.68553200  0.43415300  1
  O  O44  1  0.93046600  0.93046600  0.68473300  1
  O  O45  1  0.04360400  0.56207200  0.81536700  1
  O  O46  1  0.93254500  0.45762900  0.68474100  1
  O  O47  1  0.68691900  0.68691900  0.92922200  1
  O  O48  1  0.56207200  0.04360400  0.81536700  1
  O  O49  1  0.81652600  0.81652600  0.56752400  1
  O  O50  1  0.56790000  0.56790000  0.81496400  1
  O  O51  1  0.45762900  0.93254500  0.68474100  1
  O  O52  1  0.17985200  0.17985200  0.93629000  1
  O  O53  1  0.18327100  0.71167500  0.93630700  1
  O  O54  1  0.06254600  0.06254600  0.81769400  1
  O  O55  1  0.71167500  0.18327100  0.93630700  1
