# generated using pymatgen
data_Mg2AgWO6
_symmetry_space_group_name_H-M   'P 1'
_cell_length_a   5.37018200
_cell_length_b   5.23142300
_cell_length_c   9.91496476
_cell_angle_alpha   58.63714174
_cell_angle_beta   90.00000000
_cell_angle_gamma   90.00000000
_symmetry_Int_Tables_number   1
_chemical_formula_structural   Mg2AgWO6
_chemical_formula_sum   'Mg4 Ag2 W2 O12'
_cell_volume   237.84887984
_cell_formula_units_Z   2
loop_
 _symmetry_equiv_pos_site_id
 _symmetry_equiv_pos_as_xyz
  1  'x, y, z'
loop_
 _atom_site_type_symbol
 _atom_site_label
 _atom_site_symmetry_multiplicity
 _atom_site_fract_x
 _atom_site_fract_y
 _atom_site_fract_z
 _atom_site_occupancy
  Mg  Mg0  1  0.03099500  0.28574600  0.71652400  1
  Mg  Mg1  1  0.53099500  0.71425400  0.78347600  1
  Mg  Mg2  1  0.96900500  0.71425400  0.28347600  1
  Mg  Mg3  1  0.46900500  0.28574600  0.21652400  1
  Ag  Ag4  1  0.00000000  0.50000000  0.00000000  1
  Ag  Ag5  1  0.50000000  0.50000000  0.50000000  1
  W  W6  1  0.00000000  0.00000000  0.50000000  1
  W  W7  1  0.50000000  0.00000000  0.00000000  1
  O  O8  1  0.27422300  0.71763400  0.62475700  1
  O  O9  1  0.77422300  0.28236600  0.87524300  1
  O  O10  1  0.72577700  0.28236600  0.37524300  1
  O  O11  1  0.22577700  0.71763400  0.12475700  1
  O  O12  1  0.16684100  0.35381300  0.46623200  1
  O  O13  1  0.66684100  0.64618700  0.03376800  1
  O  O14  1  0.83315900  0.64618700  0.53376800  1
  O  O15  1  0.33315900  0.35381300  0.96623200  1
  O  O16  1  0.35569100  0.04644600  0.80809500  1
  O  O17  1  0.85569100  0.95355400  0.69190500  1
  O  O18  1  0.14430900  0.04644600  0.30809500  1
  O  O19  1  0.64430900  0.95355400  0.19190500  1
