# generated using pymatgen
data_Mg2TaWO6
_symmetry_space_group_name_H-M   'P 1'
_cell_length_a   7.75489800
_cell_length_b   5.36643500
_cell_length_c   5.46125553
_cell_angle_alpha   88.45145001
_cell_angle_beta   90.00000000
_cell_angle_gamma   90.00000000
_symmetry_Int_Tables_number   1
_chemical_formula_structural   Mg2TaWO6
_chemical_formula_sum   'Mg4 Ta2 W2 O12'
_cell_volume   227.19345769
_cell_formula_units_Z   2
loop_
 _symmetry_equiv_pos_site_id
 _symmetry_equiv_pos_as_xyz
  1  'x, y, z'
loop_
 _atom_site_type_symbol
 _atom_site_label
 _atom_site_symmetry_multiplicity
 _atom_site_fract_x
 _atom_site_fract_y
 _atom_site_fract_z
 _atom_site_occupancy
  Mg  Mg0  1  0.75000000  0.00742000  0.03345300  1
  Mg  Mg1  1  0.75000000  0.49648200  0.54547300  1
  Mg  Mg2  1  0.25000000  0.50351800  0.45452700  1
  Mg  Mg3  1  0.25000000  0.99258000  0.96654700  1
  Ta  Ta4  1  0.00000000  0.00000000  0.50000000  1
  Ta  Ta5  1  0.50000000  0.00000000  0.50000000  1
  W  W6  1  0.00000000  0.50000000  0.00000000  1
  W  W7  1  0.50000000  0.50000000  0.00000000  1
  O  O8  1  0.43015600  0.15523000  0.18513300  1
  O  O9  1  0.56854800  0.68884300  0.33586900  1
  O  O10  1  0.56984400  0.84477000  0.81486700  1
  O  O11  1  0.06854800  0.31115700  0.66413100  1
  O  O12  1  0.25000000  0.87173000  0.57441600  1
  O  O13  1  0.43145200  0.31115700  0.66413100  1
  O  O14  1  0.93145200  0.68884300  0.33586900  1
  O  O15  1  0.06984400  0.15523000  0.18513300  1
  O  O16  1  0.75000000  0.36102000  0.90189200  1
  O  O17  1  0.93015600  0.84477000  0.81486700  1
  O  O18  1  0.25000000  0.63898000  0.09810800  1
  O  O19  1  0.75000000  0.12827000  0.42558400  1
