# generated using pymatgen
data_Ca2SnWO6
_symmetry_space_group_name_H-M   'P 1'
_cell_length_a   5.96321100
_cell_length_b   5.66101500
_cell_length_c   10.04079069
_cell_angle_alpha   55.67602817
_cell_angle_beta   90.00000000
_cell_angle_gamma   90.00000000
_symmetry_Int_Tables_number   1
_chemical_formula_structural   Ca2SnWO6
_chemical_formula_sum   'Ca4 Sn2 W2 O12'
_cell_volume   279.93043326
_cell_formula_units_Z   2
loop_
 _symmetry_equiv_pos_site_id
 _symmetry_equiv_pos_as_xyz
  1  'x, y, z'
loop_
 _atom_site_type_symbol
 _atom_site_label
 _atom_site_symmetry_multiplicity
 _atom_site_fract_x
 _atom_site_fract_y
 _atom_site_fract_z
 _atom_site_occupancy
  Ca  Ca0  1  0.05928600  0.27023300  0.74603100  1
  Ca  Ca1  1  0.55928600  0.72976700  0.75396900  1
  Ca  Ca2  1  0.94071400  0.72976700  0.25396900  1
  Ca  Ca3  1  0.44071400  0.27023300  0.24603100  1
  Sn  Sn4  1  0.00000000  0.50000000  0.00000000  1
  Sn  Sn5  1  0.50000000  0.50000000  0.50000000  1
  W  W6  1  0.00000000  0.00000000  0.50000000  1
  W  W7  1  0.50000000  0.00000000  0.00000000  1
  O  O8  1  0.27618700  0.77076000  0.57904600  1
  O  O9  1  0.77618700  0.22924000  0.92095400  1
  O  O10  1  0.72381300  0.22924000  0.42095400  1
  O  O11  1  0.22381300  0.77076000  0.07904600  1
  O  O12  1  0.16554100  0.34290500  0.44132900  1
  O  O13  1  0.66554100  0.65709500  0.05867100  1
  O  O14  1  0.83445900  0.65709500  0.55867100  1
  O  O15  1  0.33445900  0.34290500  0.94132900  1
  O  O16  1  0.43464800  0.08713300  0.78397600  1
  O  O17  1  0.93464800  0.91286700  0.71602400  1
  O  O18  1  0.06535200  0.08713300  0.28397600  1
  O  O19  1  0.56535200  0.91286700  0.21602400  1
