# generated using pymatgen
data_Mg(SnO2)2
_symmetry_space_group_name_H-M   'P 1'
_cell_length_a   6.34891201
_cell_length_b   6.34891201
_cell_length_c   23.58681528
_cell_angle_alpha   81.99389232
_cell_angle_beta   81.99389232
_cell_angle_gamma   60.24749772
_symmetry_Int_Tables_number   1
_chemical_formula_structural   Mg(SnO2)2
_chemical_formula_sum   'Mg8 Sn16 O32'
_cell_volume   814.65076744
_cell_formula_units_Z   8
loop_
 _symmetry_equiv_pos_site_id
 _symmetry_equiv_pos_as_xyz
  1  'x, y, z'
loop_
 _atom_site_type_symbol
 _atom_site_label
 _atom_site_symmetry_multiplicity
 _atom_site_fract_x
 _atom_site_fract_y
 _atom_site_fract_z
 _atom_site_occupancy
  Mg  Mg0  1  0.64575500  0.64575500  0.04418300  1
  Mg  Mg1  1  0.12581000  0.12581000  0.12496900  1
  Mg  Mg2  1  0.89141100  0.89141100  0.29424900  1
  Mg  Mg3  1  0.37183400  0.37183400  0.37929300  1
  Mg  Mg4  1  0.62510500  0.62510500  0.62592000  1
  Mg  Mg5  1  0.49842100  0.49842100  0.50189200  1
  Mg  Mg6  1  0.88215400  0.88215400  0.86977000  1
  Mg  Mg7  1  0.75197600  0.75197600  0.74913000  1
  Sn  Sn8  1  0.62505500  0.12514500  0.12475600  1
  Sn  Sn9  1  0.24751600  0.24751600  0.25696200  1
  Sn  Sn10  1  0.12514500  0.62505500  0.12475600  1
  Sn  Sn11  1  0.14956300  0.14956300  0.53139500  1
  Sn  Sn12  1  0.86487900  0.37252000  0.37716900  1
  Sn  Sn13  1  0.60288000  0.60288000  0.21576000  1
  Sn  Sn14  1  0.40408100  0.40408100  0.78230300  1
  Sn  Sn15  1  0.37252000  0.86487900  0.37716900  1
  Sn  Sn16  1  0.12479900  0.62467100  0.62577000  1
  Sn  Sn17  1  0.84606900  0.84606900  0.47168700  1
  Sn  Sn18  1  0.62467100  0.12479900  0.62577000  1
  Sn  Sn19  1  0.87815300  0.38672100  0.87260200  1
  Sn  Sn20  1  0.38672100  0.87815300  0.87260200  1
  Sn  Sn21  1  0.09958800  0.09958800  0.72029900  1
  Sn  Sn22  1  0.00269700  0.00269700  0.00335100  1
  Sn  Sn23  1  0.36000600  0.36000600  0.96227700  1
  O  O24  1  0.28613600  0.81290200  0.07146100  1
  O  O25  1  0.93543200  0.93543200  0.17400900  1
  O  O26  1  0.81290200  0.28613600  0.07146100  1
  O  O27  1  0.81804300  0.81804300  0.07049100  1
  O  O28  1  0.43831600  0.43831600  0.17335300  1
  O  O29  1  0.54047300  0.04998400  0.32293600  1
  O  O30  1  0.44424600  0.95018500  0.17042600  1
  O  O31  1  0.18950500  0.18950500  0.41505200  1
  O  O32  1  0.04998400  0.54047300  0.32293600  1
  O  O33  1  0.30819000  0.30819000  0.08368300  1
  O  O34  1  0.05410500  0.05410500  0.32536500  1
  O  O35  1  0.95018500  0.44424600  0.17042600  1
  O  O36  1  0.77288000  0.31787700  0.56924300  1
  O  O37  1  0.67052700  0.67052700  0.43086300  1
  O  O38  1  0.67609500  0.22598300  0.43470500  1
  O  O39  1  0.44370100  0.44370100  0.66768900  1
  O  O40  1  0.31787700  0.77288000  0.56924300  1
  O  O41  1  0.54889800  0.54889800  0.33525200  1
  O  O42  1  0.32390900  0.32390900  0.57205100  1
  O  O43  1  0.22598300  0.67609500  0.43470500  1
  O  O44  1  0.92486500  0.92486500  0.67827500  1
  O  O45  1  0.01805300  0.58356200  0.81690800  1
  O  O46  1  0.93180400  0.47788300  0.68157000  1
  O  O47  1  0.68547900  0.68547900  0.92663100  1
  O  O48  1  0.58356200  0.01805300  0.81690800  1
  O  O49  1  0.80628500  0.80628500  0.58294000  1
  O  O50  1  0.58661000  0.58661000  0.81738300  1
  O  O51  1  0.47788300  0.93180400  0.68157000  1
  O  O52  1  0.19909300  0.19909300  0.91819800  1
  O  O53  1  0.19780500  0.70498400  0.91525300  1
  O  O54  1  0.06932700  0.06932700  0.82972200  1
  O  O55  1  0.70498400  0.19780500  0.91525300  1
