# generated using pymatgen
data_BaMgTi4O8
_symmetry_space_group_name_H-M   'P 1'
_cell_length_a   5.39185217
_cell_length_b   5.39185217
_cell_length_c   7.51218300
_cell_angle_alpha   90.00000000
_cell_angle_beta   90.00000000
_cell_angle_gamma   120.00000207
_symmetry_Int_Tables_number   1
_chemical_formula_structural   BaMgTi4O8
_chemical_formula_sum   'Ba1 Mg1 Ti4 O8'
_cell_volume   189.13536174
_cell_formula_units_Z   1
loop_
 _symmetry_equiv_pos_site_id
 _symmetry_equiv_pos_as_xyz
  1  'x, y, z'
loop_
 _atom_site_type_symbol
 _atom_site_label
 _atom_site_symmetry_multiplicity
 _atom_site_fract_x
 _atom_site_fract_y
 _atom_site_fract_z
 _atom_site_occupancy
  Ba  Ba0  1  0.00000000  0.00000000  0.00000000  1
  Mg  Mg1  1  0.00000000  0.00000000  0.50000000  1
  Ti  Ti2  1  0.33333300  0.66666700  0.74809400  1
  Ti  Ti3  1  0.66666700  0.33333300  0.74809400  1
  Ti  Ti4  1  0.33333300  0.66666700  0.25190600  1
  Ti  Ti5  1  0.66666700  0.33333300  0.25190600  1
  O  O6  1  0.31490200  0.31490200  0.67410200  1
  O  O7  1  0.68509800  0.00000000  0.67410200  1
  O  O8  1  0.00000000  0.68509800  0.67410200  1
  O  O9  1  0.68509800  0.68509800  0.32589800  1
  O  O10  1  0.00000000  0.31490200  0.32589800  1
  O  O11  1  0.31490200  0.00000000  0.32589800  1
  O  O12  1  0.33333300  0.66666700  0.00000000  1
  O  O13  1  0.66666700  0.33333300  0.00000000  1
