# generated using pymatgen
data_Ge3(MoO6)2
_symmetry_space_group_name_H-M   'P 1'
_cell_length_a   10.72749478
_cell_length_b   10.72749478
_cell_length_c   10.72749478
_cell_angle_alpha   109.47122063
_cell_angle_beta   109.47122063
_cell_angle_gamma   109.47122063
_symmetry_Int_Tables_number   1
_chemical_formula_structural   Ge3(MoO6)2
_chemical_formula_sum   'Ge12 Mo8 O48'
_cell_volume   950.32694923
_cell_formula_units_Z   4
loop_
 _symmetry_equiv_pos_site_id
 _symmetry_equiv_pos_as_xyz
  1  'x, y, z'
loop_
 _atom_site_type_symbol
 _atom_site_label
 _atom_site_symmetry_multiplicity
 _atom_site_fract_x
 _atom_site_fract_y
 _atom_site_fract_z
 _atom_site_occupancy
  Ge  Ge0  1  0.12500000  0.75000000  0.87500000  1
  Ge  Ge1  1  0.87500000  0.25000000  0.12500000  1
  Ge  Ge2  1  0.62500000  0.37500000  0.25000000  1
  Ge  Ge3  1  0.75000000  0.87500000  0.12500000  1
  Ge  Ge4  1  0.87500000  0.12500000  0.75000000  1
  Ge  Ge5  1  0.25000000  0.62500000  0.37500000  1
  Ge  Ge6  1  0.75000000  0.37500000  0.62500000  1
  Ge  Ge7  1  0.25000000  0.12500000  0.87500000  1
  Ge  Ge8  1  0.12500000  0.87500000  0.25000000  1
  Ge  Ge9  1  0.37500000  0.62500000  0.75000000  1
  Ge  Ge10  1  0.62500000  0.75000000  0.37500000  1
  Ge  Ge11  1  0.37500000  0.25000000  0.62500000  1
  Mo  Mo12  1  0.50000000  0.50000000  0.50000000  1
  Mo  Mo13  1  0.50000000  0.00000000  0.50000000  1
  Mo  Mo14  1  0.00000000  0.50000000  0.50000000  1
  Mo  Mo15  1  0.50000000  0.50000000  0.00000000  1
  Mo  Mo16  1  0.00000000  0.00000000  0.50000000  1
  Mo  Mo17  1  0.00000000  0.50000000  0.00000000  1
  Mo  Mo18  1  0.50000000  0.00000000  0.00000000  1
  Mo  Mo19  1  0.00000000  0.00000000  0.00000000  1
  O  O20  1  0.42003300  0.81722300  0.81115500  1
  O  O21  1  0.89112200  0.39719000  0.07996700  1
  O  O22  1  0.10281000  0.99393100  0.68277700  1
  O  O23  1  0.50606900  0.60887800  0.68884500  1
  O  O24  1  0.68277700  0.07996700  0.68884500  1
  O  O25  1  0.60887800  0.68884500  0.50606900  1
  O  O26  1  0.60887800  0.42003300  0.10281000  1
  O  O27  1  0.68884500  0.50606900  0.60887800  1
  O  O28  1  0.81722300  0.50606900  0.39719000  1
  O  O29  1  0.99393100  0.81115500  0.89112200  1
  O  O30  1  0.81115500  0.89112200  0.99393100  1
  O  O31  1  0.68884500  0.68277700  0.07996700  1
  O  O32  1  0.42003300  0.10281000  0.60887800  1
  O  O33  1  0.39719000  0.81722300  0.50606900  1
  O  O34  1  0.07996700  0.68884500  0.68277700  1
  O  O35  1  0.10281000  0.60887800  0.42003300  1
  O  O36  1  0.50606900  0.39719000  0.81722300  1
  O  O37  1  0.07996700  0.89112200  0.39719000  1
  O  O38  1  0.99393100  0.68277700  0.10281000  1
  O  O39  1  0.18277700  0.49393100  0.60281000  1
  O  O40  1  0.68277700  0.10281000  0.99393100  1
  O  O41  1  0.81115500  0.42003300  0.81722300  1
  O  O42  1  0.39719000  0.07996700  0.89112200  1
  O  O43  1  0.89112200  0.99393100  0.81115500  1
  O  O44  1  0.57996700  0.18277700  0.18884500  1
  O  O45  1  0.10887800  0.60281000  0.92003300  1
  O  O46  1  0.89719000  0.00606900  0.31722300  1
  O  O47  1  0.49393100  0.39112200  0.31115500  1
  O  O48  1  0.31722300  0.92003300  0.31115500  1
  O  O49  1  0.39112200  0.31115500  0.49393100  1
  O  O50  1  0.39112200  0.57996700  0.89719000  1
  O  O51  1  0.31115500  0.49393100  0.39112200  1
  O  O52  1  0.10887800  0.00606900  0.18884500  1
  O  O53  1  0.60281000  0.92003300  0.10887800  1
  O  O54  1  0.18884500  0.57996700  0.18277700  1
  O  O55  1  0.18277700  0.18884500  0.57996700  1
  O  O56  1  0.31722300  0.89719000  0.00606900  1
  O  O57  1  0.00606900  0.31722300  0.89719000  1
  O  O58  1  0.92003300  0.10887800  0.60281000  1
  O  O59  1  0.49393100  0.60281000  0.18277700  1
  O  O60  1  0.89719000  0.39112200  0.57996700  1
  O  O61  1  0.92003300  0.31115500  0.31722300  1
  O  O62  1  0.60281000  0.18277700  0.49393100  1
  O  O63  1  0.57996700  0.89719000  0.39112200  1
  O  O64  1  0.31115500  0.31722300  0.92003300  1
  O  O65  1  0.18884500  0.10887800  0.00606900  1
  O  O66  1  0.00606900  0.18884500  0.10887800  1
  O  O67  1  0.81722300  0.81115500  0.42003300  1
