# generated using pymatgen
data_Al(SnO2)2
_symmetry_space_group_name_H-M   'P 1'
_cell_length_a   7.07662374
_cell_length_b   7.07662374
_cell_length_c   5.59377259
_cell_angle_alpha   66.75200269
_cell_angle_beta   66.75200269
_cell_angle_gamma   110.77524108
_symmetry_Int_Tables_number   1
_chemical_formula_structural   Al(SnO2)2
_chemical_formula_sum   'Al2 Sn4 O8'
_cell_volume   188.34698245
_cell_formula_units_Z   2
loop_
 _symmetry_equiv_pos_site_id
 _symmetry_equiv_pos_as_xyz
  1  'x, y, z'
loop_
 _atom_site_type_symbol
 _atom_site_label
 _atom_site_symmetry_multiplicity
 _atom_site_fract_x
 _atom_site_fract_y
 _atom_site_fract_z
 _atom_site_occupancy
  Al  Al0  1  0.12678200  0.87321800  0.25000000  1
  Al  Al1  1  0.87321800  0.12678200  0.75000000  1
  Sn  Sn2  1  0.50000000  0.50000000  0.50000000  1
  Sn  Sn3  1  0.50000000  0.50000000  0.00000000  1
  Sn  Sn4  1  0.50000000  0.00000000  0.50000000  1
  Sn  Sn5  1  0.00000000  0.50000000  0.00000000  1
  O  O6  1  0.91928900  0.71930600  0.69727000  1
  O  O7  1  0.28069400  0.08071100  0.80273000  1
  O  O8  1  0.08071100  0.28069400  0.30273000  1
  O  O9  1  0.71930600  0.91928900  0.19727000  1
  O  O10  1  0.10698300  0.41521100  0.67259700  1
  O  O11  1  0.58478900  0.89301700  0.82740300  1
  O  O12  1  0.41521100  0.10698300  0.17259700  1
  O  O13  1  0.89301700  0.58478900  0.32740300  1
