# generated using pymatgen
data_VZnO2
_symmetry_space_group_name_H-M   'P 1'
_cell_length_a   2.92899900
_cell_length_b   7.73134910
_cell_length_c   9.54936743
_cell_angle_alpha   94.42888451
_cell_angle_beta   90.99172216
_cell_angle_gamma   98.71758706
_symmetry_Int_Tables_number   1
_chemical_formula_structural   VZnO2
_chemical_formula_sum   'V4 Zn4 O8'
_cell_volume   213.01767531
_cell_formula_units_Z   4
loop_
 _symmetry_equiv_pos_site_id
 _symmetry_equiv_pos_as_xyz
  1  'x, y, z'
loop_
 _atom_site_type_symbol
 _atom_site_label
 _atom_site_symmetry_multiplicity
 _atom_site_fract_x
 _atom_site_fract_y
 _atom_site_fract_z
 _atom_site_occupancy
  V  V0  1  0.83758900  0.16074600  0.52804800  1
  V  V1  1  0.48067100  0.44017000  0.29749900  1
  V  V2  1  0.50327000  0.51808000  0.73965300  1
  V  V3  1  0.14678500  0.80244800  0.51440600  1
  Zn  Zn4  1  0.53306700  0.86287900  0.20319000  1
  Zn  Zn5  1  0.40747500  0.06002600  0.84786100  1
  Zn  Zn6  1  0.98619200  0.82313500  0.97898000  1
  Zn  Zn7  1  0.97270500  0.31178400  0.96529700  1
  O  O8  1  0.60074200  0.70062500  0.63144900  1
  O  O9  1  0.94067100  0.37646600  0.65844400  1
  O  O10  1  0.04972600  0.59480100  0.37163600  1
  O  O11  1  0.38387400  0.25958800  0.40558900  1
  O  O12  1  0.29062700  0.04457400  0.63164700  1
  O  O13  1  0.95804700  0.38803900  0.16665500  1
  O  O14  1  0.69347900  0.91980500  0.40831900  1
  O  O15  1  0.02269000  0.57616800  0.87694200  1
