# generated using pymatgen
data_Mg(AgO2)2
_symmetry_space_group_name_H-M   'P 1'
_cell_length_a   6.27368090
_cell_length_b   6.27368090
_cell_length_c   20.99836289
_cell_angle_alpha   82.29886272
_cell_angle_beta   82.29886272
_cell_angle_gamma   62.55449185
_symmetry_Int_Tables_number   1
_chemical_formula_structural   Mg(AgO2)2
_chemical_formula_sum   'Mg8 Ag16 O32'
_cell_volume   724.38404609
_cell_formula_units_Z   8
loop_
 _symmetry_equiv_pos_site_id
 _symmetry_equiv_pos_as_xyz
  1  'x, y, z'
loop_
 _atom_site_type_symbol
 _atom_site_label
 _atom_site_symmetry_multiplicity
 _atom_site_fract_x
 _atom_site_fract_y
 _atom_site_fract_z
 _atom_site_occupancy
  Mg  Mg0  1  0.85826300  0.85826300  0.96995000  1
  Mg  Mg1  1  0.37649700  0.37649700  0.87539300  1
  Mg  Mg2  1  0.60763100  0.60763100  0.71965500  1
  Mg  Mg3  1  0.12636300  0.12636300  0.62507800  1
  Mg  Mg4  1  0.87528300  0.87528300  0.37513300  1
  Mg  Mg5  1  0.00031100  0.00031100  0.49903400  1
  Mg  Mg6  1  0.62607900  0.62607900  0.12484500  1
  Mg  Mg7  1  0.74940800  0.74940800  0.25073300  1
  Ag  Ag8  1  0.37711500  0.87233200  0.87538300  1
  Ag  Ag9  1  0.25236900  0.25236900  0.74842500  1
  Ag  Ag10  1  0.87233200  0.37711500  0.87538300  1
  Ag  Ag11  1  0.35737000  0.35737000  0.46643800  1
  Ag  Ag12  1  0.12419400  0.63053400  0.62359300  1
  Ag  Ag13  1  0.89815100  0.89815100  0.78121200  1
  Ag  Ag14  1  0.10818400  0.10818400  0.21800500  1
  Ag  Ag15  1  0.63053400  0.12419400  0.62359300  1
  Ag  Ag16  1  0.87475200  0.37483100  0.37528200  1
  Ag  Ag17  1  0.64298600  0.64298600  0.53185300  1
  Ag  Ag18  1  0.37483100  0.87475200  0.37528200  1
  Ag  Ag19  1  0.11704700  0.62786500  0.12638400  1
  Ag  Ag20  1  0.62786500  0.11704700  0.12638400  1
  Ag  Ag21  1  0.39244300  0.39244300  0.28350100  1
  Ag  Ag22  1  0.49977200  0.49977200  0.00018400  1
  Ag  Ag23  1  0.14832600  0.14832600  0.03222000  1
  O  O24  1  0.66987800  0.21539300  0.93395600  1
  O  O25  1  0.55880600  0.55880600  0.81939200  1
  O  O26  1  0.21539300  0.66987800  0.93395600  1
  O  O27  1  0.69009800  0.69009800  0.93736600  1
  O  O28  1  0.07406700  0.07406700  0.81299000  1
  O  O29  1  0.42591700  0.96834300  0.68409900  1
  O  O30  1  0.51495900  0.08252200  0.81518900  1
  O  O31  1  0.31323700  0.31323700  0.57441900  1
  O  O32  1  0.96834300  0.42591700  0.68409900  1
  O  O33  1  0.18735800  0.18735800  0.92572500  1
  O  O34  1  0.43749000  0.43749000  0.68550600  1
  O  O35  1  0.08252200  0.51495900  0.81518900  1
  O  O36  1  0.16340200  0.73877300  0.43320500  1
  O  O37  1  0.82218000  0.82218000  0.56385600  1
  O  O38  1  0.26438700  0.83670400  0.56658700  1
  O  O39  1  0.06173200  0.06173200  0.32258700  1
  O  O40  1  0.73877300  0.16340200  0.43320500  1
  O  O41  1  0.93900200  0.93900200  0.67529100  1
  O  O42  1  0.17465900  0.17465900  0.43338000  1
  O  O43  1  0.83670400  0.26438700  0.56658700  1
  O  O44  1  0.57472700  0.57472700  0.31718300  1
  O  O45  1  0.91037400  0.48849800  0.18292200  1
  O  O46  1  0.01175700  0.58527300  0.31736000  1
  O  O47  1  0.80689700  0.80689700  0.06706700  1
  O  O48  1  0.48849800  0.91037400  0.18292200  1
  O  O49  1  0.68771300  0.68771300  0.42777300  1
  O  O50  1  0.92480600  0.92480600  0.18580600  1
  O  O51  1  0.58527300  0.01175700  0.31736000  1
  O  O52  1  0.32232000  0.32232000  0.06868200  1
  O  O53  1  0.76429300  0.32869800  0.06737200  1
  O  O54  1  0.43757000  0.43757000  0.17865900  1
  O  O55  1  0.32869800  0.76429300  0.06737200  1
