# generated using pymatgen
data_SnP2O7
_symmetry_space_group_name_H-M   'P 1'
_cell_length_a   6.47333200
_cell_length_b   6.53606567
_cell_length_c   7.03175384
_cell_angle_alpha   88.39109157
_cell_angle_beta   114.00536101
_cell_angle_gamma   95.11878181
_symmetry_Int_Tables_number   1
_chemical_formula_structural   SnP2O7
_chemical_formula_sum   'Sn2 P4 O14'
_cell_volume   270.68663086
_cell_formula_units_Z   2
loop_
 _symmetry_equiv_pos_site_id
 _symmetry_equiv_pos_as_xyz
  1  'x, y, z'
loop_
 _atom_site_type_symbol
 _atom_site_label
 _atom_site_symmetry_multiplicity
 _atom_site_fract_x
 _atom_site_fract_y
 _atom_site_fract_z
 _atom_site_occupancy
  Sn  Sn0  1  0.09452900  0.34287600  0.21557100  1
  Sn  Sn1  1  0.90547100  0.65712400  0.78442900  1
  P  P2  1  0.33930000  0.61298600  0.65012200  1
  P  P3  1  0.66070000  0.38701400  0.34987800  1
  P  P4  1  0.22712600  0.86369000  0.24667300  1
  P  P5  1  0.77287400  0.13631000  0.75332700  1
  O  O6  1  0.40837300  0.39256100  0.21045000  1
  O  O7  1  0.58591700  0.08907400  0.81862800  1
  O  O8  1  0.41408300  0.91092600  0.18137200  1
  O  O9  1  0.92979900  0.96634800  0.76236000  1
  O  O10  1  0.30978300  0.79202800  0.48622100  1
  O  O11  1  0.22187900  0.65951400  0.79045300  1
  O  O12  1  0.05225000  0.66819000  0.12040100  1
  O  O13  1  0.59162700  0.60743900  0.78955000  1
  O  O14  1  0.69021700  0.20797200  0.51377900  1
  O  O15  1  0.23505800  0.41148100  0.52609600  1
  O  O16  1  0.07020100  0.03365200  0.23764000  1
  O  O17  1  0.94775000  0.33181000  0.87959900  1
  O  O18  1  0.77812100  0.34048600  0.20954700  1
  O  O19  1  0.76494200  0.58851900  0.47390400  1
