# generated using pymatgen
data_Sr2Y2W2O7
_symmetry_space_group_name_H-M   'P 1'
_cell_length_a   12.63872582
_cell_length_b   12.63872582
_cell_length_c   12.63872582
_cell_angle_alpha   153.18820215
_cell_angle_beta   152.37215834
_cell_angle_gamma   38.87917820
_symmetry_Int_Tables_number   1
_chemical_formula_structural   Sr2Y2W2O7
_chemical_formula_sum   'Sr4 Y4 W4 O14'
_cell_volume   421.56100392
_cell_formula_units_Z   2
loop_
 _symmetry_equiv_pos_site_id
 _symmetry_equiv_pos_as_xyz
  1  'x, y, z'
loop_
 _atom_site_type_symbol
 _atom_site_label
 _atom_site_symmetry_multiplicity
 _atom_site_fract_x
 _atom_site_fract_y
 _atom_site_fract_z
 _atom_site_occupancy
  Sr  Sr0  1  0.80677200  0.85645700  0.96273200  1
  Sr  Sr1  1  0.19322800  0.15596000  0.04968500  1
  Sr  Sr2  1  0.60627500  0.65596000  0.96273200  1
  Sr  Sr3  1  0.39372500  0.35645700  0.04968500  1
  Y  Y4  1  0.50000000  0.46346000  0.96346000  1
  Y  Y5  1  0.00000000  0.96346000  0.96346000  1
  Y  Y6  1  0.18406000  0.78145000  0.46551100  1
  Y  Y7  1  0.81594000  0.28145000  0.59739000  1
  W  W8  1  0.93415900  0.39883500  0.46892500  1
  W  W9  1  0.06584100  0.53476500  0.46467600  1
  W  W10  1  0.57008900  0.03476500  0.46892500  1
  W  W11  1  0.42991100  0.89883500  0.46467600  1
  O  O12  1  0.84592100  0.65488400  0.00080500  1
  O  O13  1  0.15407900  0.15488400  0.80896400  1
  O  O14  1  0.74166700  0.71139000  0.59366600  1
  O  O15  1  0.25833300  0.85199900  0.96972300  1
  O  O16  1  0.38227600  0.35199900  0.59366600  1
  O  O17  1  0.61772400  0.21139000  0.96972300  1
  O  O18  1  0.11063400  0.07421600  0.32722300  1
  O  O19  1  0.88936600  0.21658900  0.96358300  1
  O  O20  1  0.75300700  0.71658900  0.32722300  1
  O  O21  1  0.24699300  0.57421600  0.96358300  1
  O  O22  1  0.38181600  0.77196200  0.48984100  1
  O  O23  1  0.61818400  0.10802500  0.39014600  1
  O  O24  1  0.21787900  0.60802500  0.48984100  1
  O  O25  1  0.78212100  0.27196200  0.39014600  1
