# generated using pymatgen
data_Mg(CoO2)2
_symmetry_space_group_name_H-M   'P 1'
_cell_length_a   5.83073056
_cell_length_b   5.83073056
_cell_length_c   14.24548708
_cell_angle_alpha   89.72843177
_cell_angle_beta   89.72843177
_cell_angle_gamma   59.87428942
_symmetry_Int_Tables_number   1
_chemical_formula_structural   Mg(CoO2)2
_chemical_formula_sum   'Mg6 Co12 O24'
_cell_volume   418.88600497
_cell_formula_units_Z   6
loop_
 _symmetry_equiv_pos_site_id
 _symmetry_equiv_pos_as_xyz
  1  'x, y, z'
loop_
 _atom_site_type_symbol
 _atom_site_label
 _atom_site_symmetry_multiplicity
 _atom_site_fract_x
 _atom_site_fract_y
 _atom_site_fract_z
 _atom_site_occupancy
  Mg  Mg0  1  0.83645200  0.83645200  0.95961100  1
  Mg  Mg1  1  0.16145600  0.16145600  0.66913500  1
  Mg  Mg2  1  0.33151800  0.33151800  0.83463700  1
  Mg  Mg3  1  0.82715200  0.82715200  0.33385200  1
  Mg  Mg4  1  0.99422100  0.99422100  0.50093300  1
  Mg  Mg5  1  0.66070900  0.66070900  0.16610600  1
  Co  Co6  1  0.82939200  0.32821900  0.83424800  1
  Co  Co7  1  0.50049000  0.50049000  0.62150500  1
  Co  Co8  1  0.49624100  0.49624100  0.99816100  1
  Co  Co9  1  0.32821900  0.82939200  0.83424800  1
  Co  Co10  1  0.50130600  0.98872000  0.50120500  1
  Co  Co11  1  0.16638400  0.16638400  0.28983400  1
  Co  Co12  1  0.98872000  0.50130600  0.50120500  1
  Co  Co13  1  0.16401900  0.65882200  0.16654500  1
  Co  Co14  1  0.82170900  0.82170900  0.71202600  1
  Co  Co15  1  0.65882200  0.16401900  0.16654500  1
  Co  Co16  1  0.49012200  0.49012200  0.37798500  1
  Co  Co17  1  0.15806200  0.15806200  0.04129300  1
  O  O18  1  0.65558500  0.20110200  0.91524800  1
  O  O19  1  0.50605600  0.50605600  0.75705400  1
  O  O20  1  0.20110200  0.65558500  0.91524800  1
  O  O21  1  0.64555400  0.64555400  0.91263100  1
  O  O22  1  0.33665200  0.84277500  0.57899000  1
  O  O23  1  0.00077700  0.00077700  0.76011400  1
  O  O24  1  0.17005600  0.17005600  0.42450400  1
  O  O25  1  0.48318400  0.98843700  0.75802300  1
  O  O26  1  0.84277500  0.33665200  0.57899000  1
  O  O27  1  0.15146200  0.15146200  0.90877900  1
  O  O28  1  0.32006800  0.32006800  0.57573700  1
  O  O29  1  0.98843700  0.48318400  0.75802300  1
  O  O30  1  0.00284400  0.50679500  0.24423900  1
  O  O31  1  0.66875700  0.66875700  0.42633000  1
  O  O32  1  0.14976900  0.65242500  0.42232200  1
  O  O33  1  0.50679500  0.00284400  0.24423900  1
  O  O34  1  0.83609600  0.83609600  0.09732800  1
  O  O35  1  0.81854200  0.81854200  0.57600800  1
  O  O36  1  0.98781500  0.98781500  0.24176200  1
  O  O37  1  0.65242500  0.14976900  0.42232200  1
  O  O38  1  0.34304700  0.34304700  0.08511100  1
  O  O39  1  0.80354100  0.32516500  0.08223200  1
  O  O40  1  0.48747300  0.48747300  0.24213800  1
  O  O41  1  0.32516500  0.80354100  0.08223200  1
