# generated using pymatgen
data_SnO2
_symmetry_space_group_name_H-M   'P 1'
_cell_length_a   6.08931968
_cell_length_b   6.08931968
_cell_length_c   20.94370104
_cell_angle_alpha   79.58982563
_cell_angle_beta   79.58982563
_cell_angle_gamma   65.56235965
_symmetry_Int_Tables_number   1
_chemical_formula_structural   SnO2
_chemical_formula_sum   'Sn16 O32'
_cell_volume   690.49362037
_cell_formula_units_Z   16
loop_
 _symmetry_equiv_pos_site_id
 _symmetry_equiv_pos_as_xyz
  1  'x, y, z'
loop_
 _atom_site_type_symbol
 _atom_site_label
 _atom_site_symmetry_multiplicity
 _atom_site_fract_x
 _atom_site_fract_y
 _atom_site_fract_z
 _atom_site_occupancy
  Sn  Sn0  1  0.61267700  0.11294000  0.12260300  1
  Sn  Sn1  1  0.22740800  0.22740800  0.25200300  1
  Sn  Sn2  1  0.11294000  0.61267700  0.12260300  1
  Sn  Sn3  1  0.14631800  0.14631800  0.53289400  1
  Sn  Sn4  1  0.83685000  0.34098900  0.38247900  1
  Sn  Sn5  1  0.72723600  0.72723600  0.25195100  1
  Sn  Sn6  1  0.41916000  0.41916000  0.77786500  1
  Sn  Sn7  1  0.34098900  0.83685000  0.38247900  1
  Sn  Sn8  1  0.12481000  0.62456700  0.62431500  1
  Sn  Sn9  1  0.82073000  0.82073000  0.47253800  1
  Sn  Sn10  1  0.62456700  0.12481000  0.62431500  1
  Sn  Sn11  1  0.89796300  0.40282000  0.86571000  1
  Sn  Sn12  1  0.40282000  0.89796300  0.86571000  1
  Sn  Sn13  1  0.10288700  0.10288700  0.71375000  1
  Sn  Sn14  1  0.99777600  0.99777600  0.99277500  1
  Sn  Sn15  1  0.50123500  0.50123500  0.99377700  1
  O  O16  1  0.28941600  0.79280400  0.05135000  1
  O  O17  1  0.90497700  0.90497700  0.18025300  1
  O  O18  1  0.79280400  0.28941600  0.05135000  1
  O  O19  1  0.81961900  0.81961900  0.06471600  1
  O  O20  1  0.40577500  0.40577500  0.18020000  1
  O  O21  1  0.51767400  0.01895700  0.30922100  1
  O  O22  1  0.43386800  0.93481000  0.19408700  1
  O  O23  1  0.15179800  0.15179800  0.43607300  1
  O  O24  1  0.01895700  0.51767400  0.30922100  1
  O  O25  1  0.32148000  0.32148000  0.06457200  1
  O  O26  1  0.05041700  0.05041700  0.32588700  1
  O  O27  1  0.93481000  0.43386800  0.19408700  1
  O  O28  1  0.80076500  0.31590700  0.56353100  1
  O  O29  1  0.66067000  0.66067000  0.43184300  1
  O  O30  1  0.64926900  0.16420000  0.44260300  1
  O  O31  1  0.42791200  0.42791200  0.68003100  1
  O  O32  1  0.31590700  0.80076500  0.56353100  1
  O  O33  1  0.55035900  0.55035900  0.32518200  1
  O  O34  1  0.30994200  0.30994200  0.57320000  1
  O  O35  1  0.16420000  0.64926900  0.44260300  1
  O  O36  1  0.93671100  0.93671100  0.67636000  1
  O  O37  1  0.07773100  0.59371800  0.80909400  1
  O  O38  1  0.93420400  0.44979600  0.68609300  1
  O  O39  1  0.68363500  0.68363500  0.92429700  1
  O  O40  1  0.59371800  0.07773100  0.80909400  1
  O  O41  1  0.82127600  0.82127600  0.56947900  1
  O  O42  1  0.58500900  0.58500900  0.81389200  1
  O  O43  1  0.44979600  0.93420400  0.68609300  1
  O  O44  1  0.18118400  0.18118400  0.92380200  1
  O  O45  1  0.21594100  0.71290000  0.93467100  1
  O  O46  1  0.09265800  0.09265800  0.81092400  1
  O  O47  1  0.71290000  0.21594100  0.93467100  1
