# generated using pymatgen
data_TiZnAsO5
_symmetry_space_group_name_H-M   'P 1'
_cell_length_a   6.09560800
_cell_length_b   8.11484300
_cell_length_c   8.51630600
_cell_angle_alpha   90.00000000
_cell_angle_beta   90.00000000
_cell_angle_gamma   90.00000000
_symmetry_Int_Tables_number   1
_chemical_formula_structural   TiZnAsO5
_chemical_formula_sum   'Ti4 Zn4 As4 O20'
_cell_volume   421.25824092
_cell_formula_units_Z   4
loop_
 _symmetry_equiv_pos_site_id
 _symmetry_equiv_pos_as_xyz
  1  'x, y, z'
loop_
 _atom_site_type_symbol
 _atom_site_label
 _atom_site_symmetry_multiplicity
 _atom_site_fract_x
 _atom_site_fract_y
 _atom_site_fract_z
 _atom_site_occupancy
  Ti  Ti0  1  0.25956500  0.75294900  0.00590300  1
  Ti  Ti1  1  0.24043500  0.24705100  0.50590300  1
  Ti  Ti2  1  0.74043500  0.25294900  0.49409700  1
  Ti  Ti3  1  0.75956500  0.74705100  0.99409700  1
  Zn  Zn4  1  0.05305800  0.81596800  0.68452800  1
  Zn  Zn5  1  0.44694200  0.18403200  0.18452800  1
  Zn  Zn6  1  0.94694200  0.31596800  0.81547200  1
  Zn  Zn7  1  0.55305800  0.68403200  0.31547200  1
  As  As8  1  0.48794300  0.09771700  0.82234500  1
  As  As9  1  0.01205700  0.90228300  0.32234500  1
  As  As10  1  0.51205700  0.59771700  0.67765500  1
  As  As11  1  0.98794300  0.40228300  0.17765500  1
  O  O12  1  0.51064200  0.90152600  0.91103200  1
  O  O13  1  0.98935800  0.09847400  0.41103200  1
  O  O14  1  0.48935800  0.40152600  0.58896800  1
  O  O15  1  0.01064200  0.59847400  0.08896800  1
  O  O16  1  0.44887800  0.24138600  0.97002700  1
  O  O17  1  0.05112200  0.75861400  0.47002700  1
  O  O18  1  0.55112200  0.74138600  0.52997300  1
  O  O19  1  0.94887800  0.25861400  0.02997300  1
  O  O20  1  0.72862500  0.13771200  0.71598800  1
  O  O21  1  0.77137500  0.86228800  0.21598800  1
  O  O22  1  0.27137500  0.63771200  0.78401200  1
  O  O23  1  0.22862500  0.36228800  0.28401200  1
  O  O24  1  0.26269600  0.09280000  0.69357600  1
  O  O25  1  0.23730400  0.90720000  0.19357600  1
  O  O26  1  0.73730400  0.59280000  0.80642400  1
  O  O27  1  0.76269600  0.40720000  0.30642400  1
  O  O28  1  0.99866200  0.86406400  0.89962300  1
  O  O29  1  0.50133800  0.13593600  0.39962300  1
  O  O30  1  0.00133800  0.36406400  0.60037700  1
  O  O31  1  0.49866200  0.63593600  0.10037700  1
