# generated using pymatgen
data_Ca(AgO2)2
_symmetry_space_group_name_H-M   'P 1'
_cell_length_a   3.32609100
_cell_length_b   9.61512100
_cell_length_c   11.26707500
_cell_angle_alpha   90.00000000
_cell_angle_beta   90.00000000
_cell_angle_gamma   90.00000000
_symmetry_Int_Tables_number   1
_chemical_formula_structural   Ca(AgO2)2
_chemical_formula_sum   'Ca4 Ag8 O16'
_cell_volume   360.32970510
_cell_formula_units_Z   4
loop_
 _symmetry_equiv_pos_site_id
 _symmetry_equiv_pos_as_xyz
  1  'x, y, z'
loop_
 _atom_site_type_symbol
 _atom_site_label
 _atom_site_symmetry_multiplicity
 _atom_site_fract_x
 _atom_site_fract_y
 _atom_site_fract_z
 _atom_site_occupancy
  Ca  Ca0  1  0.25000000  0.24139000  0.34228600  1
  Ca  Ca1  1  0.75000000  0.75861000  0.65771400  1
  Ca  Ca2  1  0.25000000  0.74139000  0.15771400  1
  Ca  Ca3  1  0.75000000  0.25861000  0.84228600  1
  Ag  Ag4  1  0.75000000  0.41670100  0.10621200  1
  Ag  Ag5  1  0.25000000  0.08329900  0.60621200  1
  Ag  Ag6  1  0.75000000  0.91670100  0.39378800  1
  Ag  Ag7  1  0.25000000  0.58329900  0.89378800  1
  Ag  Ag8  1  0.25000000  0.56246900  0.38828800  1
  Ag  Ag9  1  0.75000000  0.43753100  0.61171200  1
  Ag  Ag10  1  0.25000000  0.06246900  0.11171200  1
  Ag  Ag11  1  0.75000000  0.93753100  0.88828800  1
  O  O12  1  0.75000000  0.89409300  0.06976800  1
  O  O13  1  0.25000000  0.10590700  0.93023200  1
  O  O14  1  0.75000000  0.39409300  0.43023200  1
  O  O15  1  0.25000000  0.60590700  0.56976800  1
  O  O16  1  0.75000000  0.02052000  0.72191700  1
  O  O17  1  0.25000000  0.97948000  0.27808300  1
  O  O18  1  0.75000000  0.52052000  0.77808300  1
  O  O19  1  0.25000000  0.47948000  0.22191700  1
  O  O20  1  0.75000000  0.61669400  0.03414000  1
  O  O21  1  0.25000000  0.38330600  0.96586000  1
  O  O22  1  0.75000000  0.11669400  0.46586000  1
  O  O23  1  0.25000000  0.88330600  0.53414000  1
  O  O24  1  0.25000000  0.78132300  0.81965900  1
  O  O25  1  0.75000000  0.21867700  0.18034100  1
  O  O26  1  0.75000000  0.71867700  0.31965900  1
  O  O27  1  0.25000000  0.28132300  0.68034100  1
