# generated using pymatgen
data_BiO2
_symmetry_space_group_name_H-M   'P 1'
_cell_length_a   6.16627800
_cell_length_b   6.17366906
_cell_length_c   22.27461488
_cell_angle_alpha   93.36108044
_cell_angle_beta   97.00440389
_cell_angle_gamma   110.26095918
_symmetry_Int_Tables_number   1
_chemical_formula_structural   BiO2
_chemical_formula_sum   'Bi16 O32'
_cell_volume   784.91243110
_cell_formula_units_Z   16
loop_
 _symmetry_equiv_pos_site_id
 _symmetry_equiv_pos_as_xyz
  1  'x, y, z'
loop_
 _atom_site_type_symbol
 _atom_site_label
 _atom_site_symmetry_multiplicity
 _atom_site_fract_x
 _atom_site_fract_y
 _atom_site_fract_z
 _atom_site_occupancy
  Bi  Bi0  1  0.77142100  0.36123900  0.12458400  1
  Bi  Bi1  1  0.45437400  0.30891300  0.26323200  1
  Bi  Bi2  1  0.26371400  0.85394400  0.12444100  1
  Bi  Bi3  1  0.68550600  0.31541300  0.50290800  1
  Bi  Bi4  1  0.11082700  0.27310500  0.38367500  1
  Bi  Bi5  1  0.84948900  0.89301600  0.24387600  1
  Bi  Bi6  1  0.31498700  0.92673700  0.74624900  1
  Bi  Bi7  1  0.60748500  0.77239900  0.38255700  1
  Bi  Bi8  1  0.75363600  0.86765000  0.62562300  1
  Bi  Bi9  1  0.17907200  0.82547500  0.50476900  1
  Bi  Bi10  1  0.25290200  0.37061800  0.62476700  1
  Bi  Bi11  1  0.87528300  0.99490500  0.87281800  1
  Bi  Bi12  1  0.37543100  0.50019500  0.87298000  1
  Bi  Bi13  1  0.82589300  0.42433200  0.74580500  1
  Bi  Bi14  1  0.03919100  0.45492000  0.99202800  1
  Bi  Bi15  1  0.48284500  0.00047600  0.98073100  1
  O  O16  1  0.36469700  0.69225200  0.04740200  1
  O  O17  1  0.12840100  0.54157800  0.16891500  1
  O  O18  1  0.85649400  0.18353800  0.04733900  1
  O  O19  1  0.91520600  0.64758300  0.06246400  1
  O  O20  1  0.62301700  0.05871300  0.18057200  1
  O  O21  1  0.75365600  0.62483600  0.31566000  1
  O  O22  1  0.65428400  0.55622500  0.18550300  1
  O  O23  1  0.48883000  0.45309500  0.42864100  1
  O  O24  1  0.18882900  0.06275300  0.31453800  1
  O  O25  1  0.41380200  0.16415400  0.07747300  1
  O  O26  1  0.28822400  0.53978900  0.32191200  1
  O  O27  1  0.12916700  0.03186800  0.18549000  1
  O  O28  1  0.35353300  0.18108900  0.54677100  1
  O  O29  1  0.96133000  0.95977900  0.43602500  1
  O  O30  1  0.02110000  0.48206900  0.45211700  1
  O  O31  1  0.11853000  0.03556700  0.67296000  1
  O  O32  1  0.87596100  0.69073400  0.55483800  1
  O  O33  1  0.73193800  0.08462300  0.33151400  1
  O  O34  1  0.87116400  0.18102500  0.58170900  1
  O  O35  1  0.46674200  0.94169200  0.44738800  1
  O  O36  1  0.64298500  0.54629600  0.67039300  1
  O  O37  1  0.99572500  0.78731200  0.78828200  1
  O  O38  1  0.63251400  0.04996800  0.69730800  1
  O  O39  1  0.66047600  0.77682000  0.93920100  1
  O  O40  1  0.49535400  0.29149000  0.78427600  1
  O  O41  1  0.39496300  0.70752900  0.57600900  1
  O  O42  1  0.49640900  0.82992400  0.82233600  1
  O  O43  1  0.14831300  0.56603800  0.70046200  1
  O  O44  1  0.20683200  0.24741400  0.94770300  1
  O  O45  1  0.16456600  0.68337100  0.92421500  1
  O  O46  1  0.00904100  0.30054800  0.81433500  1
  O  O47  1  0.74205000  0.26042800  0.92482800  1
