# generated using pymatgen
data_V2ZnO4
_symmetry_space_group_name_H-M   'P 1'
_cell_length_a   6.09334534
_cell_length_b   6.09334534
_cell_length_c   14.87080717
_cell_angle_alpha   89.14760067
_cell_angle_beta   89.14760067
_cell_angle_gamma   59.76978443
_symmetry_Int_Tables_number   1
_chemical_formula_structural   V2ZnO4
_chemical_formula_sum   'V12 Zn6 O24'
_cell_volume   476.98053941
_cell_formula_units_Z   6
loop_
 _symmetry_equiv_pos_site_id
 _symmetry_equiv_pos_as_xyz
  1  'x, y, z'
loop_
 _atom_site_type_symbol
 _atom_site_label
 _atom_site_symmetry_multiplicity
 _atom_site_fract_x
 _atom_site_fract_y
 _atom_site_fract_z
 _atom_site_occupancy
  V  V0  1  0.16991500  0.66766800  0.83298100  1
  V  V1  1  0.49624200  0.49624200  0.62270900  1
  V  V2  1  0.50020000  0.50020000  0.99784500  1
  V  V3  1  0.66766800  0.16991500  0.83298100  1
  V  V4  1  0.49957300  0.00049500  0.50050300  1
  V  V5  1  0.82899400  0.82899400  0.29110400  1
  V  V6  1  0.00049500  0.49957300  0.50050300  1
  V  V7  1  0.83343100  0.33215800  0.16665100  1
  V  V8  1  0.17211600  0.17211600  0.71204200  1
  V  V9  1  0.33215800  0.83343100  0.16665100  1
  V  V10  1  0.50435700  0.50435700  0.37687100  1
  V  V11  1  0.83527600  0.83527600  0.04103400  1
  Zn  Zn12  1  0.16195600  0.16195600  0.95781800  1
  Zn  Zn13  1  0.83306600  0.83306600  0.66681700  1
  Zn  Zn14  1  0.66847400  0.66847400  0.83346300  1
  Zn  Zn15  1  0.16782800  0.16782800  0.33346500  1
  Zn  Zn16  1  0.00049500  0.00049500  0.50066800  1
  Zn  Zn17  1  0.33073600  0.33073600  0.16640900  1
  O  O18  1  0.34347700  0.80349100  0.91555500  1
  O  O19  1  0.49632800  0.49632800  0.75387200  1
  O  O20  1  0.80349100  0.34347700  0.91555500  1
  O  O21  1  0.34717100  0.34717100  0.91313500  1
  O  O22  1  0.66995400  0.14901400  0.57947900  1
  O  O23  1  0.99631500  0.99631500  0.75773400  1
  O  O24  1  0.82527300  0.82527300  0.42313000  1
  O  O25  1  0.51803800  0.00489000  0.75578200  1
  O  O26  1  0.14901400  0.66995400  0.57947900  1
  O  O27  1  0.83959500  0.83959500  0.91092900  1
  O  O28  1  0.67195400  0.67195400  0.57747000  1
  O  O29  1  0.00489000  0.51803800  0.75578200  1
  O  O30  1  0.99759700  0.48451400  0.24590700  1
  O  O31  1  0.32848500  0.32848500  0.42219200  1
  O  O32  1  0.85141800  0.33330500  0.42070400  1
  O  O33  1  0.48451400  0.99759700  0.24590700  1
  O  O34  1  0.15947100  0.15947100  0.09357600  1
  O  O35  1  0.17516500  0.17516500  0.57844900  1
  O  O36  1  0.00358000  0.00358000  0.24369600  1
  O  O37  1  0.33330500  0.85141800  0.42070400  1
  O  O38  1  0.65567400  0.65567400  0.08509900  1
  O  O39  1  0.18598200  0.66434900  0.08440700  1
  O  O40  1  0.50538800  0.50538800  0.24308000  1
  O  O41  1  0.66434900  0.18598200  0.08440700  1
