# generated using pymatgen
data_Mg(BiO2)2
_symmetry_space_group_name_H-M   'P 1'
_cell_length_a   3.36026700
_cell_length_b   10.67186200
_cell_length_c   11.61922100
_cell_angle_alpha   90.00000000
_cell_angle_beta   90.00000000
_cell_angle_gamma   90.00000000
_symmetry_Int_Tables_number   1
_chemical_formula_structural   Mg(BiO2)2
_chemical_formula_sum   'Mg4 Bi8 O16'
_cell_volume   416.66881714
_cell_formula_units_Z   4
loop_
 _symmetry_equiv_pos_site_id
 _symmetry_equiv_pos_as_xyz
  1  'x, y, z'
loop_
 _atom_site_type_symbol
 _atom_site_label
 _atom_site_symmetry_multiplicity
 _atom_site_fract_x
 _atom_site_fract_y
 _atom_site_fract_z
 _atom_site_occupancy
  Mg  Mg0  1  0.25000000  0.21817800  0.85736400  1
  Mg  Mg1  1  0.75000000  0.78182200  0.14263600  1
  Mg  Mg2  1  0.25000000  0.71817800  0.64263600  1
  Mg  Mg3  1  0.75000000  0.28182200  0.35736400  1
  Bi  Bi4  1  0.75000000  0.41753100  0.62162600  1
  Bi  Bi5  1  0.25000000  0.08246900  0.12162600  1
  Bi  Bi6  1  0.75000000  0.91753100  0.87837400  1
  Bi  Bi7  1  0.25000000  0.58246900  0.37837400  1
  Bi  Bi8  1  0.25000000  0.60044900  0.89754400  1
  Bi  Bi9  1  0.75000000  0.39955100  0.10245600  1
  Bi  Bi10  1  0.25000000  0.10044900  0.60245600  1
  Bi  Bi11  1  0.75000000  0.89955100  0.39754400  1
  O  O12  1  0.75000000  0.96518400  0.58991300  1
  O  O13  1  0.25000000  0.03481600  0.41008700  1
  O  O14  1  0.75000000  0.46518400  0.91008700  1
  O  O15  1  0.25000000  0.53481600  0.08991300  1
  O  O16  1  0.75000000  0.96728600  0.20137700  1
  O  O17  1  0.25000000  0.03271400  0.79862300  1
  O  O18  1  0.75000000  0.46728600  0.29862300  1
  O  O19  1  0.25000000  0.53271400  0.70137700  1
  O  O20  1  0.75000000  0.69308100  0.52281800  1
  O  O21  1  0.25000000  0.30691900  0.47718200  1
  O  O22  1  0.75000000  0.19308100  0.97718200  1
  O  O23  1  0.25000000  0.80691900  0.02281800  1
  O  O24  1  0.25000000  0.74088200  0.26305600  1
  O  O25  1  0.75000000  0.25911800  0.73694400  1
  O  O26  1  0.75000000  0.75911800  0.76305600  1
  O  O27  1  0.25000000  0.24088200  0.23694400  1
