# generated using pymatgen
data_YCo(WO4)2
_symmetry_space_group_name_H-M   'P 1'
_cell_length_a   5.09894800
_cell_length_b   6.02425894
_cell_length_c   6.09706362
_cell_angle_alpha   109.79547712
_cell_angle_beta   89.50171264
_cell_angle_gamma   112.85244886
_symmetry_Int_Tables_number   1
_chemical_formula_structural   YCo(WO4)2
_chemical_formula_sum   'Y1 Co1 W2 O8'
_cell_volume   160.74929965
_cell_formula_units_Z   1
loop_
 _symmetry_equiv_pos_site_id
 _symmetry_equiv_pos_as_xyz
  1  'x, y, z'
loop_
 _atom_site_type_symbol
 _atom_site_label
 _atom_site_symmetry_multiplicity
 _atom_site_fract_x
 _atom_site_fract_y
 _atom_site_fract_z
 _atom_site_occupancy
  Y  Y0  1  0.50000000  0.00000000  0.00000000  1
  Co  Co1  1  0.00000000  0.00000000  0.50000000  1
  W  W2  1  0.73933800  0.48062800  0.66437400  1
  W  W3  1  0.26066200  0.51937200  0.33562600  1
  O  O4  1  0.72120200  0.73005100  0.92937800  1
  O  O5  1  0.74993800  0.23575200  0.77474300  1
  O  O6  1  0.65864200  0.69796800  0.47125400  1
  O  O7  1  0.84371500  0.29962600  0.33003800  1
  O  O8  1  0.25006200  0.76424800  0.22525700  1
  O  O9  1  0.27879800  0.26994900  0.07062200  1
  O  O10  1  0.34135800  0.30203200  0.52874600  1
  O  O11  1  0.15628500  0.70037400  0.66996200  1
