# generated using pymatgen
data_Mg(SbO2)2
_symmetry_space_group_name_H-M   'P 1'
_cell_length_a   6.51289900
_cell_length_b   7.12708706
_cell_length_c   16.95169635
_cell_angle_alpha   89.14899707
_cell_angle_beta   89.25355550
_cell_angle_gamma   63.03454942
_symmetry_Int_Tables_number   1
_chemical_formula_structural   Mg(SbO2)2
_chemical_formula_sum   'Mg6 Sb12 O24'
_cell_volume   701.22123245
_cell_formula_units_Z   6
loop_
 _symmetry_equiv_pos_site_id
 _symmetry_equiv_pos_as_xyz
  1  'x, y, z'
loop_
 _atom_site_type_symbol
 _atom_site_label
 _atom_site_symmetry_multiplicity
 _atom_site_fract_x
 _atom_site_fract_y
 _atom_site_fract_z
 _atom_site_occupancy
  Mg  Mg0  1  0.67010900  0.15952500  0.02893300  1
  Mg  Mg1  1  0.44006800  0.73518200  0.35530200  1
  Mg  Mg2  1  0.08001800  0.18107600  0.16695000  1
  Mg  Mg3  1  0.70684600  0.22826800  0.66383100  1
  Mg  Mg4  1  0.56357200  0.49097200  0.50929400  1
  Mg  Mg5  1  0.80087600  0.89202800  0.82932600  1
  Sb  Sb6  1  0.06231100  0.75213200  0.14954200  1
  Sb  Sb7  1  0.03723100  0.41397500  0.36185800  1
  Sb  Sb8  1  0.08784300  0.35296600  0.00247000  1
  Sb  Sb9  1  0.60157700  0.67577300  0.18563800  1
  Sb  Sb10  1  0.51345500  0.00472300  0.53875300  1
  Sb  Sb11  1  0.29899400  0.89807400  0.72731000  1
  Sb  Sb12  1  0.01915500  0.99488500  0.46811900  1
  Sb  Sb13  1  0.79845600  0.42918600  0.82829100  1
  Sb  Sb14  1  0.64907100  0.11685300  0.29742200  1
  Sb  Sb15  1  0.35572500  0.32011500  0.83414400  1
  Sb  Sb16  1  0.97507500  0.56758900  0.63796200  1
  Sb  Sb17  1  0.31018100  0.78130000  0.95162600  1
  O  O18  1  0.34187800  0.25789500  0.07863700  1
  O  O19  1  0.96425200  0.39372900  0.25162100  1
  O  O20  1  0.87182600  0.29773000  0.07059600  1
  O  O21  1  0.90662200  0.87068600  0.05031600  1
  O  O22  1  0.72882900  0.48862400  0.40809600  1
  O  O23  1  0.42715700  0.58558300  0.25656200  1
  O  O24  1  0.27705100  0.01072300  0.61474100  1
  O  O25  1  0.56563000  0.88238100  0.27546000  1
  O  O26  1  0.28607300  0.71666200  0.45905000  1
  O  O27  1  0.28801200  0.87794400  0.13386000  1
  O  O28  1  0.17269300  0.09325100  0.38437500  1
  O  O29  1  0.89217600  0.02521100  0.21388200  1
  O  O30  1  0.96572900  0.09037100  0.74136000  1
  O  O31  1  0.79515500  0.87585200  0.60923500  1
  O  O32  1  0.75122400  0.47318200  0.60395100  1
  O  O33  1  0.48152900  0.06439200  0.76225500  1
  O  O34  1  0.63171000  0.18470700  0.90364400  1
  O  O35  1  0.83340700  0.93568200  0.38754700  1
  O  O36  1  0.54115300  0.42213900  0.76159700  1
  O  O37  1  0.50293300  0.27518400  0.56579200  1
  O  O38  1  0.21362200  0.08627000  0.93603500  1
  O  O39  1  0.12945100  0.75505800  0.86556600  1
  O  O40  1  0.86051700  0.62604600  0.74973400  1
  O  O41  1  0.60080600  0.71607500  0.87931800  1
