# generated using pymatgen
data_ZnFeAsO5
_symmetry_space_group_name_H-M   'P 1'
_cell_length_a   8.11993100
_cell_length_b   6.20031500
_cell_length_c   8.41819228
_cell_angle_alpha   89.95780165
_cell_angle_beta   90.00000000
_cell_angle_gamma   90.00000000
_symmetry_Int_Tables_number   1
_chemical_formula_structural   ZnFeAsO5
_chemical_formula_sum   'Zn4 Fe4 As4 O20'
_cell_volume   423.82328792
_cell_formula_units_Z   4
loop_
 _symmetry_equiv_pos_site_id
 _symmetry_equiv_pos_as_xyz
  1  'x, y, z'
loop_
 _atom_site_type_symbol
 _atom_site_label
 _atom_site_symmetry_multiplicity
 _atom_site_fract_x
 _atom_site_fract_y
 _atom_site_fract_z
 _atom_site_occupancy
  Zn  Zn0  1  0.93873700  0.55476800  0.56142900  1
  Zn  Zn1  1  0.55141600  0.94969200  0.06286000  1
  Zn  Zn2  1  0.43873700  0.44523200  0.43857100  1
  Zn  Zn3  1  0.05141600  0.05030800  0.93714000  1
  Fe  Fe4  1  0.99732500  0.75416500  0.24480900  1
  Fe  Fe5  1  0.50402400  0.74008200  0.74504000  1
  Fe  Fe6  1  0.49732500  0.24583500  0.75519100  1
  Fe  Fe7  1  0.00402400  0.25991800  0.25496000  1
  As  As8  1  0.65502800  0.98530500  0.42621400  1
  As  As9  1  0.84714900  0.51039800  0.92530600  1
  As  As10  1  0.15502800  0.01469500  0.57378600  1
  As  As11  1  0.34714900  0.48960200  0.07469400  1
  O  O12  1  0.84623800  0.00971000  0.33572200  1
  O  O13  1  0.65345800  0.48860900  0.83656200  1
  O  O14  1  0.34623800  0.99029000  0.66427800  1
  O  O15  1  0.15345800  0.51139100  0.16343800  1
  O  O16  1  0.50850900  0.95040500  0.28106400  1
  O  O17  1  0.98984500  0.54390300  0.77852400  1
  O  O18  1  0.00850900  0.04959500  0.71893600  1
  O  O19  1  0.48984500  0.45609700  0.22147600  1
  O  O20  1  0.61417300  0.21885300  0.53151100  1
  O  O21  1  0.88757800  0.27670400  0.03001200  1
  O  O22  1  0.11417300  0.78114700  0.46848900  1
  O  O23  1  0.38757800  0.72329600  0.96998800  1
  O  O24  1  0.65619300  0.76177500  0.54853600  1
  O  O25  1  0.84985400  0.73508900  0.04597400  1
  O  O26  1  0.15619300  0.23822500  0.45146400  1
  O  O27  1  0.34985400  0.26491100  0.95402600  1
  O  O28  1  0.89078000  0.50090500  0.34601800  1
  O  O29  1  0.60870800  0.99385700  0.84841700  1
  O  O30  1  0.39078000  0.49909500  0.65398200  1
  O  O31  1  0.10870800  0.00614300  0.15158300  1
