# generated using pymatgen
data_CaCrO2
_symmetry_space_group_name_H-M   'P 1'
_cell_length_a   3.12589500
_cell_length_b   8.84661311
_cell_length_c   9.00537531
_cell_angle_alpha   85.19749254
_cell_angle_beta   80.15505519
_cell_angle_gamma   80.45899753
_symmetry_Int_Tables_number   1
_chemical_formula_structural   CaCrO2
_chemical_formula_sum   'Ca4 Cr4 O8'
_cell_volume   241.57627838
_cell_formula_units_Z   4
loop_
 _symmetry_equiv_pos_site_id
 _symmetry_equiv_pos_as_xyz
  1  'x, y, z'
loop_
 _atom_site_type_symbol
 _atom_site_label
 _atom_site_symmetry_multiplicity
 _atom_site_fract_x
 _atom_site_fract_y
 _atom_site_fract_z
 _atom_site_occupancy
  Ca  Ca0  1  0.89433400  0.26273900  0.92771800  1
  Ca  Ca1  1  0.10566600  0.73726100  0.07228200  1
  Ca  Ca2  1  0.29192700  0.09124500  0.30961300  1
  Ca  Ca3  1  0.70807300  0.90875500  0.69038700  1
  Cr  Cr4  1  0.32357700  0.58026600  0.77330700  1
  Cr  Cr5  1  0.07838700  0.22443900  0.61088500  1
  Cr  Cr6  1  0.92161300  0.77556100  0.38911500  1
  Cr  Cr7  1  0.67642300  0.41973400  0.22669300  1
  O  O8  1  0.09364800  0.55579600  0.26436000  1
  O  O9  1  0.33224200  0.79897800  0.54663000  1
  O  O10  1  0.66775800  0.20102200  0.45337000  1
  O  O11  1  0.90635200  0.44420400  0.73564000  1
  O  O12  1  0.71043800  0.71829600  0.87498100  1
  O  O13  1  0.52681300  0.14875500  0.77124600  1
  O  O14  1  0.28956200  0.28170400  0.12501900  1
  O  O15  1  0.47318700  0.85124500  0.22875400  1
