# generated using pymatgen
data_MgSnP2O7
_symmetry_space_group_name_H-M   'P 1'
_cell_length_a   6.72597000
_cell_length_b   7.04770682
_cell_length_c   7.12831135
_cell_angle_alpha   75.45766706
_cell_angle_beta   63.34739348
_cell_angle_gamma   80.09216731
_symmetry_Int_Tables_number   1
_chemical_formula_structural   MgSnP2O7
_chemical_formula_sum   'Mg2 Sn2 P4 O14'
_cell_volume   291.63075586
_cell_formula_units_Z   2
loop_
 _symmetry_equiv_pos_site_id
 _symmetry_equiv_pos_as_xyz
  1  'x, y, z'
loop_
 _atom_site_type_symbol
 _atom_site_label
 _atom_site_symmetry_multiplicity
 _atom_site_fract_x
 _atom_site_fract_y
 _atom_site_fract_z
 _atom_site_occupancy
  Mg  Mg0  1  0.68438900  0.17137700  0.89870600  1
  Mg  Mg1  1  0.31561100  0.82862300  0.10129400  1
  Sn  Sn2  1  0.87480400  0.30422000  0.27438400  1
  Sn  Sn3  1  0.12519600  0.69578000  0.72561600  1
  P  P4  1  0.78676600  0.81843100  0.22256100  1
  P  P5  1  0.21323400  0.18156900  0.77743900  1
  P  P6  1  0.35107400  0.36357100  0.30230100  1
  P  P7  1  0.64892600  0.63642900  0.69769900  1
  O  O8  1  0.37189900  0.27295700  0.53185700  1
  O  O9  1  0.62810100  0.72704300  0.46814300  1
  O  O10  1  0.95576400  0.94345800  0.22019100  1
  O  O11  1  0.04423600  0.05654200  0.77980900  1
  O  O12  1  0.73353900  0.42267500  0.68450100  1
  O  O13  1  0.26646100  0.57732500  0.31549900  1
  O  O14  1  0.40984000  0.66469600  0.86728900  1
  O  O15  1  0.59016000  0.33530400  0.13271100  1
  O  O16  1  0.38420900  0.07676300  0.86611400  1
  O  O17  1  0.61579100  0.92323700  0.13388600  1
  O  O18  1  0.08112100  0.35423600  0.89202800  1
  O  O19  1  0.91887900  0.64576400  0.10797200  1
  O  O20  1  0.79949300  0.76586300  0.71212500  1
  O  O21  1  0.20050700  0.23413700  0.28787500  1
