# generated using pymatgen
data_CaMnAsO5
_symmetry_space_group_name_H-M   'P 1'
_cell_length_a   5.93444900
_cell_length_b   7.70008100
_cell_length_c   9.07755200
_cell_angle_alpha   90.00000000
_cell_angle_beta   90.00000000
_cell_angle_gamma   90.00000000
_symmetry_Int_Tables_number   1
_chemical_formula_structural   CaMnAsO5
_chemical_formula_sum   'Ca4 Mn4 As4 O20'
_cell_volume   414.80543779
_cell_formula_units_Z   4
loop_
 _symmetry_equiv_pos_site_id
 _symmetry_equiv_pos_as_xyz
  1  'x, y, z'
loop_
 _atom_site_type_symbol
 _atom_site_label
 _atom_site_symmetry_multiplicity
 _atom_site_fract_x
 _atom_site_fract_y
 _atom_site_fract_z
 _atom_site_occupancy
  Ca  Ca0  1  0.97774000  0.85061500  0.66991500  1
  Ca  Ca1  1  0.52226000  0.14938500  0.16991500  1
  Ca  Ca2  1  0.02226000  0.35061500  0.83008500  1
  Ca  Ca3  1  0.47774000  0.64938500  0.33008500  1
  Mn  Mn4  1  0.25199100  0.75339100  0.99684700  1
  Mn  Mn5  1  0.24800900  0.24660900  0.49684700  1
  Mn  Mn6  1  0.74800900  0.25339100  0.50315300  1
  Mn  Mn7  1  0.75199100  0.74660900  0.00315300  1
  As  As8  1  0.48100000  0.11060300  0.81601500  1
  As  As9  1  0.01900000  0.88939700  0.31601500  1
  As  As10  1  0.51900000  0.61060300  0.68398500  1
  As  As11  1  0.98100000  0.38939700  0.18398500  1
  O  O12  1  0.50804300  0.92905800  0.93133100  1
  O  O13  1  0.99195700  0.07094200  0.43133100  1
  O  O14  1  0.49195700  0.42905800  0.56866900  1
  O  O15  1  0.00804300  0.57094200  0.06866900  1
  O  O16  1  0.41251700  0.27384400  0.93379800  1
  O  O17  1  0.08748300  0.72615600  0.43379800  1
  O  O18  1  0.58748300  0.77384400  0.56620200  1
  O  O19  1  0.91251700  0.22615600  0.06620200  1
  O  O20  1  0.73476300  0.13533200  0.72422600  1
  O  O21  1  0.76523700  0.86466800  0.22422600  1
  O  O22  1  0.26523700  0.63533200  0.77577400  1
  O  O23  1  0.23476300  0.36466800  0.27577400  1
  O  O24  1  0.25085600  0.09483400  0.69974500  1
  O  O25  1  0.24914400  0.90516600  0.19974500  1
  O  O26  1  0.74914400  0.59483400  0.80025500  1
  O  O27  1  0.75085600  0.40516600  0.30025500  1
  O  O28  1  0.99712500  0.86825600  0.92311400  1
  O  O29  1  0.50287500  0.13174400  0.42311400  1
  O  O30  1  0.00287500  0.36825600  0.57688600  1
  O  O31  1  0.49712500  0.63174400  0.07688600  1
