# generated using pymatgen
data_SbAsO5
_symmetry_space_group_name_H-M   'P 1'
_cell_length_a   6.28168400
_cell_length_b   7.75009300
_cell_length_c   8.37421800
_cell_angle_alpha   90.00000000
_cell_angle_beta   90.00000000
_cell_angle_gamma   90.00000000
_symmetry_Int_Tables_number   1
_chemical_formula_structural   SbAsO5
_chemical_formula_sum   'Sb4 As4 O20'
_cell_volume   407.68737417
_cell_formula_units_Z   4
loop_
 _symmetry_equiv_pos_site_id
 _symmetry_equiv_pos_as_xyz
  1  'x, y, z'
loop_
 _atom_site_type_symbol
 _atom_site_label
 _atom_site_symmetry_multiplicity
 _atom_site_fract_x
 _atom_site_fract_y
 _atom_site_fract_z
 _atom_site_occupancy
  Sb  Sb0  1  0.25234000  0.75472700  0.99542800  1
  Sb  Sb1  1  0.24766000  0.24527300  0.49542800  1
  Sb  Sb2  1  0.74766000  0.25472700  0.50457200  1
  Sb  Sb3  1  0.75234000  0.74527300  0.00457200  1
  As  As4  1  0.48435900  0.14162100  0.83042500  1
  As  As5  1  0.01564100  0.85837900  0.33042500  1
  As  As6  1  0.51564100  0.64162100  0.66957500  1
  As  As7  1  0.98435900  0.35837900  0.16957500  1
  O  O8  1  0.99538200  0.86873300  0.91233400  1
  O  O9  1  0.50461800  0.13126700  0.41233400  1
  O  O10  1  0.00461800  0.36873300  0.58766600  1
  O  O11  1  0.49538200  0.63126700  0.08766600  1
  O  O12  1  0.50364900  0.92230400  0.92394000  1
  O  O13  1  0.99635100  0.07769600  0.42394000  1
  O  O14  1  0.49635100  0.42230400  0.57606000  1
  O  O15  1  0.00364900  0.57769600  0.07606000  1
  O  O16  1  0.44781800  0.29148700  0.96481200  1
  O  O17  1  0.05218200  0.70851300  0.46481200  1
  O  O18  1  0.55218200  0.79148700  0.53518800  1
  O  O19  1  0.94781800  0.20851300  0.03518800  1
  O  O20  1  0.71995300  0.13865600  0.71759300  1
  O  O21  1  0.78004700  0.86134400  0.21759300  1
  O  O22  1  0.28004700  0.63865600  0.78240700  1
  O  O23  1  0.21995300  0.36134400  0.28240700  1
  O  O24  1  0.27220900  0.10539900  0.69722400  1
  O  O25  1  0.22779100  0.89460100  0.19722400  1
  O  O26  1  0.72779100  0.60539900  0.80277600  1
  O  O27  1  0.77220900  0.39460100  0.30277600  1
