# generated using pymatgen
data_MgCr2O4
_symmetry_space_group_name_H-M   'P 1'
_cell_length_a   5.96025113
_cell_length_b   5.96025113
_cell_length_c   14.78281323
_cell_angle_alpha   87.42352625
_cell_angle_beta   87.42352625
_cell_angle_gamma   60.51276638
_symmetry_Int_Tables_number   1
_chemical_formula_structural   MgCr2O4
_chemical_formula_sum   'Mg6 Cr12 O24'
_cell_volume   456.50843331
_cell_formula_units_Z   6
loop_
 _symmetry_equiv_pos_site_id
 _symmetry_equiv_pos_as_xyz
  1  'x, y, z'
loop_
 _atom_site_type_symbol
 _atom_site_label
 _atom_site_symmetry_multiplicity
 _atom_site_fract_x
 _atom_site_fract_y
 _atom_site_fract_z
 _atom_site_occupancy
  Mg  Mg0  1  0.66236700  0.66236700  0.04160200  1
  Mg  Mg1  1  0.33292000  0.33292000  0.33183900  1
  Mg  Mg2  1  0.16333600  0.16333600  0.16571100  1
  Mg  Mg3  1  0.66695900  0.66695900  0.66760400  1
  Mg  Mg4  1  0.50014500  0.50014500  0.49946100  1
  Mg  Mg5  1  0.83478300  0.83478300  0.83357400  1
  Cr  Cr6  1  0.16399100  0.66645800  0.16573200  1
  Cr  Cr7  1  0.99865400  0.99865400  0.37523100  1
  Cr  Cr8  1  0.00097700  0.00097700  0.00288800  1
  Cr  Cr9  1  0.66645800  0.16399100  0.16573200  1
  Cr  Cr10  1  0.49994700  0.99974000  0.49964100  1
  Cr  Cr11  1  0.33448000  0.33448000  0.70751200  1
  Cr  Cr12  1  0.99974000  0.49994700  0.49964100  1
  Cr  Cr13  1  0.83511100  0.33775400  0.83451400  1
  Cr  Cr14  1  0.66702900  0.66702900  0.28982600  1
  Cr  Cr15  1  0.33775400  0.83511100  0.83451400  1
  Cr  Cr16  1  0.00083000  0.00083000  0.62536400  1
  Cr  Cr17  1  0.33824300  0.33824300  0.95997300  1
  O  O18  1  0.29957700  0.84874600  0.08385600  1
  O  O19  1  0.98443700  0.98443700  0.24284900  1
  O  O20  1  0.84874600  0.29957700  0.08385600  1
  O  O21  1  0.84443200  0.84443200  0.08890300  1
  O  O22  1  0.64757500  0.17803300  0.41736700  1
  O  O23  1  0.49268200  0.49268200  0.23777800  1
  O  O24  1  0.32179100  0.32179100  0.57507400  1
  O  O25  1  0.48553900  0.01515500  0.24680600  1
  O  O26  1  0.17803300  0.64757500  0.41736700  1
  O  O27  1  0.34244600  0.34244600  0.09111400  1
  O  O28  1  0.17299000  0.17299000  0.42678700  1
  O  O29  1  0.01515500  0.48553900  0.24680600  1
  O  O30  1  0.98642200  0.51108600  0.75172500  1
  O  O31  1  0.82733300  0.82733300  0.57290800  1
  O  O32  1  0.82133300  0.35103500  0.58225800  1
  O  O33  1  0.51108600  0.98642200  0.75172500  1
  O  O34  1  0.66182800  0.66182800  0.90592100  1
  O  O35  1  0.67801200  0.67801200  0.42394600  1
  O  O36  1  0.50783900  0.50783900  0.76223800  1
  O  O37  1  0.35103500  0.82133300  0.58225800  1
  O  O38  1  0.15651400  0.15651400  0.91066800  1
  O  O39  1  0.15655600  0.69283000  0.91847200  1
  O  O40  1  0.01201800  0.01201800  0.75972300  1
  O  O41  1  0.69283000  0.15655600  0.91847200  1
