# generated using pymatgen
data_Sr2YMn2GaO7
_symmetry_space_group_name_H-M   'P 1'
_cell_length_a   11.94283094
_cell_length_b   11.94283094
_cell_length_c   11.94283094
_cell_angle_alpha   152.43093152
_cell_angle_beta   151.75974236
_cell_angle_gamma   39.87680463
_symmetry_Int_Tables_number   1
_chemical_formula_structural   Sr2YMn2GaO7
_chemical_formula_sum   'Sr4 Y2 Mn4 Ga2 O14'
_cell_volume   372.32319256
_cell_formula_units_Z   2
loop_
 _symmetry_equiv_pos_site_id
 _symmetry_equiv_pos_as_xyz
  1  'x, y, z'
loop_
 _atom_site_type_symbol
 _atom_site_label
 _atom_site_symmetry_multiplicity
 _atom_site_fract_x
 _atom_site_fract_y
 _atom_site_fract_z
 _atom_site_occupancy
  Sr  Sr0  1  0.37568000  0.83620200  0.51416100  1
  Sr  Sr1  1  0.62432000  0.13848200  0.46052200  1
  Sr  Sr2  1  0.82204000  0.33620200  0.46052200  1
  Sr  Sr3  1  0.17796000  0.63848200  0.51416100  1
  Y  Y4  1  0.00000000  0.49927900  0.49927900  1
  Y  Y5  1  0.50000000  0.99927900  0.49927900  1
  Mn  Mn6  1  0.58357100  0.57670700  0.99824700  1
  Mn  Mn7  1  0.92154000  0.91467600  0.99824700  1
  Mn  Mn8  1  0.07846000  0.07670700  0.99313600  1
  Mn  Mn9  1  0.41642900  0.41467600  0.99313600  1
  Ga  Ga10  1  0.82675400  0.70842800  0.03518100  1
  Ga  Ga11  1  0.17324600  0.20842800  0.88167400  1
  O  O12  1  0.69355000  0.67879700  0.49690700  1
  O  O13  1  0.88429800  0.37214500  0.75644300  1
  O  O14  1  0.68189000  0.17879700  0.98524700  1
  O  O15  1  0.23440500  0.20241200  0.08206500  1
  O  O16  1  0.81278400  0.81511100  0.49584700  1
  O  O17  1  0.81926400  0.31511100  0.00232700  1
  O  O18  1  0.11570200  0.87214500  0.48784700  1
  O  O19  1  0.31811000  0.30335800  0.49690700  1
  O  O20  1  0.30645000  0.80335800  0.98524700  1
  O  O21  1  0.62034700  0.70241200  0.96800700  1
  O  O22  1  0.76559500  0.84766000  0.96800700  1
  O  O23  1  0.37965300  0.34766000  0.08206500  1
  O  O24  1  0.18721600  0.68306300  0.00232700  1
  O  O25  1  0.18073600  0.18306300  0.49584700  1
