# generated using pymatgen
data_Ca(SbO2)2
_symmetry_space_group_name_H-M   'P 1'
_cell_length_a   7.01024739
_cell_length_b   7.01024739
_cell_length_c   23.76662997
_cell_angle_alpha   78.53504861
_cell_angle_beta   78.53504861
_cell_angle_gamma   55.18353228
_symmetry_Int_Tables_number   1
_chemical_formula_structural   Ca(SbO2)2
_chemical_formula_sum   'Ca8 Sb16 O32'
_cell_volume   934.46480603
_cell_formula_units_Z   8
loop_
 _symmetry_equiv_pos_site_id
 _symmetry_equiv_pos_as_xyz
  1  'x, y, z'
loop_
 _atom_site_type_symbol
 _atom_site_label
 _atom_site_symmetry_multiplicity
 _atom_site_fract_x
 _atom_site_fract_y
 _atom_site_fract_z
 _atom_site_occupancy
  Ca  Ca0  1  0.64209300  0.64209300  0.03949500  1
  Ca  Ca1  1  0.12591500  0.12591500  0.12212500  1
  Ca  Ca2  1  0.88851300  0.88851300  0.27536500  1
  Ca  Ca3  1  0.34397600  0.34397600  0.39024500  1
  Ca  Ca4  1  0.61550700  0.61550700  0.63698500  1
  Ca  Ca5  1  0.49671200  0.49671200  0.50001500  1
  Ca  Ca6  1  0.91011800  0.91011800  0.86614900  1
  Ca  Ca7  1  0.76446800  0.76446800  0.74855500  1
  Sb  Sb8  1  0.62966000  0.13143300  0.12116500  1
  Sb  Sb9  1  0.22541800  0.22541800  0.25109200  1
  Sb  Sb10  1  0.13143300  0.62966000  0.12116500  1
  Sb  Sb11  1  0.15836800  0.15836800  0.54204400  1
  Sb  Sb12  1  0.85740300  0.35769100  0.37430800  1
  Sb  Sb13  1  0.57014700  0.57014700  0.21260000  1
  Sb  Sb14  1  0.43014800  0.43014800  0.78113800  1
  Sb  Sb15  1  0.35769100  0.85740300  0.37430800  1
  Sb  Sb16  1  0.13371200  0.62092800  0.62129800  1
  Sb  Sb17  1  0.82821700  0.82821700  0.47661300  1
  Sb  Sb18  1  0.62092800  0.13371200  0.62129800  1
  Sb  Sb19  1  0.90903200  0.41072500  0.87971900  1
  Sb  Sb20  1  0.41072500  0.90903200  0.87971900  1
  Sb  Sb21  1  0.09245100  0.09245100  0.72586200  1
  Sb  Sb22  1  0.99968800  0.99968800  0.00010500  1
  Sb  Sb23  1  0.36755700  0.36755700  0.95388500  1
  O  O24  1  0.24024600  0.81754100  0.06317600  1
  O  O25  1  0.93293200  0.93293200  0.16945200  1
  O  O26  1  0.81754100  0.24024600  0.06317600  1
  O  O27  1  0.81234800  0.81234800  0.08443000  1
  O  O28  1  0.52443600  0.52443600  0.13803200  1
  O  O29  1  0.50017100  0.03291400  0.31423500  1
  O  O30  1  0.41950300  0.91809900  0.19037300  1
  O  O31  1  0.18024500  0.18024500  0.45677700  1
  O  O32  1  0.03291400  0.50017100  0.31423500  1
  O  O33  1  0.34392600  0.34392600  0.04127600  1
  O  O34  1  0.06601100  0.06601100  0.29240500  1
  O  O35  1  0.91809900  0.41950300  0.19037300  1
  O  O36  1  0.75321500  0.31738400  0.57228500  1
  O  O37  1  0.65407400  0.65407400  0.41893700  1
  O  O38  1  0.68615500  0.15798700  0.43903200  1
  O  O39  1  0.43926700  0.43926700  0.69551200  1
  O  O40  1  0.31738400  0.75321500  0.57228500  1
  O  O41  1  0.53923600  0.53923600  0.33895700  1
  O  O42  1  0.32003900  0.32003900  0.54445200  1
  O  O43  1  0.15798700  0.68615500  0.43903200  1
  O  O44  1  0.90712600  0.90712600  0.66660600  1
  O  O45  1  0.08121600  0.58401300  0.80987800  1
  O  O46  1  0.93258800  0.43506700  0.69609100  1
  O  O47  1  0.71413100  0.71413100  0.92875800  1
  O  O48  1  0.58401300  0.08121600  0.80987800  1
  O  O49  1  0.83009500  0.83009500  0.56897000  1
  O  O50  1  0.63226600  0.63226600  0.83244600  1
  O  O51  1  0.43506700  0.93258800  0.69609100  1
  O  O52  1  0.16043300  0.16043300  0.97437800  1
  O  O53  1  0.25031500  0.71613700  0.92545900  1
  O  O54  1  0.09094900  0.09094900  0.81229800  1
  O  O55  1  0.71613700  0.25031500  0.92545900  1
