# generated using pymatgen
data_CaMn2O4
_symmetry_space_group_name_H-M   'P 1'
_cell_length_a   6.27327100
_cell_length_b   6.32900307
_cell_length_c   15.34161541
_cell_angle_alpha   90.24839593
_cell_angle_beta   90.99724673
_cell_angle_gamma   118.86183247
_symmetry_Int_Tables_number   1
_chemical_formula_structural   CaMn2O4
_chemical_formula_sum   'Ca6 Mn12 O24'
_cell_volume   533.31874629
_cell_formula_units_Z   6
loop_
 _symmetry_equiv_pos_site_id
 _symmetry_equiv_pos_as_xyz
  1  'x, y, z'
loop_
 _atom_site_type_symbol
 _atom_site_label
 _atom_site_symmetry_multiplicity
 _atom_site_fract_x
 _atom_site_fract_y
 _atom_site_fract_z
 _atom_site_occupancy
  Ca  Ca0  1  0.85136700  0.18287900  0.04277200  1
  Ca  Ca1  1  0.15479100  0.82146300  0.32954800  1
  Ca  Ca2  1  0.32936400  0.16203900  0.16527300  1
  Ca  Ca3  1  0.84384100  0.17732200  0.66959400  1
  Ca  Ca4  1  0.00079400  0.50068400  0.50008500  1
  Ca  Ca5  1  0.66903200  0.83707900  0.83582200  1
  Mn  Mn6  1  0.82288400  0.65591400  0.16288500  1
  Mn  Mn7  1  0.51130700  0.51980900  0.38025600  1
  Mn  Mn8  1  0.49890100  0.49881600  0.00121800  1
  Mn  Mn9  1  0.33706700  0.66472700  0.16426800  1
  Mn  Mn10  1  0.50028700  0.00057500  0.49946900  1
  Mn  Mn11  1  0.18997800  0.86402200  0.71126200  1
  Mn  Mn12  1  0.00026500  0.99984200  0.49966800  1
  Mn  Mn13  1  0.17410400  0.34264600  0.83651300  1
  Mn  Mn14  1  0.81136400  0.13710500  0.28940000  1
  Mn  Mn15  1  0.66667000  0.33812000  0.83538700  1
  Mn  Mn16  1  0.48868300  0.47990300  0.62000900  1
  Mn  Mn17  1  0.14580000  0.80907900  0.95922500  1
  O  O18  1  0.65575500  0.37940700  0.08095700  1
  O  O19  1  0.52090600  0.53174700  0.23674600  1
  O  O20  1  0.23549900  0.39955100  0.08071100  1
  O  O21  1  0.66499300  0.78268300  0.07730000  1
  O  O22  1  0.35330300  0.70914800  0.42735000  1
  O  O23  1  0.96312200  0.48843000  0.23300500  1
  O  O24  1  0.18922900  0.87010300  0.57311000  1
  O  O25  1  0.47385400  0.94913800  0.23582900  1
  O  O26  1  0.85700700  0.71427200  0.42607600  1
  O  O27  1  0.13410800  0.78591300  0.09474100  1
  O  O28  1  0.31857200  0.14636600  0.42851100  1
  O  O29  1  0.96550700  0.95422900  0.22961500  1
  O  O30  1  0.03325000  0.04565000  0.76870600  1
  O  O31  1  0.68131000  0.85361600  0.57056800  1
  O  O32  1  0.14380100  0.28604500  0.57341800  1
  O  O33  1  0.52735500  0.05272000  0.76326000  1
  O  O34  1  0.86591100  0.21726200  0.89821200  1
  O  O35  1  0.81214300  0.13166500  0.42652600  1
  O  O36  1  0.04256300  0.51422200  0.76343600  1
  O  O37  1  0.64686000  0.29195000  0.57173900  1
  O  O38  1  0.32411700  0.20206100  0.92699700  1
  O  O39  1  0.77764400  0.60810400  0.92239700  1
  O  O40  1  0.48050400  0.46754100  0.76602800  1
  O  O41  1  0.33618600  0.62615800  0.92211100  1
