# generated using pymatgen
data_Mg2IrWO6
_symmetry_space_group_name_H-M   'P 1'
_cell_length_a   5.37662900
_cell_length_b   5.26618500
_cell_length_c   9.26889505
_cell_angle_alpha   55.70732388
_cell_angle_beta   90.00000000
_cell_angle_gamma   90.00000000
_symmetry_Int_Tables_number   1
_chemical_formula_structural   Mg2IrWO6
_chemical_formula_sum   'Mg4 Ir2 W2 O12'
_cell_volume   216.82219476
_cell_formula_units_Z   2
loop_
 _symmetry_equiv_pos_site_id
 _symmetry_equiv_pos_as_xyz
  1  'x, y, z'
loop_
 _atom_site_type_symbol
 _atom_site_label
 _atom_site_symmetry_multiplicity
 _atom_site_fract_x
 _atom_site_fract_y
 _atom_site_fract_z
 _atom_site_occupancy
  Mg  Mg0  1  0.95946100  0.26501000  0.74176100  1
  Mg  Mg1  1  0.45946100  0.73499000  0.75823900  1
  Mg  Mg2  1  0.54053900  0.26501000  0.24176100  1
  Mg  Mg3  1  0.04053900  0.73499000  0.25823900  1
  Ir  Ir4  1  0.50000000  0.50000000  0.50000000  1
  Ir  Ir5  1  0.00000000  0.50000000  0.00000000  1
  W  W6  1  0.50000000  0.00000000  0.00000000  1
  W  W7  1  0.00000000  0.00000000  0.50000000  1
  O  O8  1  0.40882200  0.62635400  0.24660100  1
  O  O9  1  0.18186500  0.90918300  0.92093700  1
  O  O10  1  0.17087600  0.26412000  0.55627300  1
  O  O11  1  0.67087600  0.73588000  0.94372700  1
  O  O12  1  0.68186500  0.09081700  0.57906300  1
  O  O13  1  0.90882200  0.37364600  0.25339900  1
  O  O14  1  0.09117800  0.62635400  0.74660100  1
  O  O15  1  0.31813500  0.90918300  0.42093700  1
  O  O16  1  0.32912400  0.26412000  0.05627300  1
  O  O17  1  0.81813500  0.09081700  0.07906300  1
  O  O18  1  0.82912400  0.73588000  0.44372700  1
  O  O19  1  0.59117800  0.37364600  0.75339900  1
