# generated using pymatgen
data_Ca(CoO2)2
_symmetry_space_group_name_H-M   'P 1'
_cell_length_a   6.15556427
_cell_length_b   6.15556427
_cell_length_c   14.74537726
_cell_angle_alpha   88.51406351
_cell_angle_beta   88.51406351
_cell_angle_gamma   58.84657420
_symmetry_Int_Tables_number   1
_chemical_formula_structural   Ca(CoO2)2
_chemical_formula_sum   'Ca6 Co12 O24'
_cell_volume   477.92943468
_cell_formula_units_Z   6
loop_
 _symmetry_equiv_pos_site_id
 _symmetry_equiv_pos_as_xyz
  1  'x, y, z'
loop_
 _atom_site_type_symbol
 _atom_site_label
 _atom_site_symmetry_multiplicity
 _atom_site_fract_x
 _atom_site_fract_y
 _atom_site_fract_z
 _atom_site_occupancy
  Ca  Ca0  1  0.83750500  0.83750500  0.95783700  1
  Ca  Ca1  1  0.16364000  0.16364000  0.67092300  1
  Ca  Ca2  1  0.33425000  0.33425000  0.83344800  1
  Ca  Ca3  1  0.83518200  0.83518200  0.32966100  1
  Ca  Ca4  1  0.00025500  0.00025500  0.49942400  1
  Ca  Ca5  1  0.66342200  0.66342200  0.16639300  1
  Co  Co6  1  0.82219600  0.33966900  0.83483300  1
  Co  Co7  1  0.50707100  0.50707100  0.61917900  1
  Co  Co8  1  0.50134000  0.50134000  0.99834100  1
  Co  Co9  1  0.33966900  0.82219600  0.83483300  1
  Co  Co10  1  0.49949700  0.00027000  0.49998700  1
  Co  Co11  1  0.17564000  0.17564000  0.28812100  1
  Co  Co12  1  0.00027000  0.49949700  0.49998700  1
  Co  Co13  1  0.17570000  0.66321600  0.16576500  1
  Co  Co14  1  0.82505400  0.82505400  0.71071200  1
  Co  Co15  1  0.66321600  0.17570000  0.16576500  1
  Co  Co16  1  0.49159400  0.49159400  0.37893100  1
  Co  Co17  1  0.15112000  0.15112000  0.03947500  1
  O  O18  1  0.66242400  0.23122600  0.92034500  1
  O  O19  1  0.51806400  0.51806400  0.75309500  1
  O  O20  1  0.23122600  0.66242400  0.92034500  1
  O  O21  1  0.63900200  0.63900200  0.90947800  1
  O  O22  1  0.36051700  0.83842600  0.57620200  1
  O  O23  1  0.99167600  0.99167600  0.76858600  1
  O  O24  1  0.18676600  0.18676600  0.42154800  1
  O  O25  1  0.50164000  0.96789100  0.76210000  1
  O  O26  1  0.83842600  0.36051700  0.57620200  1
  O  O27  1  0.14430700  0.14430700  0.90610700  1
  O  O28  1  0.33237200  0.33237200  0.57173500  1
  O  O29  1  0.96789100  0.50164000  0.76210000  1
  O  O30  1  0.03365700  0.50042000  0.23872500  1
  O  O31  1  0.66687200  0.66687200  0.42870800  1
  O  O32  1  0.16188300  0.63818400  0.42429700  1
  O  O33  1  0.50042000  0.03365700  0.23872500  1
  O  O34  1  0.85710600  0.85710600  0.10427100  1
  O  O35  1  0.81395500  0.81395500  0.57913400  1
  O  O36  1  0.01045200  0.01045200  0.23577100  1
  O  O37  1  0.63818400  0.16188300  0.42429700  1
  O  O38  1  0.35460400  0.35460400  0.08529000  1
  O  O39  1  0.78836700  0.32923200  0.07663800  1
  O  O40  1  0.48189900  0.48189900  0.24622600  1
  O  O41  1  0.32923200  0.78836700  0.07663800  1
