# generated using pymatgen
data_Mn2ZnO4
_symmetry_space_group_name_H-M   'P 1'
_cell_length_a   6.07916319
_cell_length_b   6.07916319
_cell_length_c   14.86591277
_cell_angle_alpha   89.22228102
_cell_angle_beta   89.22228102
_cell_angle_gamma   59.71481790
_symmetry_Int_Tables_number   1
_chemical_formula_structural   Mn2ZnO4
_chemical_formula_sum   'Mn12 Zn6 O24'
_cell_volume   474.35273410
_cell_formula_units_Z   6
loop_
 _symmetry_equiv_pos_site_id
 _symmetry_equiv_pos_as_xyz
  1  'x, y, z'
loop_
 _atom_site_type_symbol
 _atom_site_label
 _atom_site_symmetry_multiplicity
 _atom_site_fract_x
 _atom_site_fract_y
 _atom_site_fract_z
 _atom_site_occupancy
  Mn  Mn0  1  0.83436700  0.33610700  0.16579800  1
  Mn  Mn1  1  0.00803500  0.00803500  0.37812400  1
  Mn  Mn2  1  0.00070300  0.00070300  0.00024300  1
  Mn  Mn3  1  0.33610700  0.83436700  0.16579800  1
  Mn  Mn4  1  0.49998000  0.00140800  0.49980500  1
  Mn  Mn5  1  0.67499500  0.67499500  0.70976500  1
  Mn  Mn6  1  0.00140800  0.49998000  0.49980500  1
  Mn  Mn7  1  0.16604700  0.66632100  0.83457000  1
  Mn  Mn8  1  0.32634400  0.32634400  0.28919100  1
  Mn  Mn9  1  0.66632100  0.16604700  0.83457000  1
  Mn  Mn10  1  0.99331200  0.99331200  0.62201000  1
  Mn  Mn11  1  0.66071300  0.66071300  0.95736900  1
  Zn  Zn12  1  0.34285700  0.34285700  0.04267000  1
  Zn  Zn13  1  0.66567900  0.66567900  0.33310800  1
  Zn  Zn14  1  0.83406800  0.83406800  0.16835900  1
  Zn  Zn15  1  0.33555800  0.33555800  0.66690100  1
  Zn  Zn16  1  0.50061600  0.50061600  0.49986500  1
  Zn  Zn17  1  0.16763000  0.16763000  0.83170600  1
  O  O18  1  0.70714000  0.16460600  0.08505600  1
  O  O19  1  0.01086200  0.01086200  0.23706500  1
  O  O20  1  0.16460600  0.70714000  0.08505600  1
  O  O21  1  0.15966700  0.15966700  0.08665600  1
  O  O22  1  0.36740400  0.83554400  0.42472900  1
  O  O23  1  0.50710900  0.50710900  0.23859000  1
  O  O24  1  0.67846200  0.67846200  0.57226100  1
  O  O25  1  0.49746300  0.96966400  0.24050300  1
  O  O26  1  0.83554400  0.36740400  0.42472900  1
  O  O27  1  0.65685800  0.65685800  0.09480900  1
  O  O28  1  0.82382200  0.82382200  0.42722300  1
  O  O29  1  0.96966400  0.49746300  0.24050300  1
  O  O30  1  0.03162600  0.50342300  0.76001700  1
  O  O31  1  0.17754300  0.17754300  0.57247600  1
  O  O32  1  0.16560400  0.63427200  0.57516900  1
  O  O33  1  0.50342300  0.03162700  0.76001700  1
  O  O34  1  0.34347300  0.34347300  0.90741400  1
  O  O35  1  0.32288000  0.32288000  0.42710900  1
  O  O36  1  0.49409100  0.49409100  0.76182500  1
  O  O37  1  0.63427200  0.16560400  0.57516900  1
  O  O38  1  0.84488400  0.84488400  0.91229300  1
  O  O39  1  0.83787900  0.29074300  0.91476300  1
  O  O40  1  0.99042600  0.99042600  0.76243300  1
  O  O41  1  0.29074300  0.83787900  0.91476300  1
