# generated using pymatgen
data_Mg(SbO2)2
_symmetry_space_group_name_H-M   'P 1'
_cell_length_a   3.08421700
_cell_length_b   9.53200800
_cell_length_c   13.63664200
_cell_angle_alpha   90.00000000
_cell_angle_beta   90.00000000
_cell_angle_gamma   90.00000000
_symmetry_Int_Tables_number   1
_chemical_formula_structural   Mg(SbO2)2
_chemical_formula_sum   'Mg4 Sb8 O16'
_cell_volume   400.90065334
_cell_formula_units_Z   4
loop_
 _symmetry_equiv_pos_site_id
 _symmetry_equiv_pos_as_xyz
  1  'x, y, z'
loop_
 _atom_site_type_symbol
 _atom_site_label
 _atom_site_symmetry_multiplicity
 _atom_site_fract_x
 _atom_site_fract_y
 _atom_site_fract_z
 _atom_site_occupancy
  Mg  Mg0  1  0.25000000  0.20914800  0.84846600  1
  Mg  Mg1  1  0.75000000  0.79085200  0.15153400  1
  Mg  Mg2  1  0.25000000  0.70914800  0.65153400  1
  Mg  Mg3  1  0.75000000  0.29085200  0.34846600  1
  Sb  Sb4  1  0.75000000  0.39940800  0.60342700  1
  Sb  Sb5  1  0.25000000  0.10059200  0.10342700  1
  Sb  Sb6  1  0.75000000  0.89940800  0.89657300  1
  Sb  Sb7  1  0.25000000  0.60059200  0.39657300  1
  Sb  Sb8  1  0.25000000  0.54248500  0.85112800  1
  Sb  Sb9  1  0.75000000  0.45751500  0.14887200  1
  Sb  Sb10  1  0.25000000  0.04248500  0.64887200  1
  Sb  Sb11  1  0.75000000  0.95751500  0.35112800  1
  O  O12  1  0.75000000  0.88224400  0.63639200  1
  O  O13  1  0.25000000  0.11775600  0.36360800  1
  O  O14  1  0.75000000  0.38224400  0.86360800  1
  O  O15  1  0.25000000  0.61775600  0.13639200  1
  O  O16  1  0.75000000  0.05367200  0.19938900  1
  O  O17  1  0.25000000  0.94632800  0.80061100  1
  O  O18  1  0.75000000  0.55367200  0.30061100  1
  O  O19  1  0.25000000  0.44632800  0.69938900  1
  O  O20  1  0.75000000  0.60291400  0.56595300  1
  O  O21  1  0.25000000  0.39708600  0.43404700  1
  O  O22  1  0.75000000  0.10291400  0.93404700  1
  O  O23  1  0.25000000  0.89708600  0.06595300  1
  O  O24  1  0.25000000  0.84137500  0.26938700  1
  O  O25  1  0.75000000  0.15862500  0.73061300  1
  O  O26  1  0.75000000  0.65862500  0.76938700  1
  O  O27  1  0.25000000  0.34137500  0.23061300  1
