# generated using pymatgen
data_MgTiP2O7
_symmetry_space_group_name_H-M   'P 1'
_cell_length_a   6.48248200
_cell_length_b   6.55252654
_cell_length_c   6.73433957
_cell_angle_alpha   80.19353311
_cell_angle_beta   64.65787974
_cell_angle_gamma   80.66466527
_symmetry_Int_Tables_number   1
_chemical_formula_structural   MgTiP2O7
_chemical_formula_sum   'Mg2 Ti2 P4 O14'
_cell_volume   253.46309395
_cell_formula_units_Z   2
loop_
 _symmetry_equiv_pos_site_id
 _symmetry_equiv_pos_as_xyz
  1  'x, y, z'
loop_
 _atom_site_type_symbol
 _atom_site_label
 _atom_site_symmetry_multiplicity
 _atom_site_fract_x
 _atom_site_fract_y
 _atom_site_fract_z
 _atom_site_occupancy
  Mg  Mg0  1  0.71273900  0.13909100  0.83883900  1
  Mg  Mg1  1  0.28726100  0.86090900  0.16116100  1
  Ti  Ti2  1  0.90577400  0.35603500  0.20286100  1
  Ti  Ti3  1  0.09422600  0.64396500  0.79713900  1
  P  P4  1  0.77240200  0.85808700  0.24794800  1
  P  P5  1  0.22759800  0.14191300  0.75205200  1
  P  P6  1  0.36272000  0.38210600  0.30884400  1
  P  P7  1  0.63728000  0.61789400  0.69115600  1
  O  O8  1  0.40084800  0.23432200  0.51582000  1
  O  O9  1  0.59915200  0.76567800  0.48418000  1
  O  O10  1  0.91588800  0.01546300  0.26371700  1
  O  O11  1  0.08411200  0.98453700  0.73628300  1
  O  O12  1  0.73257400  0.39830400  0.61469500  1
  O  O13  1  0.26742600  0.60169600  0.38530500  1
  O  O14  1  0.39175400  0.62949600  0.87154200  1
  O  O15  1  0.60824600  0.37050400  0.12845800  1
  O  O16  1  0.38553500  0.05694000  0.87062100  1
  O  O17  1  0.61446500  0.94306000  0.12937900  1
  O  O18  1  0.05010300  0.32349200  0.85664000  1
  O  O19  1  0.94989700  0.67650800  0.14336000  1
  O  O20  1  0.79802000  0.72863500  0.73719500  1
  O  O21  1  0.20198000  0.27136500  0.26280500  1
