# generated using pymatgen
data_Ca(BiO2)2
_symmetry_space_group_name_H-M   'P 1'
_cell_length_a   7.01284265
_cell_length_b   7.01284265
_cell_length_c   17.19826402
_cell_angle_alpha   89.78049360
_cell_angle_beta   89.78049360
_cell_angle_gamma   59.84520379
_symmetry_Int_Tables_number   1
_chemical_formula_structural   Ca(BiO2)2
_chemical_formula_sum   'Ca6 Bi12 O24'
_cell_volume   731.34054124
_cell_formula_units_Z   6
loop_
 _symmetry_equiv_pos_site_id
 _symmetry_equiv_pos_as_xyz
  1  'x, y, z'
loop_
 _atom_site_type_symbol
 _atom_site_label
 _atom_site_symmetry_multiplicity
 _atom_site_fract_x
 _atom_site_fract_y
 _atom_site_fract_z
 _atom_site_occupancy
  Ca  Ca0  1  0.83609700  0.83609700  0.95921000  1
  Ca  Ca1  1  0.16657600  0.16657600  0.66648100  1
  Ca  Ca2  1  0.33392100  0.33392100  0.83254400  1
  Ca  Ca3  1  0.83326100  0.83326100  0.33461300  1
  Ca  Ca4  1  0.99997000  0.99997000  0.50011500  1
  Ca  Ca5  1  0.66683300  0.66683300  0.16734500  1
  Bi  Bi6  1  0.83452200  0.33341000  0.83191600  1
  Bi  Bi7  1  0.50275000  0.50275000  0.62286000  1
  Bi  Bi8  1  0.49843500  0.49843500  0.99517800  1
  Bi  Bi9  1  0.33341000  0.83452200  0.83191600  1
  Bi  Bi10  1  0.50046900  0.99990700  0.50028900  1
  Bi  Bi11  1  0.16932500  0.16932500  0.29083700  1
  Bi  Bi12  1  0.99990700  0.50046900  0.50028900  1
  Bi  Bi13  1  0.16019800  0.66823000  0.16776000  1
  Bi  Bi14  1  0.83046300  0.83046300  0.70994000  1
  Bi  Bi15  1  0.66823000  0.16019800  0.16776000  1
  Bi  Bi16  1  0.49741300  0.49741300  0.37618800  1
  Bi  Bi17  1  0.16342900  0.16342900  0.04135700  1
  O  O18  1  0.65174100  0.19448500  0.91365300  1
  O  O19  1  0.49941000  0.49941000  0.75592700  1
  O  O20  1  0.19448500  0.65174100  0.91365300  1
  O  O21  1  0.65683000  0.65683000  0.91406000  1
  O  O22  1  0.32222000  0.85724300  0.58036600  1
  O  O23  1  0.00929500  0.00929500  0.75152100  1
  O  O24  1  0.16580200  0.16580200  0.42381200  1
  O  O25  1  0.47721000  0.01091600  0.75265300  1
  O  O26  1  0.85724300  0.32222000  0.58036600  1
  O  O27  1  0.16719700  0.16719700  0.90754800  1
  O  O28  1  0.32269900  0.32269900  0.58147700  1
  O  O29  1  0.01091600  0.47721000  0.75265300  1
  O  O30  1  0.99025200  0.52316900  0.24759900  1
  O  O31  1  0.67702200  0.67702200  0.41848100  1
  O  O32  1  0.14261600  0.67815100  0.41966900  1
  O  O33  1  0.52316900  0.99025200  0.24759900  1
  O  O34  1  0.83425100  0.83425100  0.09404200  1
  O  O35  1  0.83414900  0.83414900  0.57617300  1
  O  O36  1  0.98896900  0.98896900  0.24800800  1
  O  O37  1  0.67815100  0.14261600  0.41966900  1
  O  O38  1  0.33832200  0.33832200  0.08552800  1
  O  O39  1  0.81598500  0.34436600  0.08740800  1
  O  O40  1  0.50191700  0.50191700  0.24419100  1
  O  O41  1  0.34436600  0.81598500  0.08740800  1
