# generated using pymatgen
data_ZnCrAsO5
_symmetry_space_group_name_H-M   'P 1'
_cell_length_a   6.19223000
_cell_length_b   7.94127200
_cell_length_c   8.32714700
_cell_angle_alpha   90.00000000
_cell_angle_beta   90.00000000
_cell_angle_gamma   90.00000000
_symmetry_Int_Tables_number   1
_chemical_formula_structural   ZnCrAsO5
_chemical_formula_sum   'Zn4 Cr4 As4 O20'
_cell_volume   409.48064809
_cell_formula_units_Z   4
loop_
 _symmetry_equiv_pos_site_id
 _symmetry_equiv_pos_as_xyz
  1  'x, y, z'
loop_
 _atom_site_type_symbol
 _atom_site_label
 _atom_site_symmetry_multiplicity
 _atom_site_fract_x
 _atom_site_fract_y
 _atom_site_fract_z
 _atom_site_occupancy
  Zn  Zn0  1  0.02729600  0.80004500  0.68807500  1
  Zn  Zn1  1  0.47270400  0.19995500  0.18807500  1
  Zn  Zn2  1  0.97270400  0.30004500  0.81192500  1
  Zn  Zn3  1  0.52729600  0.69995500  0.31192500  1
  Cr  Cr4  1  0.25442000  0.75184100  0.00093900  1
  Cr  Cr5  1  0.24558000  0.24815900  0.50093900  1
  Cr  Cr6  1  0.74558000  0.25184100  0.49906100  1
  Cr  Cr7  1  0.75442000  0.74815900  0.99906100  1
  As  As8  1  0.48946600  0.09483600  0.82160300  1
  As  As9  1  0.01053400  0.90516400  0.32160300  1
  As  As10  1  0.51053400  0.59483600  0.67839700  1
  As  As11  1  0.98946600  0.40516400  0.17839700  1
  O  O12  1  0.50405800  0.89801200  0.91334600  1
  O  O13  1  0.99594200  0.10198800  0.41334600  1
  O  O14  1  0.49594200  0.39801200  0.58665400  1
  O  O15  1  0.00405800  0.60198800  0.08665400  1
  O  O16  1  0.46234900  0.24397200  0.96848800  1
  O  O17  1  0.03765100  0.75602800  0.46848800  1
  O  O18  1  0.53765100  0.74397200  0.53151200  1
  O  O19  1  0.96234900  0.25602800  0.03151200  1
  O  O20  1  0.72643800  0.12646400  0.71600500  1
  O  O21  1  0.77356200  0.87353600  0.21600500  1
  O  O22  1  0.27356200  0.62646400  0.78399500  1
  O  O23  1  0.22643800  0.37353600  0.28399500  1
  O  O24  1  0.26202000  0.10287800  0.70238700  1
  O  O25  1  0.23798000  0.89712200  0.20238700  1
  O  O26  1  0.73798000  0.60287800  0.79761300  1
  O  O27  1  0.76202000  0.39712200  0.29761300  1
  O  O28  1  0.00188800  0.86490000  0.90288700  1
  O  O29  1  0.49811200  0.13510000  0.40288700  1
  O  O30  1  0.99811200  0.36490000  0.59711300  1
  O  O31  1  0.50188800  0.63510000  0.09711300  1
