# generated using pymatgen
data_Mg2MoWO6
_symmetry_space_group_name_H-M   'P 1'
_cell_length_a   5.67150836
_cell_length_b   5.67150836
_cell_length_c   5.67150784
_cell_angle_alpha   55.46886646
_cell_angle_beta   55.46886646
_cell_angle_gamma   55.46886940
_symmetry_Int_Tables_number   1
_chemical_formula_structural   Mg2MoWO6
_chemical_formula_sum   'Mg2 Mo1 W1 O6'
_cell_volume   115.42437382
_cell_formula_units_Z   1
loop_
 _symmetry_equiv_pos_site_id
 _symmetry_equiv_pos_as_xyz
  1  'x, y, z'
loop_
 _atom_site_type_symbol
 _atom_site_label
 _atom_site_symmetry_multiplicity
 _atom_site_fract_x
 _atom_site_fract_y
 _atom_site_fract_z
 _atom_site_occupancy
  Mg  Mg0  1  0.77166200  0.77166200  0.77166200  1
  Mg  Mg1  1  0.27184800  0.27184800  0.27184800  1
  Mo  Mo2  1  0.47859400  0.47859400  0.47859400  1
  W  W3  1  0.97679900  0.97679900  0.97679900  1
  O  O4  1  0.87931800  0.59373700  0.18002700  1
  O  O5  1  0.07501200  0.36242600  0.70350300  1
  O  O6  1  0.70350300  0.07501200  0.36242600  1
  O  O7  1  0.36242600  0.70350300  0.07501200  1
  O  O8  1  0.59373700  0.18002700  0.87931800  1
  O  O9  1  0.18002700  0.87931800  0.59373700  1
