# generated using pymatgen
data_SbO2
_symmetry_space_group_name_H-M   'P 1'
_cell_length_a   6.50395500
_cell_length_b   7.42307053
_cell_length_c   15.66415239
_cell_angle_alpha   96.03557678
_cell_angle_beta   89.24015032
_cell_angle_gamma   113.85153573
_symmetry_Int_Tables_number   1
_chemical_formula_structural   SbO2
_chemical_formula_sum   'Sb12 O24'
_cell_volume   687.47766314
_cell_formula_units_Z   12
loop_
 _symmetry_equiv_pos_site_id
 _symmetry_equiv_pos_as_xyz
  1  'x, y, z'
loop_
 _atom_site_type_symbol
 _atom_site_label
 _atom_site_symmetry_multiplicity
 _atom_site_fract_x
 _atom_site_fract_y
 _atom_site_fract_z
 _atom_site_occupancy
  Sb  Sb0  1  0.68828000  0.33583100  0.15435600  1
  Sb  Sb1  1  0.48014600  0.91219800  0.52754600  1
  Sb  Sb2  1  0.40351400  0.23948400  0.31974400  1
  Sb  Sb3  1  0.10990900  0.74108400  0.16305200  1
  Sb  Sb4  1  0.05455600  0.13556800  0.46199000  1
  Sb  Sb5  1  0.18332800  0.34795800  0.16378000  1
  Sb  Sb6  1  0.65087900  0.75576600  0.67754900  1
  Sb  Sb7  1  0.52037400  0.50236200  0.49799300  1
  Sb  Sb8  1  0.33401100  0.66539800  0.84197600  1
  Sb  Sb9  1  0.74287800  0.09300400  0.84539100  1
  Sb  Sb10  1  0.85637000  0.64799300  0.85057600  1
  Sb  Sb11  1  0.26963600  0.19622400  0.94414500  1
  O  O12  1  0.29320800  0.59834800  0.11219800  1
  O  O13  1  0.88568000  0.21067500  0.09781900  1
  O  O14  1  0.99405800  0.49565100  0.23193500  1
  O  O15  1  0.81666100  0.58190600  0.09932800  1
  O  O16  1  0.65347300  0.37339600  0.40862100  1
  O  O17  1  0.56921500  0.12946900  0.23626500  1
  O  O18  1  0.38275400  0.24345400  0.08314700  1
  O  O19  1  0.49965000  0.45805700  0.23709300  1
  O  O20  1  0.22527700  0.01144000  0.38351500  1
  O  O21  1  0.31295700  0.25756700  0.54670500  1
  O  O22  1  0.24824000  0.38587500  0.40383700  1
  O  O23  1  0.12010000  0.14925100  0.24341900  1
  O  O24  1  0.90406900  0.85423500  0.76170000  1
  O  O25  1  0.75215900  0.59088800  0.59108800  1
  O  O26  1  0.60352800  0.75540900  0.44623500  1
  O  O27  1  0.74387400  0.99106000  0.61059500  1
  O  O28  1  0.61672600  0.85419300  0.90967600  1
  O  O29  1  0.48856300  0.54593200  0.75305100  1
  O  O30  1  0.49150100  0.90427000  0.75798400  1
  O  O31  1  0.37155000  0.65641400  0.58658700  1
  O  O32  1  0.28397800  0.45761200  0.91768200  1
  O  O33  1  0.17118400  0.82272000  0.90400200  1
  O  O34  1  0.04147600  0.52837900  0.77955400  1
  O  O35  1  0.56964200  0.23762700  0.90476500  1
