# generated using pymatgen
data_Ca2AlBiO5
_symmetry_space_group_name_H-M   'P 1'
_cell_length_a   5.65762800
_cell_length_b   6.04238151
_cell_length_c   8.75327762
_cell_angle_alpha   110.16126367
_cell_angle_beta   107.41824674
_cell_angle_gamma   90.04053691
_symmetry_Int_Tables_number   1
_chemical_formula_structural   Ca2AlBiO5
_chemical_formula_sum   'Ca4 Al2 Bi2 O10'
_cell_volume   266.21092270
_cell_formula_units_Z   2
loop_
 _symmetry_equiv_pos_site_id
 _symmetry_equiv_pos_as_xyz
  1  'x, y, z'
loop_
 _atom_site_type_symbol
 _atom_site_label
 _atom_site_symmetry_multiplicity
 _atom_site_fract_x
 _atom_site_fract_y
 _atom_site_fract_z
 _atom_site_occupancy
  Ca  Ca0  1  0.83575200  0.38784000  0.76054900  1
  Ca  Ca1  1  0.58671700  0.17802300  0.28936800  1
  Ca  Ca2  1  0.08069600  0.61735300  0.28915500  1
  Ca  Ca3  1  0.36317100  0.86674000  0.76172700  1
  Al  Al4  1  0.71998700  0.82533000  0.51420700  1
  Al  Al5  1  0.21917500  0.19201000  0.51533800  1
  Bi  Bi6  1  0.47730600  0.48854300  0.99217800  1
  Bi  Bi7  1  0.99174000  0.99734800  0.99113700  1
  O  O8  1  0.41144100  0.93830900  0.49604300  1
  O  O9  1  0.90756700  0.05905500  0.49029000  1
  O  O10  1  0.36489600  0.44911000  0.70188800  1
  O  O11  1  0.70623000  0.56690300  0.33480700  1
  O  O12  1  0.84304100  0.74637200  0.70006400  1
  O  O13  1  0.20613400  0.27372600  0.33589400  1
  O  O14  1  0.88694100  0.64248900  0.03398100  1
  O  O15  1  0.65962100  0.17628200  0.88540500  1
  O  O16  1  0.14949900  0.18905000  0.85854000  1
  O  O17  1  0.39645200  0.89173800  0.03528700  1
