# generated using pymatgen
data_Ca2YBiO5
_symmetry_space_group_name_H-M   'P 1'
_cell_length_a   8.93127454
_cell_length_b   8.93127454
_cell_length_c   6.09899490
_cell_angle_alpha   70.66252556
_cell_angle_beta   70.66252556
_cell_angle_gamma   39.64555805
_symmetry_Int_Tables_number   1
_chemical_formula_structural   Ca2YBiO5
_chemical_formula_sum   'Ca4 Y2 Bi2 O10'
_cell_volume   290.54173526
_cell_formula_units_Z   2
loop_
 _symmetry_equiv_pos_site_id
 _symmetry_equiv_pos_as_xyz
  1  'x, y, z'
loop_
 _atom_site_type_symbol
 _atom_site_label
 _atom_site_symmetry_multiplicity
 _atom_site_fract_x
 _atom_site_fract_y
 _atom_site_fract_z
 _atom_site_occupancy
  Ca  Ca0  1  0.37612200  0.86977600  0.08351200  1
  Ca  Ca1  1  0.12276900  0.61584500  0.33703400  1
  Ca  Ca2  1  0.61584500  0.12276900  0.83703400  1
  Ca  Ca3  1  0.86977600  0.37612200  0.58351200  1
  Y  Y4  1  0.72631600  0.26271800  0.19006200  1
  Y  Y5  1  0.26271800  0.72631600  0.69006200  1
  Bi  Bi6  1  0.49725600  0.99761600  0.50248100  1
  Bi  Bi7  1  0.99761600  0.49725600  0.00248100  1
  O  O8  1  0.60277600  0.39312500  0.83036800  1
  O  O9  1  0.39312500  0.60277600  0.33036800  1
  O  O10  1  0.19932300  0.00076100  0.74787900  1
  O  O11  1  0.79271200  0.98877500  0.45716300  1
  O  O12  1  0.00076100  0.19932300  0.24787900  1
  O  O13  1  0.98877500  0.79271200  0.95716300  1
  O  O14  1  0.26208600  0.35514400  0.68733200  1
  O  O15  1  0.72830500  0.64986500  0.80826100  1
  O  O16  1  0.64986500  0.72830500  0.30826100  1
  O  O17  1  0.35514400  0.26208600  0.18733200  1
