# generated using pymatgen
data_YFe3F15
_symmetry_space_group_name_H-M   'P 1'
_cell_length_a   11.26351700
_cell_length_b   5.89678600
_cell_length_c   9.35285763
_cell_angle_alpha   73.08560806
_cell_angle_beta   90.00000000
_cell_angle_gamma   90.00000000
_symmetry_Int_Tables_number   1
_chemical_formula_structural   YFe3F15
_chemical_formula_sum   'Y2 Fe6 F30'
_cell_volume   594.33031563
_cell_formula_units_Z   2
loop_
 _symmetry_equiv_pos_site_id
 _symmetry_equiv_pos_as_xyz
  1  'x, y, z'
loop_
 _atom_site_type_symbol
 _atom_site_label
 _atom_site_symmetry_multiplicity
 _atom_site_fract_x
 _atom_site_fract_y
 _atom_site_fract_z
 _atom_site_occupancy
  Y  Y0  1  0.75000000  0.51675700  0.73877700  1
  Y  Y1  1  0.25000000  0.48324300  0.26122300  1
  Fe  Fe2  1  0.50000000  0.00000000  0.50000000  1
  Fe  Fe3  1  0.49236000  0.03186400  0.15581500  1
  Fe  Fe4  1  0.50764000  0.96813600  0.84418500  1
  Fe  Fe5  1  0.00000000  0.00000000  0.50000000  1
  Fe  Fe6  1  0.00764000  0.03186400  0.15581500  1
  Fe  Fe7  1  0.99236000  0.96813600  0.84418500  1
  F  F8  1  0.75000000  0.60240600  0.49703000  1
  F  F9  1  0.75000000  0.60871400  0.28997000  1
  F  F10  1  0.75000000  0.61487600  0.93265900  1
  F  F11  1  0.25000000  0.39759400  0.50297000  1
  F  F12  1  0.25000000  0.38512400  0.06734100  1
  F  F13  1  0.25000000  0.39128600  0.71003000  1
  F  F14  1  0.42226100  0.10371000  0.64713300  1
  F  F15  1  0.39621800  0.16977700  0.31376000  1
  F  F16  1  0.40999900  0.12656200  0.96159100  1
  F  F17  1  0.57773900  0.89629000  0.35286700  1
  F  F18  1  0.59000100  0.87343800  0.03840900  1
  F  F19  1  0.60378200  0.83022300  0.68624000  1
  F  F20  1  0.09282700  0.74993500  0.53794900  1
  F  F21  1  0.11421200  0.76056200  0.21850900  1
  F  F22  1  0.08344800  0.70664600  0.88811400  1
  F  F23  1  0.90717300  0.25006500  0.46205100  1
  F  F24  1  0.91655200  0.29335400  0.11188600  1
  F  F25  1  0.88578800  0.23943800  0.78149100  1
  F  F26  1  0.59282700  0.25006500  0.46205100  1
  F  F27  1  0.58344800  0.29335400  0.11188600  1
  F  F28  1  0.61421200  0.23943800  0.78149100  1
  F  F29  1  0.40717300  0.74993500  0.53794900  1
  F  F30  1  0.38578800  0.76056200  0.21850900  1
  F  F31  1  0.41655200  0.70664600  0.88811400  1
  F  F32  1  0.07773900  0.10371000  0.64713300  1
  F  F33  1  0.10378200  0.16977700  0.31376000  1
  F  F34  1  0.09000100  0.12656200  0.96159100  1
  F  F35  1  0.92226100  0.89629000  0.35286700  1
  F  F36  1  0.90999900  0.87343800  0.03840900  1
  F  F37  1  0.89621800  0.83022300  0.68624000  1
