# generated using pymatgen
data_Mg(CoO2)2
_symmetry_space_group_name_H-M   'P 1'
_cell_length_a   2.92949400
_cell_length_b   9.61700700
_cell_length_c   9.66946200
_cell_angle_alpha   90.00000000
_cell_angle_beta   90.00000000
_cell_angle_gamma   90.00000000
_symmetry_Int_Tables_number   1
_chemical_formula_structural   Mg(CoO2)2
_chemical_formula_sum   'Mg4 Co8 O16'
_cell_volume   272.41740777
_cell_formula_units_Z   4
loop_
 _symmetry_equiv_pos_site_id
 _symmetry_equiv_pos_as_xyz
  1  'x, y, z'
loop_
 _atom_site_type_symbol
 _atom_site_label
 _atom_site_symmetry_multiplicity
 _atom_site_fract_x
 _atom_site_fract_y
 _atom_site_fract_z
 _atom_site_occupancy
  Mg  Mg0  1  0.76143300  0.25000000  0.86035500  1
  Mg  Mg1  1  0.76143300  0.75000000  0.63964500  1
  Mg  Mg2  1  0.23856700  0.25000000  0.36035500  1
  Mg  Mg3  1  0.23856700  0.75000000  0.13964500  1
  Co  Co4  1  0.25296600  0.07210400  0.61699300  1
  Co  Co5  1  0.25296600  0.57210400  0.88300700  1
  Co  Co6  1  0.74703400  0.57210400  0.38300700  1
  Co  Co7  1  0.25296600  0.92789600  0.88300700  1
  Co  Co8  1  0.74703400  0.92789600  0.38300700  1
  Co  Co9  1  0.25296600  0.42789600  0.61699300  1
  Co  Co10  1  0.74703400  0.42789600  0.11699300  1
  Co  Co11  1  0.74703400  0.07210400  0.11699300  1
  O  O12  1  0.75033400  0.38541900  0.47274600  1
  O  O13  1  0.24966600  0.61458100  0.52725400  1
  O  O14  1  0.75525900  0.50000000  0.75000000  1
  O  O15  1  0.24966600  0.38541900  0.97274600  1
  O  O16  1  0.24966600  0.11458100  0.97274600  1
  O  O17  1  0.26032700  0.75000000  0.79332000  1
  O  O18  1  0.75033400  0.61458100  0.02725400  1
  O  O19  1  0.73967300  0.75000000  0.29332000  1
  O  O20  1  0.75525900  0.00000000  0.75000000  1
  O  O21  1  0.24474100  0.50000000  0.25000000  1
  O  O22  1  0.75033400  0.11458100  0.47274600  1
  O  O23  1  0.73967300  0.25000000  0.20668000  1
  O  O24  1  0.26032700  0.25000000  0.70668000  1
  O  O25  1  0.24474100  0.00000000  0.25000000  1
  O  O26  1  0.75033400  0.88541900  0.02725400  1
  O  O27  1  0.24966600  0.88541900  0.52725400  1
