# generated using pymatgen
data_YBi3F15
_symmetry_space_group_name_H-M   'P 1'
_cell_length_a   11.65615300
_cell_length_b   5.96275500
_cell_length_c   10.51595867
_cell_angle_alpha   77.29536767
_cell_angle_beta   90.00000000
_cell_angle_gamma   90.00000000
_symmetry_Int_Tables_number   1
_chemical_formula_structural   YBi3F15
_chemical_formula_sum   'Y2 Bi6 F30'
_cell_volume   712.99389861
_cell_formula_units_Z   2
loop_
 _symmetry_equiv_pos_site_id
 _symmetry_equiv_pos_as_xyz
  1  'x, y, z'
loop_
 _atom_site_type_symbol
 _atom_site_label
 _atom_site_symmetry_multiplicity
 _atom_site_fract_x
 _atom_site_fract_y
 _atom_site_fract_z
 _atom_site_occupancy
  Y  Y0  1  0.25000000  0.75093800  0.65126100  1
  Y  Y1  1  0.75000000  0.24906200  0.34873900  1
  Bi  Bi2  1  0.50000000  0.00000000  0.00000000  1
  Bi  Bi3  1  0.43823500  0.63942200  0.34099600  1
  Bi  Bi4  1  0.56176500  0.36057800  0.65900400  1
  Bi  Bi5  1  0.00000000  0.00000000  0.00000000  1
  Bi  Bi6  1  0.06176500  0.63942200  0.34099600  1
  Bi  Bi7  1  0.93823500  0.36057800  0.65900400  1
  F  F8  1  0.25000000  0.82850900  0.84893600  1
  F  F9  1  0.25000000  0.54808600  0.32200000  1
  F  F10  1  0.25000000  0.09418300  0.69390600  1
  F  F11  1  0.75000000  0.17149100  0.15106400  1
  F  F12  1  0.75000000  0.90581700  0.30609400  1
  F  F13  1  0.75000000  0.45191400  0.67800000  1
  F  F14  1  0.60358700  0.27248000  0.91443400  1
  F  F15  1  0.52543600  0.00147200  0.19662400  1
  F  F16  1  0.58003300  0.65858200  0.49274600  1
  F  F17  1  0.39641300  0.72752000  0.08556600  1
  F  F18  1  0.41996700  0.34141800  0.50725400  1
  F  F19  1  0.47456400  0.99852800  0.80337600  1
  F  F20  1  0.87249900  0.77198100  0.99912900  1
  F  F21  1  0.90359700  0.44677800  0.28422500  1
  F  F22  1  0.86346300  0.15840000  0.52524200  1
  F  F23  1  0.12750100  0.22801900  0.00087100  1
  F  F24  1  0.13653700  0.84160000  0.47475800  1
  F  F25  1  0.09640300  0.55322200  0.71577500  1
  F  F26  1  0.37249900  0.22801900  0.00087100  1
  F  F27  1  0.36346300  0.84160000  0.47475800  1
  F  F28  1  0.40359700  0.55322200  0.71577500  1
  F  F29  1  0.62750100  0.77198100  0.99912900  1
  F  F30  1  0.59640300  0.44677800  0.28422500  1
  F  F31  1  0.63653700  0.15840000  0.52524200  1
  F  F32  1  0.89641300  0.27248000  0.91443400  1
  F  F33  1  0.97456400  0.00147200  0.19662400  1
  F  F34  1  0.91996700  0.65858200  0.49274600  1
  F  F35  1  0.10358700  0.72752000  0.08556600  1
  F  F36  1  0.08003300  0.34141800  0.50725400  1
  F  F37  1  0.02543600  0.99852800  0.80337600  1
