# generated using pymatgen
data_Ca(WO2)2
_symmetry_space_group_name_H-M   'P 1'
_cell_length_a   6.58805900
_cell_length_b   6.59731622
_cell_length_c   16.03813057
_cell_angle_alpha   90.10940172
_cell_angle_beta   90.75821153
_cell_angle_gamma   119.25579487
_symmetry_Int_Tables_number   1
_chemical_formula_structural   Ca(WO2)2
_chemical_formula_sum   'Ca6 W12 O24'
_cell_volume   608.07804460
_cell_formula_units_Z   6
loop_
 _symmetry_equiv_pos_site_id
 _symmetry_equiv_pos_as_xyz
  1  'x, y, z'
loop_
 _atom_site_type_symbol
 _atom_site_label
 _atom_site_symmetry_multiplicity
 _atom_site_fract_x
 _atom_site_fract_y
 _atom_site_fract_z
 _atom_site_occupancy
  Ca  Ca0  1  0.17370300  0.33900300  0.03977900  1
  Ca  Ca1  1  0.83312700  0.66464500  0.33213600  1
  Ca  Ca2  1  0.16452100  0.82866300  0.16834500  1
  Ca  Ca3  1  0.16792300  0.33644300  0.66797700  1
  Ca  Ca4  1  0.49101500  0.49108800  0.49727300  1
  Ca  Ca5  1  0.83201800  0.17992200  0.83363700  1
  W  W6  1  0.66680500  0.83909900  0.16706700  1
  W  W7  1  0.45672900  0.05029400  0.36642300  1
  W  W8  1  0.49979200  0.00144300  0.00028600  1
  W  W9  1  0.67397400  0.33404700  0.16880100  1
  W  W10  1  0.99807200  0.49595700  0.50099000  1
  W  W11  1  0.80600100  0.70492700  0.70035700  1
  W  W12  1  0.99828000  0.99772300  0.50165900  1
  W  W13  1  0.33525200  0.16817400  0.83097100  1
  W  W14  1  0.20777800  0.31273100  0.29522700  1
  W  W15  1  0.32698000  0.66441100  0.82854200  1
  W  W16  1  0.54176400  0.94919100  0.63298600  1
  W  W17  1  0.88336200  0.69466900  0.97020900  1
  O  O18  1  0.37361500  0.72114100  0.07878600  1
  O  O19  1  0.52367000  0.01227300  0.24671600  1
  O  O20  1  0.37326900  0.15542100  0.08220000  1
  O  O21  1  0.78915700  0.14524700  0.08765200  1
  O  O22  1  0.68857100  0.33463200  0.42432600  1
  O  O23  1  0.51602900  0.51857200  0.23430700  1
  O  O24  1  0.86673500  0.68132900  0.57688800  1
  O  O25  1  0.99737100  0.49124900  0.24497900  1
  O  O26  1  0.70622800  0.82622800  0.43295200  1
  O  O27  1  0.79600200  0.64703800  0.09326500  1
  O  O28  1  0.15800500  0.82686000  0.42901900  1
  O  O29  1  0.96842000  0.97583500  0.24687000  1
  O  O30  1  0.01688100  0.00420600  0.75563800  1
  O  O31  1  0.84165100  0.17353900  0.57476100  1
  O  O32  1  0.29232800  0.15716500  0.57481900  1
  O  O33  1  0.00511400  0.51384200  0.75056800  1
  O  O34  1  0.18782200  0.34588400  0.89767300  1
  O  O35  1  0.11252000  0.29317800  0.43143700  1
  O  O36  1  0.50379300  0.49512800  0.76022900  1
  O  O37  1  0.30967200  0.65816200  0.57802100  1
  O  O38  1  0.19990200  0.85311700  0.90660200  1
  O  O39  1  0.61976200  0.84445200  0.91691300  1
  O  O40  1  0.47763400  0.99098800  0.75233500  1
  O  O41  1  0.61875100  0.28208100  0.92037900  1
