# generated using pymatgen
data_Mg(MoO2)2
_symmetry_space_group_name_H-M   'P 1'
_cell_length_a   3.14024800
_cell_length_b   9.61449900
_cell_length_c   11.02801900
_cell_angle_alpha   90.00000000
_cell_angle_beta   90.00000000
_cell_angle_gamma   90.00000000
_symmetry_Int_Tables_number   1
_chemical_formula_structural   Mg(MoO2)2
_chemical_formula_sum   'Mg4 Mo8 O16'
_cell_volume   332.95697097
_cell_formula_units_Z   4
loop_
 _symmetry_equiv_pos_site_id
 _symmetry_equiv_pos_as_xyz
  1  'x, y, z'
loop_
 _atom_site_type_symbol
 _atom_site_label
 _atom_site_symmetry_multiplicity
 _atom_site_fract_x
 _atom_site_fract_y
 _atom_site_fract_z
 _atom_site_occupancy
  Mg  Mg0  1  0.75000000  0.74807400  0.84230400  1
  Mg  Mg1  1  0.25000000  0.25192600  0.15769600  1
  Mg  Mg2  1  0.75000000  0.24807400  0.65769600  1
  Mg  Mg3  1  0.25000000  0.75192600  0.34230400  1
  Mo  Mo4  1  0.25000000  0.89820700  0.59857200  1
  Mo  Mo5  1  0.75000000  0.60179300  0.09857200  1
  Mo  Mo6  1  0.25000000  0.39820700  0.90142800  1
  Mo  Mo7  1  0.75000000  0.10179300  0.40142800  1
  Mo  Mo8  1  0.75000000  0.04974600  0.87796500  1
  Mo  Mo9  1  0.25000000  0.95025400  0.12203500  1
  Mo  Mo10  1  0.75000000  0.54974600  0.62203500  1
  Mo  Mo11  1  0.25000000  0.45025400  0.37796500  1
  O  O12  1  0.25000000  0.39992900  0.57143000  1
  O  O13  1  0.75000000  0.60007100  0.42857000  1
  O  O14  1  0.25000000  0.89992900  0.92857000  1
  O  O15  1  0.75000000  0.10007100  0.07143000  1
  O  O16  1  0.25000000  0.57530800  0.22179900  1
  O  O17  1  0.75000000  0.42469200  0.77820100  1
  O  O18  1  0.25000000  0.07530800  0.27820100  1
  O  O19  1  0.75000000  0.92469200  0.72179900  1
  O  O20  1  0.25000000  0.11886600  0.54569100  1
  O  O21  1  0.75000000  0.88113400  0.45430900  1
  O  O22  1  0.25000000  0.61886600  0.95430900  1
  O  O23  1  0.75000000  0.38113400  0.04569100  1
  O  O24  1  0.75000000  0.30989200  0.31448000  1
  O  O25  1  0.25000000  0.69010800  0.68552000  1
  O  O26  1  0.25000000  0.19010800  0.81448000  1
  O  O27  1  0.75000000  0.80989200  0.18552000  1
