# generated using pymatgen
data_Ca(FeO2)2
_symmetry_space_group_name_H-M   'P 1'
_cell_length_a   5.23859262
_cell_length_b   5.23859262
_cell_length_c   10.13688800
_cell_angle_alpha   90.00000000
_cell_angle_beta   90.00000000
_cell_angle_gamma   145.97569000
_symmetry_Int_Tables_number   1
_chemical_formula_structural   Ca(FeO2)2
_chemical_formula_sum   'Ca2 Fe4 O8'
_cell_volume   155.65698513
_cell_formula_units_Z   2
loop_
 _symmetry_equiv_pos_site_id
 _symmetry_equiv_pos_as_xyz
  1  'x, y, z'
loop_
 _atom_site_type_symbol
 _atom_site_label
 _atom_site_symmetry_multiplicity
 _atom_site_fract_x
 _atom_site_fract_y
 _atom_site_fract_z
 _atom_site_occupancy
  Ca  Ca0  1  0.60977500  0.39022500  0.75000000  1
  Ca  Ca1  1  0.39022500  0.60977500  0.25000000  1
  Fe  Fe2  1  0.13540500  0.86459500  0.07073500  1
  Fe  Fe3  1  0.86459500  0.13540500  0.92926500  1
  Fe  Fe4  1  0.13540500  0.86459500  0.42926500  1
  Fe  Fe5  1  0.86459500  0.13540500  0.57073500  1
  O  O6  1  0.76865900  0.23134100  0.39216900  1
  O  O7  1  0.23134100  0.76865900  0.60783100  1
  O  O8  1  0.23134100  0.76865900  0.89216900  1
  O  O9  1  0.76865900  0.23134100  0.10783100  1
  O  O10  1  0.06023200  0.93976800  0.25000000  1
  O  O11  1  0.93976800  0.06023200  0.75000000  1
  O  O12  1  0.50000000  0.50000000  0.00000000  1
  O  O13  1  0.50000000  0.50000000  0.50000000  1
