# generated using pymatgen
data_Ta2ZnCuO7
_symmetry_space_group_name_H-M   'P 1'
_cell_length_a   8.39357900
_cell_length_b   10.69419500
_cell_length_c   11.19462805
_cell_angle_alpha   85.61934186
_cell_angle_beta   90.00000000
_cell_angle_gamma   90.00000000
_symmetry_Int_Tables_number   1
_chemical_formula_structural   Ta2ZnCuO7
_chemical_formula_sum   'Ta12 Zn6 Cu6 O42'
_cell_volume   1001.92299079
_cell_formula_units_Z   6
loop_
 _symmetry_equiv_pos_site_id
 _symmetry_equiv_pos_as_xyz
  1  'x, y, z'
loop_
 _atom_site_type_symbol
 _atom_site_label
 _atom_site_symmetry_multiplicity
 _atom_site_fract_x
 _atom_site_fract_y
 _atom_site_fract_z
 _atom_site_occupancy
  Ta  Ta0  1  0.21747200  0.28818900  0.83428300  1
  Ta  Ta1  1  0.74667300  0.37859000  0.83455500  1
  Ta  Ta2  1  0.25332700  0.87859000  0.83455500  1
  Ta  Ta3  1  0.78252800  0.78818900  0.83428300  1
  Ta  Ta4  1  0.28895800  0.96640900  0.52067000  1
  Ta  Ta5  1  0.74667300  0.12141000  0.16544500  1
  Ta  Ta6  1  0.71104200  0.46640900  0.52067000  1
  Ta  Ta7  1  0.25332700  0.62141000  0.16544500  1
  Ta  Ta8  1  0.28895800  0.53359100  0.47933000  1
  Ta  Ta9  1  0.71104200  0.03359100  0.47933000  1
  Ta  Ta10  1  0.78252800  0.71181100  0.16571700  1
  Ta  Ta11  1  0.21747200  0.21181100  0.16571700  1
  Zn  Zn12  1  0.43254400  0.57682300  0.87255500  1
  Zn  Zn13  1  0.94391400  0.75000000  0.50000000  1
  Zn  Zn14  1  0.43254400  0.92317700  0.12744500  1
  Zn  Zn15  1  0.05608600  0.25000000  0.50000000  1
  Zn  Zn16  1  0.56745600  0.42317700  0.12744500  1
  Zn  Zn17  1  0.56745600  0.07682300  0.87255500  1
  Cu  Cu18  1  0.91751200  0.41549700  0.20358500  1
  Cu  Cu19  1  0.08248800  0.58450300  0.79641500  1
  Cu  Cu20  1  0.41977800  0.25000000  0.50000000  1
  Cu  Cu21  1  0.91751200  0.08450300  0.79641500  1
  Cu  Cu22  1  0.58022200  0.75000000  0.50000000  1
  Cu  Cu23  1  0.08248800  0.91549700  0.20358500  1
  O  O24  1  0.73413400  0.96307700  0.80183400  1
  O  O25  1  0.75983000  0.29581500  0.16102900  1
  O  O26  1  0.83652500  0.75000000  0.00000000  1
  O  O27  1  0.89567600  0.11599800  0.49684800  1
  O  O28  1  0.39670200  0.57171500  0.05214000  1
  O  O29  1  0.92893700  0.71144000  0.73760300  1
  O  O30  1  0.34294500  0.94064900  0.68748600  1
  O  O31  1  0.10432400  0.61599800  0.49684800  1
  O  O32  1  0.75223700  0.86410900  0.53355000  1
  O  O33  1  0.39670200  0.92828500  0.94786000  1
  O  O34  1  0.75223700  0.63589100  0.46645000  1
  O  O35  1  0.44729800  0.88667800  0.43880000  1
  O  O36  1  0.94651200  0.05335100  0.15235000  1
  O  O37  1  0.07106300  0.21144000  0.73760300  1
  O  O38  1  0.65705500  0.05935100  0.31251400  1
  O  O39  1  0.34294500  0.55935100  0.31251400  1
  O  O40  1  0.92893700  0.78856000  0.26239700  1
  O  O41  1  0.60329800  0.42828500  0.94786000  1
  O  O42  1  0.26586600  0.46307700  0.80183400  1
  O  O43  1  0.55270200  0.11332200  0.56120000  1
  O  O44  1  0.40272000  0.29908600  0.17958400  1
  O  O45  1  0.24776300  0.13589100  0.46645000  1
  O  O46  1  0.05348800  0.55335100  0.15235000  1
  O  O47  1  0.24776300  0.36410900  0.53355000  1
  O  O48  1  0.89567600  0.38400200  0.50315200  1
  O  O49  1  0.55270200  0.38667800  0.43880000  1
  O  O50  1  0.10432400  0.88400200  0.50315200  1
  O  O51  1  0.59728000  0.79908600  0.17958400  1
  O  O52  1  0.59728000  0.70091400  0.82041600  1
  O  O53  1  0.05348800  0.94664900  0.84765000  1
  O  O54  1  0.07106300  0.28856000  0.26239700  1
  O  O55  1  0.73413400  0.53692300  0.19816600  1
  O  O56  1  0.16347500  0.25000000  0.00000000  1
  O  O57  1  0.24017000  0.79581500  0.16102900  1
  O  O58  1  0.60329800  0.07171500  0.05214000  1
  O  O59  1  0.94651200  0.44664900  0.84765000  1
  O  O60  1  0.26586600  0.03692300  0.19816600  1
  O  O61  1  0.75983000  0.20418500  0.83897100  1
  O  O62  1  0.44729800  0.61332200  0.56120000  1
  O  O63  1  0.65705500  0.44064900  0.68748600  1
  O  O64  1  0.24017000  0.70418500  0.83897100  1
  O  O65  1  0.40272000  0.20091400  0.82041600  1
