# generated using pymatgen
data_Ca2AgWO6
_symmetry_space_group_name_H-M   'P 1'
_cell_length_a   5.80540508
_cell_length_b   6.02778038
_cell_length_c   8.02897884
_cell_angle_alpha   93.32816819
_cell_angle_beta   131.51342573
_cell_angle_gamma   121.29918136
_symmetry_Int_Tables_number   1
_chemical_formula_structural   Ca2AgWO6
_chemical_formula_sum   'Ca2 Ag1 W1 O6'
_cell_volume   139.76770289
_cell_formula_units_Z   1
loop_
 _symmetry_equiv_pos_site_id
 _symmetry_equiv_pos_as_xyz
  1  'x, y, z'
loop_
 _atom_site_type_symbol
 _atom_site_label
 _atom_site_symmetry_multiplicity
 _atom_site_fract_x
 _atom_site_fract_y
 _atom_site_fract_z
 _atom_site_occupancy
  Ca  Ca0  1  0.99396000  0.54942700  0.21067300  1
  Ca  Ca1  1  0.01244500  0.56940600  0.71734400  1
  Ag  Ag2  1  0.99375300  0.00534800  0.49063800  1
  W  W3  1  0.00094800  0.98285800  0.00277500  1
  O  O4  1  0.75686700  0.83186700  0.11409600  1
  O  O5  1  0.20856000  0.06119500  0.87776800  1
  O  O6  1  0.35609400  0.43370200  0.24199900  1
  O  O7  1  0.42796100  0.81357300  0.67013900  1
  O  O8  1  0.49751400  0.05863900  0.32642300  1
  O  O9  1  0.68858100  0.50806800  0.80688300  1
