# generated using pymatgen
data_YAg(WO4)2
_symmetry_space_group_name_H-M   'P 1'
_cell_length_a   6.00010400
_cell_length_b   5.24286200
_cell_length_c   11.36274332
_cell_angle_alpha   65.46615365
_cell_angle_beta   90.00000000
_cell_angle_gamma   90.00000000
_symmetry_Int_Tables_number   1
_chemical_formula_structural   YAg(WO4)2
_chemical_formula_sum   'Y2 Ag2 W4 O16'
_cell_volume   325.17436525
_cell_formula_units_Z   2
loop_
 _symmetry_equiv_pos_site_id
 _symmetry_equiv_pos_as_xyz
  1  'x, y, z'
loop_
 _atom_site_type_symbol
 _atom_site_label
 _atom_site_symmetry_multiplicity
 _atom_site_fract_x
 _atom_site_fract_y
 _atom_site_fract_z
 _atom_site_occupancy
  Y  Y0  1  0.68743200  0.50000000  0.25000000  1
  Y  Y1  1  0.31256800  0.50000000  0.75000000  1
  Ag  Ag2  1  0.30550700  0.00000000  0.25000000  1
  Ag  Ag3  1  0.69449300  0.00000000  0.75000000  1
  W  W4  1  0.16858000  0.74005100  0.00679900  1
  W  W5  1  0.16858000  0.25994900  0.49320100  1
  W  W6  1  0.83142000  0.25994900  0.99320100  1
  W  W7  1  0.83142000  0.74005100  0.50679900  1
  O  O8  1  0.37880300  0.25616400  0.37736600  1
  O  O9  1  0.37880300  0.74383600  0.12263400  1
  O  O10  1  0.62119700  0.74383600  0.62263400  1
  O  O11  1  0.62119700  0.25616400  0.87736600  1
  O  O12  1  0.91951500  0.64152200  0.89285400  1
  O  O13  1  0.91951500  0.35847800  0.60714600  1
  O  O14  1  0.08048500  0.35847800  0.10714600  1
  O  O15  1  0.08048500  0.64152200  0.39285400  1
  O  O16  1  0.64453200  0.72207600  0.38267200  1
  O  O17  1  0.64453200  0.27792400  0.11732800  1
  O  O18  1  0.35546800  0.27792400  0.61732800  1
  O  O19  1  0.35546800  0.72207600  0.88267200  1
  O  O20  1  0.89190600  0.15191100  0.40607600  1
  O  O21  1  0.10809400  0.84808900  0.59392400  1
  O  O22  1  0.89190600  0.84808900  0.09392400  1
  O  O23  1  0.10809400  0.15191100  0.90607600  1
