# generated using pymatgen
data_WF5
_symmetry_space_group_name_H-M   'P 1'
_cell_length_a   5.80583174
_cell_length_b   5.80583174
_cell_length_c   8.55637200
_cell_angle_alpha   90.00000000
_cell_angle_beta   90.00000000
_cell_angle_gamma   143.87316926
_symmetry_Int_Tables_number   1
_chemical_formula_structural   WF5
_chemical_formula_sum   'W2 F10'
_cell_volume   170.04245188
_cell_formula_units_Z   2
loop_
 _symmetry_equiv_pos_site_id
 _symmetry_equiv_pos_as_xyz
  1  'x, y, z'
loop_
 _atom_site_type_symbol
 _atom_site_label
 _atom_site_symmetry_multiplicity
 _atom_site_fract_x
 _atom_site_fract_y
 _atom_site_fract_z
 _atom_site_occupancy
  W  W0  1  0.50000000  0.50000000  0.50000000  1
  W  W1  1  0.50000000  0.50000000  0.00000000  1
  F  F2  1  0.52162500  0.47837500  0.25000000  1
  F  F3  1  0.47837500  0.52162500  0.75000000  1
  F  F4  1  0.92373700  0.07626300  0.58485300  1
  F  F5  1  0.07626300  0.92373700  0.41514700  1
  F  F6  1  0.65944600  0.34055400  0.91425100  1
  F  F7  1  0.34055400  0.65944600  0.08574900  1
  F  F8  1  0.34055400  0.65944600  0.41425100  1
  F  F9  1  0.65944600  0.34055400  0.58574900  1
  F  F10  1  0.92373700  0.07626300  0.91514700  1
  F  F11  1  0.07626300  0.92373700  0.08485300  1
