# generated using pymatgen
data_Mg2TeWO6
_symmetry_space_group_name_H-M   'P 1'
_cell_length_a   5.60803500
_cell_length_b   5.65744846
_cell_length_c   5.93213324
_cell_angle_alpha   112.98421421
_cell_angle_beta   89.75163938
_cell_angle_gamma   107.19150775
_symmetry_Int_Tables_number   1
_chemical_formula_structural   Mg2TeWO6
_chemical_formula_sum   'Mg2 Te1 W1 O6'
_cell_volume   164.20153661
_cell_formula_units_Z   1
loop_
 _symmetry_equiv_pos_site_id
 _symmetry_equiv_pos_as_xyz
  1  'x, y, z'
loop_
 _atom_site_type_symbol
 _atom_site_label
 _atom_site_symmetry_multiplicity
 _atom_site_fract_x
 _atom_site_fract_y
 _atom_site_fract_z
 _atom_site_occupancy
  Mg  Mg0  1  0.58250200  0.10249800  0.25078600  1
  Mg  Mg1  1  0.03440200  0.74269900  0.34515200  1
  Te  Te2  1  0.34852500  0.39619900  0.80358700  1
  W  W3  1  0.04353900  0.02908800  0.00774600  1
  O  O4  1  0.40313700  0.28573800  0.07876100  1
  O  O5  1  0.80304500  0.86267200  0.17753800  1
  O  O6  1  0.91373900  0.81595500  0.68622200  1
  O  O7  1  0.92738200  0.33360000  0.19392600  1
  O  O8  1  0.23657300  0.82144700  0.06575400  1
  O  O9  1  0.38091600  0.08028200  0.52850200  1
