# generated using pymatgen
data_Zn(MoO2)2
_symmetry_space_group_name_H-M   'P 1'
_cell_length_a   6.40988268
_cell_length_b   6.40988268
_cell_length_c   20.71593224
_cell_angle_alpha   85.76147955
_cell_angle_beta   85.76147955
_cell_angle_gamma   58.04816681
_symmetry_Int_Tables_number   1
_chemical_formula_structural   Zn(MoO2)2
_chemical_formula_sum   'Zn8 Mo16 O32'
_cell_volume   719.60825483
_cell_formula_units_Z   8
loop_
 _symmetry_equiv_pos_site_id
 _symmetry_equiv_pos_as_xyz
  1  'x, y, z'
loop_
 _atom_site_type_symbol
 _atom_site_label
 _atom_site_symmetry_multiplicity
 _atom_site_fract_x
 _atom_site_fract_y
 _atom_site_fract_z
 _atom_site_occupancy
  Zn  Zn0  1  0.85397400  0.85397400  0.96812200  1
  Zn  Zn1  1  0.37905400  0.37905400  0.87575700  1
  Zn  Zn2  1  0.59409300  0.59409300  0.71785900  1
  Zn  Zn3  1  0.11480000  0.11480000  0.62573000  1
  Zn  Zn4  1  0.86747400  0.86747400  0.37732900  1
  Zn  Zn5  1  0.99346100  0.99346100  0.50048900  1
  Zn  Zn6  1  0.64102100  0.64102100  0.12589900  1
  Zn  Zn7  1  0.75457000  0.75457000  0.25128600  1
  Mo  Mo8  1  0.37556800  0.87457900  0.87456600  1
  Mo  Mo9  1  0.24781500  0.24781500  0.74849000  1
  Mo  Mo10  1  0.87457900  0.37556800  0.87456600  1
  Mo  Mo11  1  0.34095400  0.34095400  0.46880800  1
  Mo  Mo12  1  0.11569900  0.61701800  0.62452800  1
  Mo  Mo13  1  0.90006700  0.90006700  0.78129600  1
  Mo  Mo14  1  0.10801000  0.10801000  0.22104600  1
  Mo  Mo15  1  0.61701800  0.11569900  0.62452800  1
  Mo  Mo16  1  0.86972300  0.36857200  0.37567000  1
  Mo  Mo17  1  0.64383400  0.64383400  0.53393800  1
  Mo  Mo18  1  0.36857200  0.86972300  0.37567000  1
  Mo  Mo19  1  0.13329900  0.63874700  0.12582000  1
  Mo  Mo20  1  0.63874700  0.13329900  0.12582000  1
  Mo  Mo21  1  0.40113500  0.40113500  0.28170700  1
  Mo  Mo22  1  0.51006600  0.51006600  0.99925900  1
  Mo  Mo23  1  0.16378900  0.16378900  0.03057900  1
  O  O24  1  0.69603700  0.21208100  0.93354100  1
  O  O25  1  0.55193300  0.55193300  0.81702900  1
  O  O26  1  0.21208100  0.69603700  0.93354100  1
  O  O27  1  0.67996100  0.67996100  0.93846200  1
  O  O28  1  0.07875900  0.07875900  0.80690500  1
  O  O29  1  0.43688500  0.95124000  0.68294200  1
  O  O30  1  0.53907000  0.04775500  0.81766500  1
  O  O31  1  0.28701300  0.28701300  0.56853800  1
  O  O32  1  0.95124000  0.43688500  0.68294200  1
  O  O33  1  0.20682700  0.20682700  0.93057200  1
  O  O34  1  0.41868900  0.41868900  0.68906200  1
  O  O35  1  0.04775500  0.53907000  0.81766500  1
  O  O36  1  0.19663600  0.69988100  0.43084000  1
  O  O37  1  0.82179700  0.82179700  0.55648100  1
  O  O38  1  0.28226300  0.78773900  0.56808500  1
  O  O39  1  0.04077700  0.04077700  0.31893800  1
  O  O40  1  0.69988100  0.19663600  0.43084000  1
  O  O41  1  0.94463300  0.94463300  0.68118900  1
  O  O42  1  0.16200100  0.16200100  0.44361400  1
  O  O43  1  0.78773900  0.28226300  0.56808500  1
  O  O44  1  0.57852600  0.57852600  0.30727600  1
  O  O45  1  0.96371900  0.46627900  0.18083400  1
  O  O46  1  0.04123600  0.53840400  0.31826000  1
  O  O47  1  0.81408900  0.81408900  0.06724900  1
  O  O48  1  0.46627900  0.96371900  0.18083400  1
  O  O49  1  0.69645500  0.69645500  0.43208400  1
  O  O50  1  0.93109200  0.93109200  0.19307400  1
  O  O51  1  0.53840400  0.04123600  0.31826000  1
  O  O52  1  0.34274100  0.34274100  0.05795200  1
  O  O53  1  0.80360500  0.30951600  0.06822900  1
  O  O54  1  0.46497800  0.46497800  0.18202500  1
  O  O55  1  0.30951600  0.80360500  0.06822900  1
