# generated using pymatgen
data_Mg(CuO2)2
_symmetry_space_group_name_H-M   'P 1'
_cell_length_a   5.97178256
_cell_length_b   5.97178256
_cell_length_c   5.97178256
_cell_angle_alpha   121.63327416
_cell_angle_beta   121.63327416
_cell_angle_gamma   87.19362478
_symmetry_Int_Tables_number   1
_chemical_formula_structural   Mg(CuO2)2
_chemical_formula_sum   'Mg2 Cu4 O8'
_cell_volume   146.68137792
_cell_formula_units_Z   2
loop_
 _symmetry_equiv_pos_site_id
 _symmetry_equiv_pos_as_xyz
  1  'x, y, z'
loop_
 _atom_site_type_symbol
 _atom_site_label
 _atom_site_symmetry_multiplicity
 _atom_site_fract_x
 _atom_site_fract_y
 _atom_site_fract_z
 _atom_site_occupancy
  Mg  Mg0  1  0.25000000  0.75000000  0.50000000  1
  Mg  Mg1  1  0.50000000  0.50000000  0.00000000  1
  Cu  Cu2  1  0.87500000  0.12500000  0.25000000  1
  Cu  Cu3  1  0.87500000  0.62500000  0.75000000  1
  Cu  Cu4  1  0.87500000  0.12500000  0.75000000  1
  Cu  Cu5  1  0.37500000  0.12500000  0.25000000  1
  O  O6  1  0.76782000  0.89835300  0.32783200  1
  O  O7  1  0.56001300  0.23218000  0.13053300  1
  O  O8  1  0.10164700  0.42947900  0.86946700  1
  O  O9  1  0.17947900  0.81001300  0.82783200  1
  O  O10  1  0.64835300  0.82052100  0.63053300  1
  O  O11  1  0.18998700  0.01782000  0.36946700  1
  O  O12  1  0.57052100  0.43998700  0.67216800  1
  O  O13  1  0.98218000  0.35164700  0.17216800  1
