# generated using pymatgen
data_Y(WF5)3
_symmetry_space_group_name_H-M   'P 1'
_cell_length_a   10.63965600
_cell_length_b   6.12264400
_cell_length_c   10.09149030
_cell_angle_alpha   77.28994769
_cell_angle_beta   90.00000000
_cell_angle_gamma   90.00000000
_symmetry_Int_Tables_number   1
_chemical_formula_structural   Y(WF5)3
_chemical_formula_sum   'Y2 W6 F30'
_cell_volume   641.27952856
_cell_formula_units_Z   2
loop_
 _symmetry_equiv_pos_site_id
 _symmetry_equiv_pos_as_xyz
  1  'x, y, z'
loop_
 _atom_site_type_symbol
 _atom_site_label
 _atom_site_symmetry_multiplicity
 _atom_site_fract_x
 _atom_site_fract_y
 _atom_site_fract_z
 _atom_site_occupancy
  Y  Y0  1  0.75000000  0.45641800  0.74915700  1
  Y  Y1  1  0.25000000  0.54358200  0.25084300  1
  W  W2  1  0.50000000  0.00000000  0.50000000  1
  W  W3  1  0.55186400  0.01836600  0.15789400  1
  W  W4  1  0.44813600  0.98163400  0.84210600  1
  W  W5  1  0.00000000  0.00000000  0.50000000  1
  W  W6  1  0.94813600  0.01836600  0.15789400  1
  W  W7  1  0.05186400  0.98163400  0.84210600  1
  F  F8  1  0.75000000  0.69904900  0.57551700  1
  F  F9  1  0.75000000  0.96441200  0.17026300  1
  F  F10  1  0.75000000  0.66604400  0.87336400  1
  F  F11  1  0.25000000  0.30095100  0.42448300  1
  F  F12  1  0.25000000  0.33395600  0.12663600  1
  F  F13  1  0.25000000  0.03558800  0.82973700  1
  F  F14  1  0.39746800  0.13496600  0.63553200  1
  F  F15  1  0.45887000  0.17659200  0.29815900  1
  F  F16  1  0.41103300  0.12157000  0.01101600  1
  F  F17  1  0.60253200  0.86503400  0.36446800  1
  F  F18  1  0.58896700  0.87843000  0.98898400  1
  F  F19  1  0.54113000  0.82340800  0.70184100  1
  F  F20  1  0.12074000  0.76041600  0.50043700  1
  F  F21  1  0.07882000  0.75982200  0.21139600  1
  F  F22  1  0.11375700  0.68490000  0.92411900  1
  F  F23  1  0.87926000  0.23958400  0.49956300  1
  F  F24  1  0.88624300  0.31510000  0.07588100  1
  F  F25  1  0.92118000  0.24017800  0.78860400  1
  F  F26  1  0.62074000  0.23958400  0.49956300  1
  F  F27  1  0.61375700  0.31510000  0.07588100  1
  F  F28  1  0.57882000  0.24017800  0.78860400  1
  F  F29  1  0.37926000  0.76041600  0.50043700  1
  F  F30  1  0.42118000  0.75982200  0.21139600  1
  F  F31  1  0.38624300  0.68490000  0.92411900  1
  F  F32  1  0.10253200  0.13496600  0.63553200  1
  F  F33  1  0.04113000  0.17659200  0.29815900  1
  F  F34  1  0.08896700  0.12157000  0.01101600  1
  F  F35  1  0.89746800  0.86503400  0.36446800  1
  F  F36  1  0.91103300  0.87843000  0.98898400  1
  F  F37  1  0.95887000  0.82340800  0.70184100  1
