# generated using pymatgen
data_Ca3Fe3(AsO4)4
_symmetry_space_group_name_H-M   'P 1'
_cell_length_a   5.19220100
_cell_length_b   9.20383700
_cell_length_c   17.51647420
_cell_angle_alpha   63.43778084
_cell_angle_beta   90.00000000
_cell_angle_gamma   90.00000000
_symmetry_Int_Tables_number   1
_chemical_formula_structural   Ca3Fe3(AsO4)4
_chemical_formula_sum   'Ca6 Fe6 As8 O32'
_cell_volume   748.72586296
_cell_formula_units_Z   2
loop_
 _symmetry_equiv_pos_site_id
 _symmetry_equiv_pos_as_xyz
  1  'x, y, z'
loop_
 _atom_site_type_symbol
 _atom_site_label
 _atom_site_symmetry_multiplicity
 _atom_site_fract_x
 _atom_site_fract_y
 _atom_site_fract_z
 _atom_site_occupancy
  Ca  Ca0  1  0.54101300  0.31192200  0.23059400  1
  Ca  Ca1  1  0.04101300  0.68807800  0.26940600  1
  Ca  Ca2  1  0.45898700  0.68807800  0.76940600  1
  Ca  Ca3  1  0.95898700  0.31192200  0.73059400  1
  Ca  Ca4  1  0.50000000  0.00000000  0.50000000  1
  Ca  Ca5  1  0.00000000  0.00000000  0.00000000  1
  Fe  Fe6  1  0.47457800  0.19825800  0.62069700  1
  Fe  Fe7  1  0.52542200  0.80174200  0.37930300  1
  Fe  Fe8  1  0.97457800  0.80174200  0.87930300  1
  Fe  Fe9  1  0.02542200  0.19825800  0.12069700  1
  Fe  Fe10  1  0.00000000  0.50000000  0.50000000  1
  Fe  Fe11  1  0.50000000  0.50000000  0.00000000  1
  As  As12  1  0.00700700  0.03856400  0.34236300  1
  As  As13  1  0.49308400  0.43719300  0.40180800  1
  As  As14  1  0.99308400  0.56280700  0.09819200  1
  As  As15  1  0.00691600  0.43719300  0.90180800  1
  As  As16  1  0.99299300  0.96143600  0.65763700  1
  As  As17  1  0.50691600  0.56280700  0.59819200  1
  As  As18  1  0.49299300  0.03856400  0.84236300  1
  As  As19  1  0.50700700  0.96143600  0.15763700  1
  O  O20  1  0.44624900  0.81259300  0.25997000  1
  O  O21  1  0.95206300  0.74423000  0.01017100  1
  O  O22  1  0.38526500  0.43704500  0.31056100  1
  O  O23  1  0.40854800  0.14928800  0.14928800  1
  O  O24  1  0.61473500  0.56295500  0.68943900  1
  O  O25  1  0.05375100  0.81259300  0.75997000  1
  O  O26  1  0.88526400  0.56295500  0.18943900  1
  O  O27  1  0.69574500  0.50924500  0.89492000  1
  O  O28  1  0.65806800  0.09670200  0.90729800  1
  O  O29  1  0.55375100  0.18740700  0.74003000  1
  O  O30  1  0.09145200  0.14928800  0.64928800  1
  O  O31  1  0.30425500  0.49075500  0.10508000  1
  O  O32  1  0.30350800  0.58139200  0.41691200  1
  O  O33  1  0.34193200  0.90329800  0.09270200  1
  O  O34  1  0.66267600  0.97266600  0.63997600  1
  O  O35  1  0.16267600  0.02733400  0.86002400  1
  O  O36  1  0.80350800  0.41860800  0.08308800  1
  O  O37  1  0.11473500  0.43704500  0.81056100  1
  O  O38  1  0.15806800  0.90329800  0.59270200  1
  O  O39  1  0.19574500  0.49075500  0.60508000  1
  O  O40  1  0.83732400  0.97266600  0.13997600  1
  O  O41  1  0.33732400  0.02733400  0.36002400  1
  O  O42  1  0.04793700  0.25577000  0.98982900  1
  O  O43  1  0.45206300  0.25577000  0.48982900  1
  O  O44  1  0.69649200  0.41860800  0.58308800  1
  O  O45  1  0.94624900  0.18740700  0.24003000  1
  O  O46  1  0.59145200  0.85071200  0.85071200  1
  O  O47  1  0.84193200  0.09670200  0.40729800  1
  O  O48  1  0.54793700  0.74423000  0.51017100  1
  O  O49  1  0.80425500  0.50924500  0.39492000  1
  O  O50  1  0.19649200  0.58139200  0.91691200  1
  O  O51  1  0.90854800  0.85071200  0.35071200  1
