# generated using pymatgen
data_Zn(SnO2)2
_symmetry_space_group_name_H-M   'P 1'
_cell_length_a   6.57517745
_cell_length_b   6.57517745
_cell_length_c   6.54502546
_cell_angle_alpha   61.34280892
_cell_angle_beta   61.34280892
_cell_angle_gamma   60.61930510
_symmetry_Int_Tables_number   1
_chemical_formula_structural   Zn(SnO2)2
_chemical_formula_sum   'Zn2 Sn4 O8'
_cell_volume   205.02402963
_cell_formula_units_Z   2
loop_
 _symmetry_equiv_pos_site_id
 _symmetry_equiv_pos_as_xyz
  1  'x, y, z'
loop_
 _atom_site_type_symbol
 _atom_site_label
 _atom_site_symmetry_multiplicity
 _atom_site_fract_x
 _atom_site_fract_y
 _atom_site_fract_z
 _atom_site_occupancy
  Zn  Zn0  1  0.89279000  0.89279000  0.33902100  1
  Zn  Zn1  1  0.10721000  0.10721000  0.66097900  1
  Sn  Sn2  1  0.50000000  0.50000000  0.50000000  1
  Sn  Sn3  1  0.00000000  0.50000000  0.00000000  1
  Sn  Sn4  1  0.50000000  0.00000000  0.00000000  1
  Sn  Sn5  1  0.50000000  0.50000000  0.00000000  1
  O  O6  1  0.73293900  0.21438900  0.79178200  1
  O  O7  1  0.21438900  0.73293900  0.79178200  1
  O  O8  1  0.23880800  0.23880800  0.78709000  1
  O  O9  1  0.74827100  0.74827100  0.77615100  1
  O  O10  1  0.76119200  0.76119200  0.21291000  1
  O  O11  1  0.78561100  0.26706100  0.20821800  1
  O  O12  1  0.25172900  0.25172900  0.22384900  1
  O  O13  1  0.26706100  0.78561100  0.20821800  1
