# generated using pymatgen
data_MgAsWO5
_symmetry_space_group_name_H-M   'P 1'
_cell_length_a   6.08182100
_cell_length_b   7.97665000
_cell_length_c   9.24580700
_cell_angle_alpha   90.00000000
_cell_angle_beta   90.00000000
_cell_angle_gamma   90.00000000
_symmetry_Int_Tables_number   1
_chemical_formula_structural   MgAsWO5
_chemical_formula_sum   'Mg4 As4 W4 O20'
_cell_volume   448.53774353
_cell_formula_units_Z   4
loop_
 _symmetry_equiv_pos_site_id
 _symmetry_equiv_pos_as_xyz
  1  'x, y, z'
loop_
 _atom_site_type_symbol
 _atom_site_label
 _atom_site_symmetry_multiplicity
 _atom_site_fract_x
 _atom_site_fract_y
 _atom_site_fract_z
 _atom_site_occupancy
  Mg  Mg0  1  0.98901900  0.65065200  0.87212400  1
  Mg  Mg1  1  0.51098100  0.34934800  0.37212400  1
  Mg  Mg2  1  0.01098100  0.15065200  0.62787600  1
  Mg  Mg3  1  0.48901900  0.84934800  0.12787600  1
  As  As4  1  0.43498400  0.32699100  0.69442500  1
  As  As5  1  0.06501600  0.67300900  0.19442500  1
  As  As6  1  0.56501600  0.82699100  0.80557500  1
  As  As7  1  0.93498400  0.17300900  0.30557500  1
  W  W8  1  0.27035900  0.74480600  0.52275000  1
  W  W9  1  0.22964100  0.25519400  0.02275000  1
  W  W10  1  0.72964100  0.24480600  0.97725000  1
  W  W11  1  0.77035900  0.75519400  0.47725000  1
  O  O12  1  0.52260000  0.58393900  0.46346600  1
  O  O13  1  0.97740000  0.41606100  0.96346600  1
  O  O14  1  0.47740000  0.08393900  0.03653400  1
  O  O15  1  0.02260000  0.91606100  0.53653400  1
  O  O16  1  0.32872000  0.24800200  0.53303700  1
  O  O17  1  0.17128000  0.75199800  0.03303700  1
  O  O18  1  0.67128000  0.74800200  0.96696300  1
  O  O19  1  0.82872000  0.25199800  0.46696300  1
  O  O20  1  0.72660200  0.19262000  0.77546700  1
  O  O21  1  0.77339800  0.80738000  0.27546700  1
  O  O22  1  0.27339800  0.69262000  0.72453300  1
  O  O23  1  0.22660200  0.30738000  0.22453300  1
  O  O24  1  0.22886100  0.21071400  0.79569500  1
  O  O25  1  0.27113900  0.78928600  0.29569500  1
  O  O26  1  0.77113900  0.71071400  0.70430500  1
  O  O27  1  0.72886100  0.28928600  0.20430500  1
  O  O28  1  0.01697500  0.59400500  0.47192800  1
  O  O29  1  0.48302500  0.40599500  0.97192800  1
  O  O30  1  0.98302500  0.09400500  0.02807200  1
  O  O31  1  0.51697500  0.90599500  0.52807200  1
