# generated using pymatgen
data_Ca3V3(AsO4)4
_symmetry_space_group_name_H-M   'P 1'
_cell_length_a   5.29487500
_cell_length_b   9.11683100
_cell_length_c   17.40719695
_cell_angle_alpha   65.18746833
_cell_angle_beta   90.00000000
_cell_angle_gamma   90.00000000
_symmetry_Int_Tables_number   1
_chemical_formula_structural   Ca3V3(AsO4)4
_chemical_formula_sum   'Ca6 V6 As8 O32'
_cell_volume   762.71793648
_cell_formula_units_Z   2
loop_
 _symmetry_equiv_pos_site_id
 _symmetry_equiv_pos_as_xyz
  1  'x, y, z'
loop_
 _atom_site_type_symbol
 _atom_site_label
 _atom_site_symmetry_multiplicity
 _atom_site_fract_x
 _atom_site_fract_y
 _atom_site_fract_z
 _atom_site_occupancy
  Ca  Ca0  1  0.53994700  0.29112500  0.23223800  1
  Ca  Ca1  1  0.03994700  0.70887500  0.26776200  1
  Ca  Ca2  1  0.46005300  0.70887500  0.76776200  1
  Ca  Ca3  1  0.96005300  0.29112500  0.73223800  1
  Ca  Ca4  1  0.50000000  0.00000000  0.50000000  1
  Ca  Ca5  1  0.00000000  0.00000000  0.00000000  1
  V  V6  1  0.45894200  0.21673100  0.62166800  1
  V  V7  1  0.54105800  0.78326900  0.37833200  1
  V  V8  1  0.95894200  0.78326900  0.87833200  1
  V  V9  1  0.04105800  0.21673100  0.12166800  1
  V  V10  1  0.00000000  0.50000000  0.50000000  1
  V  V11  1  0.50000000  0.50000000  0.00000000  1
  As  As12  1  0.02207400  0.04167000  0.34473100  1
  As  As13  1  0.47448600  0.43992100  0.39943900  1
  As  As14  1  0.97448600  0.56007900  0.10056100  1
  As  As15  1  0.02551400  0.43992100  0.89943900  1
  As  As16  1  0.97792600  0.95833000  0.65526900  1
  As  As17  1  0.52551400  0.56007900  0.60056100  1
  As  As18  1  0.47792600  0.04167000  0.84473100  1
  As  As19  1  0.52207400  0.95833000  0.15526900  1
  O  O20  1  0.46888300  0.80369000  0.25465700  1
  O  O21  1  0.93712600  0.73486800  0.01090000  1
  O  O22  1  0.39955400  0.42257200  0.30974800  1
  O  O23  1  0.41488500  0.13610200  0.15689400  1
  O  O24  1  0.60044600  0.57742800  0.69025200  1
  O  O25  1  0.03111700  0.80369000  0.75465700  1
  O  O26  1  0.89955400  0.57742800  0.19025200  1
  O  O27  1  0.74065000  0.54050500  0.89692500  1
  O  O28  1  0.64463700  0.09239300  0.91308900  1
  O  O29  1  0.53111700  0.19631000  0.74534300  1
  O  O30  1  0.08511500  0.13610200  0.65689400  1
  O  O31  1  0.25935000  0.45949500  0.10307500  1
  O  O32  1  0.26878600  0.58646800  0.40563400  1
  O  O33  1  0.35536300  0.90760700  0.08691100  1
  O  O34  1  0.65231700  0.98176900  0.63704700  1
  O  O35  1  0.15231700  0.01823100  0.86295300  1
  O  O36  1  0.76878600  0.41353200  0.09436600  1
  O  O37  1  0.10044600  0.42257200  0.80974800  1
  O  O38  1  0.14463700  0.90760700  0.58691100  1
  O  O39  1  0.24065000  0.45949500  0.60307500  1
  O  O40  1  0.84768300  0.98176900  0.13704700  1
  O  O41  1  0.34768300  0.01823100  0.36295300  1
  O  O42  1  0.06287400  0.26513200  0.98910000  1
  O  O43  1  0.43712600  0.26513200  0.48910000  1
  O  O44  1  0.73121400  0.41353200  0.59436600  1
  O  O45  1  0.96888300  0.19631000  0.24534300  1
  O  O46  1  0.58511500  0.86389800  0.84310600  1
  O  O47  1  0.85536300  0.09239300  0.41308900  1
  O  O48  1  0.56287400  0.73486800  0.51090000  1
  O  O49  1  0.75935000  0.54050500  0.39692500  1
  O  O50  1  0.23121400  0.58646800  0.90563400  1
  O  O51  1  0.91488500  0.86389800  0.34310600  1
