# generated using pymatgen
data_Mo(WO4)2
_symmetry_space_group_name_H-M   'P 1'
_cell_length_a   5.85312200
_cell_length_b   5.05963600
_cell_length_c   10.84559620
_cell_angle_alpha   62.25536083
_cell_angle_beta   90.00000000
_cell_angle_gamma   90.00000000
_symmetry_Int_Tables_number   1
_chemical_formula_structural   Mo(WO4)2
_chemical_formula_sum   'Mo2 W4 O16'
_cell_volume   284.26203552
_cell_formula_units_Z   2
loop_
 _symmetry_equiv_pos_site_id
 _symmetry_equiv_pos_as_xyz
  1  'x, y, z'
loop_
 _atom_site_type_symbol
 _atom_site_label
 _atom_site_symmetry_multiplicity
 _atom_site_fract_x
 _atom_site_fract_y
 _atom_site_fract_z
 _atom_site_occupancy
  Mo  Mo0  1  0.34483200  0.50000000  0.75000000  1
  Mo  Mo1  1  0.65516800  0.50000000  0.25000000  1
  W  W2  1  0.16956200  0.27158400  0.49252100  1
  W  W3  1  0.16956200  0.72841600  0.00747900  1
  W  W4  1  0.83043800  0.72841600  0.50747900  1
  W  W5  1  0.83043800  0.27158400  0.99252100  1
  O  O6  1  0.34363500  0.71416600  0.86820700  1
  O  O7  1  0.34363500  0.28583400  0.63179300  1
  O  O8  1  0.65636500  0.28583400  0.13179300  1
  O  O9  1  0.65636500  0.71416600  0.36820700  1
  O  O10  1  0.89065700  0.18494600  0.39494700  1
  O  O11  1  0.89065700  0.81505400  0.10505300  1
  O  O12  1  0.10934300  0.81505400  0.60505300  1
  O  O13  1  0.10934300  0.18494600  0.89494700  1
  O  O14  1  0.60132100  0.25140900  0.88135700  1
  O  O15  1  0.60132100  0.74859100  0.61864300  1
  O  O16  1  0.39867900  0.74859100  0.11864300  1
  O  O17  1  0.39867900  0.25140900  0.38135700  1
  O  O18  1  0.89366900  0.67442000  0.89096000  1
  O  O19  1  0.10633100  0.32558000  0.10904000  1
  O  O20  1  0.89366900  0.32558000  0.60904000  1
  O  O21  1  0.10633100  0.67442000  0.39096000  1
