# generated using pymatgen
data_CaMn2O4
_symmetry_space_group_name_H-M   'P 1'
_cell_length_a   5.16379100
_cell_length_b   6.21302792
_cell_length_c   11.17854335
_cell_angle_alpha   90.15784951
_cell_angle_beta   90.16959838
_cell_angle_gamma   92.95690552
_symmetry_Int_Tables_number   1
_chemical_formula_structural   CaMn2O4
_chemical_formula_sum   'Ca4 Mn8 O16'
_cell_volume   358.15814825
_cell_formula_units_Z   4
loop_
 _symmetry_equiv_pos_site_id
 _symmetry_equiv_pos_as_xyz
  1  'x, y, z'
loop_
 _atom_site_type_symbol
 _atom_site_label
 _atom_site_symmetry_multiplicity
 _atom_site_fract_x
 _atom_site_fract_y
 _atom_site_fract_z
 _atom_site_occupancy
  Ca  Ca0  1  0.13238700  0.76788500  0.75082200  1
  Ca  Ca1  1  0.86761300  0.23211500  0.24917800  1
  Ca  Ca2  1  0.49371100  0.71741100  0.24920800  1
  Ca  Ca3  1  0.50628900  0.28258900  0.75079200  1
  Mn  Mn4  1  0.49677300  0.24667600  0.48599700  1
  Mn  Mn5  1  0.49290000  0.24673200  0.01365100  1
  Mn  Mn6  1  0.50322700  0.75332400  0.51400300  1
  Mn  Mn7  1  0.50710000  0.75326800  0.98634900  1
  Mn  Mn8  1  0.00000000  0.50000000  0.50000000  1
  Mn  Mn9  1  0.00000000  0.00000000  0.00000000  1
  Mn  Mn10  1  0.00000000  0.00000000  0.50000000  1
  Mn  Mn11  1  0.00000000  0.50000000  0.00000000  1
  O  O12  1  0.16916200  0.22436500  0.40094300  1
  O  O13  1  0.16841400  0.28506900  0.09711600  1
  O  O14  1  0.83083800  0.77563500  0.59905700  1
  O  O15  1  0.83158600  0.71493100  0.90288400  1
  O  O16  1  0.79988000  0.27815500  0.58947900  1
  O  O17  1  0.79739900  0.22404400  0.91283800  1
  O  O18  1  0.20012000  0.72184500  0.41052100  1
  O  O19  1  0.20260100  0.77595600  0.08716200  1
  O  O20  1  0.31534900  0.52622000  0.60926700  1
  O  O21  1  0.30857900  0.03698100  0.89809800  1
  O  O22  1  0.67993200  0.96963700  0.39778200  1
  O  O23  1  0.67907400  0.46926400  0.10802700  1
  O  O24  1  0.68465100  0.47378000  0.39073300  1
  O  O25  1  0.69142100  0.96301900  0.10190200  1
  O  O26  1  0.32006800  0.03036300  0.60221800  1
  O  O27  1  0.32092600  0.53073600  0.89197300  1
