# generated using pymatgen
data_Ca(NiO2)2
_symmetry_space_group_name_H-M   'P 1'
_cell_length_a   3.13932300
_cell_length_b   9.55757200
_cell_length_c   9.86089500
_cell_angle_alpha   90.00000000
_cell_angle_beta   90.00000000
_cell_angle_gamma   90.00000000
_symmetry_Int_Tables_number   1
_chemical_formula_structural   Ca(NiO2)2
_chemical_formula_sum   'Ca4 Ni8 O16'
_cell_volume   295.86930711
_cell_formula_units_Z   4
loop_
 _symmetry_equiv_pos_site_id
 _symmetry_equiv_pos_as_xyz
  1  'x, y, z'
loop_
 _atom_site_type_symbol
 _atom_site_label
 _atom_site_symmetry_multiplicity
 _atom_site_fract_x
 _atom_site_fract_y
 _atom_site_fract_z
 _atom_site_occupancy
  Ca  Ca0  1  0.80562200  0.25000000  0.35075900  1
  Ca  Ca1  1  0.80562200  0.75000000  0.14924100  1
  Ca  Ca2  1  0.19437800  0.25000000  0.85075900  1
  Ca  Ca3  1  0.19437800  0.75000000  0.64924100  1
  Ni  Ni4  1  0.27575000  0.06949200  0.10853000  1
  Ni  Ni5  1  0.27575000  0.56949200  0.39147000  1
  Ni  Ni6  1  0.72425000  0.56949200  0.89147000  1
  Ni  Ni7  1  0.27575000  0.93050800  0.39147000  1
  Ni  Ni8  1  0.72425000  0.93050800  0.89147000  1
  Ni  Ni9  1  0.27575000  0.43050800  0.10853000  1
  Ni  Ni10  1  0.72425000  0.43050800  0.60853000  1
  Ni  Ni11  1  0.72425000  0.06949200  0.60853000  1
  O  O12  1  0.71520800  0.39303100  0.97826800  1
  O  O13  1  0.28479200  0.60696900  0.02173200  1
  O  O14  1  0.89825200  0.50000000  0.25000000  1
  O  O15  1  0.28479200  0.39303100  0.47826800  1
  O  O16  1  0.28479200  0.10696900  0.47826800  1
  O  O17  1  0.30519500  0.75000000  0.31391900  1
  O  O18  1  0.71520800  0.60696900  0.52173200  1
  O  O19  1  0.69480500  0.75000000  0.81391900  1
  O  O20  1  0.89825200  0.00000000  0.25000000  1
  O  O21  1  0.10174800  0.50000000  0.75000000  1
  O  O22  1  0.71520800  0.10696900  0.97826800  1
  O  O23  1  0.69480500  0.25000000  0.68608100  1
  O  O24  1  0.30519500  0.25000000  0.18608100  1
  O  O25  1  0.10174800  0.00000000  0.75000000  1
  O  O26  1  0.71520800  0.89303100  0.52173200  1
  O  O27  1  0.28479200  0.89303100  0.02173200  1
