# generated using pymatgen
data_MgCuBiO5
_symmetry_space_group_name_H-M   'P 1'
_cell_length_a   5.14693900
_cell_length_b   10.06929400
_cell_length_c   15.66094400
_cell_angle_alpha   90.00000000
_cell_angle_beta   90.00000000
_cell_angle_gamma   90.00000000
_symmetry_Int_Tables_number   1
_chemical_formula_structural   MgCuBiO5
_chemical_formula_sum   'Mg8 Cu8 Bi8 O40'
_cell_volume   811.64474136
_cell_formula_units_Z   8
loop_
 _symmetry_equiv_pos_site_id
 _symmetry_equiv_pos_as_xyz
  1  'x, y, z'
loop_
 _atom_site_type_symbol
 _atom_site_label
 _atom_site_symmetry_multiplicity
 _atom_site_fract_x
 _atom_site_fract_y
 _atom_site_fract_z
 _atom_site_occupancy
  Mg  Mg0  1  0.50701700  0.38136700  0.58338900  1
  Mg  Mg1  1  0.00701700  0.11863300  0.58338900  1
  Mg  Mg2  1  0.00701700  0.61863300  0.91661100  1
  Mg  Mg3  1  0.99298300  0.38136700  0.08338900  1
  Mg  Mg4  1  0.49298300  0.11863300  0.08338900  1
  Mg  Mg5  1  0.99298300  0.88136700  0.41661100  1
  Mg  Mg6  1  0.49298300  0.61863300  0.41661100  1
  Mg  Mg7  1  0.50701700  0.88136700  0.91661100  1
  Cu  Cu8  1  0.00441000  0.36725300  0.48004900  1
  Cu  Cu9  1  0.49559000  0.86725300  0.51995100  1
  Cu  Cu10  1  0.99559000  0.63274700  0.51995100  1
  Cu  Cu11  1  0.50441000  0.13274700  0.48004900  1
  Cu  Cu12  1  0.99559000  0.13274700  0.98004900  1
  Cu  Cu13  1  0.00441000  0.86725300  0.01995100  1
  Cu  Cu14  1  0.49559000  0.36725300  0.98004900  1
  Cu  Cu15  1  0.50441000  0.63274700  0.01995100  1
  Bi  Bi16  1  0.94040500  0.85469100  0.73726400  1
  Bi  Bi17  1  0.05959500  0.14530900  0.26273600  1
  Bi  Bi18  1  0.55959500  0.35469100  0.26273600  1
  Bi  Bi19  1  0.05959500  0.64530900  0.23726400  1
  Bi  Bi20  1  0.44040500  0.14530900  0.76273600  1
  Bi  Bi21  1  0.44040500  0.64530900  0.73726400  1
  Bi  Bi22  1  0.55959500  0.85469100  0.23726400  1
  Bi  Bi23  1  0.94040500  0.35469100  0.76273600  1
  O  O24  1  0.87948800  0.30704100  0.34078400  1
  O  O25  1  0.24822000  0.00125700  0.99475900  1
  O  O26  1  0.25178000  0.50125700  0.00524100  1
  O  O27  1  0.24230900  0.79968700  0.82202900  1
  O  O28  1  0.25769100  0.29968700  0.17797100  1
  O  O29  1  0.87948800  0.80704100  0.15921600  1
  O  O30  1  0.25769100  0.79968700  0.32202900  1
  O  O31  1  0.62051200  0.80704100  0.65921600  1
  O  O32  1  0.24822000  0.50125700  0.50524100  1
  O  O33  1  0.12051200  0.69295900  0.65921600  1
  O  O34  1  0.62051200  0.30704100  0.84078400  1
  O  O35  1  0.75700400  0.24928600  0.51751600  1
  O  O36  1  0.74822000  0.99874300  0.50524100  1
  O  O37  1  0.75769100  0.70031300  0.32202900  1
  O  O38  1  0.32424600  0.01354500  0.18446700  1
  O  O39  1  0.74822000  0.49874300  0.99475900  1
  O  O40  1  0.12051200  0.19295900  0.84078400  1
  O  O41  1  0.74230900  0.20031300  0.67797100  1
  O  O42  1  0.25700400  0.75071400  0.98248400  1
  O  O43  1  0.25178000  0.00125700  0.49475900  1
  O  O44  1  0.24299600  0.75071400  0.48248400  1
  O  O45  1  0.67575400  0.98645500  0.81553300  1
  O  O46  1  0.75769100  0.20031300  0.17797100  1
  O  O47  1  0.82424600  0.98645500  0.31553300  1
  O  O48  1  0.24299600  0.25071400  0.01751600  1
  O  O49  1  0.25700400  0.25071400  0.51751600  1
  O  O50  1  0.75178000  0.49874300  0.49475900  1
  O  O51  1  0.75178000  0.99874300  0.00524100  1
  O  O52  1  0.82424600  0.48645500  0.18446700  1
  O  O53  1  0.74299600  0.74928600  0.48248400  1
  O  O54  1  0.74299600  0.24928600  0.01751600  1
  O  O55  1  0.75700400  0.74928600  0.98248400  1
  O  O56  1  0.67575400  0.48645500  0.68446700  1
  O  O57  1  0.74230900  0.70031300  0.82202900  1
  O  O58  1  0.24230900  0.29968700  0.67797100  1
  O  O59  1  0.32424600  0.51354500  0.31553300  1
  O  O60  1  0.17575400  0.51354500  0.81553300  1
  O  O61  1  0.37948800  0.19295900  0.34078400  1
  O  O62  1  0.17575400  0.01354500  0.68446700  1
  O  O63  1  0.37948800  0.69295900  0.15921600  1
