# generated using pymatgen
data_MgBi2O5
_symmetry_space_group_name_H-M   'P 1'
_cell_length_a   5.40143100
_cell_length_b   10.49976200
_cell_length_c   16.13986400
_cell_angle_alpha   90.00000000
_cell_angle_beta   90.00000000
_cell_angle_gamma   90.00000000
_symmetry_Int_Tables_number   1
_chemical_formula_structural   MgBi2O5
_chemical_formula_sum   'Mg8 Bi16 O40'
_cell_volume   915.35204988
_cell_formula_units_Z   8
loop_
 _symmetry_equiv_pos_site_id
 _symmetry_equiv_pos_as_xyz
  1  'x, y, z'
loop_
 _atom_site_type_symbol
 _atom_site_label
 _atom_site_symmetry_multiplicity
 _atom_site_fract_x
 _atom_site_fract_y
 _atom_site_fract_z
 _atom_site_occupancy
  Mg  Mg0  1  0.51239500  0.35076800  0.58325800  1
  Mg  Mg1  1  0.01239500  0.14923200  0.58325800  1
  Mg  Mg2  1  0.01239500  0.64923200  0.91674200  1
  Mg  Mg3  1  0.98760500  0.35076800  0.08325800  1
  Mg  Mg4  1  0.48760500  0.14923200  0.08325800  1
  Mg  Mg5  1  0.98760500  0.85076800  0.41674200  1
  Mg  Mg6  1  0.48760500  0.64923200  0.41674200  1
  Mg  Mg7  1  0.51239500  0.85076800  0.91674200  1
  Bi  Bi8  1  0.06099600  0.38284900  0.43304900  1
  Bi  Bi9  1  0.43900400  0.88284900  0.56695100  1
  Bi  Bi10  1  0.93900400  0.61715100  0.56695100  1
  Bi  Bi11  1  0.56099600  0.11715100  0.43304900  1
  Bi  Bi12  1  0.93900400  0.11715100  0.93304900  1
  Bi  Bi13  1  0.06099600  0.88284900  0.06695100  1
  Bi  Bi14  1  0.43900400  0.38284900  0.93304900  1
  Bi  Bi15  1  0.56099600  0.61715100  0.06695100  1
  Bi  Bi16  1  0.95338100  0.86100900  0.75659000  1
  Bi  Bi17  1  0.04661900  0.13899100  0.24341000  1
  Bi  Bi18  1  0.54661900  0.36100900  0.24341000  1
  Bi  Bi19  1  0.04661900  0.63899100  0.25659000  1
  Bi  Bi20  1  0.45338100  0.13899100  0.74341000  1
  Bi  Bi21  1  0.45338100  0.63899100  0.75659000  1
  Bi  Bi22  1  0.54661900  0.86100900  0.25659000  1
  Bi  Bi23  1  0.95338100  0.36100900  0.74341000  1
  O  O24  1  0.90586900  0.30707000  0.32203300  1
  O  O25  1  0.21959700  0.97616100  0.95759000  1
  O  O26  1  0.28040300  0.47616100  0.04241000  1
  O  O27  1  0.25179600  0.77440100  0.83409400  1
  O  O28  1  0.24820400  0.27440100  0.16590600  1
  O  O29  1  0.90586900  0.80707000  0.17796700  1
  O  O30  1  0.24820400  0.77440100  0.33409400  1
  O  O31  1  0.59413100  0.80707000  0.67796700  1
  O  O32  1  0.21959700  0.47616100  0.54241000  1
  O  O33  1  0.09413100  0.69293000  0.67796700  1
  O  O34  1  0.59413100  0.30707000  0.82203300  1
  O  O35  1  0.79936600  0.25995700  0.49646000  1
  O  O36  1  0.71959700  0.02383900  0.54241000  1
  O  O37  1  0.74820400  0.72559900  0.33409400  1
  O  O38  1  0.28447200  0.00463100  0.13878800  1
  O  O39  1  0.71959700  0.52383900  0.95759000  1
  O  O40  1  0.09413100  0.19293000  0.82203300  1
  O  O41  1  0.75179600  0.22559900  0.66590600  1
  O  O42  1  0.29936600  0.74004300  0.00354000  1
  O  O43  1  0.28040300  0.97616100  0.45759000  1
  O  O44  1  0.20063400  0.74004300  0.50354000  1
  O  O45  1  0.71552800  0.99536900  0.86121200  1
  O  O46  1  0.74820400  0.22559900  0.16590600  1
  O  O47  1  0.78447200  0.99536900  0.36121200  1
  O  O48  1  0.20063400  0.24004300  0.99646000  1
  O  O49  1  0.29936600  0.24004300  0.49646000  1
  O  O50  1  0.78040300  0.52383900  0.45759000  1
  O  O51  1  0.78040300  0.02383900  0.04241000  1
  O  O52  1  0.78447200  0.49536900  0.13878800  1
  O  O53  1  0.70063400  0.75995700  0.50354000  1
  O  O54  1  0.70063400  0.25995700  0.99646000  1
  O  O55  1  0.79936600  0.75995700  0.00354000  1
  O  O56  1  0.71552800  0.49536900  0.63878800  1
  O  O57  1  0.75179600  0.72559900  0.83409400  1
  O  O58  1  0.25179600  0.27440100  0.66590600  1
  O  O59  1  0.28447200  0.50463100  0.36121200  1
  O  O60  1  0.21552800  0.50463100  0.86121200  1
  O  O61  1  0.40586900  0.19293000  0.32203300  1
  O  O62  1  0.21552800  0.00463100  0.63878800  1
  O  O63  1  0.40586900  0.69293000  0.17796700  1
