# generated using pymatgen
data_Ca(WO2)2
_symmetry_space_group_name_H-M   'P 1'
_cell_length_a   6.50376286
_cell_length_b   6.50376286
_cell_length_c   6.50376286
_cell_angle_alpha   121.37301410
_cell_angle_beta   117.30993145
_cell_angle_gamma   91.17973842
_symmetry_Int_Tables_number   1
_chemical_formula_structural   Ca(WO2)2
_chemical_formula_sum   'Ca2 W4 O8'
_cell_volume   196.11673764
_cell_formula_units_Z   2
loop_
 _symmetry_equiv_pos_site_id
 _symmetry_equiv_pos_as_xyz
  1  'x, y, z'
loop_
 _atom_site_type_symbol
 _atom_site_label
 _atom_site_symmetry_multiplicity
 _atom_site_fract_x
 _atom_site_fract_y
 _atom_site_fract_z
 _atom_site_occupancy
  Ca  Ca0  1  0.50000000  0.50000000  0.00000000  1
  Ca  Ca1  1  0.00000000  0.50000000  0.50000000  1
  W  W2  1  0.60522600  0.85522600  0.75000000  1
  W  W3  1  0.39477400  0.14477400  0.25000000  1
  W  W4  1  0.00000000  0.00000000  0.50000000  1
  W  W5  1  0.00000000  0.50000000  0.00000000  1
  O  O6  1  0.23906000  0.23566600  0.49660600  1
  O  O7  1  0.20821400  0.23773300  0.97048100  1
  O  O8  1  0.23906000  0.74245400  0.00339400  1
  O  O9  1  0.76725200  0.23773300  0.52951900  1
  O  O10  1  0.23274800  0.76226700  0.47048100  1
  O  O11  1  0.79178600  0.76226700  0.02951900  1
  O  O12  1  0.76094000  0.25754600  0.99660600  1
  O  O13  1  0.76094000  0.76433400  0.50339400  1
