# generated using pymatgen
data_CaCuW2O7
_symmetry_space_group_name_H-M   'P 1'
_cell_length_a   9.15157500
_cell_length_b   10.59922400
_cell_length_c   11.15090114
_cell_angle_alpha   84.70552813
_cell_angle_beta   90.00000000
_cell_angle_gamma   90.00000000
_symmetry_Int_Tables_number   1
_chemical_formula_structural   CaCuW2O7
_chemical_formula_sum   'Ca6 Cu6 W12 O42'
_cell_volume   1077.01820414
_cell_formula_units_Z   6
loop_
 _symmetry_equiv_pos_site_id
 _symmetry_equiv_pos_as_xyz
  1  'x, y, z'
loop_
 _atom_site_type_symbol
 _atom_site_label
 _atom_site_symmetry_multiplicity
 _atom_site_fract_x
 _atom_site_fract_y
 _atom_site_fract_z
 _atom_site_occupancy
  Ca  Ca0  1  0.43934000  0.84551000  0.57216700  1
  Ca  Ca1  1  0.93681700  0.50000000  0.75000000  1
  Ca  Ca2  1  0.43934000  0.15449000  0.92783300  1
  Ca  Ca3  1  0.06318300  0.50000000  0.25000000  1
  Ca  Ca4  1  0.56066000  0.15449000  0.42783300  1
  Ca  Ca5  1  0.56066000  0.84551000  0.07216700  1
  Cu  Cu6  1  0.93348800  0.19146400  0.41064300  1
  Cu  Cu7  1  0.06651200  0.80853600  0.58935700  1
  Cu  Cu8  1  0.44436700  0.50000000  0.25000000  1
  Cu  Cu9  1  0.93348800  0.80853600  0.08935700  1
  Cu  Cu10  1  0.55563300  0.50000000  0.75000000  1
  Cu  Cu11  1  0.06651200  0.19146400  0.91064300  1
  W  W12  1  0.20788500  0.82650100  0.29086000  1
  W  W13  1  0.76084100  0.84512400  0.37376600  1
  W  W14  1  0.23915900  0.84512400  0.87376600  1
  W  W15  1  0.79211500  0.82650100  0.79086000  1
  W  W16  1  0.29506400  0.51899800  0.96320900  1
  W  W17  1  0.76084100  0.15487600  0.12623400  1
  W  W18  1  0.70493600  0.51899800  0.46320900  1
  W  W19  1  0.23915900  0.15487600  0.62623400  1
  W  W20  1  0.29506400  0.48100200  0.53679100  1
  W  W21  1  0.70493600  0.48100200  0.03679100  1
  W  W22  1  0.79211500  0.17349900  0.70914000  1
  W  W23  1  0.20788500  0.17349900  0.20914000  1
  O  O24  1  0.76740000  0.79806300  0.95499800  1
  O  O25  1  0.76795900  0.15623500  0.29204200  1
  O  O26  1  0.84765000  0.00000000  0.75000000  1
  O  O27  1  0.87839500  0.49221600  0.10747400  1
  O  O28  1  0.39414400  0.06042900  0.56413800  1
  O  O29  1  0.92661600  0.72289100  0.71922900  1
  O  O30  1  0.35228900  0.68867100  0.93902400  1
  O  O31  1  0.12160500  0.49221600  0.60747400  1
  O  O32  1  0.72531000  0.52467000  0.87527800  1
  O  O33  1  0.39414400  0.93957100  0.93586200  1
  O  O34  1  0.72531000  0.47533000  0.62472200  1
  O  O35  1  0.42756400  0.42193600  0.89071500  1
  O  O36  1  0.92806000  0.13514000  0.04234900  1
  O  O37  1  0.07338400  0.72289100  0.21922900  1
  O  O38  1  0.64771100  0.31132900  0.06097600  1
  O  O39  1  0.35228900  0.31132900  0.56097600  1
  O  O40  1  0.92661600  0.27710900  0.78077100  1
  O  O41  1  0.60585600  0.93957100  0.43586200  1
  O  O42  1  0.23260000  0.79806300  0.45499800  1
  O  O43  1  0.57243600  0.57806400  0.10928500  1
  O  O44  1  0.38010900  0.19559200  0.28426000  1
  O  O45  1  0.27469000  0.47533000  0.12472200  1
  O  O46  1  0.07194000  0.13514000  0.54234900  1
  O  O47  1  0.27469000  0.52467000  0.37527800  1
  O  O48  1  0.87839500  0.50778400  0.39252600  1
  O  O49  1  0.57243600  0.42193600  0.39071500  1
  O  O50  1  0.12160500  0.50778400  0.89252600  1
  O  O51  1  0.61989100  0.19559200  0.78426000  1
  O  O52  1  0.61989100  0.80440800  0.71574000  1
  O  O53  1  0.07194000  0.86486000  0.95765100  1
  O  O54  1  0.07338400  0.27710900  0.28077100  1
  O  O55  1  0.76740000  0.20193700  0.54500200  1
  O  O56  1  0.15235000  0.00000000  0.25000000  1
  O  O57  1  0.23204100  0.15623500  0.79204200  1
  O  O58  1  0.60585600  0.06042900  0.06413800  1
  O  O59  1  0.92806000  0.86486000  0.45765100  1
  O  O60  1  0.23260000  0.20193700  0.04500200  1
  O  O61  1  0.76795900  0.84376500  0.20795800  1
  O  O62  1  0.42756400  0.57806400  0.60928500  1
  O  O63  1  0.64771100  0.68867100  0.43902400  1
  O  O64  1  0.23204100  0.84376500  0.70795800  1
  O  O65  1  0.38010900  0.80440800  0.21574000  1
