# generated using pymatgen
data_Mn(SiO3)2
_symmetry_space_group_name_H-M   'P 1'
_cell_length_a   5.07181300
_cell_length_b   10.35953400
_cell_length_c   19.29484300
_cell_angle_alpha   90.00000000
_cell_angle_beta   90.00000000
_cell_angle_gamma   90.00000000
_symmetry_Int_Tables_number   1
_chemical_formula_structural   Mn(SiO3)2
_chemical_formula_sum   'Mn8 Si16 O48'
_cell_volume   1013.78229372
_cell_formula_units_Z   8
loop_
 _symmetry_equiv_pos_site_id
 _symmetry_equiv_pos_as_xyz
  1  'x, y, z'
loop_
 _atom_site_type_symbol
 _atom_site_label
 _atom_site_symmetry_multiplicity
 _atom_site_fract_x
 _atom_site_fract_y
 _atom_site_fract_z
 _atom_site_occupancy
  Mn  Mn0  1  0.43919300  0.54988500  0.37364800  1
  Mn  Mn1  1  0.56080700  0.45011500  0.62635200  1
  Mn  Mn2  1  0.93919300  0.45011500  0.12635200  1
  Mn  Mn3  1  0.06080700  0.54988500  0.87364800  1
  Mn  Mn4  1  0.43919300  0.04988500  0.12635200  1
  Mn  Mn5  1  0.56080700  0.95011500  0.87364800  1
  Mn  Mn6  1  0.93919300  0.95011500  0.37364800  1
  Mn  Mn7  1  0.06080700  0.04988500  0.62635200  1
  Si  Si8  1  0.62491500  0.16491300  0.27629200  1
  Si  Si9  1  0.77536500  0.33328300  0.97438100  1
  Si  Si10  1  0.72463500  0.33328300  0.47438100  1
  Si  Si11  1  0.87508500  0.66491300  0.72370800  1
  Si  Si12  1  0.12491500  0.83508700  0.22370800  1
  Si  Si13  1  0.37508500  0.33508700  0.77629200  1
  Si  Si14  1  0.27536500  0.16671700  0.97438100  1
  Si  Si15  1  0.77536500  0.83328300  0.52561900  1
  Si  Si16  1  0.72463500  0.83328300  0.02561900  1
  Si  Si17  1  0.87508500  0.16491300  0.77629200  1
  Si  Si18  1  0.37508500  0.83508700  0.72370800  1
  Si  Si19  1  0.62491500  0.66491300  0.22370800  1
  Si  Si20  1  0.22463500  0.66671700  0.02561900  1
  Si  Si21  1  0.12491500  0.33508700  0.27629200  1
  Si  Si22  1  0.22463500  0.16671700  0.47438100  1
  Si  Si23  1  0.27536500  0.66671700  0.52561900  1
  O  O24  1  0.79607500  0.03677100  0.82050100  1
  O  O25  1  0.33757600  0.54042000  0.57232300  1
  O  O26  1  0.20392500  0.96322900  0.17949900  1
  O  O27  1  0.77957300  0.86224700  0.44189000  1
  O  O28  1  0.27957300  0.63775300  0.44189000  1
  O  O29  1  0.97700800  0.71498900  0.54373600  1
  O  O30  1  0.87478300  0.13231000  0.69265500  1
  O  O31  1  0.12521700  0.36769000  0.19265500  1
  O  O32  1  0.77957300  0.36224700  0.05811000  1
  O  O33  1  0.87478300  0.63231000  0.80734500  1
  O  O34  1  0.29607500  0.96322900  0.67949900  1
  O  O35  1  0.72042700  0.86224700  0.94189000  1
  O  O36  1  0.66242400  0.45958000  0.42767700  1
  O  O37  1  0.37478300  0.36769000  0.69265500  1
  O  O38  1  0.70392500  0.53677100  0.17949900  1
  O  O39  1  0.33757600  0.04042000  0.92767700  1
  O  O40  1  0.29607500  0.46322900  0.82050100  1
  O  O41  1  0.16983000  0.21793800  0.79435400  1
  O  O42  1  0.33017000  0.21793800  0.29435400  1
  O  O43  1  0.52299200  0.21498900  0.45626400  1
  O  O44  1  0.72042700  0.36224700  0.55811000  1
  O  O45  1  0.62521700  0.13231000  0.19265500  1
  O  O46  1  0.83757600  0.95958000  0.57232300  1
  O  O47  1  0.16983000  0.71793800  0.70564600  1
  O  O48  1  0.22042700  0.63775300  0.94189000  1
  O  O49  1  0.62521700  0.63231000  0.30734500  1
  O  O50  1  0.66242400  0.95958000  0.07232300  1
  O  O51  1  0.27957300  0.13775300  0.05811000  1
  O  O52  1  0.16242400  0.04042000  0.42767700  1
  O  O53  1  0.66983000  0.28206200  0.79435400  1
  O  O54  1  0.20392500  0.46322900  0.32050100  1
  O  O55  1  0.83017000  0.28206200  0.29435400  1
  O  O56  1  0.83017000  0.78206200  0.20564600  1
  O  O57  1  0.83757600  0.45958000  0.92767700  1
  O  O58  1  0.22042700  0.13775300  0.55811000  1
  O  O59  1  0.16242400  0.54042000  0.07232300  1
  O  O60  1  0.33017000  0.71793800  0.20564600  1
  O  O61  1  0.02299200  0.28501100  0.45626400  1
  O  O62  1  0.47700800  0.28501100  0.95626400  1
  O  O63  1  0.66983000  0.78206200  0.70564600  1
  O  O64  1  0.47700800  0.78501100  0.54373600  1
  O  O65  1  0.52299200  0.71498900  0.04373600  1
  O  O66  1  0.02299200  0.78501100  0.04373600  1
  O  O67  1  0.37478300  0.86769000  0.80734500  1
  O  O68  1  0.70392500  0.03677100  0.32050100  1
  O  O69  1  0.97700800  0.21498900  0.95626400  1
  O  O70  1  0.12521700  0.86769000  0.30734500  1
  O  O71  1  0.79607500  0.53677100  0.67949900  1
