# generated using pymatgen
data_Mg(CoO2)2
_symmetry_space_group_name_H-M   'P 1'
_cell_length_a   5.95406864
_cell_length_b   5.95406864
_cell_length_c   5.95406864
_cell_angle_alpha   120.54300332
_cell_angle_beta   119.97333735
_cell_angle_gamma   89.55412803
_symmetry_Int_Tables_number   1
_chemical_formula_structural   Mg(CoO2)2
_chemical_formula_sum   'Mg2 Co4 O8'
_cell_volume   148.66224141
_cell_formula_units_Z   2
loop_
 _symmetry_equiv_pos_site_id
 _symmetry_equiv_pos_as_xyz
  1  'x, y, z'
loop_
 _atom_site_type_symbol
 _atom_site_label
 _atom_site_symmetry_multiplicity
 _atom_site_fract_x
 _atom_site_fract_y
 _atom_site_fract_z
 _atom_site_occupancy
  Mg  Mg0  1  0.00000000  0.50000000  0.50000000  1
  Mg  Mg1  1  0.50000000  0.50000000  0.00000000  1
  Co  Co2  1  0.13133000  0.88133000  0.25000000  1
  Co  Co3  1  0.86867000  0.11867000  0.75000000  1
  Co  Co4  1  0.50000000  0.00000000  0.00000000  1
  Co  Co5  1  0.50000000  0.50000000  0.50000000  1
  O  O6  1  0.73507900  0.24128100  0.00620200  1
  O  O7  1  0.74237900  0.25227100  0.49010800  1
  O  O8  1  0.73507900  0.72887700  0.49379800  1
  O  O9  1  0.26216300  0.25227100  0.00989200  1
  O  O10  1  0.73783700  0.74772900  0.99010800  1
  O  O11  1  0.25762100  0.74772900  0.50989200  1
  O  O12  1  0.26492100  0.27112300  0.50620200  1
  O  O13  1  0.26492100  0.75871900  0.99379800  1
