# generated using pymatgen
data_Ni(WO4)2
_symmetry_space_group_name_H-M   'P 1'
_cell_length_a   4.91751700
_cell_length_b   5.10093041
_cell_length_c   6.64906929
_cell_angle_alpha   109.94864549
_cell_angle_beta   89.66362046
_cell_angle_gamma   107.10991611
_symmetry_Int_Tables_number   1
_chemical_formula_structural   Ni(WO4)2
_chemical_formula_sum   'Ni1 W2 O8'
_cell_volume   149.00741106
_cell_formula_units_Z   1
loop_
 _symmetry_equiv_pos_site_id
 _symmetry_equiv_pos_as_xyz
  1  'x, y, z'
loop_
 _atom_site_type_symbol
 _atom_site_label
 _atom_site_symmetry_multiplicity
 _atom_site_fract_x
 _atom_site_fract_y
 _atom_site_fract_z
 _atom_site_occupancy
  Ni  Ni0  1  0.00000000  0.00000000  0.50000000  1
  W  W1  1  0.74832800  0.51802000  0.68088100  1
  W  W2  1  0.25167200  0.48198000  0.31911900  1
  O  O3  1  0.68637900  0.71209600  0.93617100  1
  O  O4  1  0.87767800  0.24125400  0.73968600  1
  O  O5  1  0.64613500  0.71089100  0.46880200  1
  O  O6  1  0.88982700  0.21981100  0.35487700  1
  O  O7  1  0.12232200  0.75874600  0.26031400  1
  O  O8  1  0.31362100  0.28790400  0.06382900  1
  O  O9  1  0.35386500  0.28910900  0.53119800  1
  O  O10  1  0.11017300  0.78018900  0.64512300  1
