# generated using pymatgen
data_Si2BiO6
_symmetry_space_group_name_H-M   'P 1'
_cell_length_a   5.24026600
_cell_length_b   10.77169200
_cell_length_c   19.79802000
_cell_angle_alpha   90.00000000
_cell_angle_beta   90.00000000
_cell_angle_gamma   90.00000000
_symmetry_Int_Tables_number   1
_chemical_formula_structural   Si2BiO6
_chemical_formula_sum   'Si16 Bi8 O48'
_cell_volume   1117.52955660
_cell_formula_units_Z   8
loop_
 _symmetry_equiv_pos_site_id
 _symmetry_equiv_pos_as_xyz
  1  'x, y, z'
loop_
 _atom_site_type_symbol
 _atom_site_label
 _atom_site_symmetry_multiplicity
 _atom_site_fract_x
 _atom_site_fract_y
 _atom_site_fract_z
 _atom_site_occupancy
  Si  Si0  1  0.61627100  0.17280600  0.77178700  1
  Si  Si1  1  0.74212600  0.32703300  0.47897800  1
  Si  Si2  1  0.75787400  0.32703300  0.97897800  1
  Si  Si3  1  0.88372900  0.67280600  0.22821300  1
  Si  Si4  1  0.11627100  0.82719400  0.72821300  1
  Si  Si5  1  0.38372900  0.32719400  0.27178700  1
  Si  Si6  1  0.24212600  0.17296700  0.47897800  1
  Si  Si7  1  0.74212600  0.82703300  0.02102200  1
  Si  Si8  1  0.75787400  0.82703300  0.52102200  1
  Si  Si9  1  0.88372900  0.17280600  0.27178700  1
  Si  Si10  1  0.38372900  0.82719400  0.22821300  1
  Si  Si11  1  0.61627100  0.67280600  0.72821300  1
  Si  Si12  1  0.25787400  0.67296700  0.52102200  1
  Si  Si13  1  0.11627100  0.32719400  0.77178700  1
  Si  Si14  1  0.25787400  0.17296700  0.97897800  1
  Si  Si15  1  0.24212600  0.67296700  0.02102200  1
  Bi  Bi16  1  0.43791200  0.53799000  0.87680300  1
  Bi  Bi17  1  0.56208800  0.46201000  0.12319700  1
  Bi  Bi18  1  0.93791200  0.46201000  0.62319700  1
  Bi  Bi19  1  0.06208800  0.53799000  0.37680300  1
  Bi  Bi20  1  0.43791200  0.03799000  0.62319700  1
  Bi  Bi21  1  0.56208800  0.96201000  0.37680300  1
  Bi  Bi22  1  0.93791200  0.96201000  0.87680300  1
  Bi  Bi23  1  0.06208800  0.03799000  0.12319700  1
  O  O24  1  0.84822400  0.03733200  0.30830100  1
  O  O25  1  0.26943700  0.53309100  0.05288500  1
  O  O26  1  0.15177600  0.96266800  0.69169900  1
  O  O27  1  0.73375900  0.83450400  0.93823200  1
  O  O28  1  0.23375900  0.66549600  0.93823200  1
  O  O29  1  0.97568100  0.73781700  0.04726200  1
  O  O30  1  0.87198200  0.16094900  0.18926400  1
  O  O31  1  0.12801800  0.33905100  0.68926400  1
  O  O32  1  0.73375900  0.33450400  0.56176800  1
  O  O33  1  0.87198200  0.66094900  0.31073600  1
  O  O34  1  0.34822400  0.96266800  0.19169900  1
  O  O35  1  0.76624100  0.83450400  0.43823200  1
  O  O36  1  0.73056300  0.46690900  0.94711500  1
  O  O37  1  0.37198200  0.33905100  0.18926400  1
  O  O38  1  0.65177600  0.53733200  0.69169900  1
  O  O39  1  0.26943700  0.03309100  0.44711500  1
  O  O40  1  0.34822400  0.46266800  0.30830100  1
  O  O41  1  0.16067400  0.22986800  0.29569100  1
  O  O42  1  0.33932600  0.22986800  0.79569100  1
  O  O43  1  0.52431900  0.23781700  0.95273800  1
  O  O44  1  0.76624100  0.33450400  0.06176800  1
  O  O45  1  0.62801800  0.16094900  0.68926400  1
  O  O46  1  0.76943700  0.96690900  0.05288500  1
  O  O47  1  0.16067400  0.72986800  0.20430900  1
  O  O48  1  0.26624100  0.66549600  0.43823200  1
  O  O49  1  0.62801800  0.66094900  0.81073600  1
  O  O50  1  0.73056300  0.96690900  0.55288500  1
  O  O51  1  0.23375900  0.16549600  0.56176800  1
  O  O52  1  0.23056300  0.03309100  0.94711500  1
  O  O53  1  0.66067400  0.27013200  0.29569100  1
  O  O54  1  0.15177600  0.46266800  0.80830100  1
  O  O55  1  0.83932600  0.27013200  0.79569100  1
  O  O56  1  0.83932600  0.77013200  0.70430900  1
  O  O57  1  0.76943700  0.46690900  0.44711500  1
  O  O58  1  0.26624100  0.16549600  0.06176800  1
  O  O59  1  0.23056300  0.53309100  0.55288500  1
  O  O60  1  0.33932600  0.72986800  0.70430900  1
  O  O61  1  0.02431900  0.26218300  0.95273800  1
  O  O62  1  0.47568100  0.26218300  0.45273800  1
  O  O63  1  0.66067400  0.77013200  0.20430900  1
  O  O64  1  0.47568100  0.76218300  0.04726200  1
  O  O65  1  0.52431900  0.73781700  0.54726200  1
  O  O66  1  0.02431900  0.76218300  0.54726200  1
  O  O67  1  0.37198200  0.83905100  0.31073600  1
  O  O68  1  0.65177600  0.03733200  0.80830100  1
  O  O69  1  0.97568100  0.23781700  0.45273800  1
  O  O70  1  0.12801800  0.83905100  0.81073600  1
  O  O71  1  0.84822400  0.53733200  0.19169900  1
