# generated using pymatgen
data_MgP2WO7
_symmetry_space_group_name_H-M   'P 1'
_cell_length_a   5.57943500
_cell_length_b   6.68262987
_cell_length_c   8.00382738
_cell_angle_alpha   99.66607744
_cell_angle_beta   88.60348680
_cell_angle_gamma   108.68244114
_symmetry_Int_Tables_number   1
_chemical_formula_structural   MgP2WO7
_chemical_formula_sum   'Mg2 P4 W2 O14'
_cell_volume   278.54887997
_cell_formula_units_Z   2
loop_
 _symmetry_equiv_pos_site_id
 _symmetry_equiv_pos_as_xyz
  1  'x, y, z'
loop_
 _atom_site_type_symbol
 _atom_site_label
 _atom_site_symmetry_multiplicity
 _atom_site_fract_x
 _atom_site_fract_y
 _atom_site_fract_z
 _atom_site_occupancy
  Mg  Mg0  1  0.65568400  0.66076500  0.37266700  1
  Mg  Mg1  1  0.34431600  0.33923500  0.62733300  1
  P  P2  1  0.82841900  0.67189300  0.88118000  1
  P  P3  1  0.17158100  0.32810700  0.11882000  1
  P  P4  1  0.79609800  0.21585100  0.38917100  1
  P  P5  1  0.20390200  0.78414900  0.61082900  1
  W  W6  1  0.70599800  0.14828600  0.82794400  1
  W  W7  1  0.29400200  0.85171400  0.17205600  1
  O  O8  1  0.91120100  0.69479300  0.06608000  1
  O  O9  1  0.08879900  0.30520700  0.93392000  1
  O  O10  1  0.73095700  0.84227800  0.83929700  1
  O  O11  1  0.26904300  0.15772200  0.16070300  1
  O  O12  1  0.63167100  0.44851700  0.81757100  1
  O  O13  1  0.36832900  0.55148300  0.18242900  1
  O  O14  1  0.38446200  0.65460300  0.55452700  1
  O  O15  1  0.61553800  0.34539700  0.44547300  1
  O  O16  1  0.00066600  0.23768600  0.51803300  1
  O  O17  1  0.99933400  0.76231400  0.48196700  1
  O  O18  1  0.91808400  0.32196500  0.22559400  1
  O  O19  1  0.34713800  0.02533900  0.67730200  1
  O  O20  1  0.65286200  0.97466100  0.32269800  1
  O  O21  1  0.08191600  0.67803500  0.77440600  1
