# generated using pymatgen
data_Ca(SbO2)2
_symmetry_space_group_name_H-M   'P 1'
_cell_length_a   7.09226839
_cell_length_b   7.09226839
_cell_length_c   11.35026729
_cell_angle_alpha   64.50899895
_cell_angle_beta   64.50899895
_cell_angle_gamma   28.30404752
_symmetry_Int_Tables_number   1
_chemical_formula_structural   Ca(SbO2)2
_chemical_formula_sum   'Ca2 Sb4 O8'
_cell_volume   242.57834452
_cell_formula_units_Z   2
loop_
 _symmetry_equiv_pos_site_id
 _symmetry_equiv_pos_as_xyz
  1  'x, y, z'
loop_
 _atom_site_type_symbol
 _atom_site_label
 _atom_site_symmetry_multiplicity
 _atom_site_fract_x
 _atom_site_fract_y
 _atom_site_fract_z
 _atom_site_occupancy
  Ca  Ca0  1  0.73438900  0.73438900  0.75777600  1
  Ca  Ca1  1  0.26561100  0.26561100  0.24222400  1
  Sb  Sb2  1  0.38301200  0.38301200  0.88211100  1
  Sb  Sb3  1  0.88619100  0.88619100  0.41249800  1
  Sb  Sb4  1  0.11380900  0.11380900  0.58750200  1
  Sb  Sb5  1  0.61698800  0.61698800  0.11788900  1
  O  O6  1  0.09734800  0.09734800  0.23499800  1
  O  O7  1  0.58014100  0.58014100  0.70920800  1
  O  O8  1  0.41985900  0.41985900  0.29079200  1
  O  O9  1  0.90265200  0.90265200  0.76500200  1
  O  O10  1  0.77098200  0.77098200  0.10231900  1
  O  O11  1  0.25608700  0.25608700  0.60371900  1
  O  O12  1  0.22901800  0.22901800  0.89768100  1
  O  O13  1  0.74391300  0.74391300  0.39628100  1
