# generated using pymatgen
data_TiZnBiO5
_symmetry_space_group_name_H-M   'P 1'
_cell_length_a   5.18774400
_cell_length_b   10.78634700
_cell_length_c   15.66662400
_cell_angle_alpha   90.00000000
_cell_angle_beta   90.00000000
_cell_angle_gamma   90.00000000
_symmetry_Int_Tables_number   1
_chemical_formula_structural   TiZnBiO5
_chemical_formula_sum   'Ti8 Zn8 Bi8 O40'
_cell_volume   876.65425443
_cell_formula_units_Z   8
loop_
 _symmetry_equiv_pos_site_id
 _symmetry_equiv_pos_as_xyz
  1  'x, y, z'
loop_
 _atom_site_type_symbol
 _atom_site_label
 _atom_site_symmetry_multiplicity
 _atom_site_fract_x
 _atom_site_fract_y
 _atom_site_fract_z
 _atom_site_occupancy
  Ti  Ti0  1  0.89235900  0.34736400  0.39032100  1
  Ti  Ti1  1  0.60764100  0.84736400  0.60967900  1
  Ti  Ti2  1  0.10764100  0.65263600  0.60967900  1
  Ti  Ti3  1  0.39235900  0.15263600  0.39032100  1
  Ti  Ti4  1  0.10764100  0.15263600  0.89032100  1
  Ti  Ti5  1  0.89235900  0.84736400  0.10967900  1
  Ti  Ti6  1  0.60764100  0.34736400  0.89032100  1
  Ti  Ti7  1  0.39235900  0.65263600  0.10967900  1
  Zn  Zn8  1  0.46425700  0.36679800  0.52527000  1
  Zn  Zn9  1  0.96425700  0.13320200  0.52527000  1
  Zn  Zn10  1  0.96425700  0.63320200  0.97473000  1
  Zn  Zn11  1  0.03574300  0.36679800  0.02527000  1
  Zn  Zn12  1  0.53574300  0.13320200  0.02527000  1
  Zn  Zn13  1  0.03574300  0.86679800  0.47473000  1
  Zn  Zn14  1  0.53574300  0.63320200  0.47473000  1
  Zn  Zn15  1  0.46425700  0.86679800  0.97473000  1
  Bi  Bi16  1  0.17615700  0.86013200  0.78299200  1
  Bi  Bi17  1  0.82384300  0.13986800  0.21700800  1
  Bi  Bi18  1  0.32384300  0.36013200  0.21700800  1
  Bi  Bi19  1  0.82384300  0.63986800  0.28299200  1
  Bi  Bi20  1  0.67615700  0.13986800  0.71700800  1
  Bi  Bi21  1  0.67615700  0.63986800  0.78299200  1
  Bi  Bi22  1  0.32384300  0.86013200  0.28299200  1
  Bi  Bi23  1  0.17615700  0.36013200  0.71700800  1
  O  O24  1  0.62980600  0.28548000  0.30454100  1
  O  O25  1  0.29711600  0.03695800  0.94462800  1
  O  O26  1  0.20288400  0.53695800  0.05537200  1
  O  O27  1  0.50979300  0.80301300  0.85826700  1
  O  O28  1  0.99020700  0.30301300  0.14173300  1
  O  O29  1  0.62980600  0.78548000  0.19545900  1
  O  O30  1  0.99020700  0.80301300  0.35826700  1
  O  O31  1  0.87019400  0.78548000  0.69545900  1
  O  O32  1  0.29711600  0.53695800  0.55537200  1
  O  O33  1  0.37019400  0.71452000  0.69545900  1
  O  O34  1  0.87019400  0.28548000  0.80454100  1
  O  O35  1  0.67809100  0.20733300  0.45709400  1
  O  O36  1  0.79711600  0.96304200  0.55537200  1
  O  O37  1  0.49020700  0.69698700  0.35826700  1
  O  O38  1  0.05667200  0.96317400  0.18834300  1
  O  O39  1  0.79711600  0.46304200  0.94462800  1
  O  O40  1  0.37019400  0.21452000  0.80454100  1
  O  O41  1  0.00979300  0.19698700  0.64173300  1
  O  O42  1  0.17809100  0.79266700  0.04290600  1
  O  O43  1  0.20288400  0.03695800  0.44462800  1
  O  O44  1  0.32190900  0.79266700  0.54290600  1
  O  O45  1  0.94332800  0.03682600  0.81165700  1
  O  O46  1  0.49020700  0.19698700  0.14173300  1
  O  O47  1  0.55667200  0.03682600  0.31165700  1
  O  O48  1  0.32190900  0.29266700  0.95709400  1
  O  O49  1  0.17809100  0.29266700  0.45709400  1
  O  O50  1  0.70288400  0.46304200  0.44462800  1
  O  O51  1  0.70288400  0.96304200  0.05537200  1
  O  O52  1  0.55667200  0.53682600  0.18834300  1
  O  O53  1  0.82190900  0.70733300  0.54290600  1
  O  O54  1  0.82190900  0.20733300  0.95709400  1
  O  O55  1  0.67809100  0.70733300  0.04290600  1
  O  O56  1  0.94332800  0.53682600  0.68834300  1
  O  O57  1  0.00979300  0.69698700  0.85826700  1
  O  O58  1  0.50979300  0.30301300  0.64173300  1
  O  O59  1  0.05667200  0.46317400  0.31165700  1
  O  O60  1  0.44332800  0.46317400  0.81165700  1
  O  O61  1  0.12980600  0.21452000  0.30454100  1
  O  O62  1  0.44332800  0.96317400  0.68834300  1
  O  O63  1  0.12980600  0.71452000  0.19545900  1
