# generated using pymatgen
data_Ca(MoO2)2
_symmetry_space_group_name_H-M   'P 1'
_cell_length_a   5.60515800
_cell_length_b   6.46603100
_cell_length_c   11.23574000
_cell_angle_alpha   90.00000000
_cell_angle_beta   90.00000000
_cell_angle_gamma   90.00000000
_symmetry_Int_Tables_number   1
_chemical_formula_structural   Ca(MoO2)2
_chemical_formula_sum   'Ca4 Mo8 O16'
_cell_volume   407.21833365
_cell_formula_units_Z   4
loop_
 _symmetry_equiv_pos_site_id
 _symmetry_equiv_pos_as_xyz
  1  'x, y, z'
loop_
 _atom_site_type_symbol
 _atom_site_label
 _atom_site_symmetry_multiplicity
 _atom_site_fract_x
 _atom_site_fract_y
 _atom_site_fract_z
 _atom_site_occupancy
  Ca  Ca0  1  0.35107600  0.00000000  0.50000000  1
  Ca  Ca1  1  0.64892400  0.50000000  0.00000000  1
  Ca  Ca2  1  0.03249600  0.00000000  0.00000000  1
  Ca  Ca3  1  0.96750400  0.50000000  0.50000000  1
  Mo  Mo4  1  0.01126800  0.50000000  0.23518700  1
  Mo  Mo5  1  0.01126800  0.50000000  0.76481300  1
  Mo  Mo6  1  0.98873200  0.00000000  0.26481300  1
  Mo  Mo7  1  0.98873200  0.00000000  0.73518700  1
  Mo  Mo8  1  0.50000000  0.25000000  0.25000000  1
  Mo  Mo9  1  0.50000000  0.75000000  0.75000000  1
  Mo  Mo10  1  0.50000000  0.75000000  0.25000000  1
  Mo  Mo11  1  0.50000000  0.25000000  0.75000000  1
  O  O12  1  0.35499900  0.50000000  0.14599000  1
  O  O13  1  0.35499900  0.50000000  0.85401000  1
  O  O14  1  0.64500100  0.00000000  0.35401000  1
  O  O15  1  0.64500100  0.00000000  0.64599000  1
  O  O16  1  0.69131000  0.50000000  0.34037600  1
  O  O17  1  0.69131000  0.50000000  0.65962400  1
  O  O18  1  0.30869000  0.00000000  0.15962400  1
  O  O19  1  0.30869000  0.00000000  0.84037600  1
  O  O20  1  0.16381300  0.25651900  0.35555700  1
  O  O21  1  0.16381300  0.74348100  0.64444300  1
  O  O22  1  0.83618700  0.75651900  0.14444300  1
  O  O23  1  0.83618700  0.24348100  0.85555700  1
  O  O24  1  0.83618700  0.24348100  0.14444300  1
  O  O25  1  0.83618700  0.75651900  0.85555700  1
  O  O26  1  0.16381300  0.74348100  0.35555700  1
  O  O27  1  0.16381300  0.25651900  0.64444300  1
