# generated using pymatgen
data_Ca(WO2)2
_symmetry_space_group_name_H-M   'P 1'
_cell_length_a   5.68621200
_cell_length_b   6.56865300
_cell_length_c   11.16577600
_cell_angle_alpha   90.00000000
_cell_angle_beta   90.00000000
_cell_angle_gamma   90.00000000
_symmetry_Int_Tables_number   1
_chemical_formula_structural   Ca(WO2)2
_chemical_formula_sum   'Ca4 W8 O16'
_cell_volume   417.05014715
_cell_formula_units_Z   4
loop_
 _symmetry_equiv_pos_site_id
 _symmetry_equiv_pos_as_xyz
  1  'x, y, z'
loop_
 _atom_site_type_symbol
 _atom_site_label
 _atom_site_symmetry_multiplicity
 _atom_site_fract_x
 _atom_site_fract_y
 _atom_site_fract_z
 _atom_site_occupancy
  Ca  Ca0  1  0.35350300  0.00000000  0.50000000  1
  Ca  Ca1  1  0.64649700  0.50000000  0.00000000  1
  Ca  Ca2  1  0.03361700  0.00000000  0.00000000  1
  Ca  Ca3  1  0.96638300  0.50000000  0.50000000  1
  W  W4  1  0.01221400  0.50000000  0.23369800  1
  W  W5  1  0.01221400  0.50000000  0.76630200  1
  W  W6  1  0.98778600  0.00000000  0.26630200  1
  W  W7  1  0.98778600  0.00000000  0.73369800  1
  W  W8  1  0.50000000  0.25000000  0.25000000  1
  W  W9  1  0.50000000  0.75000000  0.75000000  1
  W  W10  1  0.50000000  0.75000000  0.25000000  1
  W  W11  1  0.50000000  0.25000000  0.75000000  1
  O  O12  1  0.35609400  0.50000000  0.14653700  1
  O  O13  1  0.35609400  0.50000000  0.85346300  1
  O  O14  1  0.64390600  0.00000000  0.35346300  1
  O  O15  1  0.64390600  0.00000000  0.64653700  1
  O  O16  1  0.69198300  0.50000000  0.33880300  1
  O  O17  1  0.69198300  0.50000000  0.66119700  1
  O  O18  1  0.30801700  0.00000000  0.16119700  1
  O  O19  1  0.30801700  0.00000000  0.83880300  1
  O  O20  1  0.16470700  0.25677800  0.35346800  1
  O  O21  1  0.16470700  0.74322200  0.64653200  1
  O  O22  1  0.83529300  0.75677800  0.14653200  1
  O  O23  1  0.83529300  0.24322200  0.85346800  1
  O  O24  1  0.83529300  0.24322200  0.14653200  1
  O  O25  1  0.83529300  0.75677800  0.85346800  1
  O  O26  1  0.16470700  0.74322200  0.35346800  1
  O  O27  1  0.16470700  0.25677800  0.64653200  1
