# generated using pymatgen
data_AlW3O8
_symmetry_space_group_name_H-M   'P 1'
_cell_length_a   5.24106000
_cell_length_b   5.61319754
_cell_length_c   9.32323023
_cell_angle_alpha   90.09163638
_cell_angle_beta   90.20654408
_cell_angle_gamma   90.76286761
_symmetry_Int_Tables_number   1
_chemical_formula_structural   AlW3O8
_chemical_formula_sum   'Al2 W6 O16'
_cell_volume   274.25462423
_cell_formula_units_Z   2
loop_
 _symmetry_equiv_pos_site_id
 _symmetry_equiv_pos_as_xyz
  1  'x, y, z'
loop_
 _atom_site_type_symbol
 _atom_site_label
 _atom_site_symmetry_multiplicity
 _atom_site_fract_x
 _atom_site_fract_y
 _atom_site_fract_z
 _atom_site_occupancy
  Al  Al0  1  0.25192400  0.33465200  0.75119900  1
  Al  Al1  1  0.74807600  0.66534800  0.24880100  1
  W  W2  1  0.75954100  0.63776400  0.74925800  1
  W  W3  1  0.24045900  0.36223600  0.25074200  1
  W  W4  1  0.24467900  0.84524100  0.50149600  1
  W  W5  1  0.25672900  0.83750800  0.99561600  1
  W  W6  1  0.75532100  0.15475900  0.49850400  1
  W  W7  1  0.74327100  0.16249200  0.00438400  1
  O  O8  1  0.41275800  0.60257300  0.85864300  1
  O  O9  1  0.08370200  0.59702800  0.63888100  1
  O  O10  1  0.58724200  0.39742700  0.14135700  1
  O  O11  1  0.91629800  0.40297200  0.36111900  1
  O  O12  1  0.40539900  0.12549000  0.38427300  1
  O  O13  1  0.10351100  0.12977500  0.11599100  1
  O  O14  1  0.59460100  0.87451000  0.61572700  1
  O  O15  1  0.89648900  0.87022500  0.88400900  1
  O  O16  1  0.93377700  0.37076400  0.85717900  1
  O  O17  1  0.57323400  0.37905400  0.64236000  1
  O  O18  1  0.06622300  0.62923600  0.14282100  1
  O  O19  1  0.42676600  0.62094600  0.35764000  1
  O  O20  1  0.40380000  0.11898700  0.88183500  1
  O  O21  1  0.59620000  0.88101300  0.11816500  1
  O  O22  1  0.09756500  0.11450900  0.62140100  1
  O  O23  1  0.90243500  0.88549100  0.37859900  1
