# generated using pymatgen
data_MgAgBiO5
_symmetry_space_group_name_H-M   'P 1'
_cell_length_a   5.33461200
_cell_length_b   10.20492100
_cell_length_c   15.48165200
_cell_angle_alpha   90.00000000
_cell_angle_beta   90.00000000
_cell_angle_gamma   90.00000000
_symmetry_Int_Tables_number   1
_chemical_formula_structural   MgAgBiO5
_chemical_formula_sum   'Mg8 Ag8 Bi8 O40'
_cell_volume   842.81020523
_cell_formula_units_Z   8
loop_
 _symmetry_equiv_pos_site_id
 _symmetry_equiv_pos_as_xyz
  1  'x, y, z'
loop_
 _atom_site_type_symbol
 _atom_site_label
 _atom_site_symmetry_multiplicity
 _atom_site_fract_x
 _atom_site_fract_y
 _atom_site_fract_z
 _atom_site_occupancy
  Mg  Mg0  1  0.56108000  0.36839600  0.56692100  1
  Mg  Mg1  1  0.06108000  0.13160400  0.56692100  1
  Mg  Mg2  1  0.06108000  0.63160400  0.93307900  1
  Mg  Mg3  1  0.93892000  0.36839600  0.06692100  1
  Mg  Mg4  1  0.43892000  0.13160400  0.06692100  1
  Mg  Mg5  1  0.93892000  0.86839600  0.43307900  1
  Mg  Mg6  1  0.43892000  0.63160400  0.43307900  1
  Mg  Mg7  1  0.56108000  0.86839600  0.93307900  1
  Ag  Ag8  1  0.04959700  0.38427100  0.42370400  1
  Ag  Ag9  1  0.45040300  0.88427100  0.57629600  1
  Ag  Ag10  1  0.95040300  0.61572900  0.57629600  1
  Ag  Ag11  1  0.54959700  0.11572900  0.42370400  1
  Ag  Ag12  1  0.95040300  0.11572900  0.92370400  1
  Ag  Ag13  1  0.04959700  0.88427100  0.07629600  1
  Ag  Ag14  1  0.45040300  0.38427100  0.92370400  1
  Ag  Ag15  1  0.54959700  0.61572900  0.07629600  1
  Bi  Bi16  1  0.99929000  0.85819100  0.75457400  1
  Bi  Bi17  1  0.00071000  0.14180900  0.24542600  1
  Bi  Bi18  1  0.50071000  0.35819100  0.24542600  1
  Bi  Bi19  1  0.00071000  0.64180900  0.25457400  1
  Bi  Bi20  1  0.49929000  0.14180900  0.74542600  1
  Bi  Bi21  1  0.49929000  0.64180900  0.75457400  1
  Bi  Bi22  1  0.50071000  0.85819100  0.25457400  1
  Bi  Bi23  1  0.99929000  0.35819100  0.74542600  1
  O  O24  1  0.83797100  0.30628100  0.32317700  1
  O  O25  1  0.26565900  0.97977700  0.98542700  1
  O  O26  1  0.23434100  0.47977700  0.01457300  1
  O  O27  1  0.31539500  0.79678400  0.83334400  1
  O  O28  1  0.18460500  0.29678400  0.16665600  1
  O  O29  1  0.83797100  0.80628100  0.17682300  1
  O  O30  1  0.18460500  0.79678400  0.33334400  1
  O  O31  1  0.66202900  0.80628100  0.67682300  1
  O  O32  1  0.26565900  0.47977700  0.51457300  1
  O  O33  1  0.16202900  0.69371900  0.67682300  1
  O  O34  1  0.66202900  0.30628100  0.82317700  1
  O  O35  1  0.85126700  0.26972900  0.50254100  1
  O  O36  1  0.76565900  0.02022300  0.51457300  1
  O  O37  1  0.68460500  0.70321600  0.33334400  1
  O  O38  1  0.25402500  0.00241700  0.16325900  1
  O  O39  1  0.76565900  0.52022300  0.98542700  1
  O  O40  1  0.16202900  0.19371900  0.82317700  1
  O  O41  1  0.81539500  0.20321600  0.66665600  1
  O  O42  1  0.35126700  0.73027100  0.99745900  1
  O  O43  1  0.23434100  0.97977700  0.48542700  1
  O  O44  1  0.14873300  0.73027100  0.49745900  1
  O  O45  1  0.74597500  0.99758300  0.83674100  1
  O  O46  1  0.68460500  0.20321600  0.16665600  1
  O  O47  1  0.75402500  0.99758300  0.33674100  1
  O  O48  1  0.14873300  0.23027100  0.00254100  1
  O  O49  1  0.35126700  0.23027100  0.50254100  1
  O  O50  1  0.73434100  0.52022300  0.48542700  1
  O  O51  1  0.73434100  0.02022300  0.01457300  1
  O  O52  1  0.75402500  0.49758300  0.16325900  1
  O  O53  1  0.64873300  0.76972900  0.49745900  1
  O  O54  1  0.64873300  0.26972900  0.00254100  1
  O  O55  1  0.85126700  0.76972900  0.99745900  1
  O  O56  1  0.74597500  0.49758300  0.66325900  1
  O  O57  1  0.81539500  0.70321600  0.83334400  1
  O  O58  1  0.31539500  0.29678400  0.66665600  1
  O  O59  1  0.25402500  0.50241700  0.33674100  1
  O  O60  1  0.24597500  0.50241700  0.83674100  1
  O  O61  1  0.33797100  0.19371900  0.32317700  1
  O  O62  1  0.24597500  0.00241700  0.66325900  1
  O  O63  1  0.33797100  0.69371900  0.17682300  1
