# generated using pymatgen
data_AlSn(WO4)2
_symmetry_space_group_name_H-M   'P 1'
_cell_length_a   5.66425200
_cell_length_b   5.17779900
_cell_length_c   10.58970736
_cell_angle_alpha   61.90255754
_cell_angle_beta   90.00000000
_cell_angle_gamma   90.00000000
_symmetry_Int_Tables_number   1
_chemical_formula_structural   AlSn(WO4)2
_chemical_formula_sum   'Al2 Sn2 W4 O16'
_cell_volume   273.97637318
_cell_formula_units_Z   2
loop_
 _symmetry_equiv_pos_site_id
 _symmetry_equiv_pos_as_xyz
  1  'x, y, z'
loop_
 _atom_site_type_symbol
 _atom_site_label
 _atom_site_symmetry_multiplicity
 _atom_site_fract_x
 _atom_site_fract_y
 _atom_site_fract_z
 _atom_site_occupancy
  Al  Al0  1  0.66635900  0.00000000  0.75000000  1
  Al  Al1  1  0.33364100  0.00000000  0.25000000  1
  Sn  Sn2  1  0.36466900  0.50000000  0.75000000  1
  Sn  Sn3  1  0.63533100  0.50000000  0.25000000  1
  W  W4  1  0.15339800  0.24606600  0.50056900  1
  W  W5  1  0.15339800  0.75393400  0.99943100  1
  W  W6  1  0.84660200  0.75393400  0.49943100  1
  W  W7  1  0.84660200  0.24606600  0.00056900  1
  O  O8  1  0.39186800  0.73541100  0.86684400  1
  O  O9  1  0.39186800  0.26458900  0.63315600  1
  O  O10  1  0.60813200  0.26458900  0.13315600  1
  O  O11  1  0.60813200  0.73541100  0.36684400  1
  O  O12  1  0.87834800  0.20759300  0.38334800  1
  O  O13  1  0.87834800  0.79240700  0.11665200  1
  O  O14  1  0.12165200  0.79240700  0.61665200  1
  O  O15  1  0.12165200  0.20759300  0.88334800  1
  O  O16  1  0.63325000  0.20288700  0.85825100  1
  O  O17  1  0.63325000  0.79711300  0.64174900  1
  O  O18  1  0.36675000  0.79711300  0.14174900  1
  O  O19  1  0.36675000  0.20288700  0.35825100  1
  O  O20  1  0.88025100  0.70200900  0.88324700  1
  O  O21  1  0.11974900  0.29799100  0.11675300  1
  O  O22  1  0.88025100  0.29799100  0.61675300  1
  O  O23  1  0.11974900  0.70200900  0.38324700  1
