# generated using pymatgen
data_CaAgBiO5
_symmetry_space_group_name_H-M   'P 1'
_cell_length_a   5.55286300
_cell_length_b   10.75765800
_cell_length_c   16.61079700
_cell_angle_alpha   90.00000000
_cell_angle_beta   90.00000000
_cell_angle_gamma   90.00000000
_symmetry_Int_Tables_number   1
_chemical_formula_structural   CaAgBiO5
_chemical_formula_sum   'Ca8 Ag8 Bi8 O40'
_cell_volume   992.25926529
_cell_formula_units_Z   8
loop_
 _symmetry_equiv_pos_site_id
 _symmetry_equiv_pos_as_xyz
  1  'x, y, z'
loop_
 _atom_site_type_symbol
 _atom_site_label
 _atom_site_symmetry_multiplicity
 _atom_site_fract_x
 _atom_site_fract_y
 _atom_site_fract_z
 _atom_site_occupancy
  Ca  Ca0  1  0.56305500  0.36825200  0.55240600  1
  Ca  Ca1  1  0.06305500  0.13174800  0.55240600  1
  Ca  Ca2  1  0.06305500  0.63174800  0.94759400  1
  Ca  Ca3  1  0.93694500  0.36825200  0.05240600  1
  Ca  Ca4  1  0.43694500  0.13174800  0.05240600  1
  Ca  Ca5  1  0.93694500  0.86825200  0.44759400  1
  Ca  Ca6  1  0.43694500  0.63174800  0.44759400  1
  Ca  Ca7  1  0.56305500  0.86825200  0.94759400  1
  Ag  Ag8  1  0.99129800  0.36420200  0.41319900  1
  Ag  Ag9  1  0.50870200  0.86420200  0.58680100  1
  Ag  Ag10  1  0.00870200  0.63579800  0.58680100  1
  Ag  Ag11  1  0.49129800  0.13579800  0.41319900  1
  Ag  Ag12  1  0.00870200  0.13579800  0.91319900  1
  Ag  Ag13  1  0.99129800  0.86420200  0.08680100  1
  Ag  Ag14  1  0.50870200  0.36420200  0.91319900  1
  Ag  Ag15  1  0.49129800  0.63579800  0.08680100  1
  Bi  Bi16  1  0.97396200  0.84402800  0.78257100  1
  Bi  Bi17  1  0.02603800  0.15597200  0.21742900  1
  Bi  Bi18  1  0.52603800  0.34402800  0.21742900  1
  Bi  Bi19  1  0.02603800  0.65597200  0.28257100  1
  Bi  Bi20  1  0.47396200  0.15597200  0.71742900  1
  Bi  Bi21  1  0.47396200  0.65597200  0.78257100  1
  Bi  Bi22  1  0.52603800  0.84402800  0.28257100  1
  Bi  Bi23  1  0.97396200  0.34402800  0.71742900  1
  O  O24  1  0.84255800  0.29824600  0.28941800  1
  O  O25  1  0.28684600  0.02413500  0.93848300  1
  O  O26  1  0.21315400  0.52413500  0.06151700  1
  O  O27  1  0.27580100  0.77925800  0.85839600  1
  O  O28  1  0.22419900  0.27925800  0.14160400  1
  O  O29  1  0.84255800  0.79824600  0.21058200  1
  O  O30  1  0.22419900  0.77925800  0.35839600  1
  O  O31  1  0.65744200  0.79824600  0.71058200  1
  O  O32  1  0.28684600  0.52413500  0.56151700  1
  O  O33  1  0.15744200  0.70175400  0.71058200  1
  O  O34  1  0.65744200  0.29824600  0.78941800  1
  O  O35  1  0.78904000  0.22866100  0.46491900  1
  O  O36  1  0.78684600  0.97586500  0.56151700  1
  O  O37  1  0.72419900  0.72074200  0.35839600  1
  O  O38  1  0.18632200  0.00386600  0.14704300  1
  O  O39  1  0.78684600  0.47586500  0.93848300  1
  O  O40  1  0.15744200  0.20175400  0.78941800  1
  O  O41  1  0.77580100  0.22074200  0.64160400  1
  O  O42  1  0.28904000  0.77133900  0.03508100  1
  O  O43  1  0.21315400  0.02413500  0.43848300  1
  O  O44  1  0.21096000  0.77133900  0.53508100  1
  O  O45  1  0.81367800  0.99613400  0.85295700  1
  O  O46  1  0.72419900  0.22074200  0.14160400  1
  O  O47  1  0.68632200  0.99613400  0.35295700  1
  O  O48  1  0.21096000  0.27133900  0.96491900  1
  O  O49  1  0.28904000  0.27133900  0.46491900  1
  O  O50  1  0.71315400  0.47586500  0.43848300  1
  O  O51  1  0.71315400  0.97586500  0.06151700  1
  O  O52  1  0.68632200  0.49613400  0.14704300  1
  O  O53  1  0.71096000  0.72866100  0.53508100  1
  O  O54  1  0.71096000  0.22866100  0.96491900  1
  O  O55  1  0.78904000  0.72866100  0.03508100  1
  O  O56  1  0.81367800  0.49613400  0.64704300  1
  O  O57  1  0.77580100  0.72074200  0.85839600  1
  O  O58  1  0.27580100  0.27925800  0.64160400  1
  O  O59  1  0.18632200  0.50386600  0.35295700  1
  O  O60  1  0.31367800  0.50386600  0.85295700  1
  O  O61  1  0.34255800  0.20175400  0.28941800  1
  O  O62  1  0.31367800  0.00386600  0.64704300  1
  O  O63  1  0.34255800  0.70175400  0.21058200  1
