# generated using pymatgen
data_Zn2AgWO6
_symmetry_space_group_name_H-M   'P 1'
_cell_length_a   5.12293400
_cell_length_b   5.54083435
_cell_length_c   5.68665603
_cell_angle_alpha   114.91773899
_cell_angle_beta   115.50562037
_cell_angle_gamma   90.02036072
_symmetry_Int_Tables_number   1
_chemical_formula_structural   Zn2AgWO6
_chemical_formula_sum   'Zn2 Ag1 W1 O6'
_cell_volume   128.82572743
_cell_formula_units_Z   1
loop_
 _symmetry_equiv_pos_site_id
 _symmetry_equiv_pos_as_xyz
  1  'x, y, z'
loop_
 _atom_site_type_symbol
 _atom_site_label
 _atom_site_symmetry_multiplicity
 _atom_site_fract_x
 _atom_site_fract_y
 _atom_site_fract_z
 _atom_site_occupancy
  Zn  Zn0  1  0.68626100  0.19192900  0.46128300  1
  Zn  Zn1  1  0.27800100  0.67083900  0.47410800  1
  Ag  Ag2  1  0.52058500  0.52103600  0.02027000  1
  W  W3  1  0.00411900  0.01709800  0.00598500  1
  O  O4  1  0.31191900  0.84494300  0.21807600  1
  O  O5  1  0.76597700  0.23723100  0.84511300  1
  O  O6  1  0.67125600  0.74251400  0.84956500  1
  O  O7  1  0.06620500  0.86365300  0.67520200  1
  O  O8  1  0.00030400  0.23539700  0.37344700  1
  O  O9  1  0.37655400  0.33888800  0.22415200  1
