# generated using pymatgen
data_ReBiO5
_symmetry_space_group_name_H-M   'P 1'
_cell_length_a   6.30480000
_cell_length_b   12.50873800
_cell_length_c   16.92331700
_cell_angle_alpha   90.00000000
_cell_angle_beta   90.00000000
_cell_angle_gamma   90.00000000
_symmetry_Int_Tables_number   1
_chemical_formula_structural   ReBiO5
_chemical_formula_sum   'Re8 Bi8 O40'
_cell_volume   1334.65894102
_cell_formula_units_Z   8
loop_
 _symmetry_equiv_pos_site_id
 _symmetry_equiv_pos_as_xyz
  1  'x, y, z'
loop_
 _atom_site_type_symbol
 _atom_site_label
 _atom_site_symmetry_multiplicity
 _atom_site_fract_x
 _atom_site_fract_y
 _atom_site_fract_z
 _atom_site_occupancy
  Re  Re0  1  0.98598500  0.39463600  0.38795400  1
  Re  Re1  1  0.51401500  0.89463600  0.61204600  1
  Re  Re2  1  0.01401500  0.60536400  0.61204600  1
  Re  Re3  1  0.48598500  0.10536400  0.38795400  1
  Re  Re4  1  0.01401500  0.10536400  0.88795400  1
  Re  Re5  1  0.98598500  0.89463600  0.11204600  1
  Re  Re6  1  0.51401500  0.39463600  0.88795400  1
  Re  Re7  1  0.48598500  0.60536400  0.11204600  1
  Bi  Bi8  1  0.95071600  0.82263800  0.78845000  1
  Bi  Bi9  1  0.04928400  0.17736200  0.21155000  1
  Bi  Bi10  1  0.54928400  0.32263800  0.21155000  1
  Bi  Bi11  1  0.04928400  0.67736200  0.28845000  1
  Bi  Bi12  1  0.45071600  0.17736200  0.71155000  1
  Bi  Bi13  1  0.45071600  0.67736200  0.78845000  1
  Bi  Bi14  1  0.54928400  0.82263800  0.28845000  1
  Bi  Bi15  1  0.95071600  0.32263800  0.71155000  1
  O  O16  1  0.91743300  0.30388700  0.30900300  1
  O  O17  1  0.24404900  0.05124800  0.92658000  1
  O  O18  1  0.25595100  0.55124800  0.07342000  1
  O  O19  1  0.23945500  0.78155700  0.84411300  1
  O  O20  1  0.26054500  0.28155700  0.15588700  1
  O  O21  1  0.91743300  0.80388700  0.19099700  1
  O  O22  1  0.26054500  0.78155700  0.34411300  1
  O  O23  1  0.58256700  0.80388700  0.69099700  1
  O  O24  1  0.24404900  0.55124800  0.57342000  1
  O  O25  1  0.08256700  0.69611300  0.69099700  1
  O  O26  1  0.58256700  0.30388700  0.80900300  1
  O  O27  1  0.62256200  0.17115600  0.46171000  1
  O  O28  1  0.74404900  0.94875200  0.57342000  1
  O  O29  1  0.76054500  0.71844300  0.34411300  1
  O  O30  1  0.14309800  0.00047500  0.15071000  1
  O  O31  1  0.74404900  0.44875200  0.92658000  1
  O  O32  1  0.08256700  0.19611300  0.80900300  1
  O  O33  1  0.73945500  0.21844300  0.65588700  1
  O  O34  1  0.12256200  0.82884400  0.03829000  1
  O  O35  1  0.25595100  0.05124800  0.42658000  1
  O  O36  1  0.37743800  0.82884400  0.53829000  1
  O  O37  1  0.85690200  0.99952500  0.84929000  1
  O  O38  1  0.76054500  0.21844300  0.15588700  1
  O  O39  1  0.64309800  0.99952500  0.34929000  1
  O  O40  1  0.37743800  0.32884400  0.96171000  1
  O  O41  1  0.12256200  0.32884400  0.46171000  1
  O  O42  1  0.75595100  0.44875200  0.42658000  1
  O  O43  1  0.75595100  0.94875200  0.07342000  1
  O  O44  1  0.64309800  0.49952500  0.15071000  1
  O  O45  1  0.87743800  0.67115600  0.53829000  1
  O  O46  1  0.87743800  0.17115600  0.96171000  1
  O  O47  1  0.62256200  0.67115600  0.03829000  1
  O  O48  1  0.85690200  0.49952500  0.65071000  1
  O  O49  1  0.73945500  0.71844300  0.84411300  1
  O  O50  1  0.23945500  0.28155700  0.65588700  1
  O  O51  1  0.14309800  0.50047500  0.34929000  1
  O  O52  1  0.35690200  0.50047500  0.84929000  1
  O  O53  1  0.41743300  0.19611300  0.30900300  1
  O  O54  1  0.35690200  0.00047500  0.65071000  1
  O  O55  1  0.41743300  0.69611300  0.19099700  1
