# generated using pymatgen
data_BaAlCuAgO5
_symmetry_space_group_name_H-M   'P 1'
_cell_length_a   3.76853300
_cell_length_b   3.76853300
_cell_length_c   8.31789700
_cell_angle_alpha   90.00000000
_cell_angle_beta   90.00000000
_cell_angle_gamma   90.00000000
_symmetry_Int_Tables_number   1
_chemical_formula_structural   BaAlCuAgO5
_chemical_formula_sum   'Ba1 Al1 Cu1 Ag1 O5'
_cell_volume   118.12945042
_cell_formula_units_Z   1
loop_
 _symmetry_equiv_pos_site_id
 _symmetry_equiv_pos_as_xyz
  1  'x, y, z'
loop_
 _atom_site_type_symbol
 _atom_site_label
 _atom_site_symmetry_multiplicity
 _atom_site_fract_x
 _atom_site_fract_y
 _atom_site_fract_z
 _atom_site_occupancy
  Ba  Ba0  1  0.00000000  0.00000000  0.00706000  1
  Al  Al1  1  0.00000000  0.00000000  0.45859700  1
  Cu  Cu2  1  0.50000000  0.50000000  0.25140700  1
  Ag  Ag3  1  0.50000000  0.50000000  0.69415600  1
  O  O4  1  0.00000000  0.50000000  0.59084100  1
  O  O5  1  0.50000000  0.00000000  0.59084100  1
  O  O6  1  0.00000000  0.50000000  0.30753000  1
  O  O7  1  0.50000000  0.00000000  0.30753000  1
  O  O8  1  0.50000000  0.50000000  0.98001400  1
