# generated using pymatgen
data_SnAs2O7
_symmetry_space_group_name_H-M   'P 1'
_cell_length_a   9.32139200
_cell_length_b   7.27874900
_cell_length_c   9.74738750
_cell_angle_alpha   73.64922461
_cell_angle_beta   90.00000000
_cell_angle_gamma   90.00000000
_symmetry_Int_Tables_number   1
_chemical_formula_structural   SnAs2O7
_chemical_formula_sum   'Sn4 As8 O28'
_cell_volume   634.59428673
_cell_formula_units_Z   4
loop_
 _symmetry_equiv_pos_site_id
 _symmetry_equiv_pos_as_xyz
  1  'x, y, z'
loop_
 _atom_site_type_symbol
 _atom_site_label
 _atom_site_symmetry_multiplicity
 _atom_site_fract_x
 _atom_site_fract_y
 _atom_site_fract_z
 _atom_site_occupancy
  Sn  Sn0  1  0.92926600  0.18888000  0.71295700  1
  Sn  Sn1  1  0.42926600  0.81112000  0.78704300  1
  Sn  Sn2  1  0.07073400  0.81112000  0.28704300  1
  Sn  Sn3  1  0.57073400  0.18888000  0.21295700  1
  As  As4  1  0.75020200  0.58631900  0.75367500  1
  As  As5  1  0.25020200  0.41368100  0.74632500  1
  As  As6  1  0.24979800  0.41368100  0.24632500  1
  As  As7  1  0.74979800  0.58631900  0.25367500  1
  As  As8  1  0.70709900  0.96381800  0.96710600  1
  As  As9  1  0.20709900  0.03618200  0.53289400  1
  As  As10  1  0.29290100  0.03618200  0.03289400  1
  As  As11  1  0.79290100  0.96381800  0.46710600  1
  O  O12  1  0.68180100  0.14832000  0.04304200  1
  O  O13  1  0.18180100  0.85168000  0.45695800  1
  O  O14  1  0.31819900  0.85168000  0.95695800  1
  O  O15  1  0.81819900  0.14832000  0.54304200  1
  O  O16  1  0.56578700  0.62794500  0.73296300  1
  O  O17  1  0.06578700  0.37205500  0.76703700  1
  O  O18  1  0.43421300  0.37205500  0.26703700  1
  O  O19  1  0.93421300  0.62794500  0.23296300  1
  O  O20  1  0.82722800  0.61893100  0.89631900  1
  O  O21  1  0.32722800  0.38106900  0.60368100  1
  O  O22  1  0.17277200  0.38106900  0.10368100  1
  O  O23  1  0.67277200  0.61893100  0.39631900  1
  O  O24  1  0.83467600  0.74964600  0.59423700  1
  O  O25  1  0.33467600  0.25035400  0.90576300  1
  O  O26  1  0.16532400  0.25035400  0.40576300  1
  O  O27  1  0.66532400  0.74964600  0.09423700  1
  O  O28  1  0.90737000  0.98108700  0.32611800  1
  O  O29  1  0.40737000  0.01891300  0.17388200  1
  O  O30  1  0.09263000  0.01891300  0.67388200  1
  O  O31  1  0.59263000  0.98108700  0.82611800  1
  O  O32  1  0.73591900  0.37102800  0.21309100  1
  O  O33  1  0.23591900  0.62897200  0.28690900  1
  O  O34  1  0.26408100  0.62897200  0.78690900  1
  O  O35  1  0.76408100  0.37102800  0.71309100  1
  O  O36  1  0.62066400  0.99617500  0.40180300  1
  O  O37  1  0.12066400  0.00382500  0.09819700  1
  O  O38  1  0.37933600  0.00382500  0.59819700  1
  O  O39  1  0.87933600  0.99617500  0.90180300  1
