# generated using pymatgen
data_MgTaBiO5
_symmetry_space_group_name_H-M   'P 1'
_cell_length_a   5.25515300
_cell_length_b   10.43415100
_cell_length_c   16.21018000
_cell_angle_alpha   90.00000000
_cell_angle_beta   90.00000000
_cell_angle_gamma   90.00000000
_symmetry_Int_Tables_number   1
_chemical_formula_structural   MgTaBiO5
_chemical_formula_sum   'Mg8 Ta8 Bi8 O40'
_cell_volume   888.85377142
_cell_formula_units_Z   8
loop_
 _symmetry_equiv_pos_site_id
 _symmetry_equiv_pos_as_xyz
  1  'x, y, z'
loop_
 _atom_site_type_symbol
 _atom_site_label
 _atom_site_symmetry_multiplicity
 _atom_site_fract_x
 _atom_site_fract_y
 _atom_site_fract_z
 _atom_site_occupancy
  Mg  Mg0  1  0.52227000  0.37408800  0.55361600  1
  Mg  Mg1  1  0.02227000  0.12591200  0.55361600  1
  Mg  Mg2  1  0.02227000  0.62591200  0.94638400  1
  Mg  Mg3  1  0.97773000  0.37408800  0.05361600  1
  Mg  Mg4  1  0.47773000  0.12591200  0.05361600  1
  Mg  Mg5  1  0.97773000  0.87408800  0.44638400  1
  Mg  Mg6  1  0.47773000  0.62591200  0.44638400  1
  Mg  Mg7  1  0.52227000  0.87408800  0.94638400  1
  Ta  Ta8  1  0.99956300  0.37629800  0.41714400  1
  Ta  Ta9  1  0.50043700  0.87629800  0.58285600  1
  Ta  Ta10  1  0.00043700  0.62370200  0.58285600  1
  Ta  Ta11  1  0.49956300  0.12370200  0.41714400  1
  Ta  Ta12  1  0.00043700  0.12370200  0.91714400  1
  Ta  Ta13  1  0.99956300  0.87629800  0.08285600  1
  Ta  Ta14  1  0.50043700  0.37629800  0.91714400  1
  Ta  Ta15  1  0.49956300  0.62370200  0.08285600  1
  Bi  Bi16  1  0.99506000  0.85904300  0.77657000  1
  Bi  Bi17  1  0.00494000  0.14095700  0.22343000  1
  Bi  Bi18  1  0.50494000  0.35904300  0.22343000  1
  Bi  Bi19  1  0.00494000  0.64095700  0.27657000  1
  Bi  Bi20  1  0.49506000  0.14095700  0.72343000  1
  Bi  Bi21  1  0.49506000  0.64095700  0.77657000  1
  Bi  Bi22  1  0.50494000  0.85904300  0.27657000  1
  Bi  Bi23  1  0.99506000  0.35904300  0.72343000  1
  O  O24  1  0.88567500  0.31526000  0.31412600  1
  O  O25  1  0.26507400  0.02366100  0.96031100  1
  O  O26  1  0.23492600  0.52366100  0.03968900  1
  O  O27  1  0.33199500  0.79479100  0.84571800  1
  O  O28  1  0.16800500  0.29479100  0.15428200  1
  O  O29  1  0.88567500  0.81526000  0.18587400  1
  O  O30  1  0.16800500  0.79479100  0.34571800  1
  O  O31  1  0.61432500  0.81526000  0.68587400  1
  O  O32  1  0.26507400  0.52366100  0.53968900  1
  O  O33  1  0.11432500  0.68474000  0.68587400  1
  O  O34  1  0.61432500  0.31526000  0.81412600  1
  O  O35  1  0.75067400  0.22510600  0.47680600  1
  O  O36  1  0.76507400  0.97633900  0.53968900  1
  O  O37  1  0.66800500  0.70520900  0.34571800  1
  O  O38  1  0.20586300  0.01373800  0.12616000  1
  O  O39  1  0.76507400  0.47633900  0.96031100  1
  O  O40  1  0.11432500  0.18474000  0.81412600  1
  O  O41  1  0.83199500  0.20520900  0.65428200  1
  O  O42  1  0.25067400  0.77489400  0.02319400  1
  O  O43  1  0.23492600  0.02366100  0.46031100  1
  O  O44  1  0.24932600  0.77489400  0.52319400  1
  O  O45  1  0.79413700  0.98626200  0.87384000  1
  O  O46  1  0.66800500  0.20520900  0.15428200  1
  O  O47  1  0.70586300  0.98626200  0.37384000  1
  O  O48  1  0.24932600  0.27489400  0.97680600  1
  O  O49  1  0.25067400  0.27489400  0.47680600  1
  O  O50  1  0.73492600  0.47633900  0.46031100  1
  O  O51  1  0.73492600  0.97633900  0.03968900  1
  O  O52  1  0.70586300  0.48626200  0.12616000  1
  O  O53  1  0.74932600  0.72510600  0.52319400  1
  O  O54  1  0.74932600  0.22510600  0.97680600  1
  O  O55  1  0.75067400  0.72510600  0.02319400  1
  O  O56  1  0.79413700  0.48626200  0.62616000  1
  O  O57  1  0.83199500  0.70520900  0.84571800  1
  O  O58  1  0.33199500  0.29479100  0.65428200  1
  O  O59  1  0.20586300  0.51373800  0.37384000  1
  O  O60  1  0.29413700  0.51373800  0.87384000  1
  O  O61  1  0.38567500  0.18474000  0.31412600  1
  O  O62  1  0.29413700  0.01373800  0.62616000  1
  O  O63  1  0.38567500  0.68474000  0.18587400  1
