# generated using pymatgen
data_Zn(CoO2)2
_symmetry_space_group_name_H-M   'P 1'
_cell_length_a   2.92739982
_cell_length_b   9.74213473
_cell_length_c   9.69061310
_cell_angle_alpha   89.99040038
_cell_angle_beta   90.09021003
_cell_angle_gamma   90.13285042
_symmetry_Int_Tables_number   1
_chemical_formula_structural   Zn(CoO2)2
_chemical_formula_sum   'Zn4 Co8 O16'
_cell_volume   276.36670168
_cell_formula_units_Z   4
loop_
 _symmetry_equiv_pos_site_id
 _symmetry_equiv_pos_as_xyz
  1  'x, y, z'
loop_
 _atom_site_type_symbol
 _atom_site_label
 _atom_site_symmetry_multiplicity
 _atom_site_fract_x
 _atom_site_fract_y
 _atom_site_fract_z
 _atom_site_occupancy
  Zn  Zn0  1  0.26245800  0.74776300  0.13736800  1
  Zn  Zn1  1  0.26466500  0.25122700  0.36180500  1
  Zn  Zn2  1  0.73292800  0.75637600  0.63999800  1
  Zn  Zn3  1  0.73458200  0.24981300  0.86140400  1
  Co  Co4  1  0.75481600  0.57157600  0.38317000  1
  Co  Co5  1  0.75145700  0.07196800  0.11831600  1
  Co  Co6  1  0.24623500  0.07144000  0.61729000  1
  Co  Co7  1  0.75851800  0.42962900  0.11831200  1
  Co  Co8  1  0.24614100  0.42951400  0.61781600  1
  Co  Co9  1  0.75333600  0.92841900  0.38097600  1
  Co  Co10  1  0.24264600  0.92990700  0.88290000  1
  Co  Co11  1  0.25084500  0.57107100  0.88126800  1
  O  O12  1  0.25070300  0.88674100  0.52481600  1
  O  O13  1  0.74864700  0.11182800  0.47380800  1
  O  O14  1  0.25356500  0.99884300  0.24912800  1
  O  O15  1  0.74162300  0.88865300  0.02493600  1
  O  O16  1  0.75449300  0.61357400  0.02605800  1
  O  O17  1  0.76443900  0.24984400  0.20800000  1
  O  O18  1  0.24912100  0.11398200  0.97378700  1
  O  O19  1  0.23540100  0.24893700  0.70771300  1
  O  O20  1  0.25584100  0.49892500  0.25072200  1
  O  O21  1  0.74321800  0.99682000  0.74885100  1
  O  O22  1  0.25454900  0.61222200  0.52577000  1
  O  O23  1  0.23436300  0.74928500  0.79321400  1
  O  O24  1  0.76130800  0.74908000  0.29138900  1
  O  O25  1  0.74756200  0.49740600  0.75093700  1
  O  O26  1  0.25999400  0.38829100  0.97541500  1
  O  O27  1  0.74654300  0.38686600  0.47483400  1
