# generated using pymatgen
data_ZnCr2CoO7
_symmetry_space_group_name_H-M   'P 1'
_cell_length_a   14.52070800
_cell_length_b   6.48188700
_cell_length_c   11.80018866
_cell_angle_alpha   77.79986322
_cell_angle_beta   90.00000000
_cell_angle_gamma   90.00000000
_symmetry_Int_Tables_number   1
_chemical_formula_structural   ZnCr2CoO7
_chemical_formula_sum   'Zn8 Cr16 Co8 O56'
_cell_volume   1085.56884661
_cell_formula_units_Z   8
loop_
 _symmetry_equiv_pos_site_id
 _symmetry_equiv_pos_as_xyz
  1  'x, y, z'
loop_
 _atom_site_type_symbol
 _atom_site_label
 _atom_site_symmetry_multiplicity
 _atom_site_fract_x
 _atom_site_fract_y
 _atom_site_fract_z
 _atom_site_occupancy
  Zn  Zn0  1  0.51275500  0.95340700  0.76951300  1
  Zn  Zn1  1  0.88542800  0.69472900  0.91316700  1
  Zn  Zn2  1  0.38542800  0.30527100  0.58683300  1
  Zn  Zn3  1  0.11457200  0.30527100  0.08683300  1
  Zn  Zn4  1  0.61457200  0.69472900  0.41316700  1
  Zn  Zn5  1  0.98724500  0.95340700  0.26951300  1
  Zn  Zn6  1  0.48724500  0.04659300  0.23048700  1
  Zn  Zn7  1  0.01275500  0.04659300  0.73048700  1
  Cr  Cr8  1  0.89423000  0.17000400  0.99424400  1
  Cr  Cr9  1  0.01793400  0.56917400  0.68689200  1
  Cr  Cr10  1  0.48206600  0.56917400  0.18689200  1
  Cr  Cr11  1  0.98206600  0.43082600  0.31310800  1
  Cr  Cr12  1  0.70640100  0.50512300  0.77566300  1
  Cr  Cr13  1  0.20640100  0.49487700  0.72433700  1
  Cr  Cr14  1  0.29359900  0.49487700  0.22433700  1
  Cr  Cr15  1  0.79359900  0.50512300  0.27566300  1
  Cr  Cr16  1  0.51793400  0.43082600  0.81310800  1
  Cr  Cr17  1  0.13980500  0.13190900  0.48627600  1
  Cr  Cr18  1  0.63980500  0.86809100  0.01372400  1
  Cr  Cr19  1  0.86019500  0.86809100  0.51372400  1
  Cr  Cr20  1  0.39423000  0.82999600  0.50575600  1
  Cr  Cr21  1  0.60577000  0.17000400  0.49424400  1
  Cr  Cr22  1  0.10577000  0.82999600  0.00575600  1
  Cr  Cr23  1  0.36019500  0.13190900  0.98627600  1
  Co  Co24  1  0.66045400  0.36575800  0.07065600  1
  Co  Co25  1  0.16045400  0.63424200  0.42934400  1
  Co  Co26  1  0.33954600  0.63424200  0.92934400  1
  Co  Co27  1  0.83954600  0.36575800  0.57065600  1
  Co  Co28  1  0.76407900  0.00816600  0.23836000  1
  Co  Co29  1  0.26407900  0.99183400  0.26164000  1
  Co  Co30  1  0.23592100  0.99183400  0.76164000  1
  Co  Co31  1  0.73592100  0.00816600  0.73836000  1
  O  O32  1  0.00244300  0.24301000  0.97999800  1
  O  O33  1  0.50244300  0.75699000  0.52000200  1
  O  O34  1  0.99755700  0.75699000  0.02000200  1
  O  O35  1  0.49755700  0.24301000  0.47999800  1
  O  O36  1  0.86288100  0.01532200  0.90113900  1
  O  O37  1  0.36288100  0.98467800  0.59886100  1
  O  O38  1  0.13711900  0.98467800  0.09886100  1
  O  O39  1  0.63711900  0.01532200  0.40113900  1
  O  O40  1  0.87842300  0.03621000  0.13212900  1
  O  O41  1  0.37842300  0.96379000  0.36787100  1
  O  O42  1  0.12157700  0.96379000  0.86787100  1
  O  O43  1  0.62157700  0.03621000  0.63212900  1
  O  O44  1  0.28531000  0.33830200  0.95655600  1
  O  O45  1  0.78531000  0.66169800  0.54344400  1
  O  O46  1  0.71469000  0.66169800  0.04344400  1
  O  O47  1  0.21469000  0.33830200  0.45655600  1
  O  O48  1  0.36730900  0.03759800  0.13684200  1
  O  O49  1  0.86730900  0.96240200  0.36315800  1
  O  O50  1  0.63269100  0.96240200  0.86315800  1
  O  O51  1  0.13269100  0.03759800  0.63684200  1
  O  O52  1  0.32916000  0.94767400  0.90274500  1
  O  O53  1  0.45613700  0.66788200  0.82159400  1
  O  O54  1  0.82916000  0.05232600  0.59725500  1
  O  O55  1  0.17084000  0.94767400  0.40274500  1
  O  O56  1  0.47395300  0.25442300  0.72241500  1
  O  O57  1  0.97395300  0.74557700  0.77758500  1
  O  O58  1  0.52604700  0.74557700  0.27758500  1
  O  O59  1  0.02604700  0.25442300  0.22241500  1
  O  O60  1  0.46729600  0.23494900  0.94790900  1
  O  O61  1  0.96729600  0.76505100  0.55209100  1
  O  O62  1  0.53270400  0.76505100  0.05209100  1
  O  O63  1  0.03270400  0.23494900  0.44790900  1
  O  O64  1  0.89307300  0.57891800  0.19648900  1
  O  O65  1  0.39307300  0.42108200  0.30351100  1
  O  O66  1  0.10692700  0.42108200  0.80351100  1
  O  O67  1  0.60692700  0.57891800  0.69648900  1
  O  O68  1  0.74014900  0.30919100  0.22340700  1
  O  O69  1  0.24014900  0.69080900  0.27659300  1
  O  O70  1  0.25985100  0.69080900  0.77659300  1
  O  O71  1  0.75985100  0.30919100  0.72340700  1
  O  O72  1  0.66781300  0.39429000  0.46699200  1
  O  O73  1  0.16781300  0.60571000  0.03300800  1
  O  O74  1  0.33218700  0.60571000  0.53300800  1
  O  O75  1  0.83218700  0.39429000  0.96699200  1
  O  O76  1  0.72842200  0.71454200  0.29585500  1
  O  O77  1  0.22842200  0.28545800  0.20414500  1
  O  O78  1  0.27157800  0.28545800  0.70414500  1
  O  O79  1  0.77157800  0.71454200  0.79585500  1
  O  O80  1  0.87024400  0.40555700  0.39754300  1
  O  O81  1  0.37024400  0.59444300  0.10245700  1
  O  O82  1  0.12975600  0.59444300  0.60245700  1
  O  O83  1  0.62975600  0.40555700  0.89754300  1
  O  O84  1  0.04386300  0.66788200  0.32159400  1
  O  O85  1  0.54386300  0.33211800  0.17840600  1
  O  O86  1  0.95613700  0.33211800  0.67840600  1
  O  O87  1  0.67084000  0.05232600  0.09725500  1
