# generated using pymatgen
data_Ca2Cr3O8
_symmetry_space_group_name_H-M   'P 1'
_cell_length_a   6.01356470
_cell_length_b   6.01356470
_cell_length_c   10.56209300
_cell_angle_alpha   90.00000000
_cell_angle_beta   90.00000000
_cell_angle_gamma   120.00000771
_symmetry_Int_Tables_number   1
_chemical_formula_structural   Ca2Cr3O8
_chemical_formula_sum   'Ca4 Cr6 O16'
_cell_volume   330.78405059
_cell_formula_units_Z   2
loop_
 _symmetry_equiv_pos_site_id
 _symmetry_equiv_pos_as_xyz
  1  'x, y, z'
loop_
 _atom_site_type_symbol
 _atom_site_label
 _atom_site_symmetry_multiplicity
 _atom_site_fract_x
 _atom_site_fract_y
 _atom_site_fract_z
 _atom_site_occupancy
  Ca  Ca0  1  0.66666700  0.33333300  0.02310700  1
  Ca  Ca1  1  0.33333300  0.66666700  0.52310700  1
  Ca  Ca2  1  0.66666700  0.33333300  0.43080600  1
  Ca  Ca3  1  0.33333300  0.66666700  0.93080600  1
  Cr  Cr4  1  0.67263100  0.83631600  0.24549000  1
  Cr  Cr5  1  0.83631600  0.16368400  0.74549000  1
  Cr  Cr6  1  0.16368400  0.32736900  0.24549000  1
  Cr  Cr7  1  0.83631600  0.67263100  0.74549000  1
  Cr  Cr8  1  0.32736900  0.16368400  0.74549000  1
  Cr  Cr9  1  0.16368400  0.83631600  0.24549000  1
  O  O10  1  0.84466200  0.15533800  0.15771600  1
  O  O11  1  0.68932400  0.84466200  0.65771600  1
  O  O12  1  0.15533800  0.31067600  0.65771600  1
  O  O13  1  0.84466200  0.68932400  0.15771600  1
  O  O14  1  0.31067600  0.15533800  0.15771600  1
  O  O15  1  0.15533800  0.84466200  0.65771600  1
  O  O16  1  0.52352600  0.47647400  0.84693100  1
  O  O17  1  0.04705200  0.52352600  0.34693100  1
  O  O18  1  0.47647400  0.95294800  0.34693100  1
  O  O19  1  0.52352600  0.04705200  0.84693100  1
  O  O20  1  0.00000000  0.00000000  0.34546900  1
  O  O21  1  0.00000000  0.00000000  0.84546900  1
  O  O22  1  0.33333300  0.66666700  0.14370800  1
  O  O23  1  0.95294800  0.47647400  0.84693100  1
  O  O24  1  0.47647400  0.52352600  0.34693100  1
  O  O25  1  0.66666700  0.33333300  0.64370800  1
