# generated using pymatgen
data_Ca2Sn3O8
_symmetry_space_group_name_H-M   'P 1'
_cell_length_a   6.48343799
_cell_length_b   6.48343799
_cell_length_c   10.53257800
_cell_angle_alpha   90.00000000
_cell_angle_beta   90.00000000
_cell_angle_gamma   119.99999990
_symmetry_Int_Tables_number   1
_chemical_formula_structural   Ca2Sn3O8
_chemical_formula_sum   'Ca4 Sn6 O16'
_cell_volume   383.42112669
_cell_formula_units_Z   2
loop_
 _symmetry_equiv_pos_site_id
 _symmetry_equiv_pos_as_xyz
  1  'x, y, z'
loop_
 _atom_site_type_symbol
 _atom_site_label
 _atom_site_symmetry_multiplicity
 _atom_site_fract_x
 _atom_site_fract_y
 _atom_site_fract_z
 _atom_site_occupancy
  Ca  Ca0  1  0.66666700  0.33333300  0.03072300  1
  Ca  Ca1  1  0.33333300  0.66666700  0.53072300  1
  Ca  Ca2  1  0.66666700  0.33333300  0.40871900  1
  Ca  Ca3  1  0.33333300  0.66666700  0.90871900  1
  Sn  Sn4  1  0.67059700  0.83529800  0.24564200  1
  Sn  Sn5  1  0.83529800  0.16470200  0.74564200  1
  Sn  Sn6  1  0.16470200  0.32940300  0.24564200  1
  Sn  Sn7  1  0.83529800  0.67059700  0.74564200  1
  Sn  Sn8  1  0.32940300  0.16470200  0.74564200  1
  Sn  Sn9  1  0.16470200  0.83529800  0.24564200  1
  O  O10  1  0.83701800  0.16298200  0.15401400  1
  O  O11  1  0.67403600  0.83701800  0.65401400  1
  O  O12  1  0.16298200  0.32596400  0.65401400  1
  O  O13  1  0.83701800  0.67403600  0.15401400  1
  O  O14  1  0.32596400  0.16298200  0.15401400  1
  O  O15  1  0.16298200  0.83701800  0.65401400  1
  O  O16  1  0.52412900  0.47587100  0.85648400  1
  O  O17  1  0.04825800  0.52412900  0.35648400  1
  O  O18  1  0.47587100  0.95174200  0.35648400  1
  O  O19  1  0.52412900  0.04825800  0.85648400  1
  O  O20  1  0.00000000  0.00000000  0.35024400  1
  O  O21  1  0.00000000  0.00000000  0.85024400  1
  O  O22  1  0.33333300  0.66666700  0.13539700  1
  O  O23  1  0.95174200  0.47587100  0.85648400  1
  O  O24  1  0.47587100  0.52412900  0.35648400  1
  O  O25  1  0.66666700  0.33333300  0.63539700  1
