# generated using pymatgen
data_ZnCrAs2O7
_symmetry_space_group_name_H-M   'P 1'
_cell_length_a   8.65619200
_cell_length_b   7.35977200
_cell_length_c   9.79367763
_cell_angle_alpha   67.11981009
_cell_angle_beta   90.00000000
_cell_angle_gamma   90.00000000
_symmetry_Int_Tables_number   1
_chemical_formula_structural   ZnCrAs2O7
_chemical_formula_sum   'Zn4 Cr4 As8 O28'
_cell_volume   574.84067820
_cell_formula_units_Z   4
loop_
 _symmetry_equiv_pos_site_id
 _symmetry_equiv_pos_as_xyz
  1  'x, y, z'
loop_
 _atom_site_type_symbol
 _atom_site_label
 _atom_site_symmetry_multiplicity
 _atom_site_fract_x
 _atom_site_fract_y
 _atom_site_fract_z
 _atom_site_occupancy
  Zn  Zn0  1  0.07025700  0.73007900  0.89626000  1
  Zn  Zn1  1  0.57025700  0.26992100  0.60374000  1
  Zn  Zn2  1  0.92974300  0.26992100  0.10374000  1
  Zn  Zn3  1  0.42974300  0.73007900  0.39626000  1
  Cr  Cr4  1  0.94384900  0.20050400  0.66713000  1
  Cr  Cr5  1  0.44384900  0.79949600  0.83287000  1
  Cr  Cr6  1  0.05615100  0.79949600  0.33287000  1
  Cr  Cr7  1  0.55615100  0.20050400  0.16713000  1
  As  As8  1  0.77436000  0.56460900  0.74940000  1
  As  As9  1  0.27436000  0.43539100  0.75060000  1
  As  As10  1  0.22564000  0.43539100  0.25060000  1
  As  As11  1  0.72564000  0.56460900  0.24940000  1
  As  As12  1  0.72797900  0.96916300  0.96292000  1
  As  As13  1  0.22797900  0.03083700  0.53708000  1
  As  As14  1  0.27202100  0.03083700  0.03708000  1
  As  As15  1  0.77202100  0.96916300  0.46292000  1
  O  O16  1  0.73450100  0.13538100  0.04704100  1
  O  O17  1  0.23450100  0.86461900  0.45295900  1
  O  O18  1  0.26549900  0.86461900  0.95295900  1
  O  O19  1  0.76549900  0.13538100  0.54704100  1
  O  O20  1  0.59684500  0.64294500  0.76572500  1
  O  O21  1  0.09684500  0.35705500  0.73427500  1
  O  O22  1  0.40315500  0.35705500  0.23427500  1
  O  O23  1  0.90315500  0.64294500  0.26572500  1
  O  O24  1  0.89925700  0.53383800  0.89300900  1
  O  O25  1  0.39925700  0.46616200  0.60699100  1
  O  O26  1  0.10074300  0.46616200  0.10699100  1
  O  O27  1  0.60074300  0.53383800  0.39300900  1
  O  O28  1  0.86111000  0.74610600  0.58759300  1
  O  O29  1  0.36111000  0.25389400  0.91240700  1
  O  O30  1  0.13889000  0.25389400  0.41240700  1
  O  O31  1  0.63889000  0.74610600  0.08759300  1
  O  O32  1  0.91282200  0.02250100  0.32968700  1
  O  O33  1  0.41282200  0.97749900  0.17031300  1
  O  O34  1  0.08717800  0.97749900  0.67031300  1
  O  O35  1  0.58717800  0.02250100  0.82968700  1
  O  O36  1  0.73592800  0.36375400  0.20117400  1
  O  O37  1  0.23592800  0.63624600  0.29882600  1
  O  O38  1  0.26407200  0.63624600  0.79882600  1
  O  O39  1  0.76407200  0.36375400  0.70117400  1
  O  O40  1  0.59680500  0.93652300  0.39982800  1
  O  O41  1  0.09680500  0.06347700  0.10017200  1
  O  O42  1  0.40319500  0.06347700  0.60017200  1
  O  O43  1  0.90319500  0.93652300  0.89982800  1
