# generated using pymatgen
data_YW3O8
_symmetry_space_group_name_H-M   'P 1'
_cell_length_a   5.85626400
_cell_length_b   5.44692600
_cell_length_c   10.97110319
_cell_angle_alpha   62.69522535
_cell_angle_beta   90.00000000
_cell_angle_gamma   90.00000000
_symmetry_Int_Tables_number   1
_chemical_formula_structural   YW3O8
_chemical_formula_sum   'Y2 W6 O16'
_cell_volume   310.96998387
_cell_formula_units_Z   2
loop_
 _symmetry_equiv_pos_site_id
 _symmetry_equiv_pos_as_xyz
  1  'x, y, z'
loop_
 _atom_site_type_symbol
 _atom_site_label
 _atom_site_symmetry_multiplicity
 _atom_site_fract_x
 _atom_site_fract_y
 _atom_site_fract_z
 _atom_site_occupancy
  Y  Y0  1  0.67377500  0.50000000  0.75000000  1
  Y  Y1  1  0.32622500  0.50000000  0.25000000  1
  W  W2  1  0.34113900  0.00000000  0.75000000  1
  W  W3  1  0.65886100  0.00000000  0.25000000  1
  W  W4  1  0.15077900  0.75441300  0.49813500  1
  W  W5  1  0.15077900  0.24558700  0.00186500  1
  W  W6  1  0.84922100  0.24558700  0.50186500  1
  W  W7  1  0.84922100  0.75441300  0.99813500  1
  O  O8  1  0.35870700  0.20016300  0.85798500  1
  O  O9  1  0.35870700  0.79983700  0.64201500  1
  O  O10  1  0.64129300  0.79983700  0.14201500  1
  O  O11  1  0.64129300  0.20016300  0.35798500  1
  O  O12  1  0.89285100  0.70108700  0.38140200  1
  O  O13  1  0.89285100  0.29891300  0.11859800  1
  O  O14  1  0.10714900  0.29891300  0.61859800  1
  O  O15  1  0.10714900  0.70108700  0.88140200  1
  O  O16  1  0.59623300  0.73996600  0.87017200  1
  O  O17  1  0.59623300  0.26003400  0.62982800  1
  O  O18  1  0.40376700  0.26003400  0.12982800  1
  O  O19  1  0.40376700  0.73996600  0.37017200  1
  O  O20  1  0.88812600  0.18345100  0.89734900  1
  O  O21  1  0.11187400  0.81654900  0.10265100  1
  O  O22  1  0.88812600  0.81654900  0.60265100  1
  O  O23  1  0.11187400  0.18345100  0.39734900  1
