# generated using pymatgen
data_CaSnAs2O7
_symmetry_space_group_name_H-M   'P 1'
_cell_length_a   9.47260900
_cell_length_b   7.91123300
_cell_length_c   9.97287974
_cell_angle_alpha   64.04908553
_cell_angle_beta   90.00000000
_cell_angle_gamma   90.00000000
_symmetry_Int_Tables_number   1
_chemical_formula_structural   CaSnAs2O7
_chemical_formula_sum   'Ca4 Sn4 As8 O28'
_cell_volume   672.01013828
_cell_formula_units_Z   4
loop_
 _symmetry_equiv_pos_site_id
 _symmetry_equiv_pos_as_xyz
  1  'x, y, z'
loop_
 _atom_site_type_symbol
 _atom_site_label
 _atom_site_symmetry_multiplicity
 _atom_site_fract_x
 _atom_site_fract_y
 _atom_site_fract_z
 _atom_site_occupancy
  Ca  Ca0  1  0.05350300  0.73630300  0.92278800  1
  Ca  Ca1  1  0.55350300  0.26369700  0.57721200  1
  Ca  Ca2  1  0.94649700  0.26369700  0.07721200  1
  Ca  Ca3  1  0.44649700  0.73630300  0.42278800  1
  Sn  Sn4  1  0.95240500  0.23920300  0.64412700  1
  Sn  Sn5  1  0.45240500  0.76079700  0.85587300  1
  Sn  Sn6  1  0.04759500  0.76079700  0.35587300  1
  Sn  Sn7  1  0.54759500  0.23920300  0.14412700  1
  As  As8  1  0.75611600  0.58469900  0.72504700  1
  As  As9  1  0.25611600  0.41530100  0.77495300  1
  As  As10  1  0.24388400  0.41530100  0.27495300  1
  As  As11  1  0.74388400  0.58469900  0.22504700  1
  As  As12  1  0.72422300  0.99639800  0.94067500  1
  As  As13  1  0.22422300  0.00360200  0.55932500  1
  As  As14  1  0.27577700  0.00360200  0.05932500  1
  As  As15  1  0.77577700  0.99639800  0.44067500  1
  O  O16  1  0.74090800  0.12526100  0.03845400  1
  O  O17  1  0.24090800  0.87473900  0.46154600  1
  O  O18  1  0.25909200  0.87473900  0.96154600  1
  O  O19  1  0.75909200  0.12526100  0.53845400  1
  O  O20  1  0.58738100  0.66865800  0.70561800  1
  O  O21  1  0.08738100  0.33134200  0.79438200  1
  O  O22  1  0.41261900  0.33134200  0.29438200  1
  O  O23  1  0.91261900  0.66865800  0.20561800  1
  O  O24  1  0.85932400  0.56420400  0.87202600  1
  O  O25  1  0.35932400  0.43579600  0.62797400  1
  O  O26  1  0.14067600  0.43579600  0.12797400  1
  O  O27  1  0.64067600  0.56420400  0.37202600  1
  O  O28  1  0.83793900  0.76450200  0.56171600  1
  O  O29  1  0.33793900  0.23549800  0.93828400  1
  O  O30  1  0.16206100  0.23549800  0.43828400  1
  O  O31  1  0.66206100  0.76450200  0.06171600  1
  O  O32  1  0.91287400  0.04469000  0.31969200  1
  O  O33  1  0.41287400  0.95531000  0.18030800  1
  O  O34  1  0.08712600  0.95531000  0.68030800  1
  O  O35  1  0.58712600  0.04469000  0.81969200  1
  O  O36  1  0.74362200  0.38649300  0.19621800  1
  O  O37  1  0.24362200  0.61350700  0.30378200  1
  O  O38  1  0.25637800  0.61350700  0.80378200  1
  O  O39  1  0.75637800  0.38649300  0.69621800  1
  O  O40  1  0.61458900  0.99011100  0.36238700  1
  O  O41  1  0.11458900  0.00988900  0.13761300  1
  O  O42  1  0.38541100  0.00988900  0.63761300  1
  O  O43  1  0.88541100  0.99011100  0.86238700  1
