# generated using pymatgen
data_MgBiWO5
_symmetry_space_group_name_H-M   'P 1'
_cell_length_a   5.13538000
_cell_length_b   10.19224600
_cell_length_c   18.30567200
_cell_angle_alpha   90.00000000
_cell_angle_beta   90.00000000
_cell_angle_gamma   90.00000000
_symmetry_Int_Tables_number   1
_chemical_formula_structural   MgBiWO5
_chemical_formula_sum   'Mg8 Bi8 W8 O40'
_cell_volume   958.13820809
_cell_formula_units_Z   8
loop_
 _symmetry_equiv_pos_site_id
 _symmetry_equiv_pos_as_xyz
  1  'x, y, z'
loop_
 _atom_site_type_symbol
 _atom_site_label
 _atom_site_symmetry_multiplicity
 _atom_site_fract_x
 _atom_site_fract_y
 _atom_site_fract_z
 _atom_site_occupancy
  Mg  Mg0  1  0.51901800  0.36121500  0.55685700  1
  Mg  Mg1  1  0.01901800  0.13878500  0.55685700  1
  Mg  Mg2  1  0.01901800  0.63878500  0.94314300  1
  Mg  Mg3  1  0.98098200  0.36121500  0.05685700  1
  Mg  Mg4  1  0.48098200  0.13878500  0.05685700  1
  Mg  Mg5  1  0.98098200  0.86121500  0.44314300  1
  Mg  Mg6  1  0.48098200  0.63878500  0.44314300  1
  Mg  Mg7  1  0.51901800  0.86121500  0.94314300  1
  Bi  Bi8  1  0.95218500  0.84716700  0.78991400  1
  Bi  Bi9  1  0.04781500  0.15283300  0.21008600  1
  Bi  Bi10  1  0.54781500  0.34716700  0.21008600  1
  Bi  Bi11  1  0.04781500  0.65283300  0.28991400  1
  Bi  Bi12  1  0.45218500  0.15283300  0.71008600  1
  Bi  Bi13  1  0.45218500  0.65283300  0.78991400  1
  Bi  Bi14  1  0.54781500  0.84716700  0.28991400  1
  Bi  Bi15  1  0.95218500  0.34716700  0.71008600  1
  W  W16  1  0.99490700  0.38083100  0.42341800  1
  W  W17  1  0.50509300  0.88083100  0.57658200  1
  W  W18  1  0.00509300  0.61916900  0.57658200  1
  W  W19  1  0.49490700  0.11916900  0.42341800  1
  W  W20  1  0.00509300  0.11916900  0.92341800  1
  W  W21  1  0.99490700  0.88083100  0.07658200  1
  W  W22  1  0.50509300  0.38083100  0.92341800  1
  W  W23  1  0.49490700  0.61916900  0.07658200  1
  O  O24  1  0.86493800  0.31865600  0.33998500  1
  O  O25  1  0.25919000  0.01778600  0.96700200  1
  O  O26  1  0.24081000  0.51778600  0.03299800  1
  O  O27  1  0.24901500  0.78056800  0.87199400  1
  O  O28  1  0.25098500  0.28056800  0.12800600  1
  O  O29  1  0.86493800  0.81865600  0.16001500  1
  O  O30  1  0.25098500  0.78056800  0.37199400  1
  O  O31  1  0.63506200  0.81865600  0.66001500  1
  O  O32  1  0.25919000  0.51778600  0.53299800  1
  O  O33  1  0.13506200  0.68134400  0.66001500  1
  O  O34  1  0.63506200  0.31865600  0.83998500  1
  O  O35  1  0.73188700  0.22799100  0.47693500  1
  O  O36  1  0.75918900  0.98221400  0.53299800  1
  O  O37  1  0.75098500  0.71943200  0.37199400  1
  O  O38  1  0.21251300  0.01012800  0.11505400  1
  O  O39  1  0.75918900  0.48221400  0.96700200  1
  O  O40  1  0.13506200  0.18134400  0.83998500  1
  O  O41  1  0.74901500  0.21943200  0.62800600  1
  O  O42  1  0.23188700  0.77200900  0.02306500  1
  O  O43  1  0.24081000  0.01778600  0.46700200  1
  O  O44  1  0.26811300  0.77200900  0.52306500  1
  O  O45  1  0.78748700  0.98987200  0.88494600  1
  O  O46  1  0.75098500  0.21943200  0.12800600  1
  O  O47  1  0.71251300  0.98987200  0.38494600  1
  O  O48  1  0.26811300  0.27200900  0.97693500  1
  O  O49  1  0.23188700  0.27200900  0.47693500  1
  O  O50  1  0.74081100  0.48221400  0.46700200  1
  O  O51  1  0.74081100  0.98221400  0.03299800  1
  O  O52  1  0.71251300  0.48987200  0.11505400  1
  O  O53  1  0.76811300  0.72799100  0.52306500  1
  O  O54  1  0.76811300  0.22799100  0.97693500  1
  O  O55  1  0.73188700  0.72799100  0.02306500  1
  O  O56  1  0.78748700  0.48987200  0.61505400  1
  O  O57  1  0.74901500  0.71943200  0.87199400  1
  O  O58  1  0.24901500  0.28056800  0.62800600  1
  O  O59  1  0.21251300  0.51012800  0.38494600  1
  O  O60  1  0.28748700  0.51012800  0.88494600  1
  O  O61  1  0.36493800  0.18134400  0.33998500  1
  O  O62  1  0.28748700  0.01012800  0.61505400  1
  O  O63  1  0.36493800  0.68134400  0.16001500  1
