# generated using pymatgen
data_Cu3(SbO3)4
_symmetry_space_group_name_H-M   'P 1'
_cell_length_a   6.66784655
_cell_length_b   6.66784655
_cell_length_c   6.66784655
_cell_angle_alpha   109.47122063
_cell_angle_beta   109.47122063
_cell_angle_gamma   109.47122063
_symmetry_Int_Tables_number   1
_chemical_formula_structural   Cu3(SbO3)4
_chemical_formula_sum   'Cu3 Sb4 O12'
_cell_volume   228.21011985
_cell_formula_units_Z   1
loop_
 _symmetry_equiv_pos_site_id
 _symmetry_equiv_pos_as_xyz
  1  'x, y, z'
loop_
 _atom_site_type_symbol
 _atom_site_label
 _atom_site_symmetry_multiplicity
 _atom_site_fract_x
 _atom_site_fract_y
 _atom_site_fract_z
 _atom_site_occupancy
  Cu  Cu0  1  0.50000000  0.50000000  0.00000000  1
  Cu  Cu1  1  0.50000000  0.00000000  0.50000000  1
  Cu  Cu2  1  0.00000000  0.50000000  0.50000000  1
  Sb  Sb3  1  0.50000000  0.50000000  0.50000000  1
  Sb  Sb4  1  0.00000000  0.50000000  0.00000000  1
  Sb  Sb5  1  0.00000000  0.00000000  0.50000000  1
  Sb  Sb6  1  0.50000000  0.00000000  0.00000000  1
  O  O7  1  0.31418500  0.81484200  0.12902700  1
  O  O8  1  0.68581500  0.18515800  0.87097300  1
  O  O9  1  0.68581500  0.81484200  0.50065800  1
  O  O10  1  0.87097300  0.68581500  0.18515800  1
  O  O11  1  0.81484200  0.12902700  0.31418500  1
  O  O12  1  0.18515800  0.49934200  0.31418500  1
  O  O13  1  0.49934200  0.31418500  0.18515800  1
  O  O14  1  0.18515800  0.87097300  0.68581500  1
  O  O15  1  0.31418500  0.18515800  0.49934200  1
  O  O16  1  0.12902700  0.31418500  0.81484200  1
  O  O17  1  0.81484200  0.50065800  0.68581500  1
  O  O18  1  0.50065800  0.68581500  0.81484200  1
