# generated using pymatgen
data_Ca2Ti3O8
_symmetry_space_group_name_H-M   'P 1'
_cell_length_a   6.09280619
_cell_length_b   6.09280619
_cell_length_c   10.61944600
_cell_angle_alpha   90.00000000
_cell_angle_beta   90.00000000
_cell_angle_gamma   120.00000210
_symmetry_Int_Tables_number   1
_chemical_formula_structural   Ca2Ti3O8
_chemical_formula_sum   'Ca4 Ti6 O16'
_cell_volume   341.40290410
_cell_formula_units_Z   2
loop_
 _symmetry_equiv_pos_site_id
 _symmetry_equiv_pos_as_xyz
  1  'x, y, z'
loop_
 _atom_site_type_symbol
 _atom_site_label
 _atom_site_symmetry_multiplicity
 _atom_site_fract_x
 _atom_site_fract_y
 _atom_site_fract_z
 _atom_site_occupancy
  Ca  Ca0  1  0.66666700  0.33333300  0.02399000  1
  Ca  Ca1  1  0.33333300  0.66666700  0.52399000  1
  Ca  Ca2  1  0.66666700  0.33333300  0.42818300  1
  Ca  Ca3  1  0.33333300  0.66666700  0.92818300  1
  Ti  Ti4  1  0.67349000  0.83674500  0.24532400  1
  Ti  Ti5  1  0.83674500  0.16325500  0.74532400  1
  Ti  Ti6  1  0.16325500  0.32651000  0.24532400  1
  Ti  Ti7  1  0.83674500  0.67349000  0.74532400  1
  Ti  Ti8  1  0.32651000  0.16325500  0.74532400  1
  Ti  Ti9  1  0.16325500  0.83674500  0.24532400  1
  O  O10  1  0.84332100  0.15667900  0.15616500  1
  O  O11  1  0.68664200  0.84332100  0.65616500  1
  O  O12  1  0.15667900  0.31335800  0.65616500  1
  O  O13  1  0.84332100  0.68664200  0.15616500  1
  O  O14  1  0.31335800  0.15667900  0.15616500  1
  O  O15  1  0.15667900  0.84332100  0.65616500  1
  O  O16  1  0.52314300  0.47685700  0.84978700  1
  O  O17  1  0.04628600  0.52314300  0.34978700  1
  O  O18  1  0.47685700  0.95371400  0.34978700  1
  O  O19  1  0.52314300  0.04628600  0.84978700  1
  O  O20  1  0.00000000  0.00000000  0.34352600  1
  O  O21  1  0.00000000  0.00000000  0.84352600  1
  O  O22  1  0.33333300  0.66666700  0.14397700  1
  O  O23  1  0.95371400  0.47685700  0.84978700  1
  O  O24  1  0.47685700  0.52314300  0.34978700  1
  O  O25  1  0.66666700  0.33333300  0.64397700  1
