# generated using pymatgen
data_W3O8
_symmetry_space_group_name_H-M   'P 1'
_cell_length_a   5.85316700
_cell_length_b   5.07225600
_cell_length_c   10.84266188
_cell_angle_alpha   62.75643741
_cell_angle_beta   90.00000000
_cell_angle_gamma   90.00000000
_symmetry_Int_Tables_number   1
_chemical_formula_structural   W3O8
_chemical_formula_sum   'W6 O16'
_cell_volume   286.19580069
_cell_formula_units_Z   2
loop_
 _symmetry_equiv_pos_site_id
 _symmetry_equiv_pos_as_xyz
  1  'x, y, z'
loop_
 _atom_site_type_symbol
 _atom_site_label
 _atom_site_symmetry_multiplicity
 _atom_site_fract_x
 _atom_site_fract_y
 _atom_site_fract_z
 _atom_site_occupancy
  W  W0  1  0.65527100  0.50000000  0.75000000  1
  W  W1  1  0.34472900  0.50000000  0.25000000  1
  W  W2  1  0.83057200  0.75956900  0.00601100  1
  W  W3  1  0.83057200  0.24043100  0.49398900  1
  W  W4  1  0.16942800  0.24043100  0.99398900  1
  W  W5  1  0.16942800  0.75956900  0.50601100  1
  O  O6  1  0.65562100  0.95429500  0.63159900  1
  O  O7  1  0.65562100  0.04570500  0.86840100  1
  O  O8  1  0.34437900  0.04570500  0.36840100  1
  O  O9  1  0.34437900  0.95429500  0.13159900  1
  O  O10  1  0.10967000  0.47698600  0.10505300  1
  O  O11  1  0.10967000  0.52301400  0.39494700  1
  O  O12  1  0.89033000  0.52301400  0.89494700  1
  O  O13  1  0.89033000  0.47698600  0.60505300  1
  O  O14  1  0.39745100  0.51629700  0.61803700  1
  O  O15  1  0.39745100  0.48370300  0.88196300  1
  O  O16  1  0.60254900  0.48370300  0.38196300  1
  O  O17  1  0.60254900  0.51629700  0.11803700  1
  O  O18  1  0.10630100  0.95793100  0.60875300  1
  O  O19  1  0.89369900  0.04206900  0.39124700  1
  O  O20  1  0.10630100  0.04206900  0.89124700  1
  O  O21  1  0.89369900  0.95793100  0.10875300  1
