# generated using pymatgen
data_Mg3Fe4(MoO4)6
_symmetry_space_group_name_H-M   'P 1'
_cell_length_a   7.03099500
_cell_length_b   8.46740256
_cell_length_c   10.34573652
_cell_angle_alpha   104.38549653
_cell_angle_beta   104.88364993
_cell_angle_gamma   101.51915888
_symmetry_Int_Tables_number   1
_chemical_formula_structural   Mg3Fe4(MoO4)6
_chemical_formula_sum   'Mg3 Fe4 Mo6 O24'
_cell_volume   553.28322583
_cell_formula_units_Z   1
loop_
 _symmetry_equiv_pos_site_id
 _symmetry_equiv_pos_as_xyz
  1  'x, y, z'
loop_
 _atom_site_type_symbol
 _atom_site_label
 _atom_site_symmetry_multiplicity
 _atom_site_fract_x
 _atom_site_fract_y
 _atom_site_fract_z
 _atom_site_occupancy
  Mg  Mg0  1  0.00000000  0.50000000  0.50000000  1
  Mg  Mg1  1  0.27163300  0.27285300  0.78688200  1
  Mg  Mg2  1  0.72836700  0.72714700  0.21311800  1
  Fe  Fe3  1  0.37932500  0.95671400  0.60525100  1
  Fe  Fe4  1  0.62067500  0.04328600  0.39474900  1
  Fe  Fe5  1  0.04563700  0.19810300  0.01026100  1
  Fe  Fe6  1  0.95436300  0.80189700  0.98973900  1
  Mo  Mo7  1  0.78020500  0.34663800  0.73186500  1
  Mo  Mo8  1  0.21979500  0.65336200  0.26813500  1
  Mo  Mo9  1  0.89687800  0.90010600  0.66551700  1
  Mo  Mo10  1  0.40516400  0.72138500  0.87722900  1
  Mo  Mo11  1  0.10312200  0.09989400  0.33448300  1
  Mo  Mo12  1  0.59483600  0.27861500  0.12277100  1
  O  O13  1  0.88964100  0.68850200  0.56783800  1
  O  O14  1  0.11035900  0.31149800  0.43216200  1
  O  O15  1  0.28450000  0.50354800  0.76312100  1
  O  O16  1  0.71550000  0.49645200  0.23687900  1
  O  O17  1  0.79504900  0.32655100  0.55621600  1
  O  O18  1  0.20495100  0.67344900  0.44378400  1
  O  O19  1  0.66557300  0.96832100  0.58170300  1
  O  O20  1  0.33442700  0.03167900  0.41829700  1
  O  O21  1  0.64576100  0.74062800  0.01242800  1
  O  O22  1  0.35423900  0.25937200  0.98757200  1
  O  O23  1  0.47039400  0.75900800  0.26667000  1
  O  O24  1  0.52960600  0.24099200  0.73333000  1
  O  O25  1  0.14393900  0.03499000  0.65799000  1
  O  O26  1  0.07122500  0.04697600  0.14229800  1
  O  O27  1  0.92877500  0.95302400  0.85770200  1
  O  O28  1  0.55956100  0.15056500  0.23163100  1
  O  O29  1  0.44043900  0.84943500  0.76836900  1
  O  O30  1  0.17174300  0.43729900  0.17533200  1
  O  O31  1  0.82825700  0.56270100  0.82466800  1
  O  O32  1  0.98757900  0.27563700  0.82534400  1
  O  O33  1  0.01242100  0.72436300  0.17465600  1
  O  O34  1  0.23665100  0.78355400  0.96619200  1
  O  O35  1  0.76334900  0.21644600  0.03380800  1
  O  O36  1  0.85606100  0.96501000  0.34201000  1
