# generated using pymatgen
data_CaTiAs2O7
_symmetry_space_group_name_H-M   'P 1'
_cell_length_a   8.61248700
_cell_length_b   8.19592000
_cell_length_c   10.64550429
_cell_angle_alpha   60.62572725
_cell_angle_beta   90.00000000
_cell_angle_gamma   90.00000000
_symmetry_Int_Tables_number   1
_chemical_formula_structural   CaTiAs2O7
_chemical_formula_sum   'Ca4 Ti4 As8 O28'
_cell_volume   654.82779500
_cell_formula_units_Z   4
loop_
 _symmetry_equiv_pos_site_id
 _symmetry_equiv_pos_as_xyz
  1  'x, y, z'
loop_
 _atom_site_type_symbol
 _atom_site_label
 _atom_site_symmetry_multiplicity
 _atom_site_fract_x
 _atom_site_fract_y
 _atom_site_fract_z
 _atom_site_occupancy
  Ca  Ca0  1  0.07020400  0.73874000  0.90476300  1
  Ca  Ca1  1  0.57020400  0.26126000  0.59523700  1
  Ca  Ca2  1  0.92979600  0.26126000  0.09523700  1
  Ca  Ca3  1  0.42979600  0.73874000  0.40476300  1
  Ti  Ti4  1  0.93887100  0.19609300  0.71765600  1
  Ti  Ti5  1  0.43887100  0.80390700  0.78234400  1
  Ti  Ti6  1  0.06112900  0.80390700  0.28234400  1
  Ti  Ti7  1  0.56112900  0.19609300  0.21765600  1
  As  As8  1  0.76052000  0.54785800  0.75428400  1
  As  As9  1  0.26052000  0.45214200  0.74571600  1
  As  As10  1  0.23948000  0.45214200  0.24571600  1
  As  As11  1  0.73948000  0.54785800  0.25428400  1
  As  As12  1  0.68263900  0.94909200  0.95995900  1
  As  As13  1  0.18263900  0.05090800  0.54004100  1
  As  As14  1  0.31736100  0.05090800  0.04004100  1
  As  As15  1  0.81736100  0.94909200  0.45995900  1
  O  O16  1  0.67110500  0.23508000  0.07275400  1
  O  O17  1  0.17110500  0.76492000  0.42724600  1
  O  O18  1  0.32889500  0.76492000  0.92724600  1
  O  O19  1  0.82889500  0.23508000  0.57275400  1
  O  O20  1  0.58070000  0.62960800  0.76519800  1
  O  O21  1  0.08070000  0.37039200  0.73480200  1
  O  O22  1  0.41930000  0.37039200  0.23480200  1
  O  O23  1  0.91930000  0.62960800  0.26519800  1
  O  O24  1  0.88988500  0.55355600  0.87297300  1
  O  O25  1  0.38988500  0.44644400  0.62702700  1
  O  O26  1  0.11011500  0.44644400  0.12702700  1
  O  O27  1  0.61011500  0.55355600  0.37297300  1
  O  O28  1  0.81811400  0.68737200  0.57237800  1
  O  O29  1  0.31811400  0.31262800  0.92762200  1
  O  O30  1  0.18188600  0.31262800  0.42762200  1
  O  O31  1  0.68188600  0.68737200  0.07237800  1
  O  O32  1  0.90119000  0.95861200  0.30194200  1
  O  O33  1  0.40119000  0.04138800  0.19805800  1
  O  O34  1  0.09881000  0.04138800  0.69805800  1
  O  O35  1  0.59881000  0.95861200  0.80194200  1
  O  O36  1  0.75050000  0.33153000  0.26676100  1
  O  O37  1  0.25050000  0.66847000  0.23323900  1
  O  O38  1  0.24950000  0.66847000  0.73323900  1
  O  O39  1  0.74950000  0.33153000  0.76676100  1
  O  O40  1  0.61865100  0.97360200  0.39588300  1
  O  O41  1  0.11865100  0.02639800  0.10411700  1
  O  O42  1  0.38134900  0.02639800  0.60411700  1
  O  O43  1  0.88134900  0.97360200  0.89588300  1
