# generated using pymatgen
data_KY
_symmetry_space_group_name_H-M   'P 1'
_cell_length_a   3.66976106
_cell_length_b   3.67000733
_cell_length_c   7.16726600
_cell_angle_alpha   90.00003345
_cell_angle_beta   89.99997639
_cell_angle_gamma   120.01822126
_symmetry_Int_Tables_number   1
_chemical_formula_structural   KY
_chemical_formula_sum   'K1 Y1'
_cell_volume   83.58129658
_cell_formula_units_Z   1
loop_
 _symmetry_equiv_pos_site_id
 _symmetry_equiv_pos_as_xyz
  1  'x, y, z'
loop_
 _atom_site_type_symbol
 _atom_site_label
 _atom_site_symmetry_multiplicity
 _atom_site_fract_x
 _atom_site_fract_y
 _atom_site_fract_z
 _atom_site_occupancy
  K  K0  1  0.66665700  0.33334200  0.74999900  1
  Y  Y1  1  0.33334300  0.66666100  0.25000000  1
