# generated using pymatgen
data_ZnCuAs2O7
_symmetry_space_group_name_H-M   'P 1'
_cell_length_a   8.48367400
_cell_length_b   7.23213900
_cell_length_c   9.77148071
_cell_angle_alpha   68.74204313
_cell_angle_beta   90.00000000
_cell_angle_gamma   90.00000000
_symmetry_Int_Tables_number   1
_chemical_formula_structural   ZnCuAs2O7
_chemical_formula_sum   'Zn4 Cu4 As8 O28'
_cell_volume   558.73674785
_cell_formula_units_Z   4
loop_
 _symmetry_equiv_pos_site_id
 _symmetry_equiv_pos_as_xyz
  1  'x, y, z'
loop_
 _atom_site_type_symbol
 _atom_site_label
 _atom_site_symmetry_multiplicity
 _atom_site_fract_x
 _atom_site_fract_y
 _atom_site_fract_z
 _atom_site_occupancy
  Zn  Zn0  1  0.07004200  0.73229400  0.90048400  1
  Zn  Zn1  1  0.57004200  0.26770600  0.59951600  1
  Zn  Zn2  1  0.92995800  0.26770600  0.09951600  1
  Zn  Zn3  1  0.42995800  0.73229400  0.40048400  1
  Cu  Cu4  1  0.94015200  0.20116200  0.67036100  1
  Cu  Cu5  1  0.44015200  0.79883800  0.82963900  1
  Cu  Cu6  1  0.05984800  0.79883800  0.32963900  1
  Cu  Cu7  1  0.55984800  0.20116200  0.17036100  1
  As  As8  1  0.77132100  0.56232800  0.75244600  1
  As  As9  1  0.27132100  0.43767200  0.74755400  1
  As  As10  1  0.22867900  0.43767200  0.24755400  1
  As  As11  1  0.72867900  0.56232800  0.25244600  1
  As  As12  1  0.72292100  0.96199900  0.96631100  1
  As  As13  1  0.22292100  0.03800100  0.53368900  1
  As  As14  1  0.27707900  0.03800100  0.03368900  1
  As  As15  1  0.77707900  0.96199900  0.46631100  1
  O  O16  1  0.72655100  0.13899200  0.04731100  1
  O  O17  1  0.22655100  0.86100800  0.45268900  1
  O  O18  1  0.27344900  0.86100800  0.95268900  1
  O  O19  1  0.77344900  0.13899200  0.54731100  1
  O  O20  1  0.58574700  0.63847600  0.76648700  1
  O  O21  1  0.08574700  0.36152400  0.73351300  1
  O  O22  1  0.41425300  0.36152400  0.23351300  1
  O  O23  1  0.91425300  0.63847600  0.26648700  1
  O  O24  1  0.89617600  0.53456200  0.89591200  1
  O  O25  1  0.39617600  0.46543800  0.60408800  1
  O  O26  1  0.10382400  0.46543800  0.10408800  1
  O  O27  1  0.60382400  0.53456200  0.39591200  1
  O  O28  1  0.86124000  0.73930300  0.59313700  1
  O  O29  1  0.36124000  0.26069700  0.90686300  1
  O  O30  1  0.13876000  0.26069700  0.40686300  1
  O  O31  1  0.63876000  0.73930300  0.09313700  1
  O  O32  1  0.91870900  0.00758400  0.33278100  1
  O  O33  1  0.41870900  0.99241600  0.16721900  1
  O  O34  1  0.08129100  0.99241600  0.66721900  1
  O  O35  1  0.58129100  0.00758400  0.83278100  1
  O  O36  1  0.73835400  0.35395900  0.20536400  1
  O  O37  1  0.23835400  0.64604100  0.29463600  1
  O  O38  1  0.26164600  0.64604100  0.79463600  1
  O  O39  1  0.76164600  0.35395900  0.70536400  1
  O  O40  1  0.59562300  0.93658000  0.40336500  1
  O  O41  1  0.09562300  0.06342000  0.09663500  1
  O  O42  1  0.40437700  0.06342000  0.59663500  1
  O  O43  1  0.90437700  0.93658000  0.90336500  1
