# generated using pymatgen
data_Ta2CoO7
_symmetry_space_group_name_H-M   'P 1'
_cell_length_a   16.07757400
_cell_length_b   6.96278300
_cell_length_c   11.62317128
_cell_angle_alpha   77.02754853
_cell_angle_beta   90.00000000
_cell_angle_gamma   90.00000000
_symmetry_Int_Tables_number   1
_chemical_formula_structural   Ta2CoO7
_chemical_formula_sum   'Ta16 Co8 O56'
_cell_volume   1267.94408991
_cell_formula_units_Z   8
loop_
 _symmetry_equiv_pos_site_id
 _symmetry_equiv_pos_as_xyz
  1  'x, y, z'
loop_
 _atom_site_type_symbol
 _atom_site_label
 _atom_site_symmetry_multiplicity
 _atom_site_fract_x
 _atom_site_fract_y
 _atom_site_fract_z
 _atom_site_occupancy
  Ta  Ta0  1  0.85277400  0.14901000  0.98027100  1
  Ta  Ta1  1  0.00602200  0.57270400  0.67952300  1
  Ta  Ta2  1  0.49397800  0.57270400  0.17952300  1
  Ta  Ta3  1  0.99397800  0.42729600  0.32047700  1
  Ta  Ta4  1  0.70439900  0.48701600  0.80325400  1
  Ta  Ta5  1  0.20439900  0.51298400  0.69674600  1
  Ta  Ta6  1  0.29560100  0.51298400  0.19674600  1
  Ta  Ta7  1  0.79560100  0.48701600  0.30325400  1
  Ta  Ta8  1  0.50602200  0.42729600  0.82047700  1
  Ta  Ta9  1  0.13816900  0.12385600  0.47726600  1
  Ta  Ta10  1  0.63816900  0.87614400  0.02273400  1
  Ta  Ta11  1  0.86183100  0.87614400  0.52273400  1
  Ta  Ta12  1  0.35277400  0.85099000  0.51972900  1
  Ta  Ta13  1  0.64722600  0.14901000  0.48027100  1
  Ta  Ta14  1  0.14722600  0.85099000  0.01972900  1
  Ta  Ta15  1  0.36183100  0.12385600  0.97726600  1
  Co  Co16  1  0.66925200  0.36118000  0.08623400  1
  Co  Co17  1  0.16925200  0.63882000  0.41376600  1
  Co  Co18  1  0.33074800  0.63882000  0.91376600  1
  Co  Co19  1  0.83074800  0.36118000  0.58623400  1
  Co  Co20  1  0.75580400  0.00166300  0.25242200  1
  Co  Co21  1  0.25580400  0.99833700  0.24757800  1
  Co  Co22  1  0.24419600  0.99833700  0.74757800  1
  Co  Co23  1  0.74419600  0.00166300  0.75242200  1
  O  O24  1  0.95807500  0.23313200  0.95775000  1
  O  O25  1  0.45807500  0.76686800  0.54225000  1
  O  O26  1  0.04192500  0.76686800  0.04225000  1
  O  O27  1  0.54192500  0.23313200  0.45775000  1
  O  O28  1  0.82660400  0.01083100  0.86211200  1
  O  O29  1  0.32660400  0.98916900  0.63788800  1
  O  O30  1  0.17339600  0.98916900  0.13788800  1
  O  O31  1  0.67339600  0.01083100  0.36211200  1
  O  O32  1  0.83741800  0.01430300  0.14025700  1
  O  O33  1  0.33741800  0.98569700  0.35974300  1
  O  O34  1  0.16258200  0.98569700  0.85974300  1
  O  O35  1  0.66258200  0.01430300  0.64025700  1
  O  O36  1  0.29969200  0.34827000  0.94669600  1
  O  O37  1  0.79969200  0.65173000  0.55330400  1
  O  O38  1  0.70030800  0.65173000  0.05330400  1
  O  O39  1  0.20030800  0.34827000  0.44669600  1
  O  O40  1  0.34013700  0.99411200  0.13230600  1
  O  O41  1  0.84013700  0.00588800  0.36769400  1
  O  O42  1  0.65986300  0.00588800  0.86769400  1
  O  O43  1  0.15986300  0.99411200  0.63230600  1
  O  O44  1  0.32661800  0.94033500  0.88453800  1
  O  O45  1  0.42426000  0.61891200  0.83311900  1
  O  O46  1  0.82661800  0.05966500  0.61546200  1
  O  O47  1  0.17338200  0.94033500  0.38453800  1
  O  O48  1  0.46240300  0.29484500  0.72249100  1
  O  O49  1  0.96240300  0.70515500  0.77750900  1
  O  O50  1  0.53759700  0.70515500  0.27750900  1
  O  O51  1  0.03759700  0.29484500  0.22249100  1
  O  O52  1  0.47224000  0.21975600  0.96353800  1
  O  O53  1  0.97224000  0.78024400  0.53646200  1
  O  O54  1  0.52776000  0.78024400  0.03646200  1
  O  O55  1  0.02776000  0.21975600  0.46353800  1
  O  O56  1  0.89911800  0.54977100  0.22170300  1
  O  O57  1  0.39911800  0.45022900  0.27829700  1
  O  O58  1  0.10088200  0.45022900  0.77829700  1
  O  O59  1  0.60088200  0.54977100  0.72170300  1
  O  O60  1  0.75239300  0.31193500  0.21287900  1
  O  O61  1  0.25239300  0.68806500  0.28712100  1
  O  O62  1  0.24760700  0.68806500  0.78712100  1
  O  O63  1  0.74760700  0.31193500  0.71287900  1
  O  O64  1  0.72531600  0.36014800  0.44950300  1
  O  O65  1  0.22531600  0.63985200  0.05049700  1
  O  O66  1  0.27468400  0.63985200  0.55049700  1
  O  O67  1  0.77468400  0.36014800  0.94950300  1
  O  O68  1  0.74603600  0.73239400  0.27562900  1
  O  O69  1  0.24603600  0.26760600  0.22437100  1
  O  O70  1  0.25396400  0.26760600  0.72437100  1
  O  O71  1  0.75396400  0.73239400  0.77562900  1
  O  O72  1  0.88147500  0.40996000  0.42769700  1
  O  O73  1  0.38147500  0.59004000  0.07230300  1
  O  O74  1  0.11852500  0.59004000  0.57230300  1
  O  O75  1  0.61852500  0.40996000  0.92769700  1
  O  O76  1  0.07574000  0.61891200  0.33311900  1
  O  O77  1  0.57574000  0.38108800  0.16688100  1
  O  O78  1  0.92426000  0.38108800  0.66688100  1
  O  O79  1  0.67338200  0.05966500  0.11546200  1
