# generated using pymatgen
data_Mg2Mn3O8
_symmetry_space_group_name_H-M   'P 1'
_cell_length_a   5.84912899
_cell_length_b   5.84912899
_cell_length_c   9.39133300
_cell_angle_alpha   90.00000000
_cell_angle_beta   90.00000000
_cell_angle_gamma   119.99998854
_symmetry_Int_Tables_number   1
_chemical_formula_structural   Mg2Mn3O8
_chemical_formula_sum   'Mg4 Mn6 O16'
_cell_volume   278.25329722
_cell_formula_units_Z   2
loop_
 _symmetry_equiv_pos_site_id
 _symmetry_equiv_pos_as_xyz
  1  'x, y, z'
loop_
 _atom_site_type_symbol
 _atom_site_label
 _atom_site_symmetry_multiplicity
 _atom_site_fract_x
 _atom_site_fract_y
 _atom_site_fract_z
 _atom_site_occupancy
  Mg  Mg0  1  0.66666700  0.33333300  0.02517900  1
  Mg  Mg1  1  0.33333300  0.66666700  0.52517900  1
  Mg  Mg2  1  0.66666700  0.33333300  0.41877700  1
  Mg  Mg3  1  0.33333300  0.66666700  0.91877700  1
  Mn  Mn4  1  0.67096600  0.83548300  0.24550000  1
  Mn  Mn5  1  0.83548300  0.16451700  0.74550000  1
  Mn  Mn6  1  0.16451700  0.32903400  0.24550000  1
  Mn  Mn7  1  0.83548300  0.67096600  0.74550000  1
  Mn  Mn8  1  0.32903400  0.16451700  0.74550000  1
  Mn  Mn9  1  0.16451700  0.83548300  0.24550000  1
  O  O10  1  0.83996500  0.16003500  0.14434900  1
  O  O11  1  0.67993100  0.83996500  0.64434900  1
  O  O12  1  0.16003500  0.32006900  0.64434900  1
  O  O13  1  0.83996500  0.67993100  0.14434900  1
  O  O14  1  0.32006900  0.16003500  0.14434900  1
  O  O15  1  0.16003500  0.83996500  0.64434900  1
  O  O16  1  0.51864300  0.48135700  0.86420500  1
  O  O17  1  0.03728700  0.51864300  0.36420500  1
  O  O18  1  0.48135700  0.96271300  0.36420500  1
  O  O19  1  0.51864300  0.03728700  0.86420500  1
  O  O20  1  0.00000000  0.00000000  0.35099300  1
  O  O21  1  0.00000000  0.00000000  0.85099300  1
  O  O22  1  0.33333300  0.66666700  0.13638900  1
  O  O23  1  0.96271300  0.48135700  0.86420500  1
  O  O24  1  0.48135700  0.51864300  0.36420500  1
  O  O25  1  0.66666700  0.33333300  0.63638900  1
