# generated using pymatgen
data_V2ZnCoO7
_symmetry_space_group_name_H-M   'P 1'
_cell_length_a   14.24786400
_cell_length_b   6.56920600
_cell_length_c   11.89791676
_cell_angle_alpha   78.26446843
_cell_angle_beta   90.00000000
_cell_angle_gamma   90.00000000
_symmetry_Int_Tables_number   1
_chemical_formula_structural   V2ZnCoO7
_chemical_formula_sum   'V16 Zn8 Co8 O56'
_cell_volume   1090.33317937
_cell_formula_units_Z   8
loop_
 _symmetry_equiv_pos_site_id
 _symmetry_equiv_pos_as_xyz
  1  'x, y, z'
loop_
 _atom_site_type_symbol
 _atom_site_label
 _atom_site_symmetry_multiplicity
 _atom_site_fract_x
 _atom_site_fract_y
 _atom_site_fract_z
 _atom_site_occupancy
  V  V0  1  0.90041800  0.17941900  0.98792700  1
  V  V1  1  0.01573500  0.56652400  0.68163400  1
  V  V2  1  0.48426500  0.56652400  0.18163400  1
  V  V3  1  0.98426500  0.43347600  0.31836600  1
  V  V4  1  0.71050500  0.49731700  0.78565500  1
  V  V5  1  0.21050500  0.50268300  0.71434500  1
  V  V6  1  0.28949500  0.50268300  0.21434500  1
  V  V7  1  0.78949500  0.49731700  0.28565500  1
  V  V8  1  0.51573500  0.43347600  0.81836600  1
  V  V9  1  0.14250100  0.13347500  0.49279300  1
  V  V10  1  0.64250100  0.86652500  0.00720700  1
  V  V11  1  0.85749900  0.86652500  0.50720700  1
  V  V12  1  0.40041800  0.82058100  0.51207300  1
  V  V13  1  0.59958200  0.17941900  0.48792700  1
  V  V14  1  0.09958200  0.82058100  0.01207300  1
  V  V15  1  0.35749900  0.13347500  0.99279300  1
  Zn  Zn16  1  0.50100800  0.96636300  0.73063300  1
  Zn  Zn17  1  0.86609900  0.69785800  0.93494500  1
  Zn  Zn18  1  0.36609900  0.30214200  0.56505500  1
  Zn  Zn19  1  0.13390100  0.30214200  0.06505500  1
  Zn  Zn20  1  0.63390100  0.69785800  0.43494500  1
  Zn  Zn21  1  0.99899200  0.96636300  0.23063300  1
  Zn  Zn22  1  0.49899200  0.03363700  0.26936700  1
  Zn  Zn23  1  0.00100800  0.03363700  0.76936700  1
  Co  Co24  1  0.69430700  0.36308100  0.05870200  1
  Co  Co25  1  0.19430700  0.63691900  0.44129800  1
  Co  Co26  1  0.30569300  0.63691900  0.94129800  1
  Co  Co27  1  0.80569300  0.36308100  0.55870200  1
  Co  Co28  1  0.76468800  0.00852100  0.23009700  1
  Co  Co29  1  0.26468800  0.99147900  0.26990300  1
  Co  Co30  1  0.23531200  0.99147900  0.76990300  1
  Co  Co31  1  0.73531200  0.00852100  0.73009700  1
  O  O32  1  0.00875300  0.28193100  0.98189800  1
  O  O33  1  0.50875300  0.71806900  0.51810200  1
  O  O34  1  0.99124700  0.71806900  0.01810200  1
  O  O35  1  0.49124700  0.28193100  0.48189800  1
  O  O36  1  0.88658000  0.01856200  0.88429700  1
  O  O37  1  0.38658000  0.98143800  0.61570300  1
  O  O38  1  0.11342000  0.98143800  0.11570300  1
  O  O39  1  0.61342000  0.01856200  0.38429700  1
  O  O40  1  0.88370800  0.03318200  0.12850200  1
  O  O41  1  0.38370800  0.96681800  0.37149800  1
  O  O42  1  0.11629200  0.96681800  0.87149800  1
  O  O43  1  0.61629200  0.03318200  0.62850200  1
  O  O44  1  0.26841100  0.31540000  0.96939200  1
  O  O45  1  0.76841100  0.68460000  0.53060800  1
  O  O46  1  0.73158900  0.68460000  0.03060800  1
  O  O47  1  0.23158900  0.31540000  0.46939200  1
  O  O48  1  0.36566000  0.02682700  0.13742500  1
  O  O49  1  0.86566000  0.97317300  0.36257500  1
  O  O50  1  0.63434000  0.97317300  0.86257500  1
  O  O51  1  0.13434000  0.02682700  0.63742500  1
  O  O52  1  0.32782000  0.94768700  0.90941100  1
  O  O53  1  0.46196000  0.66930900  0.80753200  1
  O  O54  1  0.82782000  0.05231300  0.59058900  1
  O  O55  1  0.17218000  0.94768700  0.40941100  1
  O  O56  1  0.47376900  0.27848100  0.72921500  1
  O  O57  1  0.97376900  0.72151900  0.77078500  1
  O  O58  1  0.52623100  0.72151900  0.27078500  1
  O  O59  1  0.02623100  0.27848100  0.22921500  1
  O  O60  1  0.46305700  0.27098100  0.95117900  1
  O  O61  1  0.96305700  0.72901900  0.54882100  1
  O  O62  1  0.53694300  0.72901900  0.04882100  1
  O  O63  1  0.03694300  0.27098100  0.45117900  1
  O  O64  1  0.88732200  0.56264300  0.20300100  1
  O  O65  1  0.38732200  0.43735700  0.29699900  1
  O  O66  1  0.11267800  0.43735700  0.79699900  1
  O  O67  1  0.61267800  0.56264300  0.70300100  1
  O  O68  1  0.73554300  0.30965100  0.22275300  1
  O  O69  1  0.23554300  0.69034900  0.27724700  1
  O  O70  1  0.26445700  0.69034900  0.77724700  1
  O  O71  1  0.76445700  0.30965100  0.72275300  1
  O  O72  1  0.68045500  0.38914300  0.45691700  1
  O  O73  1  0.18045500  0.61085700  0.04308300  1
  O  O74  1  0.31954500  0.61085700  0.54308300  1
  O  O75  1  0.81954500  0.38914300  0.95691700  1
  O  O76  1  0.72315000  0.71851600  0.28699100  1
  O  O77  1  0.22315000  0.28148400  0.21300900  1
  O  O78  1  0.27685000  0.28148400  0.71300900  1
  O  O79  1  0.77685000  0.71851600  0.78699100  1
  O  O80  1  0.86766200  0.40313500  0.40533200  1
  O  O81  1  0.36766200  0.59686500  0.09466800  1
  O  O82  1  0.13233800  0.59686500  0.59466800  1
  O  O83  1  0.63233800  0.40313500  0.90533200  1
  O  O84  1  0.03804000  0.66930900  0.30753200  1
  O  O85  1  0.53804000  0.33069100  0.19246800  1
  O  O86  1  0.96196000  0.33069100  0.69246800  1
  O  O87  1  0.67218000  0.05231300  0.09058900  1
