# generated using pymatgen
data_MgCoAs2O7
_symmetry_space_group_name_H-M   'P 1'
_cell_length_a   8.65191600
_cell_length_b   7.31030200
_cell_length_c   9.70597541
_cell_angle_alpha   66.12228226
_cell_angle_beta   90.00000000
_cell_angle_gamma   90.00000000
_symmetry_Int_Tables_number   1
_chemical_formula_structural   MgCoAs2O7
_chemical_formula_sum   'Mg4 Co4 As8 O28'
_cell_volume   561.34318296
_cell_formula_units_Z   4
loop_
 _symmetry_equiv_pos_site_id
 _symmetry_equiv_pos_as_xyz
  1  'x, y, z'
loop_
 _atom_site_type_symbol
 _atom_site_label
 _atom_site_symmetry_multiplicity
 _atom_site_fract_x
 _atom_site_fract_y
 _atom_site_fract_z
 _atom_site_occupancy
  Mg  Mg0  1  0.07854700  0.72439400  0.89502200  1
  Mg  Mg1  1  0.57854700  0.27560600  0.60497800  1
  Mg  Mg2  1  0.92145300  0.27560600  0.10497800  1
  Mg  Mg3  1  0.42145300  0.72439400  0.39502200  1
  Co  Co4  1  0.94599700  0.18053100  0.68407700  1
  Co  Co5  1  0.44599700  0.81946900  0.81592300  1
  Co  Co6  1  0.05400300  0.81946900  0.31592300  1
  Co  Co7  1  0.55400300  0.18053100  0.18407700  1
  As  As8  1  0.77314500  0.56703600  0.74949200  1
  As  As9  1  0.27314500  0.43296400  0.75050800  1
  As  As10  1  0.22685500  0.43296400  0.25050800  1
  As  As11  1  0.72685500  0.56703600  0.24949200  1
  As  As12  1  0.72187100  0.98401900  0.95794800  1
  As  As13  1  0.22187100  0.01598100  0.54205200  1
  As  As14  1  0.27812900  0.01598100  0.04205200  1
  As  As15  1  0.77812900  0.98401900  0.45794800  1
  O  O16  1  0.72955400  0.14248400  0.04819100  1
  O  O17  1  0.22955400  0.85751600  0.45180900  1
  O  O18  1  0.27044600  0.85751600  0.95180900  1
  O  O19  1  0.77044600  0.14248400  0.54819100  1
  O  O20  1  0.59572800  0.65293400  0.76361700  1
  O  O21  1  0.09572800  0.34706600  0.73638300  1
  O  O22  1  0.40427200  0.34706600  0.23638300  1
  O  O23  1  0.90427200  0.65293400  0.26361700  1
  O  O24  1  0.90004900  0.53626900  0.89220600  1
  O  O25  1  0.40004900  0.46373100  0.60779400  1
  O  O26  1  0.09995100  0.46373100  0.10779400  1
  O  O27  1  0.59995100  0.53626900  0.39220600  1
  O  O28  1  0.85812200  0.74982400  0.58074000  1
  O  O29  1  0.35812200  0.25017600  0.91926000  1
  O  O30  1  0.14187800  0.25017600  0.41926000  1
  O  O31  1  0.64187800  0.74982400  0.08074000  1
  O  O32  1  0.91842500  0.03871100  0.32293600  1
  O  O33  1  0.41842500  0.96128900  0.17706400  1
  O  O34  1  0.08157500  0.96128900  0.67706400  1
  O  O35  1  0.58157500  0.03871100  0.82293600  1
  O  O36  1  0.73625900  0.36414500  0.20493500  1
  O  O37  1  0.23625900  0.63585500  0.29506500  1
  O  O38  1  0.26374100  0.63585500  0.79506500  1
  O  O39  1  0.76374100  0.36414500  0.70493500  1
  O  O40  1  0.60170000  0.95305800  0.39154000  1
  O  O41  1  0.10170000  0.04694200  0.10846000  1
  O  O42  1  0.39830000  0.04694200  0.60846000  1
  O  O43  1  0.89830000  0.95305800  0.89154000  1
