# generated using pymatgen
data_Mg3Ta6(FeO6)4
_symmetry_space_group_name_H-M   'P 1'
_cell_length_a   7.03800000
_cell_length_b   8.26082090
_cell_length_c   10.24519908
_cell_angle_alpha   106.25151663
_cell_angle_beta   103.20848364
_cell_angle_gamma   102.57923952
_symmetry_Int_Tables_number   1
_chemical_formula_structural   Mg3Ta6(FeO6)4
_chemical_formula_sum   'Mg3 Ta6 Fe4 O24'
_cell_volume   530.82817878
_cell_formula_units_Z   1
loop_
 _symmetry_equiv_pos_site_id
 _symmetry_equiv_pos_as_xyz
  1  'x, y, z'
loop_
 _atom_site_type_symbol
 _atom_site_label
 _atom_site_symmetry_multiplicity
 _atom_site_fract_x
 _atom_site_fract_y
 _atom_site_fract_z
 _atom_site_occupancy
  Mg  Mg0  1  0.00000000  0.50000000  0.50000000  1
  Mg  Mg1  1  0.27740000  0.27772700  0.79300700  1
  Mg  Mg2  1  0.72260000  0.72227300  0.20699300  1
  Ta  Ta3  1  0.77781000  0.32681800  0.72660100  1
  Ta  Ta4  1  0.22219000  0.67318200  0.27339900  1
  Ta  Ta5  1  0.89522900  0.91327400  0.66986500  1
  Ta  Ta6  1  0.40742700  0.73098900  0.87946400  1
  Ta  Ta7  1  0.10477100  0.08672600  0.33013500  1
  Ta  Ta8  1  0.59257300  0.26901100  0.12053600  1
  Fe  Fe9  1  0.37919000  0.95258200  0.60820400  1
  Fe  Fe10  1  0.62081000  0.04741800  0.39179600  1
  Fe  Fe11  1  0.04384900  0.20757700  0.01302800  1
  Fe  Fe12  1  0.95615100  0.79242300  0.98697200  1
  O  O13  1  0.87606000  0.68526000  0.58085500  1
  O  O14  1  0.12394000  0.31474000  0.41914500  1
  O  O15  1  0.27155800  0.50026000  0.75838900  1
  O  O16  1  0.72844200  0.49974000  0.24161100  1
  O  O17  1  0.78607800  0.30202500  0.53836400  1
  O  O18  1  0.21392200  0.69797500  0.46163600  1
  O  O19  1  0.66356600  0.97710200  0.57837800  1
  O  O20  1  0.33643400  0.02289800  0.42162200  1
  O  O21  1  0.65864000  0.74711800  0.01059800  1
  O  O22  1  0.34136000  0.25288200  0.98940200  1
  O  O23  1  0.48637500  0.77722700  0.27301700  1
  O  O24  1  0.51362500  0.22277300  0.72698300  1
  O  O25  1  0.14046100  0.02876000  0.64668800  1
  O  O26  1  0.07180900  0.06277400  0.13686500  1
  O  O27  1  0.92819100  0.93722600  0.86313500  1
  O  O28  1  0.56191200  0.13470500  0.23764800  1
  O  O29  1  0.43808800  0.86529500  0.76235200  1
  O  O30  1  0.16127300  0.44052600  0.16595500  1
  O  O31  1  0.83872700  0.55947400  0.83404500  1
  O  O32  1  0.98190200  0.24109000  0.81844800  1
  O  O33  1  0.01809800  0.75891000  0.18155200  1
  O  O34  1  0.23214400  0.79326200  0.97989900  1
  O  O35  1  0.76785600  0.20673800  0.02010100  1
  O  O36  1  0.85953900  0.97124000  0.35331200  1
