# generated using pymatgen
data_ZnSnAs2O7
_symmetry_space_group_name_H-M   'P 1'
_cell_length_a   9.46821800
_cell_length_b   7.52950800
_cell_length_c   10.12187968
_cell_angle_alpha   59.61600476
_cell_angle_beta   90.00000000
_cell_angle_gamma   90.00000000
_symmetry_Int_Tables_number   1
_chemical_formula_structural   ZnSnAs2O7
_chemical_formula_sum   'Zn4 Sn4 As8 O28'
_cell_volume   622.49111416
_cell_formula_units_Z   4
loop_
 _symmetry_equiv_pos_site_id
 _symmetry_equiv_pos_as_xyz
  1  'x, y, z'
loop_
 _atom_site_type_symbol
 _atom_site_label
 _atom_site_symmetry_multiplicity
 _atom_site_fract_x
 _atom_site_fract_y
 _atom_site_fract_z
 _atom_site_occupancy
  Zn  Zn0  1  0.05410300  0.73778900  0.90868800  1
  Zn  Zn1  1  0.55410300  0.26221100  0.59131200  1
  Zn  Zn2  1  0.94589700  0.26221100  0.09131200  1
  Zn  Zn3  1  0.44589700  0.73778900  0.40868800  1
  Sn  Sn4  1  0.96302600  0.23616400  0.62519000  1
  Sn  Sn5  1  0.46302600  0.76383600  0.87481000  1
  Sn  Sn6  1  0.03697400  0.76383600  0.37481000  1
  Sn  Sn7  1  0.53697400  0.23616400  0.12519000  1
  As  As8  1  0.78430700  0.57109200  0.75451100  1
  As  As9  1  0.28430700  0.42890800  0.74548900  1
  As  As10  1  0.21569300  0.42890800  0.24548900  1
  As  As11  1  0.71569300  0.57109200  0.25451100  1
  As  As12  1  0.74524600  0.02404700  0.93154500  1
  As  As13  1  0.24524600  0.97595300  0.56845500  1
  As  As14  1  0.25475400  0.97595300  0.06845500  1
  As  As15  1  0.75475400  0.02404700  0.43154500  1
  O  O16  1  0.77149100  0.13045800  0.04393000  1
  O  O17  1  0.27149100  0.86954200  0.45607000  1
  O  O18  1  0.22850900  0.86954200  0.95607000  1
  O  O19  1  0.72850900  0.13045800  0.54393000  1
  O  O20  1  0.61937600  0.62554200  0.78644900  1
  O  O21  1  0.11937600  0.37445800  0.71355100  1
  O  O22  1  0.38062400  0.37445800  0.21355100  1
  O  O23  1  0.88062400  0.62554200  0.28644900  1
  O  O24  1  0.90839900  0.54291300  0.89056400  1
  O  O25  1  0.40839900  0.45708700  0.60943600  1
  O  O26  1  0.09160100  0.45708700  0.10943600  1
  O  O27  1  0.59160100  0.54291300  0.39056400  1
  O  O28  1  0.83500400  0.77484100  0.57082600  1
  O  O29  1  0.33500400  0.22515900  0.92917400  1
  O  O30  1  0.16499600  0.22515900  0.42917400  1
  O  O31  1  0.66499600  0.77484100  0.07082600  1
  O  O32  1  0.90293500  0.06924800  0.31813000  1
  O  O33  1  0.40293500  0.93075200  0.18187000  1
  O  O34  1  0.09706500  0.93075200  0.68187000  1
  O  O35  1  0.59706500  0.06924800  0.81813000  1
  O  O36  1  0.70869800  0.36381500  0.22689800  1
  O  O37  1  0.20869800  0.63618500  0.27310200  1
  O  O38  1  0.29130200  0.63618500  0.77310200  1
  O  O39  1  0.79130200  0.36381500  0.72689800  1
  O  O40  1  0.60249100  0.96887700  0.36330500  1
  O  O41  1  0.10249100  0.03112300  0.13669500  1
  O  O42  1  0.39750900  0.03112300  0.63669500  1
  O  O43  1  0.89750900  0.96887700  0.86330500  1
