# generated using pymatgen
data_MnZnBiO5
_symmetry_space_group_name_H-M   'P 1'
_cell_length_a   5.32244300
_cell_length_b   10.75018300
_cell_length_c   15.26745700
_cell_angle_alpha   90.00000000
_cell_angle_beta   90.00000000
_cell_angle_gamma   90.00000000
_symmetry_Int_Tables_number   1
_chemical_formula_structural   MnZnBiO5
_chemical_formula_sum   'Mn8 Zn8 Bi8 O40'
_cell_volume   873.56169421
_cell_formula_units_Z   8
loop_
 _symmetry_equiv_pos_site_id
 _symmetry_equiv_pos_as_xyz
  1  'x, y, z'
loop_
 _atom_site_type_symbol
 _atom_site_label
 _atom_site_symmetry_multiplicity
 _atom_site_fract_x
 _atom_site_fract_y
 _atom_site_fract_z
 _atom_site_occupancy
  Mn  Mn0  1  0.96606200  0.39550900  0.40657400  1
  Mn  Mn1  1  0.53393800  0.89550900  0.59342600  1
  Mn  Mn2  1  0.03393800  0.60449100  0.59342600  1
  Mn  Mn3  1  0.46606200  0.10449100  0.40657400  1
  Mn  Mn4  1  0.03393800  0.10449100  0.90657400  1
  Mn  Mn5  1  0.96606200  0.89550900  0.09342600  1
  Mn  Mn6  1  0.53393800  0.39550900  0.90657400  1
  Mn  Mn7  1  0.46606200  0.60449100  0.09342600  1
  Zn  Zn8  1  0.47928500  0.36001100  0.54174900  1
  Zn  Zn9  1  0.97928500  0.13998900  0.54174900  1
  Zn  Zn10  1  0.97928500  0.63998900  0.95825100  1
  Zn  Zn11  1  0.02071500  0.36001100  0.04174900  1
  Zn  Zn12  1  0.52071500  0.13998900  0.04174900  1
  Zn  Zn13  1  0.02071500  0.86001100  0.45825100  1
  Zn  Zn14  1  0.52071500  0.63998900  0.45825100  1
  Zn  Zn15  1  0.47928500  0.86001100  0.95825100  1
  Bi  Bi16  1  0.99090300  0.85586300  0.77451300  1
  Bi  Bi17  1  0.00909700  0.14413700  0.22548700  1
  Bi  Bi18  1  0.50909700  0.35586300  0.22548700  1
  Bi  Bi19  1  0.00909700  0.64413700  0.27451300  1
  Bi  Bi20  1  0.49090300  0.14413700  0.72548700  1
  Bi  Bi21  1  0.49090300  0.64413700  0.77451300  1
  Bi  Bi22  1  0.50909700  0.85586300  0.27451300  1
  Bi  Bi23  1  0.99090300  0.35586300  0.72548700  1
  O  O24  1  0.91903600  0.33470000  0.30237700  1
  O  O25  1  0.31624600  0.04415900  0.94379500  1
  O  O26  1  0.18375400  0.54415900  0.05620500  1
  O  O27  1  0.30298800  0.78184300  0.85394800  1
  O  O28  1  0.19701200  0.28184300  0.14605200  1
  O  O29  1  0.91903600  0.83470000  0.19762300  1
  O  O30  1  0.19701200  0.78184300  0.35394800  1
  O  O31  1  0.58096400  0.83470000  0.69762300  1
  O  O32  1  0.31624600  0.54415900  0.55620500  1
  O  O33  1  0.08096400  0.66530000  0.69762300  1
  O  O34  1  0.58096400  0.33470000  0.80237700  1
  O  O35  1  0.63785400  0.19701700  0.47555300  1
  O  O36  1  0.81624600  0.95584100  0.55620500  1
  O  O37  1  0.69701200  0.71815700  0.35394800  1
  O  O38  1  0.16555800  0.02055300  0.11920900  1
  O  O39  1  0.81624600  0.45584100  0.94379500  1
  O  O40  1  0.08096400  0.16530000  0.80237700  1
  O  O41  1  0.80298800  0.21815700  0.64605200  1
  O  O42  1  0.13785400  0.80298300  0.02444700  1
  O  O43  1  0.18375400  0.04415900  0.44379500  1
  O  O44  1  0.36214600  0.80298300  0.52444700  1
  O  O45  1  0.83444200  0.97944700  0.88079100  1
  O  O46  1  0.69701200  0.21815700  0.14605200  1
  O  O47  1  0.66555800  0.97944700  0.38079100  1
  O  O48  1  0.36214600  0.30298300  0.97555300  1
  O  O49  1  0.13785400  0.30298300  0.47555300  1
  O  O50  1  0.68375400  0.45584100  0.44379500  1
  O  O51  1  0.68375400  0.95584100  0.05620500  1
  O  O52  1  0.66555800  0.47944700  0.11920900  1
  O  O53  1  0.86214600  0.69701700  0.52444700  1
  O  O54  1  0.86214600  0.19701700  0.97555300  1
  O  O55  1  0.63785400  0.69701700  0.02444700  1
  O  O56  1  0.83444200  0.47944700  0.61920900  1
  O  O57  1  0.80298800  0.71815700  0.85394800  1
  O  O58  1  0.30298800  0.28184300  0.64605200  1
  O  O59  1  0.16555800  0.52055300  0.38079100  1
  O  O60  1  0.33444200  0.52055300  0.88079100  1
  O  O61  1  0.41903600  0.16530000  0.30237700  1
  O  O62  1  0.33444200  0.02055300  0.61920900  1
  O  O63  1  0.41903600  0.66530000  0.19762300  1
