# generated using pymatgen
data_TiZnBiO5
_symmetry_space_group_name_H-M   'P 1'
_cell_length_a   10.89310200
_cell_length_b   5.31034900
_cell_length_c   8.49141504
_cell_angle_alpha   71.96251136
_cell_angle_beta   90.00000000
_cell_angle_gamma   90.00000000
_symmetry_Int_Tables_number   1
_chemical_formula_structural   TiZnBiO5
_chemical_formula_sum   'Ti4 Zn4 Bi4 O20'
_cell_volume   467.05561440
_cell_formula_units_Z   4
loop_
 _symmetry_equiv_pos_site_id
 _symmetry_equiv_pos_as_xyz
  1  'x, y, z'
loop_
 _atom_site_type_symbol
 _atom_site_label
 _atom_site_symmetry_multiplicity
 _atom_site_fract_x
 _atom_site_fract_y
 _atom_site_fract_z
 _atom_site_occupancy
  Ti  Ti0  1  0.38202000  0.13634900  0.05719300  1
  Ti  Ti1  1  0.61798000  0.86365100  0.94280700  1
  Ti  Ti2  1  0.88202000  0.86365100  0.44280700  1
  Ti  Ti3  1  0.11798000  0.13634900  0.55719300  1
  Zn  Zn4  1  0.10195800  0.52639500  0.84287800  1
  Zn  Zn5  1  0.89804200  0.47360500  0.15712200  1
  Zn  Zn6  1  0.60195800  0.47360500  0.65712200  1
  Zn  Zn7  1  0.39804200  0.52639500  0.34287800  1
  Bi  Bi8  1  0.89529700  0.04566600  0.84006300  1
  Bi  Bi9  1  0.10470300  0.95433400  0.15993700  1
  Bi  Bi10  1  0.60470300  0.04566600  0.34006300  1
  Bi  Bi11  1  0.39529700  0.95433400  0.65993700  1
  O  O12  1  0.95391600  0.86724600  0.64409200  1
  O  O13  1  0.04462500  0.31773000  0.68733800  1
  O  O14  1  0.80315200  0.18116300  0.31746800  1
  O  O15  1  0.46601800  0.75710200  0.48302300  1
  O  O16  1  0.73064900  0.70722200  0.50539700  1
  O  O17  1  0.76935100  0.70722200  0.00539700  1
  O  O18  1  0.45537500  0.31773000  0.18733800  1
  O  O19  1  0.54462500  0.68227000  0.81266200  1
  O  O20  1  0.53398200  0.24289800  0.51697700  1
  O  O21  1  0.45391600  0.13275400  0.85590800  1
  O  O22  1  0.26935100  0.29277800  0.49460300  1
  O  O23  1  0.04608400  0.13275400  0.35590800  1
  O  O24  1  0.54608400  0.86724600  0.14409200  1
  O  O25  1  0.23064900  0.29277800  0.99460300  1
  O  O26  1  0.96601800  0.24289800  0.01697700  1
  O  O27  1  0.03398200  0.75710200  0.98302300  1
  O  O28  1  0.19684800  0.81883700  0.68253200  1
  O  O29  1  0.95537500  0.68227000  0.31266200  1
  O  O30  1  0.30315200  0.81883700  0.18253200  1
  O  O31  1  0.69684800  0.18116300  0.81746800  1
