# generated using pymatgen
data_MgV(GeO3)2
_symmetry_space_group_name_H-M   'P 1'
_cell_length_a   9.20109100
_cell_length_b   5.49099400
_cell_length_c   9.90024710
_cell_angle_alpha   75.80765742
_cell_angle_beta   90.00000000
_cell_angle_gamma   90.00000000
_symmetry_Int_Tables_number   1
_chemical_formula_structural   MgV(GeO3)2
_chemical_formula_sum   'Mg4 V4 Ge8 O24'
_cell_volume   484.92474247
_cell_formula_units_Z   4
loop_
 _symmetry_equiv_pos_site_id
 _symmetry_equiv_pos_as_xyz
  1  'x, y, z'
loop_
 _atom_site_type_symbol
 _atom_site_label
 _atom_site_symmetry_multiplicity
 _atom_site_fract_x
 _atom_site_fract_y
 _atom_site_fract_z
 _atom_site_occupancy
  Mg  Mg0  1  0.48679200  0.55511300  0.24403400  1
  Mg  Mg1  1  0.98679200  0.94488700  0.75596600  1
  Mg  Mg2  1  0.51320800  0.44488700  0.75596600  1
  Mg  Mg3  1  0.01320800  0.05511300  0.24403400  1
  V  V4  1  0.65729200  0.04349700  0.24494300  1
  V  V5  1  0.15729200  0.45650300  0.75505700  1
  V  V6  1  0.34270800  0.95650300  0.75505700  1
  V  V7  1  0.84270800  0.54349700  0.24494300  1
  Ge  Ge8  1  0.33791300  0.17383300  0.05802200  1
  Ge  Ge9  1  0.83791300  0.32616700  0.94197800  1
  Ge  Ge10  1  0.66208700  0.82616700  0.94197800  1
  Ge  Ge11  1  0.16208700  0.67383300  0.05802200  1
  Ge  Ge12  1  0.34296800  0.75383500  0.45761400  1
  Ge  Ge13  1  0.84296800  0.74616500  0.54238600  1
  Ge  Ge14  1  0.65703200  0.24616500  0.54238600  1
  Ge  Ge15  1  0.15703200  0.25383500  0.45761400  1
  O  O16  1  0.28789400  0.49362400  0.38534400  1
  O  O17  1  0.78789400  0.00637600  0.61465600  1
  O  O18  1  0.71210600  0.50637600  0.61465600  1
  O  O19  1  0.21210600  0.99362400  0.38534400  1
  O  O20  1  0.32343800  0.82854600  0.10970000  1
  O  O21  1  0.82343800  0.67145400  0.89030000  1
  O  O22  1  0.67656200  0.17145400  0.89030000  1
  O  O23  1  0.17656200  0.32854600  0.10970000  1
  O  O24  1  0.98979000  0.29726400  0.37442200  1
  O  O25  1  0.48979000  0.20273600  0.62557800  1
  O  O26  1  0.01021000  0.70273600  0.62557800  1
  O  O27  1  0.51021000  0.79726400  0.37442200  1
  O  O28  1  0.01848400  0.77644700  0.14228100  1
  O  O29  1  0.51848400  0.72355300  0.85771900  1
  O  O30  1  0.98151600  0.22355300  0.85771900  1
  O  O31  1  0.48151600  0.27644700  0.14228100  1
  O  O32  1  0.34159200  0.24722800  0.87367800  1
  O  O33  1  0.84159200  0.25277200  0.12632200  1
  O  O34  1  0.65840800  0.75277200  0.12632200  1
  O  O35  1  0.15840800  0.74722800  0.87367800  1
  O  O36  1  0.34328200  0.67055600  0.64081200  1
  O  O37  1  0.84328200  0.82944400  0.35918800  1
  O  O38  1  0.65671800  0.32944400  0.35918800  1
  O  O39  1  0.15671800  0.17055600  0.64081200  1
