# generated using pymatgen
data_ZnSb2O5
_symmetry_space_group_name_H-M   'P 1'
_cell_length_a   5.47202508
_cell_length_b   5.47202508
_cell_length_c   13.29531400
_cell_angle_alpha   90.00000000
_cell_angle_beta   90.00000000
_cell_angle_gamma   137.33739220
_symmetry_Int_Tables_number   1
_chemical_formula_structural   ZnSb2O5
_chemical_formula_sum   'Zn2 Sb4 O10'
_cell_volume   269.78597365
_cell_formula_units_Z   2
loop_
 _symmetry_equiv_pos_site_id
 _symmetry_equiv_pos_as_xyz
  1  'x, y, z'
loop_
 _atom_site_type_symbol
 _atom_site_label
 _atom_site_symmetry_multiplicity
 _atom_site_fract_x
 _atom_site_fract_y
 _atom_site_fract_z
 _atom_site_occupancy
  Zn  Zn0  1  0.08335900  0.91664100  0.75000000  1
  Zn  Zn1  1  0.91664100  0.08335900  0.25000000  1
  Sb  Sb2  1  0.79319200  0.20680800  0.60725600  1
  Sb  Sb3  1  0.20680800  0.79319200  0.39274400  1
  Sb  Sb4  1  0.20680800  0.79319200  0.10725600  1
  Sb  Sb5  1  0.79319200  0.20680800  0.89274400  1
  O  O6  1  0.30258900  0.69741100  0.25000000  1
  O  O7  1  0.69741100  0.30258900  0.75000000  1
  O  O8  1  0.75244900  0.24755100  0.08377900  1
  O  O9  1  0.24755100  0.75244900  0.91622100  1
  O  O10  1  0.24755100  0.75244900  0.58377900  1
  O  O11  1  0.75244900  0.24755100  0.41622100  1
  O  O12  1  0.97510000  0.02490000  0.63211400  1
  O  O13  1  0.02490000  0.97510000  0.36788600  1
  O  O14  1  0.97510000  0.02490000  0.86788600  1
  O  O15  1  0.02490000  0.97510000  0.13211400  1
