# generated using pymatgen
data_MgSi4SnO10
_symmetry_space_group_name_H-M   'P 1'
_cell_length_a   7.64281300
_cell_length_b   7.64281300
_cell_length_c   15.05076200
_cell_angle_alpha   90.00000000
_cell_angle_beta   90.00000000
_cell_angle_gamma   90.00000000
_symmetry_Int_Tables_number   1
_chemical_formula_structural   MgSi4SnO10
_chemical_formula_sum   'Mg4 Si16 Sn4 O40'
_cell_volume   879.15399822
_cell_formula_units_Z   4
loop_
 _symmetry_equiv_pos_site_id
 _symmetry_equiv_pos_as_xyz
  1  'x, y, z'
loop_
 _atom_site_type_symbol
 _atom_site_label
 _atom_site_symmetry_multiplicity
 _atom_site_fract_x
 _atom_site_fract_y
 _atom_site_fract_z
 _atom_site_occupancy
  Mg  Mg0  1  0.50000000  0.50000000  0.50000000  1
  Mg  Mg1  1  0.00000000  0.00000000  0.50000000  1
  Mg  Mg2  1  0.00000000  0.00000000  0.00000000  1
  Mg  Mg3  1  0.50000000  0.50000000  0.00000000  1
  Si  Si4  1  0.13764100  0.23928600  0.64836200  1
  Si  Si5  1  0.86235900  0.76071400  0.64836200  1
  Si  Si6  1  0.23928600  0.13764100  0.85163800  1
  Si  Si7  1  0.73928600  0.36235900  0.64836200  1
  Si  Si8  1  0.26071400  0.63764100  0.64836200  1
  Si  Si9  1  0.36235900  0.73928600  0.85163800  1
  Si  Si10  1  0.63764100  0.26071400  0.85163800  1
  Si  Si11  1  0.76071400  0.86235900  0.85163800  1
  Si  Si12  1  0.36235900  0.26071400  0.35163800  1
  Si  Si13  1  0.63764100  0.73928600  0.35163800  1
  Si  Si14  1  0.26071400  0.36235900  0.14836200  1
  Si  Si15  1  0.76071400  0.13764100  0.35163800  1
  Si  Si16  1  0.23928600  0.86235900  0.35163800  1
  Si  Si17  1  0.13764100  0.76071400  0.14836200  1
  Si  Si18  1  0.86235900  0.23928600  0.14836200  1
  Si  Si19  1  0.73928600  0.63764100  0.14836200  1
  Sn  Sn20  1  0.50000000  0.00000000  0.59754200  1
  Sn  Sn21  1  0.00000000  0.50000000  0.90245800  1
  Sn  Sn22  1  0.00000000  0.50000000  0.40245800  1
  Sn  Sn23  1  0.50000000  0.00000000  0.09754200  1
  O  O24  1  0.20026800  0.09530000  0.57617300  1
  O  O25  1  0.79973200  0.90470000  0.57617300  1
  O  O26  1  0.09530000  0.20026800  0.92382700  1
  O  O27  1  0.59530000  0.29973200  0.57617300  1
  O  O28  1  0.40470000  0.70026800  0.57617300  1
  O  O29  1  0.29973200  0.59530000  0.92382700  1
  O  O30  1  0.70026800  0.40470000  0.92382700  1
  O  O31  1  0.90470000  0.79973200  0.92382700  1
  O  O32  1  0.29973200  0.40470000  0.42382700  1
  O  O33  1  0.70026800  0.59530000  0.42382700  1
  O  O34  1  0.40470000  0.29973200  0.07617300  1
  O  O35  1  0.90470000  0.20026800  0.42382700  1
  O  O36  1  0.09530000  0.79973200  0.42382700  1
  O  O37  1  0.20026800  0.90470000  0.07617300  1
  O  O38  1  0.79973200  0.09530000  0.07617300  1
  O  O39  1  0.26636700  0.07213800  0.36607600  1
  O  O40  1  0.59530000  0.70026800  0.07617300  1
  O  O41  1  0.76636700  0.57213800  0.63392400  1
  O  O42  1  0.42786200  0.23363300  0.86607600  1
  O  O43  1  0.92786200  0.26636700  0.63392400  1
  O  O44  1  0.07213800  0.73363300  0.63392400  1
  O  O45  1  0.26636700  0.92786200  0.86607600  1
  O  O46  1  0.73363300  0.07213800  0.86607600  1
  O  O47  1  0.57213800  0.76636700  0.86607600  1
  O  O48  1  0.67683800  0.67683800  0.25000000  1
  O  O49  1  0.82316200  0.17683800  0.25000000  1
  O  O50  1  0.17683800  0.82316200  0.25000000  1
  O  O51  1  0.32316200  0.32316200  0.25000000  1
  O  O52  1  0.82316200  0.82316200  0.75000000  1
  O  O53  1  0.67683800  0.32316200  0.75000000  1
  O  O54  1  0.32316200  0.67683800  0.75000000  1
  O  O55  1  0.17683800  0.17683800  0.75000000  1
  O  O56  1  0.92786200  0.73363300  0.13392400  1
  O  O57  1  0.76636700  0.42786200  0.13392400  1
  O  O58  1  0.23363300  0.57213800  0.13392400  1
  O  O59  1  0.42786200  0.76636700  0.36607600  1
  O  O60  1  0.57213800  0.23363300  0.36607600  1
  O  O61  1  0.07213800  0.26636700  0.13392400  1
  O  O62  1  0.73363300  0.92786200  0.36607600  1
  O  O63  1  0.23363300  0.42786200  0.63392400  1
