# generated using pymatgen
data_Mn3Zn(P2O7)2
_symmetry_space_group_name_H-M   'P 1'
_cell_length_a   7.54191500
_cell_length_b   7.52957900
_cell_length_c   9.90218227
_cell_angle_alpha   66.56602460
_cell_angle_beta   90.00000000
_cell_angle_gamma   90.00000000
_symmetry_Int_Tables_number   1
_chemical_formula_structural   Mn3Zn(P2O7)2
_chemical_formula_sum   'Mn6 Zn2 P8 O28'
_cell_volume   515.93892252
_cell_formula_units_Z   2
loop_
 _symmetry_equiv_pos_site_id
 _symmetry_equiv_pos_as_xyz
  1  'x, y, z'
loop_
 _atom_site_type_symbol
 _atom_site_label
 _atom_site_symmetry_multiplicity
 _atom_site_fract_x
 _atom_site_fract_y
 _atom_site_fract_z
 _atom_site_occupancy
  Mn  Mn0  1  0.12096400  0.80835200  0.52481200  1
  Mn  Mn1  1  0.62096400  0.19164800  0.97518800  1
  Mn  Mn2  1  0.87903600  0.19164800  0.47518800  1
  Mn  Mn3  1  0.37903600  0.80835200  0.02481200  1
  Mn  Mn4  1  0.00000000  0.00000000  0.00000000  1
  Mn  Mn5  1  0.50000000  0.00000000  0.50000000  1
  Zn  Zn6  1  0.00000000  0.50000000  0.00000000  1
  Zn  Zn7  1  0.50000000  0.50000000  0.50000000  1
  P  P8  1  0.91135800  0.40808100  0.70163600  1
  P  P9  1  0.41135800  0.59191900  0.79836400  1
  P  P10  1  0.08864200  0.59191900  0.29836400  1
  P  P11  1  0.58864200  0.40808100  0.20163600  1
  P  P12  1  0.21088000  0.14886900  0.68270100  1
  P  P13  1  0.71088000  0.85113100  0.81729900  1
  P  P14  1  0.78912000  0.85113100  0.31729900  1
  P  P15  1  0.28912000  0.14886900  0.18270100  1
  O  O16  1  0.38634400  0.22285400  0.59875100  1
  O  O17  1  0.88634400  0.77714600  0.90124900  1
  O  O18  1  0.61365600  0.77714600  0.40124900  1
  O  O19  1  0.11365600  0.22285400  0.09875100  1
  O  O20  1  0.37806700  0.72390500  0.63343600  1
  O  O21  1  0.87806700  0.27609500  0.86656400  1
  O  O22  1  0.62193300  0.27609500  0.36656400  1
  O  O23  1  0.12193300  0.72390500  0.13343600  1
  O  O24  1  0.77300300  0.37688100  0.59958700  1
  O  O25  1  0.27300300  0.62311900  0.90041300  1
  O  O26  1  0.22699700  0.62311900  0.40041300  1
  O  O27  1  0.72699700  0.37688100  0.09958700  1
  O  O28  1  0.10096700  0.34138700  0.66004100  1
  O  O29  1  0.60096700  0.65861300  0.83995900  1
  O  O30  1  0.89903300  0.65861300  0.33995900  1
  O  O31  1  0.39903300  0.34138700  0.16004100  1
  O  O32  1  0.55129100  0.61296400  0.18445900  1
  O  O33  1  0.05129100  0.38703600  0.31554100  1
  O  O34  1  0.44870900  0.38703600  0.81554100  1
  O  O35  1  0.94870900  0.61296400  0.68445900  1
  O  O36  1  0.77868500  0.96594700  0.15057000  1
  O  O37  1  0.27868500  0.03405300  0.34943000  1
  O  O38  1  0.22131500  0.03405300  0.84943000  1
  O  O39  1  0.72131500  0.96594700  0.65057000  1
  O  O40  1  0.39694300  0.04010200  0.10817200  1
  O  O41  1  0.89694300  0.95989800  0.39182800  1
  O  O42  1  0.60305700  0.95989800  0.89182800  1
  O  O43  1  0.10305700  0.04010200  0.60817200  1
