# generated using pymatgen
data_CaFeNiP2O9
_symmetry_space_group_name_H-M   'P 1'
_cell_length_a   6.45524800
_cell_length_b   7.44027100
_cell_length_c   14.27796600
_cell_angle_alpha   90.00000000
_cell_angle_beta   90.00000000
_cell_angle_gamma   90.00000000
_symmetry_Int_Tables_number   1
_chemical_formula_structural   CaFeNiP2O9
_chemical_formula_sum   'Ca4 Fe4 Ni4 P8 O36'
_cell_volume   685.75349478
_cell_formula_units_Z   4
loop_
 _symmetry_equiv_pos_site_id
 _symmetry_equiv_pos_as_xyz
  1  'x, y, z'
loop_
 _atom_site_type_symbol
 _atom_site_label
 _atom_site_symmetry_multiplicity
 _atom_site_fract_x
 _atom_site_fract_y
 _atom_site_fract_z
 _atom_site_occupancy
  Ca  Ca0  1  0.25000000  0.11705700  0.71969000  1
  Ca  Ca1  1  0.25000000  0.38294300  0.21969000  1
  Ca  Ca2  1  0.75000000  0.88294300  0.28031000  1
  Ca  Ca3  1  0.75000000  0.61705700  0.78031000  1
  Fe  Fe4  1  0.25000000  0.65127900  0.61928800  1
  Fe  Fe5  1  0.75000000  0.34872100  0.38071200  1
  Fe  Fe6  1  0.75000000  0.15127900  0.88071200  1
  Fe  Fe7  1  0.25000000  0.84872100  0.11928800  1
  Ni  Ni8  1  0.00000000  0.00000000  0.50000000  1
  Ni  Ni9  1  0.00000000  0.50000000  0.00000000  1
  Ni  Ni10  1  0.50000000  0.50000000  0.00000000  1
  Ni  Ni11  1  0.50000000  0.00000000  0.50000000  1
  P  P12  1  0.75000000  0.64600300  0.56380600  1
  P  P13  1  0.25000000  0.35399700  0.43619400  1
  P  P14  1  0.25000000  0.14600300  0.93619400  1
  P  P15  1  0.75000000  0.85399700  0.06380600  1
  P  P16  1  0.25000000  0.61193100  0.80900000  1
  P  P17  1  0.75000000  0.38806900  0.19100000  1
  P  P18  1  0.75000000  0.11193100  0.69100000  1
  P  P19  1  0.25000000  0.88806900  0.30900000  1
  O  O20  1  0.55213800  0.39487800  0.13098700  1
  O  O21  1  0.05213800  0.60512200  0.86901300  1
  O  O22  1  0.44786200  0.89487800  0.36901300  1
  O  O23  1  0.94786200  0.10512200  0.63098700  1
  O  O24  1  0.44786200  0.60512200  0.86901300  1
  O  O25  1  0.94786200  0.39487800  0.13098700  1
  O  O26  1  0.55213800  0.10512200  0.63098700  1
  O  O27  1  0.05213800  0.89487800  0.36901300  1
  O  O28  1  0.75000000  0.66692700  0.01518700  1
  O  O29  1  0.25000000  0.33307300  0.98481300  1
  O  O30  1  0.25000000  0.16692700  0.48481300  1
  O  O31  1  0.75000000  0.83307300  0.51518700  1
  O  O32  1  0.25000000  0.87119000  0.55412000  1
  O  O33  1  0.75000000  0.12881000  0.44588000  1
  O  O34  1  0.75000000  0.37119000  0.94588000  1
  O  O35  1  0.25000000  0.62881000  0.05412000  1
  O  O36  1  0.25000000  0.78653000  0.74740700  1
  O  O37  1  0.75000000  0.21347000  0.25259300  1
  O  O38  1  0.75000000  0.28653000  0.75259300  1
  O  O39  1  0.25000000  0.71347000  0.24740700  1
  O  O40  1  0.93857300  0.86581600  0.13176500  1
  O  O41  1  0.43857300  0.13418400  0.86823500  1
  O  O42  1  0.06142700  0.36581600  0.36823500  1
  O  O43  1  0.56142700  0.63418400  0.63176500  1
  O  O44  1  0.06142700  0.13418400  0.86823500  1
  O  O45  1  0.56142700  0.86581600  0.13176500  1
  O  O46  1  0.93857300  0.63418400  0.63176500  1
  O  O47  1  0.43857300  0.36581600  0.36823500  1
  O  O48  1  0.25000000  0.03863100  0.23180500  1
  O  O49  1  0.75000000  0.96136900  0.76819500  1
  O  O50  1  0.75000000  0.53863100  0.26819500  1
  O  O51  1  0.25000000  0.46136900  0.73180500  1
  O  O52  1  0.25000000  0.00104700  0.01068200  1
  O  O53  1  0.75000000  0.99895300  0.98931800  1
  O  O54  1  0.75000000  0.50104700  0.48931800  1
  O  O55  1  0.25000000  0.49895300  0.51068200  1
