# generated using pymatgen
data_CaCu3(MoO3)4
_symmetry_space_group_name_H-M   'P 1'
_cell_length_a   6.64394174
_cell_length_b   6.64823934
_cell_length_c   6.67614229
_cell_angle_alpha   109.56256668
_cell_angle_beta   109.53785085
_cell_angle_gamma   109.39010147
_symmetry_Int_Tables_number   1
_chemical_formula_structural   CaCu3(MoO3)4
_chemical_formula_sum   'Ca1 Cu3 Mo4 O12'
_cell_volume   226.78935771
_cell_formula_units_Z   1
loop_
 _symmetry_equiv_pos_site_id
 _symmetry_equiv_pos_as_xyz
  1  'x, y, z'
loop_
 _atom_site_type_symbol
 _atom_site_label
 _atom_site_symmetry_multiplicity
 _atom_site_fract_x
 _atom_site_fract_y
 _atom_site_fract_z
 _atom_site_occupancy
  Ca  Ca0  1  0.00000000  0.00000000  0.00000100  1
  Cu  Cu1  1  0.49999900  0.50000000  0.00000000  1
  Cu  Cu2  1  0.99999900  0.50000100  0.49999900  1
  Cu  Cu3  1  0.50000000  0.00000100  0.50000000  1
  Mo  Mo4  1  0.00000000  0.00000000  0.50000000  1
  Mo  Mo5  1  0.00000000  0.50000000  0.00000000  1
  Mo  Mo6  1  0.50000000  0.50000000  0.50000000  1
  Mo  Mo7  1  0.50000000  0.00000000  0.00000000  1
  O  O8  1  0.82401300  0.29958500  0.13372800  1
  O  O9  1  0.17598800  0.70041500  0.86627200  1
  O  O10  1  0.82957100  0.69610200  0.52512200  1
  O  O11  1  0.29935600  0.47508100  0.16591100  1
  O  O12  1  0.47700000  0.17675700  0.31046200  1
  O  O13  1  0.13359000  0.82961000  0.30377500  1
  O  O14  1  0.69545200  0.86617700  0.17072200  1
  O  O15  1  0.52300000  0.82324300  0.68953800  1
  O  O16  1  0.17042900  0.30389700  0.47487800  1
  O  O17  1  0.70064400  0.52491800  0.83408900  1
  O  O18  1  0.86640900  0.17039000  0.69622500  1
  O  O19  1  0.30454800  0.13382300  0.82927800  1
