# generated using pymatgen
data_CaNiSnP2O9
_symmetry_space_group_name_H-M   'P 1'
_cell_length_a   6.60833400
_cell_length_b   7.77174500
_cell_length_c   14.32125200
_cell_angle_alpha   90.00000000
_cell_angle_beta   90.00000000
_cell_angle_gamma   90.00000000
_symmetry_Int_Tables_number   1
_chemical_formula_structural   CaNiSnP2O9
_chemical_formula_sum   'Ca4 Ni4 Sn4 P8 O36'
_cell_volume   735.51496645
_cell_formula_units_Z   4
loop_
 _symmetry_equiv_pos_site_id
 _symmetry_equiv_pos_as_xyz
  1  'x, y, z'
loop_
 _atom_site_type_symbol
 _atom_site_label
 _atom_site_symmetry_multiplicity
 _atom_site_fract_x
 _atom_site_fract_y
 _atom_site_fract_z
 _atom_site_occupancy
  Ca  Ca0  1  0.25000000  0.91745700  0.29070900  1
  Ca  Ca1  1  0.25000000  0.58254300  0.79070900  1
  Ca  Ca2  1  0.75000000  0.08254300  0.70929100  1
  Ca  Ca3  1  0.75000000  0.41745700  0.20929100  1
  Ni  Ni4  1  0.00000000  0.00000000  0.50000000  1
  Ni  Ni5  1  0.00000000  0.50000000  0.00000000  1
  Ni  Ni6  1  0.50000000  0.50000000  0.00000000  1
  Ni  Ni7  1  0.50000000  0.00000000  0.50000000  1
  Sn  Sn8  1  0.25000000  0.34613000  0.38294700  1
  Sn  Sn9  1  0.75000000  0.65387000  0.61705300  1
  Sn  Sn10  1  0.75000000  0.84613000  0.11705300  1
  Sn  Sn11  1  0.25000000  0.15387000  0.88294700  1
  P  P12  1  0.75000000  0.34979400  0.43343400  1
  P  P13  1  0.25000000  0.65020600  0.56656600  1
  P  P14  1  0.25000000  0.84979400  0.06656600  1
  P  P15  1  0.75000000  0.15020600  0.93343400  1
  P  P16  1  0.25000000  0.38133200  0.18890300  1
  P  P17  1  0.75000000  0.61866800  0.81109700  1
  P  P18  1  0.75000000  0.88133200  0.31109700  1
  P  P19  1  0.25000000  0.11866800  0.68890300  1
  O  O20  1  0.55537100  0.60582300  0.86881200  1
  O  O21  1  0.05537100  0.39417700  0.13118800  1
  O  O22  1  0.44462900  0.10582300  0.63118800  1
  O  O23  1  0.94462900  0.89417700  0.36881200  1
  O  O24  1  0.44462900  0.39417700  0.13118800  1
  O  O25  1  0.94462900  0.60582300  0.86881200  1
  O  O26  1  0.55537100  0.89417700  0.36881200  1
  O  O27  1  0.05537100  0.10582300  0.63118800  1
  O  O28  1  0.75000000  0.32646400  0.98082300  1
  O  O29  1  0.25000000  0.67353600  0.01917700  1
  O  O30  1  0.25000000  0.82646400  0.51917700  1
  O  O31  1  0.75000000  0.17353600  0.48082300  1
  O  O32  1  0.25000000  0.11541900  0.43808600  1
  O  O33  1  0.75000000  0.88458100  0.56191400  1
  O  O34  1  0.75000000  0.61541900  0.06191400  1
  O  O35  1  0.25000000  0.38458100  0.93808600  1
  O  O36  1  0.25000000  0.21064000  0.24806600  1
  O  O37  1  0.75000000  0.78936000  0.75193400  1
  O  O38  1  0.75000000  0.71064000  0.25193400  1
  O  O39  1  0.25000000  0.28936000  0.74806600  1
  O  O40  1  0.93275900  0.13013000  0.86494900  1
  O  O41  1  0.43275900  0.86987000  0.13505100  1
  O  O42  1  0.06724100  0.63013000  0.63505100  1
  O  O43  1  0.56724100  0.36987000  0.36494900  1
  O  O44  1  0.06724100  0.86987000  0.13505100  1
  O  O45  1  0.56724100  0.13013000  0.86494900  1
  O  O46  1  0.93275900  0.36987000  0.36494900  1
  O  O47  1  0.43275900  0.63013000  0.63505100  1
  O  O48  1  0.25000000  0.97795300  0.77036000  1
  O  O49  1  0.75000000  0.02204700  0.22964000  1
  O  O50  1  0.75000000  0.47795300  0.72964000  1
  O  O51  1  0.25000000  0.52204700  0.27036000  1
  O  O52  1  0.25000000  0.99602500  0.99517100  1
  O  O53  1  0.75000000  0.00397500  0.00482900  1
  O  O54  1  0.75000000  0.49602500  0.50482900  1
  O  O55  1  0.25000000  0.50397500  0.49517100  1
