# generated using pymatgen
data_ZnCr(Si2O5)2
_symmetry_space_group_name_H-M   'P 1'
_cell_length_a   7.34538900
_cell_length_b   7.34538900
_cell_length_c   14.94235600
_cell_angle_alpha   90.00000000
_cell_angle_beta   90.00000000
_cell_angle_gamma   90.00000000
_symmetry_Int_Tables_number   1
_chemical_formula_structural   ZnCr(Si2O5)2
_chemical_formula_sum   'Zn4 Cr4 Si16 O40'
_cell_volume   806.21092641
_cell_formula_units_Z   4
loop_
 _symmetry_equiv_pos_site_id
 _symmetry_equiv_pos_as_xyz
  1  'x, y, z'
loop_
 _atom_site_type_symbol
 _atom_site_label
 _atom_site_symmetry_multiplicity
 _atom_site_fract_x
 _atom_site_fract_y
 _atom_site_fract_z
 _atom_site_occupancy
  Zn  Zn0  1  0.50000000  0.50000000  0.50000000  1
  Zn  Zn1  1  0.00000000  0.00000000  0.50000000  1
  Zn  Zn2  1  0.00000000  0.00000000  0.00000000  1
  Zn  Zn3  1  0.50000000  0.50000000  0.00000000  1
  Cr  Cr4  1  0.50000000  0.00000000  0.56886600  1
  Cr  Cr5  1  0.00000000  0.50000000  0.93113400  1
  Cr  Cr6  1  0.00000000  0.50000000  0.43113400  1
  Cr  Cr7  1  0.50000000  0.00000000  0.06886600  1
  Si  Si8  1  0.15820600  0.24036100  0.64528100  1
  Si  Si9  1  0.84179400  0.75963900  0.64528100  1
  Si  Si10  1  0.24036100  0.15820600  0.85471900  1
  Si  Si11  1  0.74036100  0.34179400  0.64528100  1
  Si  Si12  1  0.25963900  0.65820600  0.64528100  1
  Si  Si13  1  0.34179400  0.74036100  0.85471900  1
  Si  Si14  1  0.65820600  0.25963900  0.85471900  1
  Si  Si15  1  0.75963900  0.84179400  0.85471900  1
  Si  Si16  1  0.34179400  0.25963900  0.35471900  1
  Si  Si17  1  0.65820600  0.74036100  0.35471900  1
  Si  Si18  1  0.25963900  0.34179400  0.14528100  1
  Si  Si19  1  0.75963900  0.15820600  0.35471900  1
  Si  Si20  1  0.24036100  0.84179400  0.35471900  1
  Si  Si21  1  0.15820600  0.75963900  0.14528100  1
  Si  Si22  1  0.84179400  0.24036100  0.14528100  1
  Si  Si23  1  0.74036100  0.65820600  0.14528100  1
  O  O24  1  0.22929300  0.08611500  0.57556000  1
  O  O25  1  0.77070700  0.91388500  0.57556000  1
  O  O26  1  0.08611500  0.22929300  0.92444000  1
  O  O27  1  0.58611500  0.27070700  0.57556000  1
  O  O28  1  0.41388500  0.72929300  0.57556000  1
  O  O29  1  0.27070700  0.58611500  0.92444000  1
  O  O30  1  0.72929300  0.41388500  0.92444000  1
  O  O31  1  0.91388500  0.77070700  0.92444000  1
  O  O32  1  0.27070700  0.41388500  0.42444000  1
  O  O33  1  0.72929300  0.58611500  0.42444000  1
  O  O34  1  0.41388500  0.27070700  0.07556000  1
  O  O35  1  0.91388500  0.22929300  0.42444000  1
  O  O36  1  0.08611500  0.77070700  0.42444000  1
  O  O37  1  0.22929300  0.91388500  0.07556000  1
  O  O38  1  0.77070700  0.08611500  0.07556000  1
  O  O39  1  0.25318300  0.06025700  0.37365300  1
  O  O40  1  0.58611500  0.72929300  0.07556000  1
  O  O41  1  0.75318300  0.56025700  0.62634700  1
  O  O42  1  0.43974300  0.24681700  0.87365300  1
  O  O43  1  0.93974300  0.25318300  0.62634700  1
  O  O44  1  0.06025700  0.74681700  0.62634700  1
  O  O45  1  0.25318300  0.93974300  0.87365300  1
  O  O46  1  0.74681700  0.06025700  0.87365300  1
  O  O47  1  0.56025700  0.75318300  0.87365300  1
  O  O48  1  0.69248600  0.69248600  0.25000000  1
  O  O49  1  0.80751400  0.19248600  0.25000000  1
  O  O50  1  0.19248600  0.80751400  0.25000000  1
  O  O51  1  0.30751400  0.30751400  0.25000000  1
  O  O52  1  0.80751400  0.80751400  0.75000000  1
  O  O53  1  0.69248600  0.30751400  0.75000000  1
  O  O54  1  0.30751400  0.69248600  0.75000000  1
  O  O55  1  0.19248600  0.19248600  0.75000000  1
  O  O56  1  0.93974300  0.74681700  0.12634700  1
  O  O57  1  0.75318300  0.43974300  0.12634700  1
  O  O58  1  0.24681700  0.56025700  0.12634700  1
  O  O59  1  0.43974300  0.75318300  0.37365300  1
  O  O60  1  0.56025700  0.24681700  0.37365300  1
  O  O61  1  0.06025700  0.25318300  0.12634700  1
  O  O62  1  0.74681700  0.93974300  0.37365300  1
  O  O63  1  0.24681700  0.43974300  0.62634700  1
