# generated using pymatgen
data_CaNiP2WO9
_symmetry_space_group_name_H-M   'P 1'
_cell_length_a   6.62314800
_cell_length_b   7.65522500
_cell_length_c   14.42704500
_cell_angle_alpha   90.00000000
_cell_angle_beta   90.00000000
_cell_angle_gamma   90.00000000
_symmetry_Int_Tables_number   1
_chemical_formula_structural   CaNiP2WO9
_chemical_formula_sum   'Ca4 Ni4 P8 W4 O36'
_cell_volume   731.47553649
_cell_formula_units_Z   4
loop_
 _symmetry_equiv_pos_site_id
 _symmetry_equiv_pos_as_xyz
  1  'x, y, z'
loop_
 _atom_site_type_symbol
 _atom_site_label
 _atom_site_symmetry_multiplicity
 _atom_site_fract_x
 _atom_site_fract_y
 _atom_site_fract_z
 _atom_site_occupancy
  Ca  Ca0  1  0.25000000  0.40493600  0.71545500  1
  Ca  Ca1  1  0.25000000  0.09506400  0.21545500  1
  Ca  Ca2  1  0.75000000  0.59506400  0.28454500  1
  Ca  Ca3  1  0.75000000  0.90493600  0.78454500  1
  Ni  Ni4  1  0.50000000  0.50000000  0.50000000  1
  Ni  Ni5  1  0.50000000  0.00000000  0.00000000  1
  Ni  Ni6  1  0.00000000  0.00000000  0.00000000  1
  Ni  Ni7  1  0.00000000  0.50000000  0.50000000  1
  P  P8  1  0.75000000  0.84585100  0.56691300  1
  P  P9  1  0.25000000  0.15414900  0.43308700  1
  P  P10  1  0.25000000  0.34585100  0.93308700  1
  P  P11  1  0.75000000  0.65414900  0.06691300  1
  P  P12  1  0.25000000  0.88538900  0.81172000  1
  P  P13  1  0.75000000  0.11461100  0.18828000  1
  P  P14  1  0.75000000  0.38538900  0.68828000  1
  P  P15  1  0.25000000  0.61461100  0.31172000  1
  W  W16  1  0.25000000  0.85115800  0.61761800  1
  W  W17  1  0.75000000  0.14884200  0.38238200  1
  W  W18  1  0.75000000  0.35115800  0.88238200  1
  W  W19  1  0.25000000  0.64884200  0.11761800  1
  O  O20  1  0.94545300  0.10812200  0.13186200  1
  O  O21  1  0.44545300  0.89187800  0.86813800  1
  O  O22  1  0.05454700  0.60812200  0.36813800  1
  O  O23  1  0.55454700  0.39187800  0.63186200  1
  O  O24  1  0.05454700  0.89187800  0.86813800  1
  O  O25  1  0.55454700  0.10812200  0.13186200  1
  O  O26  1  0.94545300  0.39187800  0.63186200  1
  O  O27  1  0.44545300  0.60812200  0.36813800  1
  O  O28  1  0.75000000  0.83398000  0.01980600  1
  O  O29  1  0.25000000  0.16602000  0.98019400  1
  O  O30  1  0.25000000  0.33398000  0.48019400  1
  O  O31  1  0.75000000  0.66602000  0.51980600  1
  O  O32  1  0.25000000  0.62728200  0.55883200  1
  O  O33  1  0.75000000  0.37271800  0.44116800  1
  O  O34  1  0.75000000  0.12728200  0.94116800  1
  O  O35  1  0.25000000  0.87271800  0.05883200  1
  O  O36  1  0.25000000  0.71532100  0.74912500  1
  O  O37  1  0.75000000  0.28467900  0.25087500  1
  O  O38  1  0.75000000  0.21532100  0.75087500  1
  O  O39  1  0.25000000  0.78467900  0.24912500  1
  O  O40  1  0.56786100  0.63344700  0.13385200  1
  O  O41  1  0.06786100  0.36655300  0.86614800  1
  O  O42  1  0.43213900  0.13344700  0.36614800  1
  O  O43  1  0.93213900  0.86655300  0.63385200  1
  O  O44  1  0.43213900  0.36655300  0.86614800  1
  O  O45  1  0.93213900  0.63344700  0.13385200  1
  O  O46  1  0.56786100  0.86655300  0.63385200  1
  O  O47  1  0.06786100  0.13344700  0.36614800  1
  O  O48  1  0.25000000  0.46940200  0.23330100  1
  O  O49  1  0.75000000  0.53059800  0.76669900  1
  O  O50  1  0.75000000  0.96940200  0.26669900  1
  O  O51  1  0.25000000  0.03059800  0.73330100  1
  O  O52  1  0.25000000  0.48787500  0.00796600  1
  O  O53  1  0.75000000  0.51212500  0.99203400  1
  O  O54  1  0.75000000  0.98787500  0.49203400  1
  O  O55  1  0.25000000  0.01212500  0.50796600  1
