# generated using pymatgen
data_ZnCr(GeO3)2
_symmetry_space_group_name_H-M   'P 1'
_cell_length_a   9.10405100
_cell_length_b   5.57675800
_cell_length_c   10.04680009
_cell_angle_alpha   74.13082348
_cell_angle_beta   90.00000000
_cell_angle_gamma   90.00000000
_symmetry_Int_Tables_number   1
_chemical_formula_structural   ZnCr(GeO3)2
_chemical_formula_sum   'Zn4 Cr4 Ge8 O24'
_cell_volume   490.64683091
_cell_formula_units_Z   4
loop_
 _symmetry_equiv_pos_site_id
 _symmetry_equiv_pos_as_xyz
  1  'x, y, z'
loop_
 _atom_site_type_symbol
 _atom_site_label
 _atom_site_symmetry_multiplicity
 _atom_site_fract_x
 _atom_site_fract_y
 _atom_site_fract_z
 _atom_site_occupancy
  Zn  Zn0  1  0.48859200  0.55050000  0.24426000  1
  Zn  Zn1  1  0.98859200  0.94950000  0.75574000  1
  Zn  Zn2  1  0.51140800  0.44950000  0.75574000  1
  Zn  Zn3  1  0.01140800  0.05050000  0.24426000  1
  Cr  Cr4  1  0.65686600  0.04089700  0.24710000  1
  Cr  Cr5  1  0.15686600  0.45910300  0.75290000  1
  Cr  Cr6  1  0.34313400  0.95910300  0.75290000  1
  Cr  Cr7  1  0.84313400  0.54089700  0.24710000  1
  Ge  Ge8  1  0.33704500  0.18580100  0.05811900  1
  Ge  Ge9  1  0.83704500  0.31419900  0.94188100  1
  Ge  Ge10  1  0.66295500  0.81419900  0.94188100  1
  Ge  Ge11  1  0.16295500  0.68580100  0.05811900  1
  Ge  Ge12  1  0.34199900  0.74836800  0.45431100  1
  Ge  Ge13  1  0.84199900  0.75163200  0.54568900  1
  Ge  Ge14  1  0.65800100  0.25163200  0.54568900  1
  Ge  Ge15  1  0.15800100  0.24836800  0.45431100  1
  O  O16  1  0.28292200  0.50005100  0.38125900  1
  O  O17  1  0.78292200  0.99994900  0.61874100  1
  O  O18  1  0.71707800  0.49994900  0.61874100  1
  O  O19  1  0.21707800  0.00005100  0.38125900  1
  O  O20  1  0.32239200  0.84275400  0.10895900  1
  O  O21  1  0.82239200  0.65724600  0.89104100  1
  O  O22  1  0.67760800  0.15724600  0.89104100  1
  O  O23  1  0.17760800  0.34275400  0.10895900  1
  O  O24  1  0.98787700  0.29548100  0.37207100  1
  O  O25  1  0.48787700  0.20451900  0.62792900  1
  O  O26  1  0.01212300  0.70451900  0.62792900  1
  O  O27  1  0.51212300  0.79548100  0.37207100  1
  O  O28  1  0.01538700  0.77391400  0.14479900  1
  O  O29  1  0.51538700  0.72608600  0.85520100  1
  O  O30  1  0.98461300  0.22608600  0.85520100  1
  O  O31  1  0.48461300  0.27391400  0.14479900  1
  O  O32  1  0.33590200  0.26555400  0.87589500  1
  O  O33  1  0.83590200  0.23444600  0.12410500  1
  O  O34  1  0.66409800  0.73444600  0.12410500  1
  O  O35  1  0.16409800  0.76555400  0.87589500  1
  O  O36  1  0.33851500  0.66209200  0.63479500  1
  O  O37  1  0.83851500  0.83790800  0.36520500  1
  O  O38  1  0.66148500  0.33790800  0.36520500  1
  O  O39  1  0.16148500  0.16209200  0.63479500  1
