# generated using pymatgen
data_Zn(Fe2O3)2
_symmetry_space_group_name_H-M   'P 1'
_cell_length_a   5.27670960
_cell_length_b   5.27670960
_cell_length_c   15.39688400
_cell_angle_alpha   90.00000000
_cell_angle_beta   90.00000000
_cell_angle_gamma   147.27998997
_symmetry_Int_Tables_number   1
_chemical_formula_structural   Zn(Fe2O3)2
_chemical_formula_sum   'Zn2 Fe8 O12'
_cell_volume   231.73006599
_cell_formula_units_Z   2
loop_
 _symmetry_equiv_pos_site_id
 _symmetry_equiv_pos_as_xyz
  1  'x, y, z'
loop_
 _atom_site_type_symbol
 _atom_site_label
 _atom_site_symmetry_multiplicity
 _atom_site_fract_x
 _atom_site_fract_y
 _atom_site_fract_z
 _atom_site_occupancy
  Zn  Zn0  1  0.34739200  0.65260800  0.75000000  1
  Zn  Zn1  1  0.65260800  0.34739200  0.25000000  1
  Fe  Fe2  1  0.13495500  0.86504500  0.04692800  1
  Fe  Fe3  1  0.60010700  0.39989300  0.63654300  1
  Fe  Fe4  1  0.86504500  0.13495500  0.95307200  1
  Fe  Fe5  1  0.39989300  0.60010700  0.36345700  1
  Fe  Fe6  1  0.13495500  0.86504500  0.45307200  1
  Fe  Fe7  1  0.86504500  0.13495500  0.54692800  1
  Fe  Fe8  1  0.39989300  0.60010700  0.13654300  1
  Fe  Fe9  1  0.60010700  0.39989300  0.86345700  1
  O  O10  1  0.50000000  0.50000000  0.50000000  1
  O  O11  1  0.50000000  0.50000000  0.00000000  1
  O  O12  1  0.96510000  0.03490000  0.83679100  1
  O  O13  1  0.03490000  0.96510000  0.16320900  1
  O  O14  1  0.03490000  0.96510000  0.33679100  1
  O  O15  1  0.96510000  0.03490000  0.66320900  1
  O  O16  1  0.21194200  0.78805800  0.91721300  1
  O  O17  1  0.78805800  0.21194200  0.08278700  1
  O  O18  1  0.78805800  0.21194200  0.41721300  1
  O  O19  1  0.21194200  0.78805800  0.58278700  1
  O  O20  1  0.70189400  0.29810600  0.75000000  1
  O  O21  1  0.29810600  0.70189400  0.25000000  1
