# generated using pymatgen
data_ZnNi(GeO3)2
_symmetry_space_group_name_H-M   'P 1'
_cell_length_a   9.15973100
_cell_length_b   5.45729200
_cell_length_c   9.70314670
_cell_angle_alpha   77.71446246
_cell_angle_beta   90.00000000
_cell_angle_gamma   90.00000000
_symmetry_Int_Tables_number   1
_chemical_formula_structural   ZnNi(GeO3)2
_chemical_formula_sum   'Zn4 Ni4 Ge8 O24'
_cell_volume   473.92674531
_cell_formula_units_Z   4
loop_
 _symmetry_equiv_pos_site_id
 _symmetry_equiv_pos_as_xyz
  1  'x, y, z'
loop_
 _atom_site_type_symbol
 _atom_site_label
 _atom_site_symmetry_multiplicity
 _atom_site_fract_x
 _atom_site_fract_y
 _atom_site_fract_z
 _atom_site_occupancy
  Zn  Zn0  1  0.50012000  0.54569000  0.24639400  1
  Zn  Zn1  1  0.00012000  0.95431000  0.75360600  1
  Zn  Zn2  1  0.49988000  0.45431000  0.75360600  1
  Zn  Zn3  1  0.99988000  0.04569000  0.24639400  1
  Ni  Ni4  1  0.65566800  0.03839500  0.24667700  1
  Ni  Ni5  1  0.15566800  0.46160500  0.75332300  1
  Ni  Ni6  1  0.34433200  0.96160500  0.75332300  1
  Ni  Ni7  1  0.84433200  0.53839500  0.24667700  1
  Ge  Ge8  1  0.33781000  0.18501900  0.05561700  1
  Ge  Ge9  1  0.83781000  0.31498100  0.94438300  1
  Ge  Ge10  1  0.66219000  0.81498100  0.94438300  1
  Ge  Ge11  1  0.16219000  0.68501900  0.05561700  1
  Ge  Ge12  1  0.34219100  0.76208200  0.45479700  1
  Ge  Ge13  1  0.84219100  0.73791800  0.54520300  1
  Ge  Ge14  1  0.65780900  0.23791800  0.54520300  1
  Ge  Ge15  1  0.15780900  0.26208200  0.45479700  1
  O  O16  1  0.28213100  0.50484300  0.38049400  1
  O  O17  1  0.78213100  0.99515700  0.61950600  1
  O  O18  1  0.71786900  0.49515700  0.61950600  1
  O  O19  1  0.21786900  0.00484300  0.38049400  1
  O  O20  1  0.31664900  0.84894800  0.10927600  1
  O  O21  1  0.81664900  0.65105200  0.89072400  1
  O  O22  1  0.68335100  0.15105200  0.89072400  1
  O  O23  1  0.18335100  0.34894800  0.10927600  1
  O  O24  1  0.98670100  0.29893600  0.37427500  1
  O  O25  1  0.48670100  0.20106400  0.62572500  1
  O  O26  1  0.01329900  0.70106400  0.62572500  1
  O  O27  1  0.51329900  0.79893600  0.37427500  1
  O  O28  1  0.00899900  0.77125800  0.14042800  1
  O  O29  1  0.50899900  0.72874200  0.85957200  1
  O  O30  1  0.99100100  0.22874200  0.85957200  1
  O  O31  1  0.49100100  0.27125800  0.14042800  1
  O  O32  1  0.33405800  0.24493300  0.86843600  1
  O  O33  1  0.83405800  0.25506700  0.13156400  1
  O  O34  1  0.66594200  0.75506700  0.13156400  1
  O  O35  1  0.16594200  0.74493300  0.86843600  1
  O  O36  1  0.33391800  0.68501800  0.64013500  1
  O  O37  1  0.83391800  0.81498200  0.35986500  1
  O  O38  1  0.66608200  0.31498200  0.35986500  1
  O  O39  1  0.16608200  0.18501800  0.64013500  1
