# generated using pymatgen
data_LaZn3
_symmetry_space_group_name_H-M   'P 1'
_cell_length_a   6.62769591
_cell_length_b   6.62769591
_cell_length_c   4.46360900
_cell_angle_alpha   90.00000000
_cell_angle_beta   90.00000000
_cell_angle_gamma   119.99999910
_symmetry_Int_Tables_number   1
_chemical_formula_structural   LaZn3
_chemical_formula_sum   'La2 Zn6'
_cell_volume   169.80165866
_cell_formula_units_Z   2
loop_
 _symmetry_equiv_pos_site_id
 _symmetry_equiv_pos_as_xyz
  1  'x, y, z'
loop_
 _atom_site_type_symbol
 _atom_site_label
 _atom_site_symmetry_multiplicity
 _atom_site_fract_x
 _atom_site_fract_y
 _atom_site_fract_z
 _atom_site_occupancy
  La  La0  1  0.33333300  0.66666700  0.75000000  1
  La  La1  1  0.66666700  0.33333300  0.25000000  1
  Zn  Zn2  1  0.85718400  0.71436700  0.75000000  1
  Zn  Zn3  1  0.28563300  0.14281600  0.75000000  1
  Zn  Zn4  1  0.85718400  0.14281600  0.75000000  1
  Zn  Zn5  1  0.14281600  0.28563300  0.25000000  1
  Zn  Zn6  1  0.71436700  0.85718400  0.25000000  1
  Zn  Zn7  1  0.14281600  0.85718400  0.25000000  1
