# generated using pymatgen
data_MoPO5
_symmetry_space_group_name_H-M   'P 1'
_cell_length_a   10.35363958
_cell_length_b   9.04236622
_cell_length_c   7.15123336
_cell_angle_alpha   78.53490546
_cell_angle_beta   58.86202960
_cell_angle_gamma   42.60306494
_symmetry_Int_Tables_number   1
_chemical_formula_structural   MoPO5
_chemical_formula_sum   'Mo4 P4 O20'
_cell_volume   368.30440591
_cell_formula_units_Z   4
loop_
 _symmetry_equiv_pos_site_id
 _symmetry_equiv_pos_as_xyz
  1  'x, y, z'
loop_
 _atom_site_type_symbol
 _atom_site_label
 _atom_site_symmetry_multiplicity
 _atom_site_fract_x
 _atom_site_fract_y
 _atom_site_fract_z
 _atom_site_occupancy
  Mo  Mo0  1  0.87753900  0.38312900  0.39382800  1
  Mo  Mo1  1  0.34550500  0.39382800  0.38312900  1
  Mo  Mo2  1  0.86687100  0.37246100  0.90449500  1
  Mo  Mo3  1  0.85617200  0.90449500  0.37246100  1
  P  P4  1  0.03004600  0.54030500  0.96774800  1
  P  P5  1  0.70969500  0.21995400  0.78809900  1
  P  P6  1  0.46190100  0.96774800  0.54030500  1
  P  P7  1  0.28225200  0.78809900  0.21995400  1
  O  O8  1  0.60145700  0.72179700  0.44008300  1
  O  O9  1  0.65932800  0.17730400  0.33707900  1
  O  O10  1  0.30558900  0.65094900  0.39651700  1
  O  O11  1  0.80991700  0.01333600  0.64854300  1
  O  O12  1  0.21827800  0.10080200  0.74592700  1
  O  O13  1  0.43378800  0.10610000  0.36339100  1
  O  O14  1  0.07269600  0.59067200  0.42371100  1
  O  O15  1  0.82628900  0.33707900  0.17730400  1
  O  O16  1  0.91292100  0.42371100  0.59067200  1
  O  O17  1  0.14919800  0.03172200  0.31500800  1
  O  O18  1  0.23666400  0.44008300  0.72179700  1
  O  O19  1  0.50407300  0.31500800  0.03172200  1
  O  O20  1  0.93499200  0.74592700  0.10080200  1
  O  O21  1  0.14390000  0.81621200  0.15327900  1
  O  O22  1  0.09672100  0.36339100  0.10610000  1
  O  O23  1  0.88660900  0.15327900  0.81621200  1
  O  O24  1  0.85348300  0.60305500  0.94441100  1
  O  O25  1  0.64694500  0.39651700  0.65094900  1
  O  O26  1  0.52820300  0.64854300  0.01333600  1
  O  O27  1  0.59905100  0.94441100  0.60305500  1
