# generated using pymatgen
data_MgCo2(PO5)2
_symmetry_space_group_name_H-M   'P 1'
_cell_length_a   9.85930044
_cell_length_b   8.92262124
_cell_length_c   6.52520813
_cell_angle_alpha   77.60953061
_cell_angle_beta   62.11844243
_cell_angle_gamma   40.27202696
_symmetry_Int_Tables_number   1
_chemical_formula_structural   MgCo2(PO5)2
_chemical_formula_sum   'Mg2 Co4 P4 O20'
_cell_volume   317.66278498
_cell_formula_units_Z   2
loop_
 _symmetry_equiv_pos_site_id
 _symmetry_equiv_pos_as_xyz
  1  'x, y, z'
loop_
 _atom_site_type_symbol
 _atom_site_label
 _atom_site_symmetry_multiplicity
 _atom_site_fract_x
 _atom_site_fract_y
 _atom_site_fract_z
 _atom_site_occupancy
  Mg  Mg0  1  0.25000000  0.25000000  0.25000000  1
  Mg  Mg1  1  0.00000000  0.00000000  0.00000000  1
  Co  Co2  1  0.62500000  0.62500000  0.12500000  1
  Co  Co3  1  0.62500000  0.12500000  0.62500000  1
  Co  Co4  1  0.62500000  0.62500000  0.62500000  1
  Co  Co5  1  0.12500000  0.62500000  0.62500000  1
  P  P6  1  0.79243800  0.79243800  0.20756200  1
  P  P7  1  0.45756200  0.45756200  0.04243800  1
  P  P8  1  0.20756200  0.20756200  0.79243800  1
  P  P9  1  0.04243800  0.04243800  0.45756200  1
  O  O10  1  0.96414800  0.33332400  0.01150200  1
  O  O11  1  0.41727400  0.41727400  0.58272600  1
  O  O12  1  0.90519200  0.06958200  0.36718200  1
  O  O13  1  0.23849800  0.55897300  0.28585200  1
  O  O14  1  0.33332400  0.96414800  0.69102700  1
  O  O15  1  0.34480800  0.18041800  0.88281800  1
  O  O16  1  0.83272600  0.83272600  0.66727400  1
  O  O17  1  0.58272600  0.58272600  0.41727400  1
  O  O18  1  0.66727400  0.66727400  0.83272600  1
  O  O19  1  0.28585200  0.91667600  0.23849800  1
  O  O20  1  0.69102700  0.01150200  0.33332400  1
  O  O21  1  0.55897300  0.23849800  0.91667600  1
  O  O22  1  0.01150200  0.69102700  0.96414800  1
  O  O23  1  0.06958200  0.90519200  0.65804300  1
  O  O24  1  0.59195700  0.88281800  0.18041800  1
  O  O25  1  0.36718200  0.65804300  0.90519200  1
  O  O26  1  0.88281800  0.59195700  0.34480800  1
  O  O27  1  0.65804300  0.36718200  0.06958200  1
  O  O28  1  0.91667600  0.28585200  0.55897300  1
  O  O29  1  0.18041800  0.34480800  0.59195700  1
