# generated using pymatgen
data_CrPO5
_symmetry_space_group_name_H-M   'P 1'
_cell_length_a   9.98130105
_cell_length_b   8.68198475
_cell_length_c   6.93724725
_cell_angle_alpha   78.56775490
_cell_angle_beta   58.49202608
_cell_angle_gamma   42.94021902
_symmetry_Int_Tables_number   1
_chemical_formula_structural   CrPO5
_chemical_formula_sum   'Cr4 P4 O20'
_cell_volume   331.09426781
_cell_formula_units_Z   4
loop_
 _symmetry_equiv_pos_site_id
 _symmetry_equiv_pos_as_xyz
  1  'x, y, z'
loop_
 _atom_site_type_symbol
 _atom_site_label
 _atom_site_symmetry_multiplicity
 _atom_site_fract_x
 _atom_site_fract_y
 _atom_site_fract_z
 _atom_site_occupancy
  Cr  Cr0  1  0.87766700  0.38698600  0.40241200  1
  Cr  Cr1  1  0.33293500  0.40241200  0.38698600  1
  Cr  Cr2  1  0.86301400  0.37233300  0.91706500  1
  Cr  Cr3  1  0.84758800  0.91706500  0.37233300  1
  P  P4  1  0.02870700  0.53947500  0.96885800  1
  P  P5  1  0.71052500  0.22129300  0.78704000  1
  P  P6  1  0.46296000  0.96885800  0.53947500  1
  P  P7  1  0.28114200  0.78704000  0.22129300  1
  O  O8  1  0.60891200  0.71247400  0.43521400  1
  O  O9  1  0.66758200  0.17437700  0.33736300  1
  O  O10  1  0.30875900  0.64100600  0.40102000  1
  O  O11  1  0.81478600  0.00660000  0.64108800  1
  O  O12  1  0.21121500  0.10529700  0.75171600  1
  O  O13  1  0.43576500  0.11166700  0.35710200  1
  O  O14  1  0.07562300  0.58241800  0.42932100  1
  O  O15  1  0.82067900  0.33736300  0.17437700  1
  O  O16  1  0.91263700  0.42932100  0.58241800  1
  O  O17  1  0.14470300  0.03878500  0.31822800  1
  O  O18  1  0.24340000  0.43521400  0.71247400  1
  O  O19  1  0.49828400  0.31822800  0.03878500  1
  O  O20  1  0.93177200  0.75171600  0.10529700  1
  O  O21  1  0.13833300  0.81423500  0.15453400  1
  O  O22  1  0.09546600  0.35710200  0.11166700  1
  O  O23  1  0.89289800  0.15453400  0.81423500  1
  O  O24  1  0.84898000  0.60078400  0.94124100  1
  O  O25  1  0.64921600  0.40102000  0.64100600  1
  O  O26  1  0.53752600  0.64108800  0.00660000  1
  O  O27  1  0.60899400  0.94124100  0.60078400  1
