# generated using pymatgen
data_TiZnCr(PO4)3
_symmetry_space_group_name_H-M   'P 1'
_cell_length_a   8.54455907
_cell_length_b   8.54455907
_cell_length_c   8.54455831
_cell_angle_alpha   60.37306857
_cell_angle_beta   60.37306857
_cell_angle_gamma   60.37306957
_symmetry_Int_Tables_number   1
_chemical_formula_structural   TiZnCr(PO4)3
_chemical_formula_sum   'Ti2 Zn2 Cr2 P6 O24'
_cell_volume   444.83940944
_cell_formula_units_Z   2
loop_
 _symmetry_equiv_pos_site_id
 _symmetry_equiv_pos_as_xyz
  1  'x, y, z'
loop_
 _atom_site_type_symbol
 _atom_site_label
 _atom_site_symmetry_multiplicity
 _atom_site_fract_x
 _atom_site_fract_y
 _atom_site_fract_z
 _atom_site_occupancy
  Ti  Ti0  1  0.85584800  0.85584800  0.85584800  1
  Ti  Ti1  1  0.35584800  0.35584800  0.35584800  1
  Zn  Zn2  1  0.00172900  0.00172900  0.00172900  1
  Zn  Zn3  1  0.50172900  0.50172900  0.50172900  1
  Cr  Cr4  1  0.64233500  0.64233500  0.64233500  1
  Cr  Cr5  1  0.14233500  0.14233500  0.14233500  1
  P  P6  1  0.24974500  0.95548700  0.54265900  1
  P  P7  1  0.95548700  0.54265900  0.24974500  1
  P  P8  1  0.54265900  0.24974500  0.95548700  1
  P  P9  1  0.45548700  0.74974500  0.04265900  1
  P  P10  1  0.04265900  0.45548700  0.74974500  1
  P  P11  1  0.74974500  0.04265900  0.45548700  1
  O  O12  1  0.68690800  0.88641600  0.49326300  1
  O  O13  1  0.49326300  0.68690800  0.88641600  1
  O  O14  1  0.08598600  0.94569200  0.74024100  1
  O  O15  1  0.88641600  0.49326300  0.68690800  1
  O  O16  1  0.18690800  0.99326300  0.38641600  1
  O  O17  1  0.41208500  0.75941900  0.56130200  1
  O  O18  1  0.94569200  0.74024100  0.08598600  1
  O  O19  1  0.75941900  0.56130200  0.41208500  1
  O  O20  1  0.61989900  0.81269400  0.99829400  1
  O  O21  1  0.56130200  0.41208500  0.75941900  1
  O  O22  1  0.25941900  0.91208500  0.06130200  1
  O  O23  1  0.99829400  0.61989900  0.81269400  1
  O  O24  1  0.99326300  0.38641600  0.18690800  1
  O  O25  1  0.74024100  0.08598600  0.94569200  1
  O  O26  1  0.44569200  0.58598600  0.24024100  1
  O  O27  1  0.38641600  0.18690800  0.99326300  1
  O  O28  1  0.24024100  0.44569200  0.58598600  1
  O  O29  1  0.06130200  0.25941900  0.91208500  1
  O  O30  1  0.58598600  0.24024100  0.44569200  1
  O  O31  1  0.81269400  0.99829400  0.61989900  1
  O  O32  1  0.11989900  0.49829400  0.31269400  1
  O  O33  1  0.91208500  0.06130200  0.25941900  1
  O  O34  1  0.49829400  0.31269400  0.11989900  1
  O  O35  1  0.31269400  0.11989900  0.49829400  1
