# generated using pymatgen
data_CaMn2(PO5)2
_symmetry_space_group_name_H-M   'P 1'
_cell_length_a   9.95499955
_cell_length_b   8.88156858
_cell_length_c   6.86996562
_cell_angle_alpha   77.22858169
_cell_angle_beta   60.47016008
_cell_angle_gamma   42.30125823
_symmetry_Int_Tables_number   1
_chemical_formula_structural   CaMn2(PO5)2
_chemical_formula_sum   'Ca2 Mn4 P4 O20'
_cell_volume   344.86170154
_cell_formula_units_Z   2
loop_
 _symmetry_equiv_pos_site_id
 _symmetry_equiv_pos_as_xyz
  1  'x, y, z'
loop_
 _atom_site_type_symbol
 _atom_site_label
 _atom_site_symmetry_multiplicity
 _atom_site_fract_x
 _atom_site_fract_y
 _atom_site_fract_z
 _atom_site_occupancy
  Ca  Ca0  1  0.25000000  0.25000000  0.25000000  1
  Ca  Ca1  1  0.00000000  0.00000000  0.00000000  1
  Mn  Mn2  1  0.62500000  0.62500000  0.12500000  1
  Mn  Mn3  1  0.62500000  0.12500000  0.62500000  1
  Mn  Mn4  1  0.62500000  0.62500000  0.62500000  1
  Mn  Mn5  1  0.12500000  0.62500000  0.62500000  1
  P  P6  1  0.79184400  0.79184400  0.20815600  1
  P  P7  1  0.45815600  0.45815600  0.04184400  1
  P  P8  1  0.20815600  0.20815600  0.79184400  1
  P  P9  1  0.04184400  0.04184400  0.45815600  1
  O  O10  1  0.97484600  0.32689600  0.00695300  1
  O  O11  1  0.41699000  0.41699000  0.58301000  1
  O  O12  1  0.89597100  0.07434700  0.38892100  1
  O  O13  1  0.24304700  0.55869600  0.27515400  1
  O  O14  1  0.32689600  0.97484600  0.69130400  1
  O  O15  1  0.35402900  0.17565300  0.86107900  1
  O  O16  1  0.83301000  0.83301000  0.66699000  1
  O  O17  1  0.58301000  0.58301000  0.41699000  1
  O  O18  1  0.66699000  0.66699000  0.83301000  1
  O  O19  1  0.27515400  0.92310400  0.24304700  1
  O  O20  1  0.69130400  0.00695300  0.32689600  1
  O  O21  1  0.55869600  0.24304700  0.92310400  1
  O  O22  1  0.00695300  0.69130400  0.97484600  1
  O  O23  1  0.07434700  0.89597100  0.64076100  1
  O  O24  1  0.60923900  0.86107900  0.17565300  1
  O  O25  1  0.38892100  0.64076100  0.89597100  1
  O  O26  1  0.86107900  0.60923900  0.35402900  1
  O  O27  1  0.64076100  0.38892100  0.07434700  1
  O  O28  1  0.92310400  0.27515400  0.55869600  1
  O  O29  1  0.17565300  0.35402900  0.60923900  1
