# generated using pymatgen
data_Cu13Si2(SbO14)2
_symmetry_space_group_name_H-M   'P 1'
_cell_length_a   5.41038621
_cell_length_b   8.06235436
_cell_length_c   11.96150959
_cell_angle_alpha   88.15341289
_cell_angle_beta   77.11972279
_cell_angle_gamma   81.97678935
_symmetry_Int_Tables_number   1
_chemical_formula_structural   Cu13Si2(SbO14)2
_chemical_formula_sum   'Cu13 Si2 Sb2 O28'
_cell_volume   503.65866777
_cell_formula_units_Z   1
loop_
 _symmetry_equiv_pos_site_id
 _symmetry_equiv_pos_as_xyz
  1  'x, y, z'
loop_
 _atom_site_type_symbol
 _atom_site_label
 _atom_site_symmetry_multiplicity
 _atom_site_fract_x
 _atom_site_fract_y
 _atom_site_fract_z
 _atom_site_occupancy
  Cu  Cu0  1  0.95264100  0.62115200  0.67887700  1
  Cu  Cu1  1  0.66727700  0.36147300  0.14800600  1
  Cu  Cu2  1  0.37249000  0.37488300  0.67987000  1
  Cu  Cu3  1  0.04723600  0.37706800  0.32151500  1
  Cu  Cu4  1  0.33604200  0.63688000  0.85236100  1
  Cu  Cu5  1  0.28190800  0.99959800  0.43694700  1
  Cu  Cu6  1  0.18698900  0.63790600  0.14854300  1
  Cu  Cu7  1  0.00023100  0.99986700  0.99987000  1
  Cu  Cu8  1  0.42110600  0.99938500  0.15779500  1
  Cu  Cu9  1  0.81508400  0.36021800  0.85160700  1
  Cu  Cu10  1  0.62796700  0.62311300  0.32057700  1
  Cu  Cu11  1  0.57965600  0.00001800  0.84246900  1
  Cu  Cu12  1  0.71986000  0.99855500  0.56353800  1
  Si  Si13  1  0.22088900  0.31997000  0.00109000  1
  Si  Si14  1  0.77947600  0.67955200  0.99933500  1
  Sb  Sb15  1  0.84918300  0.99970300  0.30187400  1
  Sb  Sb16  1  0.15265000  0.99778700  0.69870500  1
  O  O17  1  0.71204100  0.39285400  0.29717800  1
  O  O18  1  0.26845700  0.42243600  0.41699000  1
  O  O19  1  0.91089100  0.34142200  0.00011300  1
  O  O20  1  0.29613900  0.11235800  0.00329000  1
  O  O21  1  0.73244100  0.57578600  0.58293200  1
  O  O22  1  0.28691200  0.60505300  0.70350200  1
  O  O23  1  0.02011400  0.11852600  0.56816700  1
  O  O24  1  0.98110100  0.87906200  0.43248800  1
  O  O25  1  0.70353600  0.88713900  0.99821500  1
  O  O26  1  0.12249700  0.87763200  0.16920300  1
  O  O27  1  0.27321700  0.39364600  0.11993400  1
  O  O28  1  0.98688500  0.60700700  0.29623300  1
  O  O29  1  0.41534200  0.87917400  0.56778300  1
  O  O30  1  0.70953700  0.12080600  0.16854600  1
  O  O31  1  0.60621400  0.60741700  0.11811000  1
  O  O32  1  0.08829800  0.65688800  0.99991100  1
  O  O33  1  0.29361600  0.87847100  0.83169700  1
  O  O34  1  0.87937600  0.11898000  0.83111300  1
  O  O35  1  0.58746200  0.11918400  0.43278000  1
  O  O36  1  0.13532100  0.13964100  0.30725700  1
  O  O37  1  0.86710600  0.85792800  0.69281200  1
  O  O38  1  0.39362300  0.39066200  0.88221500  1
  O  O39  1  0.44565800  0.13708700  0.69485900  1
  O  O40  1  0.68653900  0.42056700  0.58329700  1
  O  O41  1  0.72613100  0.60603200  0.88047700  1
  O  O42  1  0.55566000  0.86120600  0.30575600  1
  O  O43  1  0.01368600  0.39125500  0.70345500  1
  O  O44  1  0.31254100  0.57857400  0.41621400  1
