# generated using pymatgen
data_PWO5
_symmetry_space_group_name_H-M   'P 1'
_cell_length_a   10.35183420
_cell_length_b   9.08327451
_cell_length_c   7.11518996
_cell_angle_alpha   78.40890849
_cell_angle_beta   59.26734726
_cell_angle_gamma   42.32374424
_symmetry_Int_Tables_number   1
_chemical_formula_structural   PWO5
_chemical_formula_sum   'P4 W4 O20'
_cell_volume   368.67523774
_cell_formula_units_Z   4
loop_
 _symmetry_equiv_pos_site_id
 _symmetry_equiv_pos_as_xyz
  1  'x, y, z'
loop_
 _atom_site_type_symbol
 _atom_site_label
 _atom_site_symmetry_multiplicity
 _atom_site_fract_x
 _atom_site_fract_y
 _atom_site_fract_z
 _atom_site_occupancy
  P  P0  1  0.78563400  0.78563400  0.21436600  1
  P  P1  1  0.46436600  0.46436600  0.03563400  1
  P  P2  1  0.21436600  0.21436600  0.78563400  1
  P  P3  1  0.03563400  0.03563400  0.46436600  1
  W  W4  1  0.62500000  0.62500000  0.12500000  1
  W  W5  1  0.62500000  0.12500000  0.62500000  1
  W  W6  1  0.62500000  0.62500000  0.62500000  1
  W  W7  1  0.12500000  0.62500000  0.62500000  1
  O  O8  1  0.96941900  0.35268100  0.99029300  1
  O  O9  1  0.41761200  0.41761200  0.58238800  1
  O  O10  1  0.89606000  0.06189400  0.40174600  1
  O  O11  1  0.25970700  0.56239300  0.28058100  1
  O  O12  1  0.35268100  0.96941900  0.68760700  1
  O  O13  1  0.35394000  0.18810600  0.84825400  1
  O  O14  1  0.83238800  0.83238800  0.66761200  1
  O  O15  1  0.58238800  0.58238800  0.41761200  1
  O  O16  1  0.66761200  0.66761200  0.83238800  1
  O  O17  1  0.28058100  0.89731900  0.25970700  1
  O  O18  1  0.68760700  0.99029300  0.35268100  1
  O  O19  1  0.56239300  0.25970700  0.89731900  1
  O  O20  1  0.99029300  0.68760700  0.96941900  1
  O  O21  1  0.06189400  0.89606000  0.64030000  1
  O  O22  1  0.60970000  0.84825400  0.18810600  1
  O  O23  1  0.40174600  0.64030000  0.89606000  1
  O  O24  1  0.84825400  0.60970000  0.35394000  1
  O  O25  1  0.64030000  0.40174600  0.06189400  1
  O  O26  1  0.89731900  0.28058100  0.56239300  1
  O  O27  1  0.18810600  0.35394000  0.60970000  1
