# generated using pymatgen
data_MgP4W3O14
_symmetry_space_group_name_H-M   'P 1'
_cell_length_a   7.70191700
_cell_length_b   7.57867900
_cell_length_c   9.56416533
_cell_angle_alpha   73.86170700
_cell_angle_beta   90.00000000
_cell_angle_gamma   90.00000000
_symmetry_Int_Tables_number   1
_chemical_formula_structural   MgP4W3O14
_chemical_formula_sum   'Mg2 P8 W6 O28'
_cell_volume   536.26457656
_cell_formula_units_Z   2
loop_
 _symmetry_equiv_pos_site_id
 _symmetry_equiv_pos_as_xyz
  1  'x, y, z'
loop_
 _atom_site_type_symbol
 _atom_site_label
 _atom_site_symmetry_multiplicity
 _atom_site_fract_x
 _atom_site_fract_y
 _atom_site_fract_z
 _atom_site_occupancy
  Mg  Mg0  1  0.00000000  0.50000000  0.00000000  1
  Mg  Mg1  1  0.50000000  0.50000000  0.50000000  1
  P  P2  1  0.94257100  0.41910500  0.70336000  1
  P  P3  1  0.44257100  0.58089500  0.79664000  1
  P  P4  1  0.05742900  0.58089500  0.29664000  1
  P  P5  1  0.55742900  0.41910500  0.20336000  1
  P  P6  1  0.22501100  0.11626600  0.67579200  1
  P  P7  1  0.72501100  0.88373400  0.82420800  1
  P  P8  1  0.77498900  0.88373400  0.32420800  1
  P  P9  1  0.27498900  0.11626600  0.17579200  1
  W  W10  1  0.14833500  0.81236900  0.52064300  1
  W  W11  1  0.64833500  0.18763100  0.97935700  1
  W  W12  1  0.85166500  0.18763100  0.47935700  1
  W  W13  1  0.35166500  0.81236900  0.02064300  1
  W  W14  1  0.00000000  0.00000000  0.00000000  1
  W  W15  1  0.50000000  0.00000000  0.50000000  1
  O  O16  1  0.38213900  0.22761800  0.58633000  1
  O  O17  1  0.88213900  0.77238200  0.91367000  1
  O  O18  1  0.61786100  0.77238200  0.41367000  1
  O  O19  1  0.11786100  0.22761800  0.08633000  1
  O  O20  1  0.38332100  0.63399200  0.63372500  1
  O  O21  1  0.88332100  0.36600800  0.86627500  1
  O  O22  1  0.61667900  0.36600800  0.36627500  1
  O  O23  1  0.11667900  0.63399200  0.13372500  1
  O  O24  1  0.79580400  0.37619400  0.60722600  1
  O  O25  1  0.29580400  0.62380600  0.89277400  1
  O  O26  1  0.20419600  0.62380600  0.39277400  1
  O  O27  1  0.70419600  0.37619400  0.10722600  1
  O  O28  1  0.11476400  0.31498300  0.68507600  1
  O  O29  1  0.61476400  0.68501700  0.81492400  1
  O  O30  1  0.88523600  0.68501700  0.31492400  1
  O  O31  1  0.38523600  0.31498300  0.18507600  1
  O  O32  1  0.51252400  0.62271500  0.16577100  1
  O  O33  1  0.01252400  0.37728500  0.33422900  1
  O  O34  1  0.48747600  0.37728500  0.83422900  1
  O  O35  1  0.98747600  0.62271500  0.66577100  1
  O  O36  1  0.78165100  0.97297300  0.15271200  1
  O  O37  1  0.28165100  0.02702700  0.34728800  1
  O  O38  1  0.21834900  0.02702700  0.84728800  1
  O  O39  1  0.71834900  0.97297300  0.65271200  1
  O  O40  1  0.43456200  0.04513400  0.10214300  1
  O  O41  1  0.93456200  0.95486600  0.39785700  1
  O  O42  1  0.56543800  0.95486600  0.89785700  1
  O  O43  1  0.06543800  0.04513400  0.60214300  1
