# generated using pymatgen
data_CaSn3O7
_symmetry_space_group_name_H-M   'P 1'
_cell_length_a   5.36997300
_cell_length_b   10.34878900
_cell_length_c   10.80766400
_cell_angle_alpha   90.00000000
_cell_angle_beta   90.00000000
_cell_angle_gamma   90.00000000
_symmetry_Int_Tables_number   1
_chemical_formula_structural   CaSn3O7
_chemical_formula_sum   'Ca4 Sn12 O28'
_cell_volume   600.61125844
_cell_formula_units_Z   4
loop_
 _symmetry_equiv_pos_site_id
 _symmetry_equiv_pos_as_xyz
  1  'x, y, z'
loop_
 _atom_site_type_symbol
 _atom_site_label
 _atom_site_symmetry_multiplicity
 _atom_site_fract_x
 _atom_site_fract_y
 _atom_site_fract_z
 _atom_site_occupancy
  Ca  Ca0  1  0.33249900  0.11887700  0.25000000  1
  Ca  Ca1  1  0.83249900  0.38112300  0.75000000  1
  Ca  Ca2  1  0.66750100  0.88112300  0.75000000  1
  Ca  Ca3  1  0.16750100  0.61887700  0.25000000  1
  Sn  Sn4  1  0.61816100  0.64376500  0.00954800  1
  Sn  Sn5  1  0.11816100  0.85623500  0.99045200  1
  Sn  Sn6  1  0.38183900  0.35623500  0.50954800  1
  Sn  Sn7  1  0.88183900  0.14376500  0.49045200  1
  Sn  Sn8  1  0.67032500  0.84037700  0.25000000  1
  Sn  Sn9  1  0.17032500  0.65962300  0.75000000  1
  Sn  Sn10  1  0.32967500  0.15962300  0.75000000  1
  Sn  Sn11  1  0.82967500  0.34037700  0.25000000  1
  Sn  Sn12  1  0.11816100  0.85623500  0.50954800  1
  Sn  Sn13  1  0.61816100  0.64376500  0.49045200  1
  Sn  Sn14  1  0.88183900  0.14376500  0.00954800  1
  Sn  Sn15  1  0.38183900  0.35623500  0.99045200  1
  O  O16  1  0.10442300  0.25172500  0.88279900  1
  O  O17  1  0.60442300  0.24827500  0.11720100  1
  O  O18  1  0.89557700  0.74827500  0.38279900  1
  O  O19  1  0.39557700  0.75172500  0.61720100  1
  O  O20  1  0.89557700  0.74827500  0.11720100  1
  O  O21  1  0.39557700  0.75172500  0.88279900  1
  O  O22  1  0.10442300  0.25172500  0.61720100  1
  O  O23  1  0.60442300  0.24827500  0.38279900  1
  O  O24  1  0.59000600  0.22581300  0.87711200  1
  O  O25  1  0.09000600  0.27418700  0.12288800  1
  O  O26  1  0.40999400  0.77418700  0.37711200  1
  O  O27  1  0.90999400  0.72581300  0.62288800  1
  O  O28  1  0.40999400  0.77418700  0.12288800  1
  O  O29  1  0.90999400  0.72581300  0.87711200  1
  O  O30  1  0.59000600  0.22581300  0.62288800  1
  O  O31  1  0.09000600  0.27418700  0.37711200  1
  O  O32  1  0.77228700  0.52483200  0.25000000  1
  O  O33  1  0.27228700  0.97516800  0.75000000  1
  O  O34  1  0.22771300  0.47516800  0.75000000  1
  O  O35  1  0.72771300  0.02483200  0.25000000  1
  O  O36  1  0.80433500  0.97278300  0.56732100  1
  O  O37  1  0.30433500  0.52721700  0.43267900  1
  O  O38  1  0.19566500  0.02721700  0.06732100  1
  O  O39  1  0.69566500  0.47278300  0.93267900  1
  O  O40  1  0.19566500  0.02721700  0.43267900  1
  O  O41  1  0.69566500  0.47278300  0.56732100  1
  O  O42  1  0.80433500  0.97278300  0.93267900  1
  O  O43  1  0.30433500  0.52721700  0.06732100  1
