# generated using pymatgen
data_LaMgFeSbO6
_symmetry_space_group_name_H-M   'P 1'
_cell_length_a   5.64940300
_cell_length_b   5.42761900
_cell_length_c   9.75177998
_cell_angle_alpha   56.15609158
_cell_angle_beta   90.00000000
_cell_angle_gamma   90.00000000
_symmetry_Int_Tables_number   1
_chemical_formula_structural   LaMgFeSbO6
_chemical_formula_sum   'La2 Mg2 Fe2 Sb2 O12'
_cell_volume   248.35089144
_cell_formula_units_Z   2
loop_
 _symmetry_equiv_pos_site_id
 _symmetry_equiv_pos_as_xyz
  1  'x, y, z'
loop_
 _atom_site_type_symbol
 _atom_site_label
 _atom_site_symmetry_multiplicity
 _atom_site_fract_x
 _atom_site_fract_y
 _atom_site_fract_z
 _atom_site_occupancy
  La  La0  1  0.20524700  0.73417300  0.25085200  1
  La  La1  1  0.79475300  0.73417300  0.75085200  1
  Mg  Mg2  1  0.69263400  0.27410100  0.25598100  1
  Mg  Mg3  1  0.30736600  0.27410100  0.75598100  1
  Fe  Fe4  1  0.75116200  0.00201600  0.99836200  1
  Fe  Fe5  1  0.24883800  0.00201600  0.49836200  1
  Sb  Sb6  1  0.74605700  0.50343000  0.49827700  1
  Sb  Sb7  1  0.25394300  0.50343000  0.99827700  1
  O  O8  1  0.20950100  0.87983000  0.76924500  1
  O  O9  1  0.06170500  0.25628800  0.93850200  1
  O  O10  1  0.04577100  0.60125200  0.57315200  1
  O  O11  1  0.95422900  0.60125200  0.07315200  1
  O  O12  1  0.93829500  0.25628800  0.43850200  1
  O  O13  1  0.79049900  0.87983000  0.26924500  1
  O  O14  1  0.68014300  0.16507000  0.73329900  1
  O  O15  1  0.53115500  0.72074900  0.55948600  1
  O  O16  1  0.51749200  0.36309100  0.92284400  1
  O  O17  1  0.48250800  0.36309100  0.42284400  1
  O  O18  1  0.46884500  0.72074900  0.05948600  1
  O  O19  1  0.31985700  0.16507000  0.23329900  1
