# generated using pymatgen
data_KTe3
_symmetry_space_group_name_H-M   'P 1'
_cell_length_a   6.78228106
_cell_length_b   6.78228106
_cell_length_c   6.44832000
_cell_angle_alpha   90.00000000
_cell_angle_beta   90.00000000
_cell_angle_gamma   120.00001034
_symmetry_Int_Tables_number   1
_chemical_formula_structural   KTe3
_chemical_formula_sum   'K2 Te6'
_cell_volume   256.87907817
_cell_formula_units_Z   2
loop_
 _symmetry_equiv_pos_site_id
 _symmetry_equiv_pos_as_xyz
  1  'x, y, z'
loop_
 _atom_site_type_symbol
 _atom_site_label
 _atom_site_symmetry_multiplicity
 _atom_site_fract_x
 _atom_site_fract_y
 _atom_site_fract_z
 _atom_site_occupancy
  K  K0  1  0.33333300  0.66666700  0.75000000  1
  K  K1  1  0.66666700  0.33333300  0.25000000  1
  Te  Te2  1  0.82395600  0.17604400  0.75000000  1
  Te  Te3  1  0.35208800  0.17604400  0.75000000  1
  Te  Te4  1  0.82395600  0.64791200  0.75000000  1
  Te  Te5  1  0.17604400  0.82395600  0.25000000  1
  Te  Te6  1  0.64791200  0.82395600  0.25000000  1
  Te  Te7  1  0.17604400  0.35208800  0.25000000  1
