# generated using pymatgen
data_Ba2Bi2F11
_symmetry_space_group_name_H-M   'P 1'
_cell_length_a   7.88716590
_cell_length_b   7.88716590
_cell_length_c   15.39732100
_cell_angle_alpha   90.00000000
_cell_angle_beta   90.00000000
_cell_angle_gamma   119.99999913
_symmetry_Int_Tables_number   1
_chemical_formula_structural   Ba2Bi2F11
_chemical_formula_sum   'Ba6 Bi6 F33'
_cell_volume   829.50259868
_cell_formula_units_Z   3
loop_
 _symmetry_equiv_pos_site_id
 _symmetry_equiv_pos_as_xyz
  1  'x, y, z'
loop_
 _atom_site_type_symbol
 _atom_site_label
 _atom_site_symmetry_multiplicity
 _atom_site_fract_x
 _atom_site_fract_y
 _atom_site_fract_z
 _atom_site_occupancy
  Ba  Ba0  1  0.85295800  0.82349300  0.65140400  1
  Ba  Ba1  1  0.46834500  0.07698800  0.81571100  1
  Ba  Ba2  1  0.97053500  0.14704200  0.98473700  1
  Ba  Ba3  1  0.92301200  0.39135700  0.48237700  1
  Ba  Ba4  1  0.60864300  0.53165500  0.14904400  1
  Ba  Ba5  1  0.17650700  0.02946500  0.31807000  1
  Bi  Bi6  1  0.86164200  0.63715500  0.89558100  1
  Bi  Bi7  1  0.18062700  0.46935800  0.72885200  1
  Bi  Bi8  1  0.53064200  0.71126800  0.39551800  1
  Bi  Bi9  1  0.77551300  0.13835800  0.22891500  1
  Bi  Bi10  1  0.28873200  0.81937300  0.06218500  1
  Bi  Bi11  1  0.36284500  0.22448700  0.56224800  1
  F  F12  1  0.98324800  0.73880900  0.04332700  1
  F  F13  1  0.77545000  0.33812000  0.93783900  1
  F  F14  1  0.75556100  0.01675200  0.37666100  1
  F  F15  1  0.51247900  0.14392400  0.46671600  1
  F  F16  1  0.89617600  0.93839000  0.18738800  1
  F  F17  1  0.27613200  0.26437300  0.19258700  1
  F  F18  1  0.85607600  0.36855500  0.13338300  1
  F  F19  1  0.73562700  0.01175900  0.85925400  1
  F  F20  1  0.04221300  0.10382400  0.52072100  1
  F  F21  1  0.60884300  0.97420500  0.08653500  1
  F  F22  1  0.63144500  0.48752100  0.80005000  1
  F  F23  1  0.26119100  0.24443900  0.70999400  1
  F  F24  1  0.65932400  0.66956700  0.97914200  1
  F  F25  1  0.33885100  0.10105200  0.01373300  1
  F  F26  1  0.01024300  0.34067600  0.31247600  1
  F  F27  1  0.66188000  0.43733000  0.60450500  1
  F  F28  1  0.24238000  0.75484600  0.92190500  1
  F  F29  1  0.36536200  0.39115700  0.41986800  1
  F  F30  1  0.26297500  0.72399600  0.40300900  1
  F  F31  1  0.33043300  0.98975700  0.64580900  1
  F  F32  1  0.46102100  0.73702500  0.73634300  1
  F  F33  1  0.89894800  0.23779900  0.68040000  1
  F  F34  1  0.76220100  0.66114900  0.34706700  1
  F  F35  1  0.51246600  0.75762000  0.25523900  1
  F  F36  1  0.02579500  0.63463800  0.75320200  1
  F  F37  1  0.06161000  0.95778700  0.85405500  1
  F  F38  1  0.56267000  0.22455000  0.27117200  1
  F  F39  1  0.17615000  0.39036000  0.86233600  1
  F  F40  1  0.21420900  0.82385000  0.19566900  1
  F  F41  1  0.27600400  0.53897900  0.06967600  1
  F  F42  1  0.98824100  0.72386800  0.52592100  1
  F  F43  1  0.24515400  0.48753400  0.58857200  1
  F  F44  1  0.60964000  0.78579100  0.52900300  1
