# generated using pymatgen
data_MgTiCr(PO4)3
_symmetry_space_group_name_H-M   'P 1'
_cell_length_a   8.53409906
_cell_length_b   8.53409906
_cell_length_c   8.53409879
_cell_angle_alpha   60.48602556
_cell_angle_beta   60.48602556
_cell_angle_gamma   60.48602600
_symmetry_Int_Tables_number   1
_chemical_formula_structural   MgTiCr(PO4)3
_chemical_formula_sum   'Mg2 Ti2 Cr2 P6 O24'
_cell_volume   444.32709330
_cell_formula_units_Z   2
loop_
 _symmetry_equiv_pos_site_id
 _symmetry_equiv_pos_as_xyz
  1  'x, y, z'
loop_
 _atom_site_type_symbol
 _atom_site_label
 _atom_site_symmetry_multiplicity
 _atom_site_fract_x
 _atom_site_fract_y
 _atom_site_fract_z
 _atom_site_occupancy
  Mg  Mg0  1  0.00151500  0.00151500  0.00151500  1
  Mg  Mg1  1  0.50151500  0.50151500  0.50151500  1
  Ti  Ti2  1  0.85566700  0.85566700  0.85566700  1
  Ti  Ti3  1  0.35566700  0.35566700  0.35566700  1
  Cr  Cr4  1  0.64224300  0.64224300  0.64224300  1
  Cr  Cr5  1  0.14224300  0.14224300  0.14224300  1
  P  P6  1  0.95493500  0.54307400  0.24948700  1
  P  P7  1  0.54307400  0.24948700  0.95493500  1
  P  P8  1  0.24948700  0.95493500  0.54307400  1
  P  P9  1  0.74948700  0.04307400  0.45493500  1
  P  P10  1  0.45493500  0.74948700  0.04307400  1
  P  P11  1  0.04307400  0.45493500  0.74948700  1
  O  O12  1  0.88701200  0.49380700  0.68620000  1
  O  O13  1  0.68620000  0.88701200  0.49380700  1
  O  O14  1  0.94566200  0.74118700  0.08711600  1
  O  O15  1  0.49380700  0.68620000  0.88701200  1
  O  O16  1  0.99380700  0.38701200  0.18620000  1
  O  O17  1  0.75894900  0.56094100  0.41104000  1
  O  O18  1  0.74118700  0.08711600  0.94566200  1
  O  O19  1  0.56094100  0.41104000  0.75894900  1
  O  O20  1  0.81327500  0.99784200  0.62005100  1
  O  O21  1  0.41104000  0.75894900  0.56094100  1
  O  O22  1  0.91104000  0.06094100  0.25894900  1
  O  O23  1  0.62005100  0.81327500  0.99784200  1
  O  O24  1  0.38701200  0.18620000  0.99380700  1
  O  O25  1  0.08711600  0.94566200  0.74118700  1
  O  O26  1  0.58711600  0.24118700  0.44566200  1
  O  O27  1  0.18620000  0.99380700  0.38701200  1
  O  O28  1  0.44566200  0.58711600  0.24118700  1
  O  O29  1  0.25894900  0.91104000  0.06094100  1
  O  O30  1  0.24118700  0.44566200  0.58711600  1
  O  O31  1  0.99784200  0.62005100  0.81327500  1
  O  O32  1  0.49784200  0.31327500  0.12005100  1
  O  O33  1  0.06094100  0.25894900  0.91104000  1
  O  O34  1  0.31327500  0.12005100  0.49784200  1
  O  O35  1  0.12005200  0.49784200  0.31327500  1
