# generated using pymatgen
data_CaCoBiO5
_symmetry_space_group_name_H-M   'P 1'
_cell_length_a   10.70575100
_cell_length_b   5.87517700
_cell_length_c   8.42385940
_cell_angle_alpha   72.54365047
_cell_angle_beta   90.00000000
_cell_angle_gamma   90.00000000
_symmetry_Int_Tables_number   1
_chemical_formula_structural   CaCoBiO5
_chemical_formula_sum   'Ca4 Co4 Bi4 O20'
_cell_volume   505.44381557
_cell_formula_units_Z   4
loop_
 _symmetry_equiv_pos_site_id
 _symmetry_equiv_pos_as_xyz
  1  'x, y, z'
loop_
 _atom_site_type_symbol
 _atom_site_label
 _atom_site_symmetry_multiplicity
 _atom_site_fract_x
 _atom_site_fract_y
 _atom_site_fract_z
 _atom_site_occupancy
  Ca  Ca0  1  0.09400800  0.53870600  0.80990100  1
  Ca  Ca1  1  0.90599200  0.46129400  0.19009900  1
  Ca  Ca2  1  0.59400800  0.46129400  0.69009900  1
  Ca  Ca3  1  0.40599200  0.53870600  0.30990100  1
  Co  Co4  1  0.37249500  0.13781600  0.04687600  1
  Co  Co5  1  0.62750500  0.86218400  0.95312400  1
  Co  Co6  1  0.87249500  0.86218400  0.45312400  1
  Co  Co7  1  0.12750500  0.13781600  0.54687600  1
  Bi  Bi8  1  0.89907500  0.00751600  0.84613000  1
  Bi  Bi9  1  0.10092500  0.99248400  0.15387000  1
  Bi  Bi10  1  0.60092500  0.00751600  0.34613000  1
  Bi  Bi11  1  0.39907500  0.99248400  0.65387000  1
  O  O12  1  0.93374700  0.82299800  0.66189200  1
  O  O13  1  0.02868900  0.25640200  0.68304900  1
  O  O14  1  0.78645400  0.14804100  0.33751800  1
  O  O15  1  0.45745100  0.77628900  0.49149700  1
  O  O16  1  0.71800300  0.70669200  0.48288700  1
  O  O17  1  0.78199700  0.70669200  0.98288700  1
  O  O18  1  0.47131100  0.25640200  0.18304900  1
  O  O19  1  0.52868900  0.74359800  0.81695100  1
  O  O20  1  0.54254900  0.22371100  0.50850300  1
  O  O21  1  0.43374700  0.17700200  0.83810800  1
  O  O22  1  0.28199700  0.29330800  0.51711300  1
  O  O23  1  0.06625300  0.17700200  0.33810800  1
  O  O24  1  0.56625300  0.82299800  0.16189200  1
  O  O25  1  0.21800300  0.29330800  0.01711300  1
  O  O26  1  0.95745100  0.22371100  0.00850300  1
  O  O27  1  0.04254900  0.77628900  0.99149700  1
  O  O28  1  0.21354600  0.85195900  0.66248200  1
  O  O29  1  0.97131100  0.74359800  0.31695100  1
  O  O30  1  0.28645400  0.85195900  0.16248200  1
  O  O31  1  0.71354600  0.14804100  0.83751800  1
