# generated using pymatgen
data_Mn3ZnO7
_symmetry_space_group_name_H-M   'P 1'
_cell_length_a   5.55235900
_cell_length_b   9.34438700
_cell_length_c   10.44742100
_cell_angle_alpha   90.00000000
_cell_angle_beta   90.00000000
_cell_angle_gamma   90.00000000
_symmetry_Int_Tables_number   1
_chemical_formula_structural   Mn3ZnO7
_chemical_formula_sum   'Mn12 Zn4 O28'
_cell_volume   542.04763139
_cell_formula_units_Z   4
loop_
 _symmetry_equiv_pos_site_id
 _symmetry_equiv_pos_as_xyz
  1  'x, y, z'
loop_
 _atom_site_type_symbol
 _atom_site_label
 _atom_site_symmetry_multiplicity
 _atom_site_fract_x
 _atom_site_fract_y
 _atom_site_fract_z
 _atom_site_occupancy
  Mn  Mn0  1  0.72733200  0.70634300  0.97721900  1
  Mn  Mn1  1  0.22733200  0.79365700  0.02278100  1
  Mn  Mn2  1  0.27266800  0.29365700  0.47721900  1
  Mn  Mn3  1  0.77266800  0.20634300  0.52278100  1
  Mn  Mn4  1  0.72748400  0.76015300  0.25000000  1
  Mn  Mn5  1  0.22748400  0.73984700  0.75000000  1
  Mn  Mn6  1  0.27251600  0.23984700  0.75000000  1
  Mn  Mn7  1  0.77251600  0.26015300  0.25000000  1
  Mn  Mn8  1  0.22733200  0.79365700  0.47721900  1
  Mn  Mn9  1  0.72733200  0.70634300  0.52278100  1
  Mn  Mn10  1  0.77266800  0.20634300  0.97721900  1
  Mn  Mn11  1  0.27266800  0.29365700  0.02278100  1
  Zn  Zn12  1  0.38246700  0.00968900  0.25000000  1
  Zn  Zn13  1  0.88246700  0.49031100  0.75000000  1
  Zn  Zn14  1  0.61753300  0.99031100  0.75000000  1
  Zn  Zn15  1  0.11753300  0.50968900  0.25000000  1
  O  O16  1  0.04019400  0.28952700  0.88103100  1
  O  O17  1  0.54019400  0.21047300  0.11896900  1
  O  O18  1  0.95980600  0.71047300  0.38103100  1
  O  O19  1  0.45980600  0.78952700  0.61896900  1
  O  O20  1  0.95980600  0.71047300  0.11896900  1
  O  O21  1  0.45980600  0.78952700  0.88103100  1
  O  O22  1  0.04019400  0.28952700  0.61896900  1
  O  O23  1  0.54019400  0.21047300  0.38103100  1
  O  O24  1  0.50101200  0.27708800  0.88425700  1
  O  O25  1  0.00101200  0.22291200  0.11574300  1
  O  O26  1  0.49898800  0.72291200  0.38425700  1
  O  O27  1  0.99898800  0.77708800  0.61574300  1
  O  O28  1  0.49898800  0.72291200  0.11574300  1
  O  O29  1  0.99898800  0.77708800  0.88425700  1
  O  O30  1  0.50101200  0.27708800  0.61574300  1
  O  O31  1  0.00101200  0.22291200  0.38425700  1
  O  O32  1  0.78088300  0.44716400  0.25000000  1
  O  O33  1  0.28088300  0.05283600  0.75000000  1
  O  O34  1  0.21911700  0.55283600  0.75000000  1
  O  O35  1  0.71911700  0.94716400  0.25000000  1
  O  O36  1  0.77239600  0.03341800  0.58790200  1
  O  O37  1  0.27239600  0.46658200  0.41209800  1
  O  O38  1  0.22760400  0.96658200  0.08790200  1
  O  O39  1  0.72760400  0.53341800  0.91209800  1
  O  O40  1  0.22760400  0.96658200  0.41209800  1
  O  O41  1  0.72760400  0.53341800  0.58790200  1
  O  O42  1  0.77239600  0.03341800  0.91209800  1
  O  O43  1  0.27239600  0.46658200  0.08790200  1
