# generated using pymatgen
data_BiWO5
_symmetry_space_group_name_H-M   'P 1'
_cell_length_a   11.46381300
_cell_length_b   5.75984300
_cell_length_c   9.33851181
_cell_angle_alpha   70.81947018
_cell_angle_beta   90.00000000
_cell_angle_gamma   90.00000000
_symmetry_Int_Tables_number   1
_chemical_formula_structural   BiWO5
_chemical_formula_sum   'Bi4 W4 O20'
_cell_volume   582.38997156
_cell_formula_units_Z   4
loop_
 _symmetry_equiv_pos_site_id
 _symmetry_equiv_pos_as_xyz
  1  'x, y, z'
loop_
 _atom_site_type_symbol
 _atom_site_label
 _atom_site_symmetry_multiplicity
 _atom_site_fract_x
 _atom_site_fract_y
 _atom_site_fract_z
 _atom_site_occupancy
  Bi  Bi0  1  0.91239600  0.00337700  0.83226200  1
  Bi  Bi1  1  0.08760400  0.99662300  0.16773800  1
  Bi  Bi2  1  0.58760400  0.00337700  0.33226200  1
  Bi  Bi3  1  0.41239600  0.99662300  0.66773800  1
  W  W4  1  0.35414600  0.16536900  0.05233500  1
  W  W5  1  0.64585400  0.83463100  0.94766500  1
  W  W6  1  0.85414600  0.83463100  0.44766500  1
  W  W7  1  0.14585400  0.16536900  0.55233500  1
  O  O8  1  0.90934800  0.83652900  0.63160900  1
  O  O9  1  0.03479500  0.26441900  0.66382300  1
  O  O10  1  0.79503400  0.13152500  0.33797800  1
  O  O11  1  0.44821300  0.83109700  0.48869300  1
  O  O12  1  0.72285900  0.65349000  0.46985500  1
  O  O13  1  0.77714100  0.65349000  0.96985500  1
  O  O14  1  0.46520500  0.26441900  0.16382300  1
  O  O15  1  0.53479500  0.73558100  0.83617700  1
  O  O16  1  0.55178700  0.16890300  0.51130700  1
  O  O17  1  0.40934800  0.16347100  0.86839100  1
  O  O18  1  0.27714100  0.34651000  0.53014500  1
  O  O19  1  0.09065200  0.16347100  0.36839100  1
  O  O20  1  0.59065200  0.83652900  0.13160900  1
  O  O21  1  0.22285900  0.34651000  0.03014500  1
  O  O22  1  0.94821300  0.16890300  0.01130700  1
  O  O23  1  0.05178700  0.83109700  0.98869300  1
  O  O24  1  0.20496600  0.86847500  0.66202200  1
  O  O25  1  0.96520500  0.73558100  0.33617700  1
  O  O26  1  0.29503400  0.86847500  0.16202200  1
  O  O27  1  0.70496600  0.13152500  0.83797800  1
