# generated using pymatgen
data_MgCoBiO5
_symmetry_space_group_name_H-M   'P 1'
_cell_length_a   10.55296900
_cell_length_b   5.35216500
_cell_length_c   8.28313249
_cell_angle_alpha   69.55751804
_cell_angle_beta   90.00000000
_cell_angle_gamma   90.00000000
_symmetry_Int_Tables_number   1
_chemical_formula_structural   MgCoBiO5
_chemical_formula_sum   'Mg4 Co4 Bi4 O20'
_cell_volume   438.37839918
_cell_formula_units_Z   4
loop_
 _symmetry_equiv_pos_site_id
 _symmetry_equiv_pos_as_xyz
  1  'x, y, z'
loop_
 _atom_site_type_symbol
 _atom_site_label
 _atom_site_symmetry_multiplicity
 _atom_site_fract_x
 _atom_site_fract_y
 _atom_site_fract_z
 _atom_site_occupancy
  Mg  Mg0  1  0.08582400  0.54504000  0.82435700  1
  Mg  Mg1  1  0.91417600  0.45496000  0.17564300  1
  Mg  Mg2  1  0.58582400  0.45496000  0.67564300  1
  Mg  Mg3  1  0.41417600  0.54504000  0.32435700  1
  Co  Co4  1  0.37652400  0.15764700  0.04308600  1
  Co  Co5  1  0.62347600  0.84235300  0.95691400  1
  Co  Co6  1  0.87652400  0.84235300  0.45691400  1
  Co  Co7  1  0.12347600  0.15764700  0.54308600  1
  Bi  Bi8  1  0.89472100  0.02786100  0.84338600  1
  Bi  Bi9  1  0.10527900  0.97213900  0.15661400  1
  Bi  Bi10  1  0.60527900  0.02786100  0.34338600  1
  Bi  Bi11  1  0.39472100  0.97213900  0.65661400  1
  O  O12  1  0.94117400  0.82124000  0.66833900  1
  O  O13  1  0.03595800  0.30018000  0.68316300  1
  O  O14  1  0.79580200  0.16838700  0.32382400  1
  O  O15  1  0.45843400  0.75361200  0.49360800  1
  O  O16  1  0.71553500  0.69323200  0.50718000  1
  O  O17  1  0.78446500  0.69323200  0.00718000  1
  O  O18  1  0.46404200  0.30018000  0.18316300  1
  O  O19  1  0.53595800  0.69982000  0.81683700  1
  O  O20  1  0.54156600  0.24638800  0.50639200  1
  O  O21  1  0.44117400  0.17876000  0.83166100  1
  O  O22  1  0.28446500  0.30676800  0.49282000  1
  O  O23  1  0.05882600  0.17876000  0.33166100  1
  O  O24  1  0.55882600  0.82124000  0.16833900  1
  O  O25  1  0.21553500  0.30676800  0.99282000  1
  O  O26  1  0.95843400  0.24638800  0.00639200  1
  O  O27  1  0.04156600  0.75361200  0.99360800  1
  O  O28  1  0.20419800  0.83161300  0.67617600  1
  O  O29  1  0.96404200  0.69982000  0.31683700  1
  O  O30  1  0.29580200  0.83161300  0.17617600  1
  O  O31  1  0.70419800  0.16838700  0.82382400  1
