# generated using pymatgen
data_Ba2YTi2F11
_symmetry_space_group_name_H-M   'P 1'
_cell_length_a   7.82191243
_cell_length_b   7.82191243
_cell_length_c   13.74762800
_cell_angle_alpha   90.00000000
_cell_angle_beta   90.00000000
_cell_angle_gamma   120.00000368
_symmetry_Int_Tables_number   1
_chemical_formula_structural   Ba2YTi2F11
_chemical_formula_sum   'Ba6 Y3 Ti6 F33'
_cell_volume   728.42406822
_cell_formula_units_Z   3
loop_
 _symmetry_equiv_pos_site_id
 _symmetry_equiv_pos_as_xyz
  1  'x, y, z'
loop_
 _atom_site_type_symbol
 _atom_site_label
 _atom_site_symmetry_multiplicity
 _atom_site_fract_x
 _atom_site_fract_y
 _atom_site_fract_z
 _atom_site_occupancy
  Ba  Ba0  1  0.89550700  0.87966200  0.66287800  1
  Ba  Ba1  1  0.51749900  0.19593200  0.81201000  1
  Ba  Ba2  1  0.98415500  0.10449300  0.99621100  1
  Ba  Ba3  1  0.80406800  0.32156700  0.47867700  1
  Ba  Ba4  1  0.67843300  0.48250100  0.14534300  1
  Ba  Ba5  1  0.12033800  0.01584500  0.32954400  1
  Y  Y6  1  0.46823300  0.66910400  0.88835300  1
  Y  Y7  1  0.20087100  0.53176700  0.22168700  1
  Y  Y8  1  0.33089600  0.79912900  0.55502000  1
  Ti  Ti9  1  0.00654600  0.64404600  0.87506000  1
  Ti  Ti10  1  0.11689000  0.42940600  0.74046100  1
  Ti  Ti11  1  0.57059400  0.68748400  0.40712700  1
  Ti  Ti12  1  0.63750000  0.99345400  0.20839400  1
  Ti  Ti13  1  0.31251600  0.88311000  0.07379400  1
  Ti  Ti14  1  0.35595400  0.36250000  0.54172700  1
  F  F15  1  0.02321000  0.75612200  0.01802200  1
  F  F16  1  0.83357200  0.39027000  0.94294300  1
  F  F17  1  0.73291200  0.97679000  0.35135500  1
  F  F18  1  0.41555400  0.10797200  0.49506500  1
  F  F19  1  0.86439300  0.94511700  0.17247500  1
  F  F20  1  0.26995400  0.29977500  0.18688300  1
  F  F21  1  0.89202800  0.30758200  0.16173100  1
  F  F22  1  0.70022500  0.97017900  0.85355000  1
  F  F23  1  0.08072400  0.13560700  0.50580800  1
  F  F24  1  0.61014600  0.00603600  0.06043800  1
  F  F25  1  0.69241800  0.58444600  0.82839800  1
  F  F26  1  0.24387800  0.26708800  0.68468800  1
  F  F27  1  0.64298200  0.68656200  0.01213500  1
  F  F28  1  0.36573400  0.15541400  0.02555900  1
  F  F29  1  0.04358000  0.35701800  0.34546900  1
  F  F30  1  0.60973000  0.44330200  0.60960900  1
  F  F31  1  0.31742500  0.84490500  0.91153200  1
  F  F32  1  0.39589000  0.38985400  0.39377100  1
  F  F33  1  0.33092600  0.74187000  0.38968500  1
  F  F34  1  0.31343800  0.95642000  0.67880200  1
  F  F35  1  0.41094400  0.66907400  0.72301900  1
  F  F36  1  0.84458600  0.21032000  0.69222500  1
  F  F37  1  0.78968000  0.63426600  0.35889200  1
  F  F38  1  0.52748000  0.68257500  0.24486500  1
  F  F39  1  0.99396400  0.60411000  0.72710500  1
  F  F40  1  0.05488300  0.91927600  0.83914100  1
  F  F41  1  0.55669800  0.16642800  0.27627600  1
  F  F42  1  0.25794100  0.35118600  0.86446900  1
  F  F43  1  0.09324500  0.74205900  0.19780200  1
  F  F44  1  0.25813000  0.58905600  0.05635200  1
  F  F45  1  0.02982100  0.73004600  0.52021700  1
  F  F46  1  0.15509500  0.47252000  0.57819800  1
  F  F47  1  0.64881400  0.90675500  0.53113600  1
