# generated using pymatgen
data_ZnCr3O7
_symmetry_space_group_name_H-M   'P 1'
_cell_length_a   5.38805900
_cell_length_b   9.95865600
_cell_length_c   10.33785300
_cell_angle_alpha   90.00000000
_cell_angle_beta   90.00000000
_cell_angle_gamma   90.00000000
_symmetry_Int_Tables_number   1
_chemical_formula_structural   ZnCr3O7
_chemical_formula_sum   'Zn4 Cr12 O28'
_cell_volume   554.70671840
_cell_formula_units_Z   4
loop_
 _symmetry_equiv_pos_site_id
 _symmetry_equiv_pos_as_xyz
  1  'x, y, z'
loop_
 _atom_site_type_symbol
 _atom_site_label
 _atom_site_symmetry_multiplicity
 _atom_site_fract_x
 _atom_site_fract_y
 _atom_site_fract_z
 _atom_site_occupancy
  Zn  Zn0  1  0.36351100  0.04535400  0.25000000  1
  Zn  Zn1  1  0.86351100  0.45464600  0.75000000  1
  Zn  Zn2  1  0.63648900  0.95464600  0.75000000  1
  Zn  Zn3  1  0.13648900  0.54535400  0.25000000  1
  Cr  Cr4  1  0.70765400  0.69100200  0.97654900  1
  Cr  Cr5  1  0.20765400  0.80899800  0.02345100  1
  Cr  Cr6  1  0.29234600  0.30899800  0.47654900  1
  Cr  Cr7  1  0.79234600  0.19100200  0.52345100  1
  Cr  Cr8  1  0.70286100  0.77302100  0.25000000  1
  Cr  Cr9  1  0.20286100  0.72697900  0.75000000  1
  Cr  Cr10  1  0.29713900  0.22697900  0.75000000  1
  Cr  Cr11  1  0.79713900  0.27302100  0.25000000  1
  Cr  Cr12  1  0.20765400  0.80899800  0.47654900  1
  Cr  Cr13  1  0.70765400  0.69100200  0.52345100  1
  Cr  Cr14  1  0.79234600  0.19100200  0.97654900  1
  Cr  Cr15  1  0.29234600  0.30899800  0.02345100  1
  O  O16  1  0.05147700  0.28653600  0.88117100  1
  O  O17  1  0.55147700  0.21346400  0.11882900  1
  O  O18  1  0.94852300  0.71346400  0.38117100  1
  O  O19  1  0.44852300  0.78653600  0.61882900  1
  O  O20  1  0.94852300  0.71346400  0.11882900  1
  O  O21  1  0.44852300  0.78653600  0.88117100  1
  O  O22  1  0.05147700  0.28653600  0.61882900  1
  O  O23  1  0.55147700  0.21346400  0.38117100  1
  O  O24  1  0.52965800  0.28191600  0.88314900  1
  O  O25  1  0.02965800  0.21808400  0.11685100  1
  O  O26  1  0.47034200  0.71808400  0.38314900  1
  O  O27  1  0.97034200  0.78191600  0.61685100  1
  O  O28  1  0.47034200  0.71808400  0.11685100  1
  O  O29  1  0.97034200  0.78191600  0.88314900  1
  O  O30  1  0.52965800  0.28191600  0.61685100  1
  O  O31  1  0.02965800  0.21808400  0.38314900  1
  O  O32  1  0.81523900  0.44680200  0.25000000  1
  O  O33  1  0.31523900  0.05319800  0.75000000  1
  O  O34  1  0.18476100  0.55319800  0.75000000  1
  O  O35  1  0.68476100  0.94680200  0.25000000  1
  O  O36  1  0.77521700  0.03464600  0.58860900  1
  O  O37  1  0.27521700  0.46535400  0.41139100  1
  O  O38  1  0.22478300  0.96535400  0.08860900  1
  O  O39  1  0.72478300  0.53464600  0.91139100  1
  O  O40  1  0.22478300  0.96535400  0.41139100  1
  O  O41  1  0.72478300  0.53464600  0.58860900  1
  O  O42  1  0.77521700  0.03464600  0.91139100  1
  O  O43  1  0.27521700  0.46535400  0.08860900  1
