# generated using pymatgen
data_Ca(BiO2)2
_symmetry_space_group_name_H-M   'P 1'
_cell_length_a   7.06996896
_cell_length_b   7.06996896
_cell_length_c   17.30987900
_cell_angle_alpha   90.00000000
_cell_angle_beta   90.00000000
_cell_angle_gamma   120.00000898
_symmetry_Int_Tables_number   1
_chemical_formula_structural   Ca(BiO2)2
_chemical_formula_sum   'Ca6 Bi12 O24'
_cell_volume   749.30673910
_cell_formula_units_Z   6
loop_
 _symmetry_equiv_pos_site_id
 _symmetry_equiv_pos_as_xyz
  1  'x, y, z'
loop_
 _atom_site_type_symbol
 _atom_site_label
 _atom_site_symmetry_multiplicity
 _atom_site_fract_x
 _atom_site_fract_y
 _atom_site_fract_z
 _atom_site_occupancy
  Ca  Ca0  1  0.66666700  0.33333300  0.95595900  1
  Ca  Ca1  1  0.33333300  0.66666700  0.62543000  1
  Ca  Ca2  1  0.33333300  0.66666700  0.99830400  1
  Ca  Ca3  1  0.00000000  0.00000000  0.29205500  1
  Ca  Ca4  1  0.66666700  0.33333300  0.70856700  1
  Ca  Ca5  1  0.33333300  0.66666700  0.37558500  1
  Bi  Bi6  1  0.16959600  0.83040400  0.83560800  1
  Bi  Bi7  1  0.16959600  0.33919200  0.83560800  1
  Bi  Bi8  1  0.83392700  0.16607300  0.50150300  1
  Bi  Bi9  1  0.66080800  0.83040400  0.83560800  1
  Bi  Bi10  1  0.00000000  0.00000000  0.67082900  1
  Bi  Bi11  1  0.83392700  0.66785400  0.50150300  1
  Bi  Bi12  1  0.50042700  0.49957300  0.16711500  1
  Bi  Bi13  1  0.33214600  0.16607300  0.50150300  1
  Bi  Bi14  1  0.99914700  0.49957300  0.16711500  1
  Bi  Bi15  1  0.66666700  0.33333300  0.33599100  1
  Bi  Bi16  1  0.50042700  0.00085300  0.16711500  1
  Bi  Bi17  1  0.00000000  0.00000000  0.04504600  1
  O  O18  1  0.48681800  0.97363600  0.91233400  1
  O  O19  1  0.33333300  0.66666700  0.76088300  1
  O  O20  1  0.02636400  0.51318200  0.91233400  1
  O  O21  1  0.48681800  0.51318200  0.91233400  1
  O  O22  1  0.84462700  0.15537300  0.75080100  1
  O  O23  1  0.15794700  0.31589500  0.57897700  1
  O  O24  1  0.31074600  0.15537300  0.75080100  1
  O  O25  1  0.00000000  0.00000000  0.91589000  1
  O  O26  1  0.68410500  0.84205300  0.57897700  1
  O  O27  1  0.00000000  0.00000000  0.42483600  1
  O  O28  1  0.84462700  0.68925400  0.75080100  1
  O  O29  1  0.15794700  0.84205300  0.57897700  1
  O  O30  1  0.51166800  0.48833200  0.41778500  1
  O  O31  1  0.82331600  0.64663200  0.24493700  1
  O  O32  1  0.97666400  0.48833200  0.41778500  1
  O  O33  1  0.66666700  0.33333300  0.57586600  1
  O  O34  1  0.66666700  0.33333300  0.09079400  1
  O  O35  1  0.35336800  0.17668400  0.24493700  1
  O  O36  1  0.51166800  0.02333600  0.41778500  1
  O  O37  1  0.82331600  0.17668400  0.24493700  1
  O  O38  1  0.17822100  0.82177900  0.08476100  1
  O  O39  1  0.33333300  0.66666700  0.24252100  1
  O  O40  1  0.64355900  0.82177900  0.08476100  1
  O  O41  1  0.17822100  0.35644100  0.08476100  1
