# generated using pymatgen
data_BaV4ZnO8
_symmetry_space_group_name_H-M   'P 1'
_cell_length_a   5.49038398
_cell_length_b   5.49038398
_cell_length_c   7.41580000
_cell_angle_alpha   90.00000000
_cell_angle_beta   90.00000000
_cell_angle_gamma   119.99999979
_symmetry_Int_Tables_number   1
_chemical_formula_structural   BaV4ZnO8
_chemical_formula_sum   'Ba1 V4 Zn1 O8'
_cell_volume   193.59497434
_cell_formula_units_Z   1
loop_
 _symmetry_equiv_pos_site_id
 _symmetry_equiv_pos_as_xyz
  1  'x, y, z'
loop_
 _atom_site_type_symbol
 _atom_site_label
 _atom_site_symmetry_multiplicity
 _atom_site_fract_x
 _atom_site_fract_y
 _atom_site_fract_z
 _atom_site_occupancy
  Ba  Ba0  1  0.00000000  0.00000000  0.00000000  1
  V  V1  1  0.33333300  0.66666700  0.74396600  1
  V  V2  1  0.66666700  0.33333300  0.74396600  1
  V  V3  1  0.33333300  0.66666700  0.25603400  1
  V  V4  1  0.66666700  0.33333300  0.25603400  1
  Zn  Zn5  1  0.00000000  0.00000000  0.50000000  1
  O  O6  1  0.31677300  0.31677300  0.67765900  1
  O  O7  1  0.68322700  0.00000000  0.67765900  1
  O  O8  1  0.00000000  0.68322700  0.67765900  1
  O  O9  1  0.68322700  0.68322700  0.32234100  1
  O  O10  1  0.00000000  0.31677300  0.32234100  1
  O  O11  1  0.31677300  0.00000000  0.32234100  1
  O  O12  1  0.33333300  0.66666700  0.00000000  1
  O  O13  1  0.66666700  0.33333300  0.00000000  1
