# generated using pymatgen
data_Ba2YFe2F11
_symmetry_space_group_name_H-M   'P 1'
_cell_length_a   7.92317763
_cell_length_b   7.92317763
_cell_length_c   13.71772600
_cell_angle_alpha   90.00000000
_cell_angle_beta   90.00000000
_cell_angle_gamma   119.99999691
_symmetry_Int_Tables_number   1
_chemical_formula_structural   Ba2YFe2F11
_chemical_formula_sum   'Ba6 Y3 Fe6 F33'
_cell_volume   745.78141109
_cell_formula_units_Z   3
loop_
 _symmetry_equiv_pos_site_id
 _symmetry_equiv_pos_as_xyz
  1  'x, y, z'
loop_
 _atom_site_type_symbol
 _atom_site_label
 _atom_site_symmetry_multiplicity
 _atom_site_fract_x
 _atom_site_fract_y
 _atom_site_fract_z
 _atom_site_occupancy
  Ba  Ba0  1  0.88701300  0.85756200  0.66503900  1
  Ba  Ba1  1  0.51315500  0.18741500  0.81560600  1
  Ba  Ba2  1  0.97054800  0.11298700  0.99837300  1
  Ba  Ba3  1  0.81258500  0.32574100  0.48227300  1
  Ba  Ba4  1  0.67425900  0.48684500  0.14893900  1
  Ba  Ba5  1  0.14243800  0.02945200  0.33170600  1
  Y  Y6  1  0.46766400  0.67274700  0.89300400  1
  Y  Y7  1  0.20508300  0.53233600  0.22633700  1
  Y  Y8  1  0.32725300  0.79491700  0.55967000  1
  Fe  Fe9  1  0.96684300  0.66095900  0.88610900  1
  Fe  Fe10  1  0.10567400  0.40490000  0.72311600  1
  Fe  Fe11  1  0.59510000  0.70077400  0.38978300  1
  Fe  Fe12  1  0.69411600  0.03315700  0.21944200  1
  Fe  Fe13  1  0.29922600  0.89432600  0.05644900  1
  Fe  Fe14  1  0.33904100  0.30588400  0.55277600  1
  F  F15  1  0.00713800  0.76257100  0.03097400  1
  F  F16  1  0.84093200  0.38328200  0.92754600  1
  F  F17  1  0.75543300  0.99286200  0.36430700  1
  F  F18  1  0.42399600  0.08686900  0.49100900  1
  F  F19  1  0.89855200  0.96565200  0.17875400  1
  F  F20  1  0.28528900  0.31325600  0.19105600  1
  F  F21  1  0.91313100  0.33712700  0.15767600  1
  F  F22  1  0.68674400  0.97203300  0.85772300  1
  F  F23  1  0.06710000  0.10144800  0.51208800  1
  F  F24  1  0.59088100  0.00628300  0.07480700  1
  F  F25  1  0.66287300  0.57600400  0.82434300  1
  F  F26  1  0.23742900  0.24456700  0.69764100  1
  F  F27  1  0.65136600  0.69105700  0.00953400  1
  F  F28  1  0.36440500  0.16791800  0.00724000  1
  F  F29  1  0.03969000  0.34863400  0.34286700  1
  F  F30  1  0.61671800  0.45765000  0.59421300  1
  F  F31  1  0.29154100  0.82020700  0.90240500  1
  F  F32  1  0.41540200  0.40911900  0.40814000  1
  F  F33  1  0.32710300  0.72591400  0.39306000  1
  F  F34  1  0.30894300  0.96031000  0.67620100  1
  F  F35  1  0.39881100  0.67289700  0.72639300  1
  F  F36  1  0.83208200  0.19648600  0.67390700  1
  F  F37  1  0.80351400  0.63559500  0.34057400  1
  F  F38  1  0.52866600  0.70845900  0.23573800  1
  F  F39  1  0.99371700  0.58459800  0.74147300  1
  F  F40  1  0.03434800  0.93290000  0.84542100  1
  F  F41  1  0.54235000  0.15906800  0.26088000  1
  F  F42  1  0.20149400  0.38850500  0.86871200  1
  F  F43  1  0.18701100  0.79850600  0.20204500  1
  F  F44  1  0.27408600  0.60118900  0.05972700  1
  F  F45  1  0.02796700  0.71471100  0.52438900  1
  F  F46  1  0.17979300  0.47133400  0.56907100  1
  F  F47  1  0.61149500  0.81298900  0.53537900  1
