# generated using pymatgen
data_Pr(WO3)2
_symmetry_space_group_name_H-M   'P 1'
_cell_length_a   5.55934900
_cell_length_b   5.70991609
_cell_length_c   7.96607670
_cell_angle_alpha   90.57582958
_cell_angle_beta   90.41729650
_cell_angle_gamma   90.01017492
_symmetry_Int_Tables_number   1
_chemical_formula_structural   Pr(WO3)2
_chemical_formula_sum   'Pr2 W4 O12'
_cell_volume   252.85100409
_cell_formula_units_Z   2
loop_
 _symmetry_equiv_pos_site_id
 _symmetry_equiv_pos_as_xyz
  1  'x, y, z'
loop_
 _atom_site_type_symbol
 _atom_site_label
 _atom_site_symmetry_multiplicity
 _atom_site_fract_x
 _atom_site_fract_y
 _atom_site_fract_z
 _atom_site_occupancy
  Pr  Pr0  1  0.99171500  0.05056100  0.74966600  1
  Pr  Pr1  1  0.48412500  0.44380500  0.24887000  1
  W  W2  1  0.99724000  0.50830800  0.99731500  1
  W  W3  1  0.99694300  0.50798600  0.49862100  1
  W  W4  1  0.49784000  0.99330900  0.50103600  1
  W  W5  1  0.50121100  0.99093100  0.00177000  1
  O  O6  1  0.90757300  0.51520400  0.24928000  1
  O  O7  1  0.79811600  0.79654000  0.95361900  1
  O  O8  1  0.79706500  0.79749300  0.54739800  1
  O  O9  1  0.71228900  0.26319000  0.53361700  1
  O  O10  1  0.73102600  0.28823700  0.96991200  1
  O  O11  1  0.55964200  0.02079300  0.25066400  1
  O  O12  1  0.41249100  0.98670300  0.74927300  1
  O  O13  1  0.28160700  0.69477200  0.04441700  1
  O  O14  1  0.30677500  0.71717600  0.45678200  1
  O  O15  1  0.22035700  0.22256200  0.03232600  1
  O  O16  1  0.22277000  0.22468200  0.46548300  1
  O  O17  1  0.06034700  0.47774700  0.74995200  1
