# generated using pymatgen
data_Y4Si2Sb2W13O28
_symmetry_space_group_name_H-M   'P 1'
_cell_length_a   12.97580073
_cell_length_b   12.97580073
_cell_length_c   9.62454075
_cell_angle_alpha   85.53622521
_cell_angle_beta   85.53622521
_cell_angle_gamma   152.18777459
_symmetry_Int_Tables_number   1
_chemical_formula_structural   Y4Si2Sb2W13O28
_chemical_formula_sum   'Y4 Si2 Sb2 W13 O28'
_cell_volume   715.34045697
_cell_formula_units_Z   1
loop_
 _symmetry_equiv_pos_site_id
 _symmetry_equiv_pos_as_xyz
  1  'x, y, z'
loop_
 _atom_site_type_symbol
 _atom_site_label
 _atom_site_symmetry_multiplicity
 _atom_site_fract_x
 _atom_site_fract_y
 _atom_site_fract_z
 _atom_site_occupancy
  Y  Y0  1  0.29312500  0.86962500  0.66164100  1
  Y  Y1  1  0.13037500  0.70687500  0.33835900  1
  Y  Y2  1  0.70687500  0.13037500  0.33835900  1
  Y  Y3  1  0.86962500  0.29312500  0.66164100  1
  Si  Si4  1  0.55477500  0.55477500  0.29143800  1
  Si  Si5  1  0.44522500  0.44522500  0.70856200  1
  Sb  Sb6  1  0.11898000  0.88102000  0.00000000  1
  Sb  Sb7  1  0.88102000  0.11898000  0.00000000  1
  W  W8  1  0.49993300  0.76837900  0.63336000  1
  W  W9  1  0.03300800  0.87208800  0.31146400  1
  W  W10  1  0.23162100  0.50006700  0.36664000  1
  W  W11  1  0.50006700  0.23162100  0.36664000  1
  W  W12  1  0.96699200  0.12791200  0.68853600  1
  W  W13  1  0.71674200  0.28325800  0.00000000  1
  W  W14  1  0.12791200  0.96699200  0.68853600  1
  W  W15  1  0.00000000  0.00000000  0.00000000  1
  W  W16  1  0.57797500  0.42202500  0.00000000  1
  W  W17  1  0.87208800  0.03300800  0.31146400  1
  W  W18  1  0.76837900  0.49993300  0.63336000  1
  W  W19  1  0.42202500  0.57797500  0.00000000  1
  W  W20  1  0.28325800  0.71674200  0.00000000  1
  O  O21  1  0.84124300  0.56428800  0.39078600  1
  O  O22  1  0.44162900  0.01367400  0.40343600  1
  O  O23  1  0.81134500  0.81134500  0.31478500  1
  O  O24  1  0.62124000  0.62124000  0.10437500  1
  O  O25  1  0.55837100  0.98632600  0.59656400  1
  O  O26  1  0.15875700  0.43571200  0.60921400  1
  O  O27  1  0.91539900  0.41042500  0.13503800  1
  O  O28  1  0.08460100  0.58957500  0.86496200  1
  O  O29  1  0.37876000  0.37876000  0.89562500  1
  O  O30  1  0.84140100  0.73984700  0.85173400  1
  O  O31  1  0.48299300  0.37583700  0.35968400  1
  O  O32  1  0.43571200  0.15875700  0.60921400  1
  O  O33  1  0.58957500  0.08460100  0.86496200  1
  O  O34  1  0.26015300  0.15859900  0.14826600  1
  O  O35  1  0.62416300  0.51700700  0.64031600  1
  O  O36  1  0.18865500  0.18865500  0.68521500  1
  O  O37  1  0.73984700  0.84140100  0.85173400  1
  O  O38  1  0.15859900  0.26015300  0.14826600  1
  O  O39  1  0.41042500  0.91539900  0.13503800  1
  O  O40  1  0.61943300  0.32865200  0.13148600  1
  O  O41  1  0.38056700  0.67134800  0.86851400  1
  O  O42  1  0.37583700  0.48299300  0.35968400  1
  O  O43  1  0.32865200  0.61943300  0.13148600  1
  O  O44  1  0.01367400  0.44162900  0.40343600  1
  O  O45  1  0.51700700  0.62416300  0.64031600  1
  O  O46  1  0.67134800  0.38056700  0.86851400  1
  O  O47  1  0.56428800  0.84124300  0.39078600  1
  O  O48  1  0.98632600  0.55837100  0.59656400  1
