# generated using pymatgen
data_CaLaCrCoO6
_symmetry_space_group_name_H-M   'P 1'
_cell_length_a   5.52243400
_cell_length_b   5.47474700
_cell_length_c   9.47076202
_cell_angle_alpha   54.96016037
_cell_angle_beta   90.00000000
_cell_angle_gamma   90.00000000
_symmetry_Int_Tables_number   1
_chemical_formula_structural   CaLaCrCoO6
_chemical_formula_sum   'Ca2 La2 Cr2 Co2 O12'
_cell_volume   234.44038556
_cell_formula_units_Z   2
loop_
 _symmetry_equiv_pos_site_id
 _symmetry_equiv_pos_as_xyz
  1  'x, y, z'
loop_
 _atom_site_type_symbol
 _atom_site_label
 _atom_site_symmetry_multiplicity
 _atom_site_fract_x
 _atom_site_fract_y
 _atom_site_fract_z
 _atom_site_occupancy
  Ca  Ca0  1  0.70753900  0.25938900  0.24999600  1
  Ca  Ca1  1  0.29246100  0.25938900  0.74999600  1
  La  La2  1  0.21721000  0.74321400  0.25019300  1
  La  La3  1  0.78279000  0.74321400  0.75019300  1
  Cr  Cr4  1  0.25029900  0.99934500  0.50040900  1
  Cr  Cr5  1  0.74970100  0.99934500  0.00040900  1
  Co  Co6  1  0.24958000  0.50066300  0.99913600  1
  Co  Co7  1  0.75042000  0.50066300  0.49913600  1
  O  O8  1  0.73180300  0.18241500  0.74656300  1
  O  O9  1  0.46223600  0.74302900  0.03739800  1
  O  O10  1  0.46877200  0.32647500  0.46064400  1
  O  O11  1  0.96381000  0.66393600  0.04270100  1
  O  O12  1  0.95822300  0.25572900  0.45902200  1
  O  O13  1  0.23491200  0.82580900  0.75393800  1
  O  O14  1  0.26819700  0.18241500  0.24656300  1
  O  O15  1  0.53776400  0.74302900  0.53739800  1
  O  O16  1  0.53122800  0.32647500  0.96064400  1
  O  O17  1  0.03619000  0.66393600  0.54270100  1
  O  O18  1  0.04177700  0.25572900  0.95902200  1
  O  O19  1  0.76508800  0.82580900  0.25393800  1
