# generated using pymatgen
data_Zn(SbO2)2
_symmetry_space_group_name_H-M   'P 1'
_cell_length_a   5.97983800
_cell_length_b   6.04485659
_cell_length_c   21.15904019
_cell_angle_alpha   92.49067434
_cell_angle_beta   94.67277838
_cell_angle_gamma   112.57629477
_symmetry_Int_Tables_number   1
_chemical_formula_structural   Zn(SbO2)2
_chemical_formula_sum   'Zn6 Sb12 O24'
_cell_volume   701.55897998
_cell_formula_units_Z   6
loop_
 _symmetry_equiv_pos_site_id
 _symmetry_equiv_pos_as_xyz
  1  'x, y, z'
loop_
 _atom_site_type_symbol
 _atom_site_label
 _atom_site_symmetry_multiplicity
 _atom_site_fract_x
 _atom_site_fract_y
 _atom_site_fract_z
 _atom_site_occupancy
  Zn  Zn0  1  0.87696600  0.17322300  0.93745000  1
  Zn  Zn1  1  0.50947300  0.51178400  0.58443800  1
  Zn  Zn2  1  0.45625500  0.47457000  0.03010500  1
  Zn  Zn3  1  0.17930300  0.78035000  0.30244800  1
  Zn  Zn4  1  0.79449600  0.17924800  0.71596700  1
  Zn  Zn5  1  0.42257500  0.46230300  0.36850800  1
  Sb  Sb6  1  0.80391000  0.64070100  0.83484200  1
  Sb  Sb7  1  0.30747900  0.70230500  0.90732000  1
  Sb  Sb8  1  0.46805800  0.94941900  0.45703200  1
  Sb  Sb9  1  0.34126800  0.14633900  0.81780300  1
  Sb  Sb10  1  0.11654600  0.77645400  0.69078100  1
  Sb  Sb11  1  0.92224600  0.08874800  0.57033000  1
  Sb  Sb12  1  0.23080200  0.21580900  0.21377000  1
  Sb  Sb13  1  0.97215200  0.51347800  0.45650500  1
  Sb  Sb14  1  0.58153500  0.80030000  0.17787700  1
  Sb  Sb15  1  0.84802900  0.16818400  0.32429600  1
  Sb  Sb16  1  0.83492600  0.31537500  0.09448800  1
  Sb  Sb17  1  0.12343800  0.89263900  0.06052700  1
  O  O18  1  0.73031800  0.31062200  0.86754000  1
  O  O19  1  0.44866100  0.49161900  0.80058800  1
  O  O20  1  0.66385200  0.82119200  0.92048000  1
  O  O21  1  0.24079800  0.40275600  0.95109300  1
  O  O22  1  0.47070700  0.00702800  0.74914100  1
  O  O23  1  0.35739400  0.64978900  0.50466000  1
  O  O24  1  0.92373800  0.53390300  0.75035700  1
  O  O25  1  0.24849100  0.90173300  0.97812300  1
  O  O26  1  0.27087500  0.21467100  0.59975400  1
  O  O27  1  0.13203700  0.79397500  0.40552000  1
  O  O28  1  0.03842000  0.03090400  0.73949300  1
  O  O29  1  0.80966900  0.77663700  0.61425300  1
  O  O30  1  0.09687900  0.30689900  0.40351100  1
  O  O31  1  0.19555100  0.11052200  0.30341700  1
  O  O32  1  0.58634800  0.81608000  0.38650500  1
  O  O33  1  0.80307600  0.26605100  0.62707600  1
  O  O34  1  0.90988700  0.10561100  0.03187700  1
  O  O35  1  0.05007000  0.44796300  0.27480900  1
  O  O36  1  0.69488400  0.36182900  0.37908300  1
  O  O37  1  0.36665800  0.93190600  0.21875300  1
  O  O38  1  0.81928200  0.53698400  0.02888900  1
  O  O39  1  0.52159200  0.52391200  0.23309000  1
  O  O40  1  0.47075900  0.21277500  0.08817700  1
  O  O41  1  0.36060100  0.65341200  0.09932600  1
