# generated using pymatgen
data_ZnCr2O4
_symmetry_space_group_name_H-M   'P 1'
_cell_length_a   6.05605360
_cell_length_b   6.05605360
_cell_length_c   6.05605351
_cell_angle_alpha   59.38594284
_cell_angle_beta   59.38594284
_cell_angle_gamma   59.38594467
_symmetry_Int_Tables_number   1
_chemical_formula_structural   ZnCr2O4
_chemical_formula_sum   'Zn2 Cr4 O8'
_cell_volume   154.86101046
_cell_formula_units_Z   2
loop_
 _symmetry_equiv_pos_site_id
 _symmetry_equiv_pos_as_xyz
  1  'x, y, z'
loop_
 _atom_site_type_symbol
 _atom_site_label
 _atom_site_symmetry_multiplicity
 _atom_site_fract_x
 _atom_site_fract_y
 _atom_site_fract_z
 _atom_site_occupancy
  Zn  Zn0  1  0.00334100  0.00334100  0.00334100  1
  Zn  Zn1  1  0.62664700  0.62664700  0.62664700  1
  Cr  Cr2  1  0.24548400  0.24548400  0.24548400  1
  Cr  Cr3  1  0.62569500  0.62569500  0.12154500  1
  Cr  Cr4  1  0.12154500  0.62569500  0.62569500  1
  Cr  Cr5  1  0.62569500  0.12154500  0.62569500  1
  O  O6  1  0.37512700  0.85249900  0.37512700  1
  O  O7  1  0.85249900  0.37512700  0.37512700  1
  O  O8  1  0.37512700  0.37512700  0.85249900  1
  O  O9  1  0.38579700  0.38579700  0.38579700  1
  O  O10  1  0.86427500  0.86427500  0.86427500  1
  O  O11  1  0.87084000  0.87084000  0.40708600  1
  O  O12  1  0.40708600  0.87084000  0.87084000  1
  O  O13  1  0.87084000  0.40708600  0.87084000  1
