# generated using pymatgen
data_CaHoTi2O6
_symmetry_space_group_name_H-M   'P 1'
_cell_length_a   5.36466100
_cell_length_b   5.57851700
_cell_length_c   7.69880100
_cell_angle_alpha   90.00000000
_cell_angle_beta   90.00000000
_cell_angle_gamma   90.00000000
_symmetry_Int_Tables_number   1
_chemical_formula_structural   CaHoTi2O6
_chemical_formula_sum   'Ca2 Ho2 Ti4 O12'
_cell_volume   230.40088263
_cell_formula_units_Z   2
loop_
 _symmetry_equiv_pos_site_id
 _symmetry_equiv_pos_as_xyz
  1  'x, y, z'
loop_
 _atom_site_type_symbol
 _atom_site_label
 _atom_site_symmetry_multiplicity
 _atom_site_fract_x
 _atom_site_fract_y
 _atom_site_fract_z
 _atom_site_occupancy
  Ca  Ca0  1  0.48858100  0.19744800  0.00000000  1
  Ca  Ca1  1  0.98858100  0.80255200  0.50000000  1
  Ho  Ho2  1  0.01841000  0.68581700  0.00000000  1
  Ho  Ho3  1  0.51841000  0.31418300  0.50000000  1
  Ti  Ti4  1  0.00037500  0.24628700  0.75005200  1
  Ti  Ti5  1  0.00037500  0.24628700  0.24994800  1
  Ti  Ti6  1  0.50037500  0.75371300  0.25005200  1
  Ti  Ti7  1  0.50037500  0.75371300  0.74994800  1
  O  O8  1  0.10946800  0.22194500  0.50000000  1
  O  O9  1  0.19350400  0.94697100  0.80395500  1
  O  O10  1  0.19350400  0.94697100  0.19604500  1
  O  O11  1  0.29107500  0.46191400  0.79922300  1
  O  O12  1  0.29107500  0.46191400  0.20077700  1
  O  O13  1  0.41363300  0.71625000  0.50000000  1
  O  O14  1  0.60946800  0.77805500  0.00000000  1
  O  O15  1  0.69350400  0.05302900  0.30395500  1
  O  O16  1  0.69350400  0.05302900  0.69604500  1
  O  O17  1  0.79107500  0.53808600  0.70077700  1
  O  O18  1  0.79107500  0.53808600  0.29922300  1
  O  O19  1  0.91363300  0.28375000  0.00000000  1
