# generated using pymatgen
data_PrV2O6
_symmetry_space_group_name_H-M   'P 1'
_cell_length_a   5.41441100
_cell_length_b   5.42632500
_cell_length_c   7.61884263
_cell_angle_alpha   89.78103919
_cell_angle_beta   90.00000000
_cell_angle_gamma   90.00000000
_symmetry_Int_Tables_number   1
_chemical_formula_structural   PrV2O6
_chemical_formula_sum   'Pr2 V4 O12'
_cell_volume   223.84265736
_cell_formula_units_Z   2
loop_
 _symmetry_equiv_pos_site_id
 _symmetry_equiv_pos_as_xyz
  1  'x, y, z'
loop_
 _atom_site_type_symbol
 _atom_site_label
 _atom_site_symmetry_multiplicity
 _atom_site_fract_x
 _atom_site_fract_y
 _atom_site_fract_z
 _atom_site_occupancy
  Pr  Pr0  1  0.00914500  0.27834600  0.25746200  1
  Pr  Pr1  1  0.50914500  0.72165400  0.74253800  1
  V  V2  1  0.00206200  0.75685300  0.50244600  1
  V  V3  1  0.03561400  0.76056900  0.00685300  1
  V  V4  1  0.53561400  0.23943100  0.99314700  1
  V  V5  1  0.50206200  0.24314700  0.49755400  1
  O  O6  1  0.05380400  0.75668200  0.76009900  1
  O  O7  1  0.23481200  0.03175100  0.47476100  1
  O  O8  1  0.21935800  0.02803700  0.03041300  1
  O  O9  1  0.25620400  0.52244700  0.02682800  1
  O  O10  1  0.25142500  0.52545900  0.47661700  1
  O  O11  1  0.44807900  0.25459400  0.76028600  1
  O  O12  1  0.55380400  0.24331800  0.23990100  1
  O  O13  1  0.73481200  0.96824900  0.52523900  1
  O  O14  1  0.71935800  0.97196300  0.96958700  1
  O  O15  1  0.75142500  0.47454100  0.52338300  1
  O  O16  1  0.75620400  0.47755300  0.97317200  1
  O  O17  1  0.94807900  0.74540600  0.23971400  1
