# generated using pymatgen
data_Ti2P2O9
_symmetry_space_group_name_H-M   'P 1'
_cell_length_a   6.34027300
_cell_length_b   7.82757300
_cell_length_c   14.04445200
_cell_angle_alpha   90.00000000
_cell_angle_beta   90.00000000
_cell_angle_gamma   90.00000000
_symmetry_Int_Tables_number   1
_chemical_formula_structural   Ti2P2O9
_chemical_formula_sum   'Ti8 P8 O36'
_cell_volume   697.01140254
_cell_formula_units_Z   4
loop_
 _symmetry_equiv_pos_site_id
 _symmetry_equiv_pos_as_xyz
  1  'x, y, z'
loop_
 _atom_site_type_symbol
 _atom_site_label
 _atom_site_symmetry_multiplicity
 _atom_site_fract_x
 _atom_site_fract_y
 _atom_site_fract_z
 _atom_site_occupancy
  Ti  Ti0  1  0.25000000  0.85389100  0.37354000  1
  Ti  Ti1  1  0.75000000  0.14610900  0.62646000  1
  Ti  Ti2  1  0.75000000  0.35389100  0.12646000  1
  Ti  Ti3  1  0.25000000  0.64610900  0.87354000  1
  Ti  Ti4  1  0.00000000  0.50000000  0.50000000  1
  Ti  Ti5  1  0.00000000  0.00000000  0.00000000  1
  Ti  Ti6  1  0.50000000  0.00000000  0.00000000  1
  Ti  Ti7  1  0.50000000  0.50000000  0.50000000  1
  P  P8  1  0.75000000  0.85387800  0.43924100  1
  P  P9  1  0.25000000  0.14612200  0.56075900  1
  P  P10  1  0.25000000  0.35387800  0.06075900  1
  P  P11  1  0.75000000  0.64612200  0.93924100  1
  P  P12  1  0.25000000  0.89229900  0.19037300  1
  P  P13  1  0.25000000  0.60770100  0.69037300  1
  P  P14  1  0.75000000  0.39229900  0.30962700  1
  P  P15  1  0.75000000  0.10770100  0.80962700  1
  O  O16  1  0.55306600  0.08990400  0.87498600  1
  O  O17  1  0.05306600  0.91009600  0.12501400  1
  O  O18  1  0.44693400  0.58990400  0.62501400  1
  O  O19  1  0.94693400  0.41009600  0.37498600  1
  O  O20  1  0.44693400  0.91009600  0.12501400  1
  O  O21  1  0.94693400  0.08990400  0.87498600  1
  O  O22  1  0.55306600  0.41009600  0.37498600  1
  O  O23  1  0.05306600  0.58990400  0.62501400  1
  O  O24  1  0.75000000  0.83443300  0.98387800  1
  O  O25  1  0.25000000  0.16556700  0.01612200  1
  O  O26  1  0.25000000  0.33443300  0.51612200  1
  O  O27  1  0.75000000  0.66556700  0.48387800  1
  O  O28  1  0.25000000  0.63416500  0.45239900  1
  O  O29  1  0.75000000  0.36583500  0.54760100  1
  O  O30  1  0.75000000  0.13416500  0.04760100  1
  O  O31  1  0.25000000  0.86583500  0.95239900  1
  O  O32  1  0.25000000  0.72566700  0.24979400  1
  O  O33  1  0.75000000  0.27433300  0.75020600  1
  O  O34  1  0.75000000  0.22566700  0.25020600  1
  O  O35  1  0.25000000  0.77433300  0.74979400  1
  O  O36  1  0.94703800  0.63841800  0.87774900  1
  O  O37  1  0.44703800  0.36158200  0.12225100  1
  O  O38  1  0.05296200  0.13841800  0.62225100  1
  O  O39  1  0.55296200  0.86158200  0.37774900  1
  O  O40  1  0.05296200  0.36158200  0.12225100  1
  O  O41  1  0.55296200  0.63841800  0.87774900  1
  O  O42  1  0.94703800  0.86158200  0.37774900  1
  O  O43  1  0.44703800  0.13841800  0.62225100  1
  O  O44  1  0.25000000  0.01551700  0.48079400  1
  O  O45  1  0.75000000  0.52806200  0.22886500  1
  O  O46  1  0.75000000  0.97193800  0.72886500  1
  O  O47  1  0.25000000  0.02806200  0.27113500  1
  O  O48  1  0.25000000  0.48448300  0.98079400  1
  O  O49  1  0.75000000  0.51551700  0.01920600  1
  O  O50  1  0.75000000  0.98448300  0.51920600  1
  O  O51  1  0.25000000  0.47193800  0.77113500  1
