# generated using pymatgen
data_MgSn2(PO4)2
_symmetry_space_group_name_H-M   'P 1'
_cell_length_a   5.32150615
_cell_length_b   9.62475686
_cell_length_c   16.34430476
_cell_angle_alpha   87.48228649
_cell_angle_beta   80.64031345
_cell_angle_gamma   74.01468831
_symmetry_Int_Tables_number   1
_chemical_formula_structural   MgSn2(PO4)2
_chemical_formula_sum   'Mg4 Sn8 P8 O32'
_cell_volume   794.04202567
_cell_formula_units_Z   4
loop_
 _symmetry_equiv_pos_site_id
 _symmetry_equiv_pos_as_xyz
  1  'x, y, z'
loop_
 _atom_site_type_symbol
 _atom_site_label
 _atom_site_symmetry_multiplicity
 _atom_site_fract_x
 _atom_site_fract_y
 _atom_site_fract_z
 _atom_site_occupancy
  Mg  Mg0  1  0.37761800  0.85253300  0.84498000  1
  Mg  Mg1  1  0.07711200  0.64650900  0.65457000  1
  Mg  Mg2  1  0.92243200  0.35368000  0.34373000  1
  Mg  Mg3  1  0.62027200  0.14594400  0.15474800  1
  Sn  Sn4  1  0.19622700  0.19727500  0.98753400  1
  Sn  Sn5  1  0.38383000  0.29962200  0.51155300  1
  Sn  Sn6  1  0.80222300  0.79694000  0.01161200  1
  Sn  Sn7  1  0.49796000  0.49568600  0.99925600  1
  Sn  Sn8  1  0.61528100  0.70103300  0.48810500  1
  Sn  Sn9  1  0.65010100  0.75048100  0.25103000  1
  Sn  Sn10  1  0.34833000  0.24942700  0.74972100  1
  Sn  Sn11  1  0.99722700  0.00417400  0.50131800  1
  P  P12  1  0.09051800  0.58718600  0.86174000  1
  P  P13  1  0.69746700  0.43780200  0.62176400  1
  P  P14  1  0.90761100  0.41284600  0.13712400  1
  P  P15  1  0.24162800  0.93751800  0.12172700  1
  P  P16  1  0.45462600  0.08677200  0.36185700  1
  P  P17  1  0.54279300  0.91282200  0.63805100  1
  P  P18  1  0.30440000  0.55956800  0.37771300  1
  P  P19  1  0.75718800  0.06062000  0.87755800  1
  O  O20  1  0.74005100  0.31856600  0.10676600  1
  O  O21  1  0.63128400  0.92910900  0.90036100  1
  O  O22  1  0.83338900  0.81856800  0.60644700  1
  O  O23  1  0.75412200  0.32003400  0.55266800  1
  O  O24  1  0.17911800  0.37696900  0.07338300  1
  O  O25  1  0.60613000  0.38118600  0.70756300  1
  O  O26  1  0.62725000  0.17819600  0.94678900  1
  O  O27  1  0.94336900  0.99036200  0.12183900  1
  O  O28  1  0.24964800  0.67704900  0.44656600  1
  O  O29  1  0.46290200  0.56932700  0.59904700  1
  O  O30  1  0.76301700  0.57386100  0.12619900  1
  O  O31  1  0.55603700  0.12933200  0.27453500  1
  O  O32  1  0.36745500  0.06932800  0.09871000  1
  O  O33  1  0.94357500  0.49049500  0.62094900  1
  O  O34  1  0.25002500  0.68395700  0.89380700  1
  O  O35  1  0.24267000  0.42709100  0.87313800  1
  O  O36  1  0.03649400  0.63091500  0.77430300  1
  O  O37  1  0.36903300  0.82033400  0.05248900  1
  O  O38  1  0.54073400  0.07381700  0.62700800  1
  O  O39  1  0.44534000  0.86789700  0.72521100  1
  O  O40  1  0.05661400  0.50821100  0.37886800  1
  O  O41  1  0.36665700  0.87858900  0.57527000  1
  O  O42  1  0.05517500  0.00890500  0.87794800  1
  O  O43  1  0.30609800  0.88141500  0.20740900  1
  O  O44  1  0.53800600  0.42724400  0.40031700  1
  O  O45  1  0.16484200  0.18288600  0.39229100  1
  O  O46  1  0.96716000  0.36769300  0.22389500  1
  O  O47  1  0.63004100  0.12079100  0.42498500  1
  O  O48  1  0.81662200  0.61993500  0.92395800  1
  O  O49  1  0.69445000  0.11707700  0.79180900  1
  O  O50  1  0.39809600  0.61446000  0.29159600  1
  O  O51  1  0.45250900  0.92653200  0.37386500  1
