# generated using pymatgen
data_CaV2(PO4)2
_symmetry_space_group_name_H-M   'P 1'
_cell_length_a   8.90887803
_cell_length_b   8.90887803
_cell_length_c   17.49409403
_cell_angle_alpha   64.26735978
_cell_angle_beta   64.26735978
_cell_angle_gamma   32.66598710
_symmetry_Int_Tables_number   1
_chemical_formula_structural   CaV2(PO4)2
_chemical_formula_sum   'Ca4 V8 P8 O32'
_cell_volume   668.32829021
_cell_formula_units_Z   4
loop_
 _symmetry_equiv_pos_site_id
 _symmetry_equiv_pos_as_xyz
  1  'x, y, z'
loop_
 _atom_site_type_symbol
 _atom_site_label
 _atom_site_symmetry_multiplicity
 _atom_site_fract_x
 _atom_site_fract_y
 _atom_site_fract_z
 _atom_site_occupancy
  Ca  Ca0  1  0.49414700  0.81871000  0.85011800  1
  Ca  Ca1  1  0.18129000  0.50585300  0.64988200  1
  Ca  Ca2  1  0.81871000  0.49414700  0.35011800  1
  Ca  Ca3  1  0.50585300  0.18129000  0.14988200  1
  V  V4  1  0.17481800  0.63384200  0.96188800  1
  V  V5  1  0.36615800  0.82518200  0.53811200  1
  V  V6  1  0.82518200  0.36615800  0.03811200  1
  V  V7  1  0.50000000  0.00000000  0.00000000  1
  V  V8  1  0.63384200  0.17481800  0.46188800  1
  V  V9  1  0.69482100  0.30517900  0.25000000  1
  V  V10  1  0.30517900  0.69482100  0.75000000  1
  V  V11  1  0.00000000  0.50000000  0.50000000  1
  P  P12  1  0.05459600  0.50412100  0.86748600  1
  P  P13  1  0.76931800  0.20571200  0.61345200  1
  P  P14  1  0.94540400  0.49587900  0.13251400  1
  P  P15  1  0.20571200  0.76931800  0.11345200  1
  P  P16  1  0.50412100  0.05459600  0.36748600  1
  P  P17  1  0.49587900  0.94540400  0.63251400  1
  P  P18  1  0.23068200  0.79428800  0.38654800  1
  P  P19  1  0.79428800  0.23068200  0.88654800  1
  O  O20  1  0.69497300  0.81945300  0.10722500  1
  O  O21  1  0.78674900  0.35289300  0.93186300  1
  O  O22  1  0.81945300  0.69497300  0.60722500  1
  O  O23  1  0.82301400  0.35141300  0.54957200  1
  O  O24  1  0.18969500  0.36812800  0.05493800  1
  O  O25  1  0.55436200  0.35357000  0.69235100  1
  O  O26  1  0.64858700  0.17698600  0.95042800  1
  O  O27  1  0.88990200  0.06198100  0.13850800  1
  O  O28  1  0.17698600  0.64858700  0.45042800  1
  O  O29  1  0.64710700  0.21325100  0.56813700  1
  O  O30  1  0.86600200  0.38588800  0.14327400  1
  O  O31  1  0.59844400  0.94687200  0.28810100  1
  O  O32  1  0.21325100  0.64710700  0.06813700  1
  O  O33  1  0.06198100  0.88990200  0.63850800  1
  O  O34  1  0.30502700  0.18054700  0.89277500  1
  O  O35  1  0.13399800  0.61411200  0.85672600  1
  O  O36  1  0.94687200  0.59844400  0.78810100  1
  O  O37  1  0.35141300  0.82301400  0.04957200  1
  O  O38  1  0.38588800  0.86600200  0.64327400  1
  O  O39  1  0.40155600  0.05312800  0.71189900  1
  O  O40  1  0.93801900  0.11009800  0.36149200  1
  O  O41  1  0.36812800  0.18969500  0.55493800  1
  O  O42  1  0.11009800  0.93801900  0.86149200  1
  O  O43  1  0.35357000  0.55436200  0.19235100  1
  O  O44  1  0.35289300  0.78674900  0.43186300  1
  O  O45  1  0.18054700  0.30502700  0.39277500  1
  O  O46  1  0.05312800  0.40155600  0.21189900  1
  O  O47  1  0.63187200  0.81030500  0.44506200  1
  O  O48  1  0.81030500  0.63187200  0.94506200  1
  O  O49  1  0.64643000  0.44563800  0.80764900  1
  O  O50  1  0.44563800  0.64643000  0.30764900  1
  O  O51  1  0.61411200  0.13399800  0.35672600  1
