# generated using pymatgen
data_Al4Cr13Si2(SbO14)2
_symmetry_space_group_name_H-M   'P 1'
_cell_length_a   12.10961206
_cell_length_b   12.10961206
_cell_length_c   8.69069288
_cell_angle_alpha   87.33952307
_cell_angle_beta   87.33952307
_cell_angle_gamma   152.50069117
_symmetry_Int_Tables_number   1
_chemical_formula_structural   Al4Cr13Si2(SbO14)2
_chemical_formula_sum   'Al4 Cr13 Si2 Sb2 O28'
_cell_volume   577.12039297
_cell_formula_units_Z   1
loop_
 _symmetry_equiv_pos_site_id
 _symmetry_equiv_pos_as_xyz
  1  'x, y, z'
loop_
 _atom_site_type_symbol
 _atom_site_label
 _atom_site_symmetry_multiplicity
 _atom_site_fract_x
 _atom_site_fract_y
 _atom_site_fract_z
 _atom_site_occupancy
  Al  Al0  1  0.07172100  0.50988000  0.66519700  1
  Al  Al1  1  0.49012000  0.92827900  0.33480300  1
  Al  Al2  1  0.92827900  0.49012000  0.33480300  1
  Al  Al3  1  0.50988000  0.07172100  0.66519700  1
  Cr  Cr4  1  0.89449700  0.60602500  0.63675400  1
  Cr  Cr5  1  0.66817000  0.80663500  0.34971900  1
  Cr  Cr6  1  0.39397500  0.10550300  0.36324600  1
  Cr  Cr7  1  0.10550300  0.39397500  0.36324600  1
  Cr  Cr8  1  0.33183000  0.19336500  0.65028100  1
  Cr  Cr9  1  0.28496100  0.71503900  0.00000000  1
  Cr  Cr10  1  0.19336500  0.33183000  0.65028100  1
  Cr  Cr11  1  0.00000000  0.00000000  0.00000000  1
  Cr  Cr12  1  0.42638400  0.57361600  0.00000000  1
  Cr  Cr13  1  0.80663500  0.66817000  0.34971900  1
  Cr  Cr14  1  0.60602500  0.89449700  0.63675400  1
  Cr  Cr15  1  0.57361600  0.42638400  0.00000000  1
  Cr  Cr16  1  0.71503900  0.28496100  0.00000000  1
  Si  Si17  1  0.23666000  0.23666000  0.32082400  1
  Si  Si18  1  0.76334000  0.76334000  0.67917600  1
  Sb  Sb19  1  0.85985300  0.14014700  0.00000000  1
  Sb  Sb20  1  0.14014700  0.85985300  0.00000000  1
  O  O21  1  0.66302900  0.96880800  0.39313400  1
  O  O22  1  0.17154100  0.62408100  0.37408800  1
  O  O23  1  0.95111400  0.95111400  0.33557200  1
  O  O24  1  0.35449800  0.35449800  0.13086900  1
  O  O25  1  0.82845900  0.37591900  0.62591200  1
  O  O26  1  0.33697100  0.03119200  0.60686600  1
  O  O27  1  0.99576400  0.55499200  0.12134700  1
  O  O28  1  0.00423600  0.44500800  0.87865300  1
  O  O29  1  0.64550200  0.64550200  0.86913100  1
  O  O30  1  0.14751700  0.28712000  0.89129900  1
  O  O31  1  0.26183500  0.38068000  0.40120600  1
  O  O32  1  0.03119200  0.33697100  0.60686600  1
  O  O33  1  0.44500800  0.00423600  0.87865300  1
  O  O34  1  0.71288000  0.85248300  0.10870100  1
  O  O35  1  0.61932000  0.73816500  0.59879400  1
  O  O36  1  0.04888600  0.04888600  0.66442800  1
  O  O37  1  0.28712000  0.14751700  0.89129900  1
  O  O38  1  0.85248300  0.71288000  0.10870100  1
  O  O39  1  0.55499200  0.99576400  0.12134700  1
  O  O40  1  0.18819400  0.47320400  0.12192200  1
  O  O41  1  0.81180600  0.52679600  0.87807800  1
  O  O42  1  0.38068000  0.26183500  0.40120600  1
  O  O43  1  0.47320400  0.18819400  0.12192200  1
  O  O44  1  0.62408100  0.17154100  0.37408800  1
  O  O45  1  0.73816500  0.61932000  0.59879400  1
  O  O46  1  0.52679600  0.81180600  0.87807800  1
  O  O47  1  0.96880800  0.66302900  0.39313400  1
  O  O48  1  0.37591900  0.82845900  0.62591200  1
