# generated using pymatgen
data_Ba2YNi2F11
_symmetry_space_group_name_H-M   'P 1'
_cell_length_a   7.86001194
_cell_length_b   7.86001194
_cell_length_c   13.50238900
_cell_angle_alpha   90.00000000
_cell_angle_beta   90.00000000
_cell_angle_gamma   119.99999952
_symmetry_Int_Tables_number   1
_chemical_formula_structural   Ba2YNi2F11
_chemical_formula_sum   'Ba6 Y3 Ni6 F33'
_cell_volume   722.41650778
_cell_formula_units_Z   3
loop_
 _symmetry_equiv_pos_site_id
 _symmetry_equiv_pos_as_xyz
  1  'x, y, z'
loop_
 _atom_site_type_symbol
 _atom_site_label
 _atom_site_symmetry_multiplicity
 _atom_site_fract_x
 _atom_site_fract_y
 _atom_site_fract_z
 _atom_site_occupancy
  Ba  Ba0  1  0.88625000  0.85424800  0.66429600  1
  Ba  Ba1  1  0.51962400  0.19578400  0.81723600  1
  Ba  Ba2  1  0.96799800  0.11375000  0.99762900  1
  Ba  Ba3  1  0.80421600  0.32383900  0.48390300  1
  Ba  Ba4  1  0.67616100  0.48037600  0.15057000  1
  Ba  Ba5  1  0.14575200  0.03200200  0.33096300  1
  Y  Y6  1  0.45988000  0.66848800  0.89481100  1
  Y  Y7  1  0.20860800  0.54012000  0.22814500  1
  Y  Y8  1  0.33151200  0.79139200  0.56147800  1
  Ni  Ni9  1  0.96690000  0.66352700  0.88260300  1
  Ni  Ni10  1  0.11833900  0.40337700  0.71857800  1
  Ni  Ni11  1  0.59662300  0.71496100  0.38524400  1
  Ni  Ni12  1  0.69662700  0.03310000  0.21593600  1
  Ni  Ni13  1  0.28503900  0.88166100  0.05191100  1
  Ni  Ni14  1  0.33647300  0.30337300  0.54926900  1
  F  F15  1  0.99850900  0.75952500  0.02374500  1
  F  F16  1  0.84688200  0.38911300  0.93163300  1
  F  F17  1  0.76101700  0.00149100  0.35707900  1
  F  F18  1  0.41690200  0.08964600  0.49723600  1
  F  F19  1  0.89883100  0.96526700  0.17680100  1
  F  F20  1  0.29014200  0.32179900  0.19305600  1
  F  F21  1  0.91035400  0.32725500  0.16390200  1
  F  F22  1  0.67820100  0.96834200  0.85972300  1
  F  F23  1  0.06643600  0.10116900  0.51013400  1
  F  F24  1  0.57626600  0.00029700  0.07871100  1
  F  F25  1  0.67274500  0.58309800  0.83056900  1
  F  F26  1  0.24047500  0.23898300  0.69041200  1
  F  F27  1  0.63484600  0.68218800  0.01566500  1
  F  F28  1  0.34767800  0.15332700  0.01053200  1
  F  F29  1  0.04734100  0.36515400  0.34899800  1
  F  F30  1  0.61088700  0.45777000  0.59830000  1
  F  F31  1  0.28530900  0.81880100  0.90156100  1
  F  F32  1  0.42403100  0.42373400  0.41204400  1
  F  F33  1  0.33850900  0.73821800  0.38931100  1
  F  F34  1  0.31781200  0.95265900  0.68233200  1
  F  F35  1  0.39970900  0.66149100  0.72264400  1
  F  F36  1  0.84667300  0.19435100  0.67719900  1
  F  F37  1  0.80564900  0.65232200  0.34386600  1
  F  F38  1  0.53349200  0.71469100  0.23489400  1
  F  F39  1  0.99970300  0.57596900  0.74537700  1
  F  F40  1  0.03473300  0.93356400  0.84346800  1
  F  F41  1  0.54223000  0.15311800  0.26496600  1
  F  F42  1  0.19916800  0.38074100  0.86219700  1
  F  F43  1  0.18157200  0.80083200  0.19553000  1
  F  F44  1  0.26178200  0.60029100  0.05597700  1
  F  F45  1  0.03165800  0.70985800  0.52639000  1
  F  F46  1  0.18119900  0.46650800  0.56822800  1
  F  F47  1  0.61925900  0.81842800  0.52886300  1
