# generated using pymatgen
data_LaZnCrBiO6
_symmetry_space_group_name_H-M   'P 1'
_cell_length_a   6.54227000
_cell_length_b   5.65460800
_cell_length_c   9.22862347
_cell_angle_alpha   56.07524216
_cell_angle_beta   90.00000000
_cell_angle_gamma   90.00000000
_symmetry_Int_Tables_number   1
_chemical_formula_structural   LaZnCrBiO6
_chemical_formula_sum   'La2 Zn2 Cr2 Bi2 O12'
_cell_volume   283.28674386
_cell_formula_units_Z   2
loop_
 _symmetry_equiv_pos_site_id
 _symmetry_equiv_pos_as_xyz
  1  'x, y, z'
loop_
 _atom_site_type_symbol
 _atom_site_label
 _atom_site_symmetry_multiplicity
 _atom_site_fract_x
 _atom_site_fract_y
 _atom_site_fract_z
 _atom_site_occupancy
  La  La0  1  0.14694500  0.71750600  0.25514600  1
  La  La1  1  0.85305500  0.71750600  0.75514600  1
  Zn  Zn2  1  0.86294100  0.24839500  0.22939300  1
  Zn  Zn3  1  0.13705900  0.24839500  0.72939300  1
  Cr  Cr4  1  0.28412900  0.97431900  0.51063100  1
  Cr  Cr5  1  0.71587100  0.97431900  0.01063100  1
  Bi  Bi6  1  0.32716300  0.47558500  0.99341600  1
  Bi  Bi7  1  0.67283700  0.47558500  0.49341600  1
  O  O8  1  0.76530900  0.12225200  0.77212700  1
  O  O9  1  0.47895500  0.79808600  0.07491300  1
  O  O10  1  0.38564000  0.34754100  0.44465400  1
  O  O11  1  0.91201400  0.65583000  0.05437500  1
  O  O12  1  0.90361700  0.24305600  0.44187100  1
  O  O13  1  0.19212300  0.91743300  0.72347300  1
  O  O14  1  0.23469100  0.12225200  0.27212700  1
  O  O15  1  0.52104500  0.79808600  0.57491300  1
  O  O16  1  0.61436000  0.34754100  0.94465400  1
  O  O17  1  0.08798600  0.65583000  0.55437500  1
  O  O18  1  0.09638300  0.24305600  0.94187100  1
  O  O19  1  0.80787700  0.91743300  0.22347300  1
