# generated using pymatgen
data_PrZn(WO3)2
_symmetry_space_group_name_H-M   'P 1'
_cell_length_a   5.91415600
_cell_length_b   5.54287100
_cell_length_c   9.83831935
_cell_angle_alpha   55.72147225
_cell_angle_beta   90.00000000
_cell_angle_gamma   90.00000000
_symmetry_Int_Tables_number   1
_chemical_formula_structural   PrZn(WO3)2
_chemical_formula_sum   'Pr2 Zn2 W4 O12'
_cell_volume   266.49629092
_cell_formula_units_Z   2
loop_
 _symmetry_equiv_pos_site_id
 _symmetry_equiv_pos_as_xyz
  1  'x, y, z'
loop_
 _atom_site_type_symbol
 _atom_site_label
 _atom_site_symmetry_multiplicity
 _atom_site_fract_x
 _atom_site_fract_y
 _atom_site_fract_z
 _atom_site_occupancy
  Pr  Pr0  1  0.19615000  0.72811600  0.24968300  1
  Pr  Pr1  1  0.80385000  0.72811600  0.74968300  1
  Zn  Zn2  1  0.83955700  0.22498900  0.25596900  1
  Zn  Zn3  1  0.16044300  0.22498900  0.75596900  1
  W  W4  1  0.72954300  0.99901900  0.00184700  1
  W  W5  1  0.74211300  0.50325300  0.49860500  1
  W  W6  1  0.27045700  0.99901900  0.50184700  1
  W  W7  1  0.25788700  0.50325300  0.99860500  1
  O  O8  1  0.73878400  0.13607300  0.75475100  1
  O  O9  1  0.43686300  0.77738400  0.04881700  1
  O  O10  1  0.44057600  0.37114700  0.44069700  1
  O  O11  1  0.95619000  0.23928200  0.44250900  1
  O  O12  1  0.93737400  0.62810500  0.06889600  1
  O  O13  1  0.21059200  0.88652600  0.74417100  1
  O  O14  1  0.26121600  0.13607300  0.25475100  1
  O  O15  1  0.55942400  0.37114700  0.94069700  1
  O  O16  1  0.56313700  0.77738400  0.54881700  1
  O  O17  1  0.04381000  0.23928200  0.94250900  1
  O  O18  1  0.06262600  0.62810500  0.56889600  1
  O  O19  1  0.78940800  0.88652600  0.24417100  1
