# generated using pymatgen
data_Ca(SnO2)2
_symmetry_space_group_name_H-M   'P 1'
_cell_length_a   6.59284000
_cell_length_b   7.01729549
_cell_length_c   16.77927239
_cell_angle_alpha   94.14737908
_cell_angle_beta   89.71818565
_cell_angle_gamma   117.35431240
_symmetry_Int_Tables_number   1
_chemical_formula_structural   Ca(SnO2)2
_chemical_formula_sum   'Ca6 Sn12 O24'
_cell_volume   687.31642531
_cell_formula_units_Z   6
loop_
 _symmetry_equiv_pos_site_id
 _symmetry_equiv_pos_as_xyz
  1  'x, y, z'
loop_
 _atom_site_type_symbol
 _atom_site_label
 _atom_site_symmetry_multiplicity
 _atom_site_fract_x
 _atom_site_fract_y
 _atom_site_fract_z
 _atom_site_occupancy
  Ca  Ca0  1  0.14533100  0.30244500  0.96318000  1
  Ca  Ca1  1  0.47957500  0.97074200  0.62861500  1
  Ca  Ca2  1  0.82947600  0.65957900  0.66556000  1
  Ca  Ca3  1  0.84148400  0.66771200  0.29190900  1
  Ca  Ca4  1  0.47622400  0.98237100  0.00337400  1
  Ca  Ca5  1  0.49946700  0.02619900  0.37186000  1
  Sn  Sn6  1  0.63898800  0.28897500  0.84081200  1
  Sn  Sn7  1  0.15986800  0.82594700  0.83211200  1
  Sn  Sn8  1  0.98226500  0.97672200  0.50689400  1
  Sn  Sn9  1  0.66226300  0.82668200  0.83439000  1
  Sn  Sn10  1  0.50420400  0.51196000  0.49776300  1
  Sn  Sn11  1  0.17511400  0.34086300  0.33325500  1
  Sn  Sn12  1  0.18753200  0.36701300  0.70377900  1
  Sn  Sn13  1  0.32008900  0.65299500  0.17264300  1
  Sn  Sn14  1  0.00403400  0.50855900  0.49467000  1
  Sn  Sn15  1  0.81580100  0.12255700  0.16124900  1
  Sn  Sn16  1  0.31828200  0.14727300  0.17552900  1
  Sn  Sn17  1  0.84053400  0.66049900  0.03490800  1
  O  O18  1  0.34491100  0.69926900  0.89656500  1
  O  O19  1  0.48389300  0.97612700  0.76704400  1
  O  O20  1  0.78154200  0.12111100  0.90554300  1
  O  O21  1  0.32543500  0.11976700  0.90520400  1
  O  O22  1  0.68948500  0.37463900  0.55875100  1
  O  O23  1  0.05241700  0.57115400  0.74295400  1
  O  O24  1  0.82721300  0.65905900  0.43337200  1
  O  O25  1  0.51997700  0.57544600  0.74388900  1
  O  O26  1  0.87081800  0.73898600  0.90497200  1
  O  O27  1  0.12897800  0.80216300  0.56731600  1
  O  O28  1  0.66611100  0.79994700  0.57050600  1
  O  O29  1  0.96183800  0.93100000  0.76728600  1
  O  O30  1  0.06836500  0.03983500  0.27360700  1
  O  O31  1  0.35841500  0.25269200  0.41602300  1
  O  O32  1  0.88725300  0.25468500  0.40689600  1
  O  O33  1  0.16837300  0.27258100  0.09695200  1
  O  O34  1  0.21323200  0.43362300  0.56834500  1
  O  O35  1  0.45703400  0.43941300  0.25752800  1
  O  O36  1  0.07023600  0.52108300  0.26726800  1
  O  O37  1  0.31990800  0.63196600  0.42405600  1
  O  O38  1  0.69750200  0.86182300  0.06333600  1
  O  O39  1  0.16264000  0.85201200  0.10011100  1
  O  O40  1  0.45556900  0.98586000  0.24213400  1
  O  O41  1  0.60832300  0.24666400  0.10783800  1
