# generated using pymatgen
data_Ba2Cr2F11
_symmetry_space_group_name_H-M   'P 1'
_cell_length_a   7.77360353
_cell_length_b   7.77360353
_cell_length_c   14.27526500
_cell_angle_alpha   90.00000000
_cell_angle_beta   90.00000000
_cell_angle_gamma   119.99999600
_symmetry_Int_Tables_number   1
_chemical_formula_structural   Ba2Cr2F11
_chemical_formula_sum   'Ba6 Cr6 F33'
_cell_volume   747.06708473
_cell_formula_units_Z   3
loop_
 _symmetry_equiv_pos_site_id
 _symmetry_equiv_pos_as_xyz
  1  'x, y, z'
loop_
 _atom_site_type_symbol
 _atom_site_label
 _atom_site_symmetry_multiplicity
 _atom_site_fract_x
 _atom_site_fract_y
 _atom_site_fract_z
 _atom_site_occupancy
  Ba  Ba0  1  0.57270300  0.17872200  0.66298000  1
  Ba  Ba1  1  0.16575600  0.45878900  0.80692200  1
  Ba  Ba2  1  0.60601900  0.42729700  0.99631300  1
  Ba  Ba3  1  0.54121100  0.70696800  0.47358800  1
  Ba  Ba4  1  0.29303200  0.83424400  0.14025500  1
  Ba  Ba5  1  0.82127800  0.39398100  0.32964700  1
  Cr  Cr6  1  0.64371700  0.98131300  0.88560700  1
  Cr  Cr7  1  0.84897000  0.77640400  0.72588900  1
  Cr  Cr8  1  0.22359600  0.07256600  0.39255500  1
  Cr  Cr9  1  0.33759500  0.35628300  0.21894000  1
  Cr  Cr10  1  0.92743400  0.15103000  0.05922200  1
  Cr  Cr11  1  0.01868700  0.66240500  0.55227300  1
  F  F12  1  0.65711100  0.06175700  0.02272400  1
  F  F13  1  0.52791800  0.72011800  0.93680000  1
  F  F14  1  0.40464700  0.34288900  0.35605700  1
  F  F15  1  0.10373100  0.50081100  0.49176600  1
  F  F16  1  0.51873400  0.26487400  0.18339600  1
  F  F17  1  0.94454800  0.59057800  0.17657900  1
  F  F18  1  0.49918900  0.60292100  0.15843200  1
  F  F19  1  0.40942200  0.35397000  0.84324600  1
  F  F20  1  0.74614000  0.48126600  0.51673000  1
  F  F21  1  0.20454800  0.27992000  0.09528600  1
  F  F22  1  0.39707900  0.89626900  0.82509900  1
  F  F23  1  0.93824300  0.59535300  0.68939000  1
  F  F24  1  0.33432300  0.05752500  0.00949100  1
  F  F25  1  0.99456400  0.40273400  0.01593600  1
  F  F26  1  0.72320200  0.66567700  0.34282400  1
  F  F27  1  0.27988200  0.80780000  0.60346600  1
  F  F28  1  0.93600200  0.09782000  0.92460400  1
  F  F29  1  0.07537300  0.79545200  0.42861900  1
  F  F30  1  0.01081000  0.10019100  0.40511900  1
  F  F31  1  0.94247500  0.27679800  0.67615800  1
  F  F32  1  0.08938100  0.98919000  0.73845200  1
  F  F33  1  0.59726600  0.59182900  0.68260200  1
  F  F34  1  0.40817100  0.00543600  0.34926900  1
  F  F35  1  0.16181800  0.06399800  0.25793700  1
  F  F36  1  0.72008000  0.92462700  0.76195300  1
  F  F37  1  0.73512600  0.25386000  0.85006300  1
  F  F38  1  0.19220000  0.47208200  0.27013300  1
  F  F39  1  0.83382900  0.68762900  0.84297300  1
  F  F40  1  0.85380000  0.16617100  0.17630600  1
  F  F41  1  0.89980900  0.91061900  0.07178600  1
  F  F42  1  0.64603000  0.05545200  0.50991300  1
  F  F43  1  0.90218000  0.83818200  0.59127100  1
  F  F44  1  0.31237100  0.14620000  0.50963900  1
