# generated using pymatgen
data_Y4Cr13Si2(SbO14)2
_symmetry_space_group_name_H-M   'P 1'
_cell_length_a   12.82342481
_cell_length_b   12.82342481
_cell_length_c   8.82802264
_cell_angle_alpha   87.60638418
_cell_angle_beta   87.60638418
_cell_angle_gamma   153.44762221
_symmetry_Int_Tables_number   1
_chemical_formula_structural   Y4Cr13Si2(SbO14)2
_chemical_formula_sum   'Y4 Cr13 Si2 Sb2 O28'
_cell_volume   638.10298935
_cell_formula_units_Z   1
loop_
 _symmetry_equiv_pos_site_id
 _symmetry_equiv_pos_as_xyz
  1  'x, y, z'
loop_
 _atom_site_type_symbol
 _atom_site_label
 _atom_site_symmetry_multiplicity
 _atom_site_fract_x
 _atom_site_fract_y
 _atom_site_fract_z
 _atom_site_occupancy
  Y  Y0  1  0.50769800  0.92247600  0.34084300  1
  Y  Y1  1  0.07752400  0.49230200  0.65915700  1
  Y  Y2  1  0.49230200  0.07752400  0.65915700  1
  Y  Y3  1  0.92247600  0.50769800  0.34084300  1
  Cr  Cr4  1  0.36957400  0.10623200  0.36105900  1
  Cr  Cr5  1  0.21839900  0.33543000  0.65431800  1
  Cr  Cr6  1  0.89376800  0.63042600  0.63894100  1
  Cr  Cr7  1  0.63042600  0.89376800  0.63894100  1
  Cr  Cr8  1  0.78160100  0.66457000  0.34568200  1
  Cr  Cr9  1  0.29441200  0.70558800  0.00000000  1
  Cr  Cr10  1  0.66457000  0.78160100  0.34568200  1
  Cr  Cr11  1  0.00000000  0.00000000  0.00000000  1
  Cr  Cr12  1  0.43182800  0.56817200  0.00000000  1
  Cr  Cr13  1  0.33543000  0.21839900  0.65431800  1
  Cr  Cr14  1  0.10623200  0.36957400  0.36105900  1
  Cr  Cr15  1  0.56817200  0.43182800  0.00000000  1
  Cr  Cr16  1  0.70558800  0.29441200  0.00000000  1
  Si  Si17  1  0.75293100  0.75293100  0.68492800  1
  Si  Si18  1  0.24706900  0.24706900  0.31507200  1
  Sb  Sb19  1  0.86243700  0.13756300  0.00000000  1
  Sb  Sb20  1  0.13756300  0.86243700  0.00000000  1
  O  O21  1  0.02429200  0.28523500  0.60443400  1
  O  O22  1  0.45037000  0.87272700  0.61758700  1
  O  O23  1  0.03552100  0.03552100  0.65978800  1
  O  O24  1  0.64969500  0.64969500  0.87013300  1
  O  O25  1  0.54963000  0.12727300  0.38241300  1
  O  O26  1  0.97570800  0.71476500  0.39556600  1
  O  O27  1  0.41416200  0.99986600  0.90513300  1
  O  O28  1  0.58583800  0.00013400  0.09486700  1
  O  O29  1  0.35030500  0.35030500  0.12986700  1
  O  O30  1  0.70963500  0.83390600  0.11722000  1
  O  O31  1  0.60585700  0.71123300  0.59931000  1
  O  O32  1  0.71476500  0.97570800  0.39556600  1
  O  O33  1  0.00013400  0.58583800  0.09486700  1
  O  O34  1  0.16609400  0.29036500  0.88278000  1
  O  O35  1  0.28876700  0.39414300  0.40069000  1
  O  O36  1  0.96447900  0.96447900  0.34021200  1
  O  O37  1  0.83390600  0.70963500  0.11722000  1
  O  O38  1  0.29036500  0.16609400  0.88278000  1
  O  O39  1  0.99986600  0.41416200  0.90513300  1
  O  O40  1  0.54944800  0.80635400  0.87311800  1
  O  O41  1  0.45055200  0.19364600  0.12688200  1
  O  O42  1  0.71123300  0.60585700  0.59931000  1
  O  O43  1  0.80635400  0.54944800  0.87311800  1
  O  O44  1  0.87272700  0.45037000  0.61758700  1
  O  O45  1  0.39414300  0.28876700  0.40069000  1
  O  O46  1  0.19364600  0.45055200  0.12688200  1
  O  O47  1  0.28523500  0.02429200  0.60443400  1
  O  O48  1  0.12727300  0.54963000  0.38241300  1
