# generated using pymatgen
data_MgBi2P2O9
_symmetry_space_group_name_H-M   'P 1'
_cell_length_a   6.59723200
_cell_length_b   7.17957800
_cell_length_c   16.09591200
_cell_angle_alpha   90.00000000
_cell_angle_beta   90.00000000
_cell_angle_gamma   90.00000000
_symmetry_Int_Tables_number   1
_chemical_formula_structural   MgBi2P2O9
_chemical_formula_sum   'Mg4 Bi8 P8 O36'
_cell_volume   762.38837231
_cell_formula_units_Z   4
loop_
 _symmetry_equiv_pos_site_id
 _symmetry_equiv_pos_as_xyz
  1  'x, y, z'
loop_
 _atom_site_type_symbol
 _atom_site_label
 _atom_site_symmetry_multiplicity
 _atom_site_fract_x
 _atom_site_fract_y
 _atom_site_fract_z
 _atom_site_occupancy
  Mg  Mg0  1  0.06171000  0.75000000  0.76325300  1
  Mg  Mg1  1  0.43829000  0.75000000  0.26325300  1
  Mg  Mg2  1  0.56171000  0.25000000  0.73674700  1
  Mg  Mg3  1  0.93829000  0.25000000  0.23674700  1
  Bi  Bi4  1  0.58854400  0.75000000  0.88362600  1
  Bi  Bi5  1  0.41145600  0.25000000  0.11637400  1
  Bi  Bi6  1  0.08854400  0.25000000  0.61637400  1
  Bi  Bi7  1  0.91145600  0.75000000  0.38362600  1
  Bi  Bi8  1  0.00000000  0.00000000  0.00000000  1
  Bi  Bi9  1  0.50000000  0.00000000  0.50000000  1
  Bi  Bi10  1  0.50000000  0.50000000  0.50000000  1
  Bi  Bi11  1  0.00000000  0.50000000  0.00000000  1
  P  P12  1  0.56360300  0.25000000  0.91487700  1
  P  P13  1  0.43639700  0.75000000  0.08512300  1
  P  P14  1  0.06360300  0.75000000  0.58512300  1
  P  P15  1  0.93639700  0.25000000  0.41487700  1
  P  P16  1  0.56008300  0.75000000  0.69640900  1
  P  P17  1  0.93991700  0.75000000  0.19640900  1
  P  P18  1  0.06008300  0.25000000  0.80359100  1
  P  P19  1  0.43991700  0.25000000  0.30359100  1
  O  O20  1  0.43254400  0.43182900  0.35443800  1
  O  O21  1  0.56745600  0.93182900  0.64556200  1
  O  O22  1  0.93254400  0.56817100  0.14556200  1
  O  O23  1  0.06745600  0.06817100  0.85443800  1
  O  O24  1  0.56745600  0.56817100  0.64556200  1
  O  O25  1  0.43254400  0.06817100  0.35443800  1
  O  O26  1  0.06745600  0.43182900  0.85443800  1
  O  O27  1  0.93254400  0.93182900  0.14556200  1
  O  O28  1  0.75459000  0.25000000  0.47974300  1
  O  O29  1  0.24541000  0.75000000  0.52025700  1
  O  O30  1  0.25459000  0.75000000  0.02025700  1
  O  O31  1  0.74541000  0.25000000  0.97974300  1
  O  O32  1  0.91086200  0.75000000  0.91310000  1
  O  O33  1  0.08913800  0.25000000  0.08690000  1
  O  O34  1  0.41086200  0.25000000  0.58690000  1
  O  O35  1  0.58913800  0.75000000  0.41310000  1
  O  O36  1  0.74882800  0.75000000  0.75806600  1
  O  O37  1  0.25117200  0.25000000  0.24193400  1
  O  O38  1  0.24882800  0.25000000  0.74193400  1
  O  O39  1  0.75117200  0.75000000  0.25806600  1
  O  O40  1  0.92225900  0.07987200  0.35596000  1
  O  O41  1  0.07774100  0.57987200  0.64404000  1
  O  O42  1  0.42225900  0.92012800  0.14404000  1
  O  O43  1  0.57774100  0.42012800  0.85596000  1
  O  O44  1  0.07774100  0.92012800  0.64404000  1
  O  O45  1  0.92225900  0.42012800  0.35596000  1
  O  O46  1  0.57774100  0.07987200  0.85596000  1
  O  O47  1  0.42225900  0.57987200  0.14404000  1
  O  O48  1  0.63184500  0.75000000  0.03261600  1
  O  O49  1  0.87313700  0.25000000  0.74309500  1
  O  O50  1  0.62686300  0.25000000  0.24309500  1
  O  O51  1  0.37313700  0.75000000  0.75690500  1
  O  O52  1  0.86815500  0.75000000  0.53261600  1
  O  O53  1  0.13184500  0.25000000  0.46738400  1
  O  O54  1  0.36815500  0.25000000  0.96738400  1
  O  O55  1  0.12686300  0.75000000  0.25690500  1
