# generated using pymatgen
data_Ga
_symmetry_space_group_name_H-M   'P 1'
_cell_length_a   3.10982955
_cell_length_b   3.10982955
_cell_length_c   7.92118800
_cell_angle_alpha   90.00000000
_cell_angle_beta   90.00000000
_cell_angle_gamma   97.10801678
_symmetry_Int_Tables_number   1
_chemical_formula_structural   Ga
_chemical_formula_sum   Ga4
_cell_volume   76.01737841
_cell_formula_units_Z   4
loop_
 _symmetry_equiv_pos_site_id
 _symmetry_equiv_pos_as_xyz
  1  'x, y, z'
loop_
 _atom_site_type_symbol
 _atom_site_label
 _atom_site_symmetry_multiplicity
 _atom_site_fract_x
 _atom_site_fract_y
 _atom_site_fract_z
 _atom_site_occupancy
  Ga  Ga0  1  0.21866800  0.78133200  0.12687100  1
  Ga  Ga1  1  0.78133200  0.21866800  0.87312900  1
  Ga  Ga2  1  0.28133200  0.71866800  0.62687100  1
  Ga  Ga3  1  0.71866800  0.28133200  0.37312900  1
