# generated using pymatgen
data_MgGeAs2
_symmetry_space_group_name_H-M   'P 1'
_cell_length_a   7.07991802
_cell_length_b   7.07991802
_cell_length_c   7.07991802
_cell_angle_alpha   129.67108465
_cell_angle_beta   129.67108465
_cell_angle_gamma   73.93314004
_symmetry_Int_Tables_number   1
_chemical_formula_structural   MgGeAs2
_chemical_formula_sum   'Mg2 Ge2 As4'
_cell_volume   205.07241180
_cell_formula_units_Z   2
loop_
 _symmetry_equiv_pos_site_id
 _symmetry_equiv_pos_as_xyz
  1  'x, y, z'
loop_
 _atom_site_type_symbol
 _atom_site_label
 _atom_site_symmetry_multiplicity
 _atom_site_fract_x
 _atom_site_fract_y
 _atom_site_fract_z
 _atom_site_occupancy
  Mg  Mg0  1  0.75000000  0.25000000  0.50000000  1
  Mg  Mg1  1  0.00000000  0.00000000  0.00000000  1
  Ge  Ge2  1  0.50000000  0.50000000  0.00000000  1
  Ge  Ge3  1  0.25000000  0.75000000  0.50000000  1
  As  As4  1  0.87500000  0.39841600  0.02341600  1
  As  As5  1  0.60158400  0.62500000  0.47658400  1
  As  As6  1  0.37500000  0.85158400  0.97658400  1
  As  As7  1  0.14841600  0.12500000  0.52341600  1
