# generated using pymatgen
data_Nd7Co3
_symmetry_space_group_name_H-M   'P 1'
_cell_length_a   9.82190814
_cell_length_b   9.82190814
_cell_length_c   6.31341400
_cell_angle_alpha   90.00000000
_cell_angle_beta   90.00000000
_cell_angle_gamma   120.00000092
_symmetry_Int_Tables_number   1
_chemical_formula_structural   Nd7Co3
_chemical_formula_sum   'Nd14 Co6'
_cell_volume   527.45648037
_cell_formula_units_Z   2
loop_
 _symmetry_equiv_pos_site_id
 _symmetry_equiv_pos_as_xyz
  1  'x, y, z'
loop_
 _atom_site_type_symbol
 _atom_site_label
 _atom_site_symmetry_multiplicity
 _atom_site_fract_x
 _atom_site_fract_y
 _atom_site_fract_z
 _atom_site_occupancy
  Nd  Nd0  1  0.33333300  0.66666700  0.01673800  1
  Nd  Nd1  1  0.66666700  0.33333300  0.51673800  1
  Nd  Nd2  1  0.53949200  0.46050800  0.05924300  1
  Nd  Nd3  1  0.46050800  0.53949200  0.55924300  1
  Nd  Nd4  1  0.53949200  0.07898400  0.05924300  1
  Nd  Nd5  1  0.92101600  0.46050800  0.05924300  1
  Nd  Nd6  1  0.07898400  0.53949200  0.55924300  1
  Nd  Nd7  1  0.46050800  0.92101600  0.55924300  1
  Nd  Nd8  1  0.12579300  0.87420700  0.24626700  1
  Nd  Nd9  1  0.87420700  0.12579300  0.74626700  1
  Nd  Nd10  1  0.12579300  0.25158500  0.24626700  1
  Nd  Nd11  1  0.74841500  0.87420700  0.24626700  1
  Nd  Nd12  1  0.25158500  0.12579300  0.74626700  1
  Nd  Nd13  1  0.87420700  0.74841500  0.74626700  1
  Co  Co14  1  0.81275100  0.18724900  0.29873600  1
  Co  Co15  1  0.18724900  0.81275100  0.79873600  1
  Co  Co16  1  0.81275100  0.62550200  0.29873600  1
  Co  Co17  1  0.37449800  0.18724900  0.29873600  1
  Co  Co18  1  0.62550200  0.81275100  0.79873600  1
  Co  Co19  1  0.18724900  0.37449800  0.79873600  1
