# generated using pymatgen
data_La3Si2
_symmetry_space_group_name_H-M   'P 1'
_cell_length_a   7.93297700
_cell_length_b   7.93297700
_cell_length_c   4.43909500
_cell_angle_alpha   90.00000000
_cell_angle_beta   90.00000000
_cell_angle_gamma   90.00000000
_symmetry_Int_Tables_number   1
_chemical_formula_structural   La3Si2
_chemical_formula_sum   'La6 Si4'
_cell_volume   279.36167735
_cell_formula_units_Z   2
loop_
 _symmetry_equiv_pos_site_id
 _symmetry_equiv_pos_as_xyz
  1  'x, y, z'
loop_
 _atom_site_type_symbol
 _atom_site_label
 _atom_site_symmetry_multiplicity
 _atom_site_fract_x
 _atom_site_fract_y
 _atom_site_fract_z
 _atom_site_occupancy
  La  La0  1  0.82407900  0.67592100  0.50000000  1
  La  La1  1  0.32407900  0.82407900  0.50000000  1
  La  La2  1  0.17592100  0.32407900  0.50000000  1
  La  La3  1  0.67592100  0.17592100  0.50000000  1
  La  La4  1  0.50000000  0.50000000  0.00000000  1
  La  La5  1  0.00000000  0.00000000  0.00000000  1
  Si  Si6  1  0.10935100  0.60935100  0.00000000  1
  Si  Si7  1  0.60935100  0.89064900  0.00000000  1
  Si  Si8  1  0.39064900  0.10935100  0.00000000  1
  Si  Si9  1  0.89064900  0.39064900  0.00000000  1
