# generated using pymatgen
data_HoGePd
_symmetry_space_group_name_H-M   'P 1'
_cell_length_a   11.35181942
_cell_length_b   11.35181942
_cell_length_c   11.35181942
_cell_angle_alpha   157.63124411
_cell_angle_beta   140.70075596
_cell_angle_gamma   45.68502917
_symmetry_Int_Tables_number   1
_chemical_formula_structural   HoGePd
_chemical_formula_sum   'Ho6 Ge6 Pd6'
_cell_volume   351.72198919
_cell_formula_units_Z   6
loop_
 _symmetry_equiv_pos_site_id
 _symmetry_equiv_pos_as_xyz
  1  'x, y, z'
loop_
 _atom_site_type_symbol
 _atom_site_label
 _atom_site_symmetry_multiplicity
 _atom_site_fract_x
 _atom_site_fract_y
 _atom_site_fract_z
 _atom_site_occupancy
  Ho  Ho0  1  0.12413400  0.66701900  0.45711500  1
  Ho  Ho1  1  0.79009600  0.33298100  0.45711500  1
  Ho  Ho2  1  0.36866100  0.83315900  0.53550300  1
  Ho  Ho3  1  0.70234400  0.16684100  0.53550300  1
  Ho  Ho4  1  0.45125900  0.00000000  0.45125900  1
  Ho  Ho5  1  0.03504200  0.50000000  0.53504200  1
  Ge  Ge6  1  0.06142700  0.90625900  0.15516800  1
  Ge  Ge7  1  0.24890900  0.09374100  0.15516800  1
  Ge  Ge8  1  0.57413200  0.73585000  0.83828200  1
  Ge  Ge9  1  0.10243300  0.26415000  0.83828200  1
  Ge  Ge10  1  0.71808100  0.56485800  0.15322300  1
  Ge  Ge11  1  0.58836600  0.43514200  0.15322300  1
  Pd  Pd12  1  0.75006900  0.92770800  0.82236000  1
  Pd  Pd13  1  0.89465200  0.07229200  0.82236000  1
  Pd  Pd14  1  0.93523300  0.76759000  0.16764400  1
  Pd  Pd15  1  0.40005400  0.23241000  0.16764400  1
  Pd  Pd16  1  0.43107500  0.60451600  0.82655900  1
  Pd  Pd17  1  0.22204400  0.39548400  0.82655900  1
