# generated using pymatgen
data_SrMg6Ti
_symmetry_space_group_name_H-M   'P 1'
_cell_length_a   6.62507900
_cell_length_b   6.62507900
_cell_length_c   4.57826400
_cell_angle_alpha   90.00000000
_cell_angle_beta   90.00000000
_cell_angle_gamma   90.00000000
_symmetry_Int_Tables_number   1
_chemical_formula_structural   SrMg6Ti
_chemical_formula_sum   'Sr1 Mg6 Ti1'
_cell_volume   200.94766070
_cell_formula_units_Z   1
loop_
 _symmetry_equiv_pos_site_id
 _symmetry_equiv_pos_as_xyz
  1  'x, y, z'
loop_
 _atom_site_type_symbol
 _atom_site_label
 _atom_site_symmetry_multiplicity
 _atom_site_fract_x
 _atom_site_fract_y
 _atom_site_fract_z
 _atom_site_occupancy
  Sr  Sr0  1  0.00000000  0.00000000  0.50000000  1
  Mg  Mg1  1  0.50000000  0.00000000  0.50000000  1
  Mg  Mg2  1  0.00000000  0.50000000  0.50000000  1
  Mg  Mg3  1  0.27740800  0.72259200  0.00000000  1
  Mg  Mg4  1  0.72259200  0.27740800  0.00000000  1
  Mg  Mg5  1  0.27740800  0.27740800  0.00000000  1
  Mg  Mg6  1  0.72259200  0.72259200  0.00000000  1
  Ti  Ti7  1  0.50000000  0.50000000  0.50000000  1
