# generated using pymatgen
data_AlPO4
_symmetry_space_group_name_H-M   'P 1'
_cell_length_a   16.59316362
_cell_length_b   16.59316362
_cell_length_c   16.59316362
_cell_angle_alpha   149.84104817
_cell_angle_beta   126.03653120
_cell_angle_gamma   63.06779450
_symmetry_Int_Tables_number   1
_chemical_formula_structural   AlPO4
_chemical_formula_sum   'Al16 P16 O64'
_cell_volume   1838.52274639
_cell_formula_units_Z   16
loop_
 _symmetry_equiv_pos_site_id
 _symmetry_equiv_pos_as_xyz
  1  'x, y, z'
loop_
 _atom_site_type_symbol
 _atom_site_label
 _atom_site_symmetry_multiplicity
 _atom_site_fract_x
 _atom_site_fract_y
 _atom_site_fract_z
 _atom_site_occupancy
  Al  Al0  1  0.12956400  0.38204200  0.06713800  1
  Al  Al1  1  0.87043600  0.93757400  0.25247800  1
  Al  Al2  1  0.31490400  0.88204200  0.75247800  1
  Al  Al3  1  0.68509600  0.43757400  0.56713800  1
  Al  Al4  1  0.22456600  0.98422700  0.55537500  1
  Al  Al5  1  0.77543400  0.33080900  0.75966100  1
  Al  Al6  1  0.42885200  0.48422700  0.25966100  1
  Al  Al7  1  0.57114800  0.83080900  0.05537500  1
  Al  Al8  1  0.04010000  0.10041000  0.24970700  1
  Al  Al9  1  0.95990000  0.20960600  0.06031000  1
  Al  Al10  1  0.85070300  0.60041000  0.56031000  1
  Al  Al11  1  0.14929700  0.70960600  0.74970700  1
  Al  Al12  1  0.63971500  0.01837500  0.93295700  1
  Al  Al13  1  0.36028500  0.29324200  0.37866000  1
  Al  Al14  1  0.08541800  0.51837500  0.87866000  1
  Al  Al15  1  0.91458200  0.79324200  0.43295700  1
  P  P16  1  0.12158000  0.75399000  0.43355500  1
  P  P17  1  0.87842000  0.31197500  0.63241000  1
  P  P18  1  0.32043500  0.25399000  0.13241000  1
  P  P19  1  0.67956500  0.81197500  0.93355500  1
  P  P20  1  0.23268700  0.36027700  0.93584000  1
  P  P21  1  0.76731300  0.70315300  0.12759000  1
  P  P22  1  0.42443700  0.86027700  0.62759000  1
  P  P23  1  0.57556300  0.20315300  0.43584000  1
  P  P24  1  0.07849000  0.89016300  0.24641800  1
  P  P25  1  0.92151000  0.16792900  0.81167300  1
  P  P26  1  0.64374400  0.39016300  0.31167300  1
  P  P27  1  0.35625600  0.66792900  0.74641800  1
  P  P28  1  0.84533600  0.98003700  0.93222700  1
  P  P29  1  0.15466400  0.08689100  0.13470100  1
  P  P30  1  0.04781000  0.48003700  0.63470100  1
  P  P31  1  0.95219000  0.58689100  0.43222700  1
  O  O32  1  0.14224700  0.88570100  0.49441700  1
  O  O33  1  0.85775300  0.35217000  0.74345300  1
  O  O34  1  0.39128300  0.38570100  0.24345300  1
  O  O35  1  0.60871700  0.85217000  0.99441700  1
  O  O36  1  0.19006400  0.79815800  0.58567200  1
  O  O37  1  0.80993600  0.39560800  0.60809400  1
  O  O38  1  0.21248600  0.29815800  0.10809400  1
  O  O39  1  0.78751400  0.89560800  0.08567200  1
  O  O40  1  0.01150700  0.73954000  0.38277600  1
  O  O41  1  0.98849300  0.37126900  0.72803300  1
  O  O42  1  0.35676400  0.23954000  0.22803300  1
  O  O43  1  0.64323600  0.87126900  0.88277600  1
  O  O44  1  0.14222000  0.59140100  0.26981700  1
  O  O45  1  0.85778000  0.12759600  0.44918100  1
  O  O46  1  0.32158500  0.09140100  0.94918100  1
  O  O47  1  0.67841500  0.62759600  0.76981700  1
  O  O48  1  0.16104400  0.34683100  0.95509900  1
  O  O49  1  0.83895600  0.79405500  0.18578700  1
  O  O50  1  0.39173200  0.84683100  0.68578700  1
  O  O51  1  0.60826800  0.29405500  0.45509900  1
  O  O52  1  0.19765900  0.47501600  0.95102900  1
  O  O53  1  0.80234100  0.75337000  0.27735600  1
  O  O54  1  0.52398600  0.97501600  0.77735600  1
  O  O55  1  0.47601400  0.25337000  0.45102900  1
  O  O56  1  0.23194200  0.19237500  0.75282700  1
  O  O57  1  0.76805800  0.52088500  0.96043300  1
  O  O58  1  0.43954800  0.69237500  0.46043300  1
  O  O59  1  0.56045200  0.02088500  0.25282700  1
  O  O60  1  0.34452600  0.92710800  0.58672900  1
  O  O61  1  0.65547400  0.24220300  0.58258100  1
  O  O62  1  0.34037800  0.42710800  0.08258100  1
  O  O63  1  0.65962200  0.74220300  0.08672900  1
  O  O64  1  0.17888200  0.93286700  0.38729200  1
  O  O65  1  0.82111800  0.20841000  0.75398400  1
  O  O66  1  0.54557400  0.43286700  0.25398400  1
  O  O67  1  0.45442600  0.70841000  0.88729200  1
  O  O68  1  0.99276000  0.93359400  0.28724900  1
  O  O69  1  0.00724000  0.29448800  0.94083400  1
  O  O70  1  0.64634600  0.43359400  0.44083400  1
  O  O71  1  0.35365400  0.79448800  0.78724900  1
  O  O72  1  0.06056900  0.70856100  0.05980100  1
  O  O73  1  0.93943100  0.99923100  0.64799200  1
  O  O74  1  0.64876100  0.20856100  0.14799200  1
  O  O75  1  0.35123900  0.49923100  0.55980100  1
  O  O76  1  0.08309900  0.98676900  0.25398100  1
  O  O77  1  0.91690100  0.17088300  0.90367000  1
  O  O78  1  0.73278700  0.48676900  0.40367000  1
  O  O79  1  0.26721300  0.67088300  0.75398100  1
  O  O80  1  0.91513300  0.02489500  0.08496200  1
  O  O81  1  0.08486700  0.16982900  0.10976200  1
  O  O82  1  0.93993300  0.52489500  0.60976200  1
  O  O83  1  0.06006700  0.66982900  0.58496200  1
  O  O84  1  0.88196300  0.08318200  0.96954700  1
  O  O85  1  0.11803700  0.08758400  0.20121900  1
  O  O86  1  0.11363500  0.58318200  0.70121900  1
  O  O87  1  0.88636500  0.58758400  0.46954700  1
  O  O88  1  0.73837600  0.01178200  0.91718200  1
  O  O89  1  0.26162400  0.17880500  0.27340500  1
  O  O90  1  0.09460000  0.51178200  0.77340500  1
  O  O91  1  0.90540000  0.67880500  0.41718200  1
  O  O92  1  0.84444100  0.80061200  0.75636200  1
  O  O93  1  0.15555900  0.91192100  0.95617100  1
  O  O94  1  0.04425000  0.30061200  0.45617100  1
  O  O95  1  0.95575000  0.41192100  0.25636200  1
