# generated using pymatgen
data_Ho(TiGa2)2
_symmetry_space_group_name_H-M   'P 1'
_cell_length_a   5.50695361
_cell_length_b   5.50695361
_cell_length_c   5.50695361
_cell_angle_alpha   104.20485478
_cell_angle_beta   104.20485478
_cell_angle_gamma   120.61195115
_symmetry_Int_Tables_number   1
_chemical_formula_structural   Ho(TiGa2)2
_chemical_formula_sum   'Ho1 Ti2 Ga4'
_cell_volume   124.85763108
_cell_formula_units_Z   1
loop_
 _symmetry_equiv_pos_site_id
 _symmetry_equiv_pos_as_xyz
  1  'x, y, z'
loop_
 _atom_site_type_symbol
 _atom_site_label
 _atom_site_symmetry_multiplicity
 _atom_site_fract_x
 _atom_site_fract_y
 _atom_site_fract_z
 _atom_site_occupancy
  Ho  Ho0  1  0.00000000  0.00000000  0.00000000  1
  Ti  Ti1  1  0.25000000  0.75000000  0.50000000  1
  Ti  Ti2  1  0.75000000  0.25000000  0.50000000  1
  Ga  Ga3  1  0.30234900  0.30234900  0.60469800  1
  Ga  Ga4  1  0.69765100  0.69765100  0.39530200  1
  Ga  Ga5  1  0.69765100  0.30234900  0.00000000  1
  Ga  Ga6  1  0.30234900  0.69765100  0.00000000  1
