# generated using pymatgen
data_CsB5O8
_symmetry_space_group_name_H-M   'P 1'
_cell_length_a   8.13346100
_cell_length_b   8.44862500
_cell_length_c   9.70831500
_cell_angle_alpha   90.00000000
_cell_angle_beta   90.00000000
_cell_angle_gamma   90.00000000
_symmetry_Int_Tables_number   1
_chemical_formula_structural   CsB5O8
_chemical_formula_sum   'Cs4 B20 O32'
_cell_volume   667.12202904
_cell_formula_units_Z   4
loop_
 _symmetry_equiv_pos_site_id
 _symmetry_equiv_pos_as_xyz
  1  'x, y, z'
loop_
 _atom_site_type_symbol
 _atom_site_label
 _atom_site_symmetry_multiplicity
 _atom_site_fract_x
 _atom_site_fract_y
 _atom_site_fract_z
 _atom_site_occupancy
  Cs  Cs0  1  0.53925500  0.21002100  0.25000000  1
  Cs  Cs1  1  0.03925500  0.28997900  0.25000000  1
  Cs  Cs2  1  0.46074500  0.78997900  0.75000000  1
  Cs  Cs3  1  0.96074500  0.71002100  0.75000000  1
  B  B4  1  0.08725900  0.11832300  0.75000000  1
  B  B5  1  0.58725900  0.38167700  0.75000000  1
  B  B6  1  0.91274100  0.88167700  0.25000000  1
  B  B7  1  0.41274100  0.61832300  0.25000000  1
  B  B8  1  0.27311300  0.34815300  0.63725400  1
  B  B9  1  0.77311300  0.15184700  0.86274600  1
  B  B10  1  0.72688700  0.65184700  0.13725400  1
  B  B11  1  0.22688700  0.84815300  0.36274600  1
  B  B12  1  0.72688700  0.65184700  0.36274600  1
  B  B13  1  0.22688700  0.84815300  0.13725400  1
  B  B14  1  0.27311300  0.34815300  0.86274600  1
  B  B15  1  0.77311300  0.15184700  0.63725400  1
  B  B16  1  0.24452500  0.08478700  0.52879100  1
  B  B17  1  0.74452500  0.41521300  0.97120900  1
  B  B18  1  0.75547500  0.91521300  0.02879100  1
  B  B19  1  0.25547500  0.58478700  0.47120900  1
  B  B20  1  0.75547500  0.91521300  0.47120900  1
  B  B21  1  0.25547500  0.58478700  0.02879100  1
  B  B22  1  0.24452500  0.08478700  0.97120900  1
  B  B23  1  0.74452500  0.41521300  0.52879100  1
  O  O24  1  0.34663000  0.78695000  0.25000000  1
  O  O25  1  0.84663000  0.71305000  0.25000000  1
  O  O26  1  0.65337000  0.21305000  0.75000000  1
  O  O27  1  0.15337000  0.28695000  0.75000000  1
  O  O28  1  0.31508300  0.23347200  0.53584900  1
  O  O29  1  0.81508300  0.26652800  0.96415100  1
  O  O30  1  0.68491700  0.76652800  0.03584900  1
  O  O31  1  0.18491700  0.73347200  0.46415100  1
  O  O32  1  0.68491700  0.76652800  0.46415100  1
  O  O33  1  0.18491700  0.73347200  0.03584900  1
  O  O34  1  0.31508300  0.23347200  0.96415100  1
  O  O35  1  0.81508300  0.26652800  0.53584900  1
  O  O36  1  0.13813500  0.03210900  0.62772700  1
  O  O37  1  0.63813500  0.46789100  0.87227300  1
  O  O38  1  0.86186500  0.96789100  0.12772700  1
  O  O39  1  0.36186500  0.53210900  0.37227300  1
  O  O40  1  0.86186500  0.96789100  0.37227300  1
  O  O41  1  0.36186500  0.53210900  0.12772700  1
  O  O42  1  0.13813500  0.03210900  0.87227300  1
  O  O43  1  0.63813500  0.46789100  0.62772700  1
  O  O44  1  0.09690100  0.87718500  0.25000000  1
  O  O45  1  0.59690100  0.62281500  0.25000000  1
  O  O46  1  0.90309900  0.12281500  0.75000000  1
  O  O47  1  0.40309900  0.37718500  0.75000000  1
  O  O48  1  0.28695300  0.99596200  0.41577600  1
  O  O49  1  0.78695300  0.50403800  0.08422400  1
  O  O50  1  0.71304700  0.00403800  0.91577600  1
  O  O51  1  0.21304700  0.49596200  0.58422400  1
  O  O52  1  0.71304700  0.00403800  0.58422400  1
  O  O53  1  0.21304700  0.49596200  0.91577600  1
  O  O54  1  0.28695300  0.99596200  0.08422400  1
  O  O55  1  0.78695300  0.50403800  0.41577600  1
