# generated using pymatgen
data_Ti2VTe4
_symmetry_space_group_name_H-M   'P 1'
_cell_length_a   7.45394677
_cell_length_b   7.45394677
_cell_length_c   6.94237635
_cell_angle_alpha   63.23178762
_cell_angle_beta   63.23178762
_cell_angle_gamma   29.98691146
_symmetry_Int_Tables_number   1
_chemical_formula_structural   Ti2VTe4
_chemical_formula_sum   'Ti2 V1 Te4'
_cell_volume   170.54944704
_cell_formula_units_Z   1
loop_
 _symmetry_equiv_pos_site_id
 _symmetry_equiv_pos_as_xyz
  1  'x, y, z'
loop_
 _atom_site_type_symbol
 _atom_site_label
 _atom_site_symmetry_multiplicity
 _atom_site_fract_x
 _atom_site_fract_y
 _atom_site_fract_z
 _atom_site_occupancy
  Ti  Ti0  1  0.74845000  0.74845000  0.29534500  1
  Ti  Ti1  1  0.25155000  0.25155000  0.70465500  1
  V  V2  1  0.00000000  0.00000000  0.00000000  1
  Te  Te3  1  0.89257600  0.89257600  0.44649100  1
  Te  Te4  1  0.10742400  0.10742400  0.55350900  1
  Te  Te5  1  0.63378000  0.63378000  0.03269900  1
  Te  Te6  1  0.36622000  0.36622000  0.96730100  1
