# generated using pymatgen
data_TeWSe
_symmetry_space_group_name_H-M   'P 1'
_cell_length_a   3.43710454
_cell_length_b   3.43710454
_cell_length_c   24.47412900
_cell_angle_alpha   90.00000000
_cell_angle_beta   90.00000000
_cell_angle_gamma   120.00001034
_symmetry_Int_Tables_number   1
_chemical_formula_structural   TeWSe
_chemical_formula_sum   'Te2 W2 Se2'
_cell_volume   250.39365149
_cell_formula_units_Z   2
loop_
 _symmetry_equiv_pos_site_id
 _symmetry_equiv_pos_as_xyz
  1  'x, y, z'
loop_
 _atom_site_type_symbol
 _atom_site_label
 _atom_site_symmetry_multiplicity
 _atom_site_fract_x
 _atom_site_fract_y
 _atom_site_fract_z
 _atom_site_occupancy
  Te  Te0  1  0.33333300  0.66666700  0.52770500  1
  Te  Te1  1  0.33333300  0.66666700  0.37511700  1
  W  W2  1  0.33333300  0.66666700  0.15043300  1
  W  W3  1  0.66666700  0.33333300  0.45141900  1
  Se  Se4  1  0.66666700  0.33333300  0.08328100  1
  Se  Se5  1  0.66666700  0.33333300  0.21764900  1
