# generated using pymatgen
data_Ba3Ga3N5
_symmetry_space_group_name_H-M   'P 1'
_cell_length_a   9.48055707
_cell_length_b   9.48055707
_cell_length_c   11.78328422
_cell_angle_alpha   72.28277557
_cell_angle_beta   72.28277557
_cell_angle_gamma   52.69179844
_symmetry_Int_Tables_number   1
_chemical_formula_structural   Ba3Ga3N5
_chemical_formula_sum   'Ba12 Ga12 N20'
_cell_volume   792.32755353
_cell_formula_units_Z   4
loop_
 _symmetry_equiv_pos_site_id
 _symmetry_equiv_pos_as_xyz
  1  'x, y, z'
loop_
 _atom_site_type_symbol
 _atom_site_label
 _atom_site_symmetry_multiplicity
 _atom_site_fract_x
 _atom_site_fract_y
 _atom_site_fract_z
 _atom_site_occupancy
  Ba  Ba0  1  0.65472700  0.34527300  0.25000000  1
  Ba  Ba1  1  0.34527300  0.65472700  0.75000000  1
  Ba  Ba2  1  0.16159400  0.83840600  0.25000000  1
  Ba  Ba3  1  0.83840600  0.16159400  0.75000000  1
  Ba  Ba4  1  0.09879500  0.27891900  0.11537700  1
  Ba  Ba5  1  0.72108100  0.90120500  0.38462300  1
  Ba  Ba6  1  0.90120500  0.72108100  0.88462300  1
  Ba  Ba7  1  0.27891900  0.09879500  0.61537700  1
  Ba  Ba8  1  0.58120300  0.83005600  0.16306500  1
  Ba  Ba9  1  0.16994400  0.41879700  0.33693500  1
  Ba  Ba10  1  0.41879700  0.16994400  0.83693500  1
  Ba  Ba11  1  0.83005600  0.58120300  0.66306500  1
  Ga  Ga12  1  0.85558500  0.98490900  0.05705300  1
  Ga  Ga13  1  0.01509100  0.14441500  0.44294700  1
  Ga  Ga14  1  0.14441500  0.01509100  0.94294700  1
  Ga  Ga15  1  0.98490900  0.85558500  0.55705300  1
  Ga  Ga16  1  0.84263300  0.35276100  0.95045400  1
  Ga  Ga17  1  0.64723900  0.15736700  0.54954600  1
  Ga  Ga18  1  0.15736700  0.64723900  0.04954600  1
  Ga  Ga19  1  0.35276100  0.84263300  0.45045400  1
  Ga  Ga20  1  0.48865100  0.35265900  0.99818200  1
  Ga  Ga21  1  0.64734100  0.51134900  0.50181800  1
  Ga  Ga22  1  0.51134900  0.64734100  0.00181800  1
  Ga  Ga23  1  0.35265900  0.48865100  0.49818200  1
  N  N24  1  0.61919800  0.47134700  0.88260600  1
  N  N25  1  0.52865300  0.38080200  0.61739400  1
  N  N26  1  0.38080200  0.52865300  0.11739400  1
  N  N27  1  0.47134700  0.61919800  0.38260600  1
  N  N28  1  0.92885800  0.13118200  0.07928600  1
  N  N29  1  0.86881800  0.07114200  0.42071400  1
  N  N30  1  0.07114200  0.86881800  0.92071400  1
  N  N31  1  0.13118200  0.92885800  0.57928600  1
  N  N32  1  0.06502200  0.24934000  0.82618900  1
  N  N33  1  0.75066000  0.93497800  0.67381100  1
  N  N34  1  0.93497800  0.75066000  0.17381100  1
  N  N35  1  0.24934000  0.06502200  0.32618900  1
  N  N36  1  0.75474300  0.54784400  0.03968200  1
  N  N37  1  0.45215600  0.24525700  0.46031800  1
  N  N38  1  0.24525700  0.45215600  0.96031800  1
  N  N39  1  0.54784400  0.75474300  0.53968200  1
  N  N40  1  0.63178300  0.09446200  0.00220700  1
  N  N41  1  0.90553800  0.36821700  0.49779300  1
  N  N42  1  0.36821700  0.90553800  0.99779300  1
  N  N43  1  0.09446200  0.63178300  0.50220700  1
