# generated using pymatgen
data_Te2MoWSe2
_symmetry_space_group_name_H-M   'P 1'
_cell_length_a   3.44182398
_cell_length_b   3.44182398
_cell_length_c   24.42894500
_cell_angle_alpha   90.00000000
_cell_angle_beta   90.00000000
_cell_angle_gamma   119.99999968
_symmetry_Int_Tables_number   1
_chemical_formula_structural   Te2MoWSe2
_chemical_formula_sum   'Te2 Mo1 W1 Se2'
_cell_volume   250.61822965
_cell_formula_units_Z   1
loop_
 _symmetry_equiv_pos_site_id
 _symmetry_equiv_pos_as_xyz
  1  'x, y, z'
loop_
 _atom_site_type_symbol
 _atom_site_label
 _atom_site_symmetry_multiplicity
 _atom_site_fract_x
 _atom_site_fract_y
 _atom_site_fract_z
 _atom_site_occupancy
  Te  Te0  1  0.66666700  0.33333300  0.07414600  1
  Te  Te1  1  0.66666700  0.33333300  0.22678800  1
  Mo  Mo2  1  0.66666700  0.33333300  0.45143100  1
  W  W3  1  0.33333300  0.66666700  0.15045400  1
  Se  Se4  1  0.33333300  0.66666700  0.51835100  1
  Se  Se5  1  0.33333300  0.66666700  0.38443400  1
