# generated using pymatgen
data_Te2W
_symmetry_space_group_name_H-M   'P 1'
_cell_length_a   3.55659421
_cell_length_b   3.55659421
_cell_length_c   25.05413000
_cell_angle_alpha   90.00000000
_cell_angle_beta   90.00000000
_cell_angle_gamma   120.00000395
_symmetry_Int_Tables_number   1
_chemical_formula_structural   Te2W
_chemical_formula_sum   'Te4 W2'
_cell_volume   274.45969462
_cell_formula_units_Z   2
loop_
 _symmetry_equiv_pos_site_id
 _symmetry_equiv_pos_as_xyz
  1  'x, y, z'
loop_
 _atom_site_type_symbol
 _atom_site_label
 _atom_site_symmetry_multiplicity
 _atom_site_fract_x
 _atom_site_fract_y
 _atom_site_fract_z
 _atom_site_occupancy
  Te  Te0  1  0.33333300  0.66666700  0.22296100  1
  Te  Te1  1  0.66666700  0.33333300  0.77703900  1
  Te  Te2  1  0.66666700  0.33333300  0.92204200  1
  Te  Te3  1  0.33333300  0.66666700  0.07795800  1
  W  W4  1  0.33333300  0.66666700  0.84950200  1
  W  W5  1  0.66666700  0.33333300  0.15049800  1
