# generated using pymatgen
data_MgSi2O5
_symmetry_space_group_name_H-M   'P 1'
_cell_length_a   5.35664800
_cell_length_b   6.94426500
_cell_length_c   7.73486600
_cell_angle_alpha   90.00000000
_cell_angle_beta   90.00000000
_cell_angle_gamma   90.00000000
_symmetry_Int_Tables_number   1
_chemical_formula_structural   MgSi2O5
_chemical_formula_sum   'Mg4 Si8 O20'
_cell_volume   287.72141571
_cell_formula_units_Z   4
loop_
 _symmetry_equiv_pos_site_id
 _symmetry_equiv_pos_as_xyz
  1  'x, y, z'
loop_
 _atom_site_type_symbol
 _atom_site_label
 _atom_site_symmetry_multiplicity
 _atom_site_fract_x
 _atom_site_fract_y
 _atom_site_fract_z
 _atom_site_occupancy
  Mg  Mg0  1  0.00000000  0.85440200  0.66111100  1
  Mg  Mg1  1  0.00000000  0.35440200  0.83888900  1
  Mg  Mg2  1  0.00000000  0.14559800  0.33888900  1
  Mg  Mg3  1  0.00000000  0.64559800  0.16111100  1
  Si  Si4  1  0.50000000  0.88721400  0.35403900  1
  Si  Si5  1  0.50000000  0.38721400  0.14596100  1
  Si  Si6  1  0.50000000  0.11278600  0.64596100  1
  Si  Si7  1  0.50000000  0.61278600  0.85403900  1
  Si  Si8  1  0.75501000  0.50000000  0.50000000  1
  Si  Si9  1  0.24499000  0.00000000  0.00000000  1
  Si  Si10  1  0.24499000  0.50000000  0.50000000  1
  Si  Si11  1  0.75501000  0.00000000  0.00000000  1
  O  O12  1  0.73941200  0.88658900  0.20507500  1
  O  O13  1  0.26058800  0.38658900  0.29492500  1
  O  O14  1  0.26058800  0.11341100  0.79492500  1
  O  O15  1  0.73941200  0.61341100  0.70507500  1
  O  O16  1  0.26058800  0.61341100  0.70507500  1
  O  O17  1  0.73941200  0.11341100  0.79492500  1
  O  O18  1  0.73941200  0.38658900  0.29492500  1
  O  O19  1  0.26058800  0.88658900  0.20507500  1
  O  O20  1  0.71228200  0.00000000  0.50000000  1
  O  O21  1  0.28771800  0.50000000  0.00000000  1
  O  O22  1  0.28771800  0.00000000  0.50000000  1
  O  O23  1  0.71228200  0.50000000  0.00000000  1
  O  O24  1  0.00000000  0.34475500  0.56336900  1
  O  O25  1  0.00000000  0.84475500  0.93663100  1
  O  O26  1  0.00000000  0.65524500  0.43663100  1
  O  O27  1  0.00000000  0.15524500  0.06336900  1
  O  O28  1  0.50000000  0.65561200  0.42523900  1
  O  O29  1  0.50000000  0.15561200  0.07476100  1
  O  O30  1  0.50000000  0.34438800  0.57476100  1
  O  O31  1  0.50000000  0.84438800  0.92523900  1
