# generated using pymatgen
data_HfVGe
_symmetry_space_group_name_H-M   'P 1'
_cell_length_a   7.68108057
_cell_length_b   7.68108057
_cell_length_c   7.68108057
_cell_angle_alpha   151.92873833
_cell_angle_beta   151.92873833
_cell_angle_gamma   40.11737728
_symmetry_Int_Tables_number   1
_chemical_formula_structural   HfVGe
_chemical_formula_sum   'Hf2 V2 Ge2'
_cell_volume   100.15313023
_cell_formula_units_Z   2
loop_
 _symmetry_equiv_pos_site_id
 _symmetry_equiv_pos_as_xyz
  1  'x, y, z'
loop_
 _atom_site_type_symbol
 _atom_site_label
 _atom_site_symmetry_multiplicity
 _atom_site_fract_x
 _atom_site_fract_y
 _atom_site_fract_z
 _atom_site_occupancy
  Hf  Hf0  1  0.67678200  0.67678200  0.00000000  1
  Hf  Hf1  1  0.32321800  0.32321800  0.00000000  1
  V  V2  1  0.50000000  0.00000000  0.50000000  1
  V  V3  1  0.00000000  0.50000000  0.50000000  1
  Ge  Ge4  1  0.12800000  0.12800000  0.00000000  1
  Ge  Ge5  1  0.87200000  0.87200000  0.00000000  1
