# generated using pymatgen
data_Y4Te3N2
_symmetry_space_group_name_H-M   'P 1'
_cell_length_a   7.21761700
_cell_length_b   11.02435300
_cell_length_c   11.66869400
_cell_angle_alpha   90.00000000
_cell_angle_beta   90.00000000
_cell_angle_gamma   90.00000000
_symmetry_Int_Tables_number   1
_chemical_formula_structural   Y4Te3N2
_chemical_formula_sum   'Y16 Te12 N8'
_cell_volume   928.47281966
_cell_formula_units_Z   4
loop_
 _symmetry_equiv_pos_site_id
 _symmetry_equiv_pos_as_xyz
  1  'x, y, z'
loop_
 _atom_site_type_symbol
 _atom_site_label
 _atom_site_symmetry_multiplicity
 _atom_site_fract_x
 _atom_site_fract_y
 _atom_site_fract_z
 _atom_site_occupancy
  Y  Y0  1  0.59921000  0.85423600  0.25000000  1
  Y  Y1  1  0.09921000  0.64576400  0.25000000  1
  Y  Y2  1  0.40079000  0.14576400  0.75000000  1
  Y  Y3  1  0.90079000  0.35423600  0.75000000  1
  Y  Y4  1  0.74356500  0.46150200  0.25000000  1
  Y  Y5  1  0.24356500  0.03849800  0.25000000  1
  Y  Y6  1  0.25643500  0.53849800  0.75000000  1
  Y  Y7  1  0.75643500  0.96150200  0.75000000  1
  Y  Y8  1  0.64199000  0.11029800  0.46014800  1
  Y  Y9  1  0.14199000  0.38970200  0.03985200  1
  Y  Y10  1  0.35801000  0.88970200  0.96014800  1
  Y  Y11  1  0.85801000  0.61029800  0.53985200  1
  Y  Y12  1  0.35801000  0.88970200  0.53985200  1
  Y  Y13  1  0.85801000  0.61029800  0.96014800  1
  Y  Y14  1  0.64199000  0.11029800  0.03985200  1
  Y  Y15  1  0.14199000  0.38970200  0.46014800  1
  Te  Te16  1  0.89012500  0.20234500  0.25000000  1
  Te  Te17  1  0.39012500  0.29765500  0.25000000  1
  Te  Te18  1  0.10987500  0.79765500  0.75000000  1
  Te  Te19  1  0.60987500  0.70234500  0.75000000  1
  Te  Te20  1  0.55256900  0.35934700  0.58308300  1
  Te  Te21  1  0.05256900  0.14065300  0.91691700  1
  Te  Te22  1  0.44743100  0.64065300  0.08308300  1
  Te  Te23  1  0.94743100  0.85934700  0.41691700  1
  Te  Te24  1  0.44743100  0.64065300  0.41691700  1
  Te  Te25  1  0.94743100  0.85934700  0.08308300  1
  Te  Te26  1  0.55256900  0.35934700  0.91691700  1
  Te  Te27  1  0.05256900  0.14065300  0.58308300  1
  N  N28  1  0.54854800  0.02441500  0.62306300  1
  N  N29  1  0.04854800  0.47558500  0.87693700  1
  N  N30  1  0.45145200  0.97558500  0.12306300  1
  N  N31  1  0.95145200  0.52441500  0.37693700  1
  N  N32  1  0.45145200  0.97558500  0.37693700  1
  N  N33  1  0.95145200  0.52441500  0.12306300  1
  N  N34  1  0.54854800  0.02441500  0.87693700  1
  N  N35  1  0.04854800  0.47558500  0.62306300  1
