# generated using pymatgen
data_Te2W3S4
_symmetry_space_group_name_H-M   'P 1'
_cell_length_a   3.30068247
_cell_length_b   3.30068247
_cell_length_c   30.56994300
_cell_angle_alpha   90.00000000
_cell_angle_beta   90.00000000
_cell_angle_gamma   120.00000934
_symmetry_Int_Tables_number   1
_chemical_formula_structural   Te2W3S4
_chemical_formula_sum   'Te2 W3 S4'
_cell_volume   288.42487429
_cell_formula_units_Z   1
loop_
 _symmetry_equiv_pos_site_id
 _symmetry_equiv_pos_as_xyz
  1  'x, y, z'
loop_
 _atom_site_type_symbol
 _atom_site_label
 _atom_site_symmetry_multiplicity
 _atom_site_fract_x
 _atom_site_fract_y
 _atom_site_fract_z
 _atom_site_occupancy
  Te  Te0  1  0.33333300  0.66666700  0.51529300  1
  Te  Te1  1  0.33333300  0.66666700  0.64137300  1
  W  W2  1  0.00000000  0.00000000  0.11565200  1
  W  W3  1  0.00000000  0.00000000  0.57836200  1
  W  W4  1  0.33333300  0.66666700  0.34693900  1
  S  S5  1  0.00000000  0.00000000  0.39718000  1
  S  S6  1  0.33333300  0.66666700  0.06540500  1
  S  S7  1  0.33333300  0.66666700  0.16590600  1
  S  S8  1  0.00000000  0.00000000  0.29673100  1
