# generated using pymatgen
data_TeMoS
_symmetry_space_group_name_H-M   'P 1'
_cell_length_a   3.36251353
_cell_length_b   3.36251353
_cell_length_c   39.74253100
_cell_angle_alpha   90.00000000
_cell_angle_beta   90.00000000
_cell_angle_gamma   119.99999072
_symmetry_Int_Tables_number   1
_chemical_formula_structural   TeMoS
_chemical_formula_sum   'Te4 Mo4 S4'
_cell_volume   389.14752673
_cell_formula_units_Z   4
loop_
 _symmetry_equiv_pos_site_id
 _symmetry_equiv_pos_as_xyz
  1  'x, y, z'
loop_
 _atom_site_type_symbol
 _atom_site_label
 _atom_site_symmetry_multiplicity
 _atom_site_fract_x
 _atom_site_fract_y
 _atom_site_fract_z
 _atom_site_occupancy
  Te  Te0  1  0.33333300  0.66666700  0.95218800  1
  Te  Te1  1  0.66666700  0.33333300  0.04781200  1
  Te  Te2  1  0.66666700  0.33333300  0.14281400  1
  Te  Te3  1  0.33333300  0.66666700  0.85718600  1
  Mo  Mo4  1  0.33333300  0.66666700  0.71810400  1
  Mo  Mo5  1  0.33333300  0.66666700  0.09533600  1
  Mo  Mo6  1  0.66666700  0.33333300  0.90466400  1
  Mo  Mo7  1  0.66666700  0.33333300  0.28189600  1
  S  S8  1  0.33333300  0.66666700  0.32001700  1
  S  S9  1  0.66666700  0.33333300  0.67998300  1
  S  S10  1  0.66666700  0.33333300  0.75615700  1
  S  S11  1  0.33333300  0.66666700  0.24384300  1
