# generated using pymatgen
data_NdSi2Rh
_symmetry_space_group_name_H-M   'P 1'
_cell_length_a   8.63534804
_cell_length_b   8.63534804
_cell_length_c   4.22250300
_cell_angle_alpha   90.00000000
_cell_angle_beta   90.00000000
_cell_angle_gamma   151.38699619
_symmetry_Int_Tables_number   1
_chemical_formula_structural   NdSi2Rh
_chemical_formula_sum   'Nd2 Si4 Rh2'
_cell_volume   150.78788017
_cell_formula_units_Z   2
loop_
 _symmetry_equiv_pos_site_id
 _symmetry_equiv_pos_as_xyz
  1  'x, y, z'
loop_
 _atom_site_type_symbol
 _atom_site_label
 _atom_site_symmetry_multiplicity
 _atom_site_fract_x
 _atom_site_fract_y
 _atom_site_fract_z
 _atom_site_occupancy
  Nd  Nd0  1  0.60421100  0.39578900  0.25000000  1
  Nd  Nd1  1  0.39578900  0.60421100  0.75000000  1
  Si  Si2  1  0.96090700  0.03909300  0.25000000  1
  Si  Si3  1  0.03909300  0.96090700  0.75000000  1
  Si  Si4  1  0.24971800  0.75028200  0.25000000  1
  Si  Si5  1  0.75028200  0.24971800  0.75000000  1
  Rh  Rh6  1  0.81964400  0.18035600  0.25000000  1
  Rh  Rh7  1  0.18035600  0.81964400  0.75000000  1
