# generated using pymatgen
data_BaTiN2
_symmetry_space_group_name_H-M   'P 1'
_cell_length_a   3.28167979
_cell_length_b   3.28167979
_cell_length_c   12.25952500
_cell_angle_alpha   90.00000000
_cell_angle_beta   90.00000000
_cell_angle_gamma   119.99999569
_symmetry_Int_Tables_number   1
_chemical_formula_structural   BaTiN2
_chemical_formula_sum   'Ba2 Ti2 N4'
_cell_volume   114.33960777
_cell_formula_units_Z   2
loop_
 _symmetry_equiv_pos_site_id
 _symmetry_equiv_pos_as_xyz
  1  'x, y, z'
loop_
 _atom_site_type_symbol
 _atom_site_label
 _atom_site_symmetry_multiplicity
 _atom_site_fract_x
 _atom_site_fract_y
 _atom_site_fract_z
 _atom_site_occupancy
  Ba  Ba0  1  0.33333300  0.66666700  0.75000000  1
  Ba  Ba1  1  0.66666700  0.33333300  0.25000000  1
  Ti  Ti2  1  0.00000000  0.00000000  0.00000000  1
  Ti  Ti3  1  0.00000000  0.00000000  0.50000000  1
  N  N4  1  0.66666700  0.33333300  0.91176800  1
  N  N5  1  0.33333300  0.66666700  0.08823200  1
  N  N6  1  0.33333300  0.66666700  0.41176800  1
  N  N7  1  0.66666700  0.33333300  0.58823200  1
