# generated using pymatgen
data_Te6Mo3WSe2
_symmetry_space_group_name_H-M   'P 1'
_cell_length_a   3.49704988
_cell_length_b   3.49704988
_cell_length_c   39.56878800
_cell_angle_alpha   90.00000000
_cell_angle_beta   90.00000000
_cell_angle_gamma   119.99999773
_symmetry_Int_Tables_number   1
_chemical_formula_structural   Te6Mo3WSe2
_chemical_formula_sum   'Te6 Mo3 W1 Se2'
_cell_volume   419.07045480
_cell_formula_units_Z   1
loop_
 _symmetry_equiv_pos_site_id
 _symmetry_equiv_pos_as_xyz
  1  'x, y, z'
loop_
 _atom_site_type_symbol
 _atom_site_label
 _atom_site_symmetry_multiplicity
 _atom_site_fract_x
 _atom_site_fract_y
 _atom_site_fract_z
 _atom_site_occupancy
  Te  Te0  1  0.33333300  0.66666700  0.32805800  1
  Te  Te1  1  0.33333300  0.66666700  0.70406300  1
  Te  Te2  1  0.66666700  0.33333300  0.42336900  1
  Te  Te3  1  0.66666700  0.33333300  0.51592900  1
  Te  Te4  1  0.33333300  0.66666700  0.23547500  1
  Te  Te5  1  0.33333300  0.66666700  0.61102100  1
  Mo  Mo6  1  0.33333300  0.66666700  0.09393100  1
  Mo  Mo7  1  0.33333300  0.66666700  0.46969000  1
  Mo  Mo8  1  0.66666700  0.33333300  0.28178700  1
  W  W9  1  0.66666700  0.33333300  0.65757100  1
  Se  Se10  1  0.66666700  0.33333300  0.05305400  1
  Se  Se11  1  0.66666700  0.33333300  0.13480000  1
