# generated using pymatgen
data_MoW(SeS)2
_symmetry_space_group_name_H-M   'P 1'
_cell_length_a   3.25389548
_cell_length_b   3.25389548
_cell_length_c   36.89824600
_cell_angle_alpha   90.00000000
_cell_angle_beta   90.00000000
_cell_angle_gamma   119.99998948
_symmetry_Int_Tables_number   1
_chemical_formula_structural   MoW(SeS)2
_chemical_formula_sum   'Mo2 W2 Se4 S4'
_cell_volume   338.33240640
_cell_formula_units_Z   2
loop_
 _symmetry_equiv_pos_site_id
 _symmetry_equiv_pos_as_xyz
  1  'x, y, z'
loop_
 _atom_site_type_symbol
 _atom_site_label
 _atom_site_symmetry_multiplicity
 _atom_site_fract_x
 _atom_site_fract_y
 _atom_site_fract_z
 _atom_site_occupancy
  Mo  Mo0  1  0.00000000  0.00000000  0.09391200  1
  Mo  Mo1  1  0.33333300  0.66666700  0.28176900  1
  W  W2  1  0.00000000  0.00000000  0.46967700  1
  W  W3  1  0.33333300  0.66666700  0.65754600  1
  Se  Se4  1  0.00000000  0.00000000  0.32775800  1
  Se  Se5  1  0.33333300  0.66666700  0.42335900  1
  Se  Se6  1  0.33333300  0.66666700  0.51600200  1
  Se  Se7  1  0.00000000  0.00000000  0.23580000  1
  S  S8  1  0.00000000  0.00000000  0.69953900  1
  S  S9  1  0.33333300  0.66666700  0.05203600  1
  S  S10  1  0.33333300  0.66666700  0.13580000  1
  S  S11  1  0.00000000  0.00000000  0.61554900  1
