# generated using pymatgen
data_Te2MoWSe2
_symmetry_space_group_name_H-M   'P 1'
_cell_length_a   3.44283066
_cell_length_b   3.44283066
_cell_length_c   39.12330800
_cell_angle_alpha   90.00000000
_cell_angle_beta   90.00000000
_cell_angle_gamma   120.00001263
_symmetry_Int_Tables_number   1
_chemical_formula_structural   Te2MoWSe2
_chemical_formula_sum   'Te4 Mo2 W2 Se4'
_cell_volume   401.60348072
_cell_formula_units_Z   2
loop_
 _symmetry_equiv_pos_site_id
 _symmetry_equiv_pos_as_xyz
  1  'x, y, z'
loop_
 _atom_site_type_symbol
 _atom_site_label
 _atom_site_symmetry_multiplicity
 _atom_site_fract_x
 _atom_site_fract_y
 _atom_site_fract_z
 _atom_site_occupancy
  Te  Te0  1  0.33333300  0.66666700  0.32944500  1
  Te  Te1  1  0.66666700  0.33333300  0.67055500  1
  Te  Te2  1  0.66666700  0.33333300  0.76584800  1
  Te  Te3  1  0.33333300  0.66666700  0.23415200  1
  Mo  Mo4  1  0.33333300  0.66666700  0.09392100  1
  Mo  Mo5  1  0.66666700  0.33333300  0.90607900  1
  W  W6  1  0.33333300  0.66666700  0.71820000  1
  W  W7  1  0.66666700  0.33333300  0.28180000  1
  Se  Se8  1  0.33333300  0.66666700  0.94785200  1
  Se  Se9  1  0.66666700  0.33333300  0.05214800  1
  Se  Se10  1  0.66666700  0.33333300  0.13572500  1
  Se  Se11  1  0.33333300  0.66666700  0.86427500  1
