# generated using pymatgen
data_Cs2TmH4
_symmetry_space_group_name_H-M   'P 1'
_cell_length_a   8.64750144
_cell_length_b   8.64750144
_cell_length_c   8.64750144
_cell_angle_alpha   150.46780659
_cell_angle_beta   150.46780659
_cell_angle_gamma   42.25514479
_symmetry_Int_Tables_number   1
_chemical_formula_structural   Cs2TmH4
_chemical_formula_sum   'Cs2 Tm1 H4'
_cell_volume   156.73320295
_cell_formula_units_Z   1
loop_
 _symmetry_equiv_pos_site_id
 _symmetry_equiv_pos_as_xyz
  1  'x, y, z'
loop_
 _atom_site_type_symbol
 _atom_site_label
 _atom_site_symmetry_multiplicity
 _atom_site_fract_x
 _atom_site_fract_y
 _atom_site_fract_z
 _atom_site_occupancy
  Cs  Cs0  1  0.34628800  0.34628800  0.00000000  1
  Cs  Cs1  1  0.65371200  0.65371200  0.00000000  1
  Tm  Tm2  1  0.00000000  0.00000000  0.00000000  1
  H  H3  1  0.13536000  0.13536000  0.00000000  1
  H  H4  1  0.86464000  0.86464000  0.00000000  1
  H  H5  1  0.50000000  0.00000000  0.50000000  1
  H  H6  1  0.00000000  0.50000000  0.50000000  1
