# generated using pymatgen
data_Ba4Sm2Cd3S10
_symmetry_space_group_name_H-M   'P 1'
_cell_length_a   9.39748991
_cell_length_b   9.39748991
_cell_length_c   27.02728900
_cell_angle_alpha   90.00000000
_cell_angle_beta   90.00000000
_cell_angle_gamma   154.04139987
_symmetry_Int_Tables_number   1
_chemical_formula_structural   Ba4Sm2Cd3S10
_chemical_formula_sum   'Ba8 Sm4 Cd6 S20'
_cell_volume   1044.77842657
_cell_formula_units_Z   2
loop_
 _symmetry_equiv_pos_site_id
 _symmetry_equiv_pos_as_xyz
  1  'x, y, z'
loop_
 _atom_site_type_symbol
 _atom_site_label
 _atom_site_symmetry_multiplicity
 _atom_site_fract_x
 _atom_site_fract_y
 _atom_site_fract_z
 _atom_site_occupancy
  Ba  Ba0  1  0.59588000  0.40412000  0.33879500  1
  Ba  Ba1  1  0.40412000  0.59588000  0.83879500  1
  Ba  Ba2  1  0.57592100  0.42407900  0.15660800  1
  Ba  Ba3  1  0.42407900  0.57592100  0.65660800  1
  Ba  Ba4  1  0.16320600  0.83679400  0.61050800  1
  Ba  Ba5  1  0.83679400  0.16320600  0.11050800  1
  Ba  Ba6  1  0.16271100  0.83728900  0.89088400  1
  Ba  Ba7  1  0.83728900  0.16271100  0.39088400  1
  Sm  Sm8  1  0.50282500  0.49717500  0.49974600  1
  Sm  Sm9  1  0.49717500  0.50282500  0.99974600  1
  Sm  Sm10  1  0.07966200  0.92033800  0.75358700  1
  Sm  Sm11  1  0.92033800  0.07966200  0.25358700  1
  Cd  Cd12  1  0.21754500  0.78245500  0.23148800  1
  Cd  Cd13  1  0.78245500  0.21754500  0.73148800  1
  Cd  Cd14  1  0.15971600  0.84028400  0.46210500  1
  Cd  Cd15  1  0.84028400  0.15971600  0.96210500  1
  Cd  Cd16  1  0.15403500  0.84596500  0.04434700  1
  Cd  Cd17  1  0.84596500  0.15403500  0.54434700  1
  S  S18  1  0.42336400  0.57663600  0.32213300  1
  S  S19  1  0.57663600  0.42336400  0.82213300  1
  S  S20  1  0.40976200  0.59023800  0.18316700  1
  S  S21  1  0.59023800  0.40976200  0.68316700  1
  S  S22  1  0.34748500  0.65251500  0.48998800  1
  S  S23  1  0.65251500  0.34748500  0.98998800  1
  S  S24  1  0.34476500  0.65523500  0.01859200  1
  S  S25  1  0.65523500  0.34476500  0.51859100  1
  S  S26  1  0.23313300  0.76686700  0.76699000  1
  S  S27  1  0.76686700  0.23313300  0.26699000  1
  S  S28  1  0.21121700  0.78878300  0.37817900  1
  S  S29  1  0.78878300  0.21121700  0.87817900  1
  S  S30  1  0.20756600  0.79243400  0.13141500  1
  S  S31  1  0.79243400  0.20756600  0.63141500  1
  S  S32  1  0.07397100  0.92602900  0.24703300  1
  S  S33  1  0.92602900  0.07397100  0.74703300  1
  S  S34  1  0.01690700  0.98309300  0.43223200  1
  S  S35  1  0.98309300  0.01690700  0.93223200  1
  S  S36  1  0.98798600  0.01201400  0.57175500  1
  S  S37  1  0.01201400  0.98798600  0.07175500  1
