# generated using pymatgen
data_RbMg30BO31
_symmetry_space_group_name_H-M   'P 1'
_cell_length_a   8.58927000
_cell_length_b   8.65990800
_cell_length_c   8.69782500
_cell_angle_alpha   90.00000000
_cell_angle_beta   90.00000000
_cell_angle_gamma   90.00000000
_symmetry_Int_Tables_number   1
_chemical_formula_structural   RbMg30BO31
_chemical_formula_sum   'Rb1 Mg30 B1 O31'
_cell_volume   646.96412401
_cell_formula_units_Z   1
loop_
 _symmetry_equiv_pos_site_id
 _symmetry_equiv_pos_as_xyz
  1  'x, y, z'
loop_
 _atom_site_type_symbol
 _atom_site_label
 _atom_site_symmetry_multiplicity
 _atom_site_fract_x
 _atom_site_fract_y
 _atom_site_fract_z
 _atom_site_occupancy
  Rb  Rb0  1  0.00000000  0.00002400  0.00000000  1
  Mg  Mg1  1  0.00000000  0.00220800  0.50000000  1
  Mg  Mg2  1  0.50000000  0.00288300  0.00000000  1
  Mg  Mg3  1  0.00000000  0.49957100  0.00000000  1
  Mg  Mg4  1  0.00000000  0.50518000  0.50000000  1
  Mg  Mg5  1  0.50000000  0.49892300  0.00000000  1
  Mg  Mg6  1  0.50000000  0.50573500  0.50000000  1
  Mg  Mg7  1  0.73513800  0.99997700  0.75449800  1
  Mg  Mg8  1  0.73513800  0.99997700  0.24550200  1
  Mg  Mg9  1  0.26486200  0.99997700  0.75449800  1
  Mg  Mg10  1  0.26486200  0.99997700  0.24550200  1
  Mg  Mg11  1  0.74947900  0.50076900  0.75059200  1
  Mg  Mg12  1  0.74947900  0.50076900  0.24940800  1
  Mg  Mg13  1  0.25052100  0.50076900  0.75059200  1
  Mg  Mg14  1  0.25052100  0.50076900  0.24940800  1
  Mg  Mg15  1  0.00000000  0.25153700  0.74997400  1
  Mg  Mg16  1  0.00000000  0.25153700  0.25002600  1
  Mg  Mg17  1  0.50000000  0.24754600  0.74604100  1
  Mg  Mg18  1  0.50000000  0.24754600  0.25395900  1
  Mg  Mg19  1  0.00000000  0.74894600  0.74913100  1
  Mg  Mg20  1  0.00000000  0.74894600  0.25086900  1
  Mg  Mg21  1  0.50000000  0.75115900  0.76396200  1
  Mg  Mg22  1  0.50000000  0.75115900  0.23603800  1
  Mg  Mg23  1  0.74517500  0.25350000  0.00000000  1
  Mg  Mg24  1  0.73090700  0.25583000  0.50000000  1
  Mg  Mg25  1  0.25482500  0.25350000  0.00000000  1
  Mg  Mg26  1  0.26909300  0.25583000  0.50000000  1
  Mg  Mg27  1  0.74933200  0.74676500  0.00000000  1
  Mg  Mg28  1  0.75217800  0.74609200  0.50000000  1
  Mg  Mg29  1  0.25066800  0.74676500  0.00000000  1
  Mg  Mg30  1  0.24782200  0.74609200  0.50000000  1
  B  B31  1  0.50000000  0.93403600  0.50000000  1
  O  O32  1  0.00000000  0.27883700  0.00000000  1
  O  O33  1  0.50000000  0.25938100  0.00000000  1
  O  O34  1  0.50000000  0.27752200  0.50000000  1
  O  O35  1  0.00000000  0.72061200  0.00000000  1
  O  O36  1  0.00000000  0.75402200  0.50000000  1
  O  O37  1  0.50000000  0.74013300  0.00000000  1
  O  O38  1  0.50000000  0.76372800  0.50000000  1
  O  O39  1  0.74777200  0.24821400  0.74714500  1
  O  O40  1  0.74777200  0.24821400  0.25285500  1
  O  O41  1  0.25222800  0.24821400  0.74714500  1
  O  O42  1  0.25222800  0.24821400  0.25285500  1
  O  O43  1  0.75080600  0.75241400  0.74794400  1
  O  O44  1  0.75080600  0.75241400  0.25205600  1
  O  O45  1  0.24919400  0.75241400  0.74794400  1
  O  O46  1  0.24919400  0.75241400  0.25205600  1
  O  O47  1  0.00000000  0.00087100  0.71642500  1
  O  O48  1  0.00000000  0.00087100  0.28357500  1
  O  O49  1  0.50000000  0.99507100  0.76409700  1
  O  O50  1  0.50000000  0.99507100  0.23590300  1
  O  O51  1  0.00000000  0.49960100  0.74107400  1
  O  O52  1  0.00000000  0.49960100  0.25892600  1
  O  O53  1  0.50000000  0.50767800  0.74688900  1
  O  O54  1  0.50000000  0.50767800  0.25311100  1
  O  O55  1  0.72264800  0.00025500  0.00000000  1
  O  O56  1  0.65979900  0.98854300  0.50000000  1
  O  O57  1  0.27735200  0.00025500  0.00000000  1
  O  O58  1  0.34020100  0.98854300  0.50000000  1
  O  O59  1  0.74554600  0.50012300  0.00000000  1
  O  O60  1  0.74896600  0.50733900  0.50000000  1
  O  O61  1  0.25445400  0.50012300  0.00000000  1
  O  O62  1  0.25103400  0.50733900  0.50000000  1
