# generated using pymatgen
data_La3Yb
_symmetry_space_group_name_H-M   'P 1'
_cell_length_a   7.59885348
_cell_length_b   7.59885348
_cell_length_c   6.04212500
_cell_angle_alpha   90.00000000
_cell_angle_beta   90.00000000
_cell_angle_gamma   119.99999545
_symmetry_Int_Tables_number   1
_chemical_formula_structural   La3Yb
_chemical_formula_sum   'La6 Yb2'
_cell_volume   302.14575585
_cell_formula_units_Z   2
loop_
 _symmetry_equiv_pos_site_id
 _symmetry_equiv_pos_as_xyz
  1  'x, y, z'
loop_
 _atom_site_type_symbol
 _atom_site_label
 _atom_site_symmetry_multiplicity
 _atom_site_fract_x
 _atom_site_fract_y
 _atom_site_fract_z
 _atom_site_occupancy
  La  La0  1  0.16520900  0.33041700  0.25000000  1
  La  La1  1  0.66958300  0.83479100  0.25000000  1
  La  La2  1  0.16520900  0.83479100  0.25000000  1
  La  La3  1  0.83479100  0.66958300  0.75000000  1
  La  La4  1  0.33041700  0.16520900  0.75000000  1
  La  La5  1  0.83479100  0.16520900  0.75000000  1
  Yb  Yb6  1  0.33333300  0.66666700  0.75000000  1
  Yb  Yb7  1  0.66666700  0.33333300  0.25000000  1
