# generated using pymatgen
data_CsYMg14O16
_symmetry_space_group_name_H-M   'P 1'
_cell_length_a   4.52752900
_cell_length_b   8.80739000
_cell_length_c   9.11200100
_cell_angle_alpha   90.00000000
_cell_angle_beta   90.00000000
_cell_angle_gamma   90.00000000
_symmetry_Int_Tables_number   1
_chemical_formula_structural   CsYMg14O16
_chemical_formula_sum   'Cs1 Y1 Mg14 O16'
_cell_volume   363.34754256
_cell_formula_units_Z   1
loop_
 _symmetry_equiv_pos_site_id
 _symmetry_equiv_pos_as_xyz
  1  'x, y, z'
loop_
 _atom_site_type_symbol
 _atom_site_label
 _atom_site_symmetry_multiplicity
 _atom_site_fract_x
 _atom_site_fract_y
 _atom_site_fract_z
 _atom_site_occupancy
  Cs  Cs0  1  0.00000000  0.00000000  0.50000000  1
  Y  Y1  1  0.00000000  0.00000000  0.00000000  1
  Mg  Mg2  1  0.00000000  0.50000000  0.00000000  1
  Mg  Mg3  1  0.00000000  0.50000000  0.50000000  1
  Mg  Mg4  1  0.50000000  0.00000000  0.25504300  1
  Mg  Mg5  1  0.50000000  0.00000000  0.74495700  1
  Mg  Mg6  1  0.50000000  0.50000000  0.25140200  1
  Mg  Mg7  1  0.50000000  0.50000000  0.74859800  1
  Mg  Mg8  1  0.50000000  0.26346500  0.00000000  1
  Mg  Mg9  1  0.50000000  0.26263300  0.50000000  1
  Mg  Mg10  1  0.50000000  0.73653500  0.00000000  1
  Mg  Mg11  1  0.50000000  0.73736700  0.50000000  1
  Mg  Mg12  1  0.00000000  0.26183200  0.25474500  1
  Mg  Mg13  1  0.00000000  0.26183200  0.74525500  1
  Mg  Mg14  1  0.00000000  0.73816800  0.25474500  1
  Mg  Mg15  1  0.00000000  0.73816800  0.74525500  1
  O  O16  1  0.00000000  0.26287700  0.00000000  1
  O  O17  1  0.00000000  0.28758300  0.50000000  1
  O  O18  1  0.00000000  0.73712300  0.00000000  1
  O  O19  1  0.00000000  0.71241700  0.50000000  1
  O  O20  1  0.50000000  0.24990200  0.24993900  1
  O  O21  1  0.50000000  0.24990200  0.75006100  1
  O  O22  1  0.50000000  0.75009800  0.24993900  1
  O  O23  1  0.50000000  0.75009800  0.75006100  1
  O  O24  1  0.50000000  0.00000000  0.00000000  1
  O  O25  1  0.50000000  0.00000000  0.50000000  1
  O  O26  1  0.50000000  0.50000000  0.00000000  1
  O  O27  1  0.50000000  0.50000000  0.50000000  1
  O  O28  1  0.00000000  0.00000000  0.22858500  1
  O  O29  1  0.00000000  0.00000000  0.77141500  1
  O  O30  1  0.00000000  0.50000000  0.24086300  1
  O  O31  1  0.00000000  0.50000000  0.75913700  1
