# generated using pymatgen
data_MgCd2
_symmetry_space_group_name_H-M   'P 1'
_cell_length_a   3.15253577
_cell_length_b   3.15253577
_cell_length_c   15.67306800
_cell_angle_alpha   90.00000000
_cell_angle_beta   90.00000000
_cell_angle_gamma   119.99999523
_symmetry_Int_Tables_number   1
_chemical_formula_structural   MgCd2
_chemical_formula_sum   'Mg2 Cd4'
_cell_volume   134.89775345
_cell_formula_units_Z   2
loop_
 _symmetry_equiv_pos_site_id
 _symmetry_equiv_pos_as_xyz
  1  'x, y, z'
loop_
 _atom_site_type_symbol
 _atom_site_label
 _atom_site_symmetry_multiplicity
 _atom_site_fract_x
 _atom_site_fract_y
 _atom_site_fract_z
 _atom_site_occupancy
  Mg  Mg0  1  0.33333300  0.66666700  0.75000000  1
  Mg  Mg1  1  0.66666700  0.33333300  0.25000000  1
  Cd  Cd2  1  0.66666700  0.33333300  0.91521500  1
  Cd  Cd3  1  0.66666700  0.33333300  0.58478500  1
  Cd  Cd4  1  0.33333300  0.66666700  0.41521500  1
  Cd  Cd5  1  0.33333300  0.66666700  0.08478500  1
