# generated using pymatgen
data_CaZn
_symmetry_space_group_name_H-M   'P 1'
_cell_length_a   3.88408697
_cell_length_b   3.88408697
_cell_length_c   3.88408698
_cell_angle_alpha   78.21454192
_cell_angle_beta   78.21454192
_cell_angle_gamma   78.21453511
_symmetry_Int_Tables_number   1
_chemical_formula_structural   CaZn
_chemical_formula_sum   'Ca1 Zn1'
_cell_volume   55.33787412
_cell_formula_units_Z   1
loop_
 _symmetry_equiv_pos_site_id
 _symmetry_equiv_pos_as_xyz
  1  'x, y, z'
loop_
 _atom_site_type_symbol
 _atom_site_label
 _atom_site_symmetry_multiplicity
 _atom_site_fract_x
 _atom_site_fract_y
 _atom_site_fract_z
 _atom_site_occupancy
  Ca  Ca0  1  0.00000000  0.00000000  0.00000000  1
  Zn  Zn1  1  0.50000000  0.50000000  0.50000000  1
