# generated using pymatgen
data_RbMg30BO31
_symmetry_space_group_name_H-M   'P 1'
_cell_length_a   8.68579400
_cell_length_b   8.68579400
_cell_length_c   8.50560300
_cell_angle_alpha   90.00000000
_cell_angle_beta   90.00000000
_cell_angle_gamma   90.00000000
_symmetry_Int_Tables_number   1
_chemical_formula_structural   RbMg30BO31
_chemical_formula_sum   'Rb1 Mg30 B1 O31'
_cell_volume   641.68835522
_cell_formula_units_Z   1
loop_
 _symmetry_equiv_pos_site_id
 _symmetry_equiv_pos_as_xyz
  1  'x, y, z'
loop_
 _atom_site_type_symbol
 _atom_site_label
 _atom_site_symmetry_multiplicity
 _atom_site_fract_x
 _atom_site_fract_y
 _atom_site_fract_z
 _atom_site_occupancy
  Rb  Rb0  1  0.00000000  0.00000000  0.05630500  1
  Mg  Mg1  1  0.50000000  0.00000000  0.99605900  1
  Mg  Mg2  1  0.00000000  0.50000000  0.99605900  1
  Mg  Mg3  1  0.00000000  0.00000000  0.50381300  1
  Mg  Mg4  1  0.50000000  0.00000000  0.50217400  1
  Mg  Mg5  1  0.00000000  0.50000000  0.50217400  1
  Mg  Mg6  1  0.50000000  0.50000000  0.50036400  1
  Mg  Mg7  1  0.25564900  0.25564900  0.99675100  1
  Mg  Mg8  1  0.74435100  0.25564900  0.99675100  1
  Mg  Mg9  1  0.25564900  0.74435100  0.99675100  1
  Mg  Mg10  1  0.74435100  0.74435100  0.99675100  1
  Mg  Mg11  1  0.24985000  0.24985000  0.50012000  1
  Mg  Mg12  1  0.75015000  0.24985000  0.50012000  1
  Mg  Mg13  1  0.24985000  0.75015000  0.50012000  1
  Mg  Mg14  1  0.75015000  0.75015000  0.50012000  1
  Mg  Mg15  1  0.27278200  0.00000000  0.25196900  1
  Mg  Mg16  1  0.72721800  0.00000000  0.25196900  1
  Mg  Mg17  1  0.26114400  0.50000000  0.24340100  1
  Mg  Mg18  1  0.73885600  0.50000000  0.24340100  1
  Mg  Mg19  1  0.24633600  0.00000000  0.75381800  1
  Mg  Mg20  1  0.75366400  0.00000000  0.75381800  1
  Mg  Mg21  1  0.23738000  0.50000000  0.75020000  1
  Mg  Mg22  1  0.76262000  0.50000000  0.75020000  1
  Mg  Mg23  1  0.00000000  0.27278200  0.25196900  1
  Mg  Mg24  1  0.50000000  0.26114400  0.24340100  1
  Mg  Mg25  1  0.00000000  0.72721800  0.25196900  1
  Mg  Mg26  1  0.50000000  0.73885600  0.24340100  1
  Mg  Mg27  1  0.00000000  0.24633600  0.75381800  1
  Mg  Mg28  1  0.50000000  0.23738000  0.75020000  1
  Mg  Mg29  1  0.00000000  0.75366400  0.75381800  1
  Mg  Mg30  1  0.50000000  0.76262000  0.75020000  1
  B  B31  1  0.50000000  0.50000000  0.94310000  1
  O  O32  1  0.50000000  0.00000000  0.25626400  1
  O  O33  1  0.00000000  0.50000000  0.25626400  1
  O  O34  1  0.50000000  0.50000000  0.26798500  1
  O  O35  1  0.00000000  0.00000000  0.73940500  1
  O  O36  1  0.50000000  0.00000000  0.74400400  1
  O  O37  1  0.00000000  0.50000000  0.74400400  1
  O  O38  1  0.50000000  0.50000000  0.78156000  1
  O  O39  1  0.24910300  0.24910300  0.24799600  1
  O  O40  1  0.75089700  0.24910300  0.24799600  1
  O  O41  1  0.24910300  0.75089700  0.24799600  1
  O  O42  1  0.75089700  0.75089700  0.24799600  1
  O  O43  1  0.25071600  0.25071600  0.74885400  1
  O  O44  1  0.74928400  0.25071600  0.74885400  1
  O  O45  1  0.25071600  0.74928400  0.74885400  1
  O  O46  1  0.74928400  0.74928400  0.74885400  1
  O  O47  1  0.27557800  0.00000000  0.99907700  1
  O  O48  1  0.72442200  0.00000000  0.99907700  1
  O  O49  1  0.24956200  0.50000000  0.99479900  1
  O  O50  1  0.75043800  0.50000000  0.99479900  1
  O  O51  1  0.25185200  0.00000000  0.49839400  1
  O  O52  1  0.74814800  0.00000000  0.49839400  1
  O  O53  1  0.25297300  0.50000000  0.50473600  1
  O  O54  1  0.74702700  0.50000000  0.50473600  1
  O  O55  1  0.00000000  0.27557800  0.99907700  1
  O  O56  1  0.50000000  0.24956200  0.99479900  1
  O  O57  1  0.00000000  0.72442200  0.99907700  1
  O  O58  1  0.50000000  0.75043800  0.99479900  1
  O  O59  1  0.00000000  0.25185200  0.49839400  1
  O  O60  1  0.50000000  0.25297300  0.50473600  1
  O  O61  1  0.00000000  0.74814800  0.49839400  1
  O  O62  1  0.50000000  0.74702700  0.50473600  1
