# generated using pymatgen
data_SmTiGe
_symmetry_space_group_name_H-M   'P 1'
_cell_length_a   8.42802437
_cell_length_b   8.42802437
_cell_length_c   8.42802437
_cell_angle_alpha   151.81943330
_cell_angle_beta   151.81943330
_cell_angle_gamma   40.27704863
_symmetry_Int_Tables_number   1
_chemical_formula_structural   SmTiGe
_chemical_formula_sum   'Sm2 Ti2 Ge2'
_cell_volume   133.24809201
_cell_formula_units_Z   2
loop_
 _symmetry_equiv_pos_site_id
 _symmetry_equiv_pos_as_xyz
  1  'x, y, z'
loop_
 _atom_site_type_symbol
 _atom_site_label
 _atom_site_symmetry_multiplicity
 _atom_site_fract_x
 _atom_site_fract_y
 _atom_site_fract_z
 _atom_site_occupancy
  Sm  Sm0  1  0.67388800  0.67388800  0.00000000  1
  Sm  Sm1  1  0.32611200  0.32611200  0.00000000  1
  Ti  Ti2  1  0.50000000  0.00000000  0.50000000  1
  Ti  Ti3  1  0.00000000  0.50000000  0.50000000  1
  Ge  Ge4  1  0.11850100  0.11850100  0.00000000  1
  Ge  Ge5  1  0.88149900  0.88149900  0.00000000  1
