# generated using pymatgen
data_ReN2
_symmetry_space_group_name_H-M   'P 1'
_cell_length_a   6.91796467
_cell_length_b   6.91796467
_cell_length_c   6.91796467
_cell_angle_alpha   156.55353614
_cell_angle_beta   148.52096945
_cell_angle_gamma   39.62243489
_symmetry_Int_Tables_number   1
_chemical_formula_structural   ReN2
_chemical_formula_sum   'Re2 N4'
_cell_volume   68.67234304
_cell_formula_units_Z   2
loop_
 _symmetry_equiv_pos_site_id
 _symmetry_equiv_pos_as_xyz
  1  'x, y, z'
loop_
 _atom_site_type_symbol
 _atom_site_label
 _atom_site_symmetry_multiplicity
 _atom_site_fract_x
 _atom_site_fract_y
 _atom_site_fract_z
 _atom_site_occupancy
  Re  Re0  1  0.84145600  0.84145600  0.00000000  1
  Re  Re1  1  0.15854400  0.15854400  0.00000000  1
  N  N2  1  0.95054600  0.45054600  0.50000000  1
  N  N3  1  0.04945400  0.54945400  0.50000000  1
  N  N4  1  0.70774200  0.20774200  0.50000000  1
  N  N5  1  0.29225800  0.79225800  0.50000000  1
