# generated using pymatgen
data_UCd
_symmetry_space_group_name_H-M   'P 1'
_cell_length_a   6.54871100
_cell_length_b   6.54871100
_cell_length_c   6.54871031
_cell_angle_alpha   25.86164889
_cell_angle_beta   25.86164889
_cell_angle_gamma   25.86164015
_symmetry_Int_Tables_number   1
_chemical_formula_structural   UCd
_chemical_formula_sum   'U1 Cd1'
_cell_volume   47.06241820
_cell_formula_units_Z   1
loop_
 _symmetry_equiv_pos_site_id
 _symmetry_equiv_pos_as_xyz
  1  'x, y, z'
loop_
 _atom_site_type_symbol
 _atom_site_label
 _atom_site_symmetry_multiplicity
 _atom_site_fract_x
 _atom_site_fract_y
 _atom_site_fract_z
 _atom_site_occupancy
  U  U0  1  0.68812100  0.68812100  0.68812100  1
  Cd  Cd1  1  0.86687900  0.86687900  0.86687900  1
