# generated using pymatgen
data_Dy2AlNi2
_symmetry_space_group_name_H-M   'P 1'
_cell_length_a   5.41960771
_cell_length_b   5.41960771
_cell_length_c   5.41960771
_cell_angle_alpha   135.88702228
_cell_angle_beta   119.21751445
_cell_angle_gamma   78.10638571
_symmetry_Int_Tables_number   1
_chemical_formula_structural   Dy2AlNi2
_chemical_formula_sum   'Dy2 Al1 Ni2'
_cell_volume   93.93757856
_cell_formula_units_Z   1
loop_
 _symmetry_equiv_pos_site_id
 _symmetry_equiv_pos_as_xyz
  1  'x, y, z'
loop_
 _atom_site_type_symbol
 _atom_site_label
 _atom_site_symmetry_multiplicity
 _atom_site_fract_x
 _atom_site_fract_y
 _atom_site_fract_z
 _atom_site_occupancy
  Dy  Dy0  1  0.70526500  0.20526500  0.50000000  1
  Dy  Dy1  1  0.29473500  0.79473500  0.50000000  1
  Al  Al2  1  0.00000000  0.00000000  0.00000000  1
  Ni  Ni3  1  0.27683400  0.50000000  0.77683400  1
  Ni  Ni4  1  0.72316600  0.50000000  0.22316600  1
