# generated using pymatgen
data_CaC2
_symmetry_space_group_name_H-M   'P 1'
_cell_length_a   11.54044558
_cell_length_b   11.54044558
_cell_length_c   21.01785873
_cell_angle_alpha   69.71139977
_cell_angle_beta   69.71139977
_cell_angle_gamma   71.94710078
_symmetry_Int_Tables_number   1
_chemical_formula_structural   CaC2
_chemical_formula_sum   'Ca2 C4'
_cell_volume   2404.73057728
_cell_formula_units_Z   2
loop_
 _symmetry_equiv_pos_site_id
 _symmetry_equiv_pos_as_xyz
  1  'x, y, z'
loop_
 _atom_site_type_symbol
 _atom_site_label
 _atom_site_symmetry_multiplicity
 _atom_site_fract_x
 _atom_site_fract_y
 _atom_site_fract_z
 _atom_site_occupancy
  Ca  Ca0  1  0.44625700  0.44625700  0.24507900  1
  Ca  Ca1  1  0.55374300  0.55374300  0.75492100  1
  C  C2  1  0.98517400  0.98517400  0.47808500  1
  C  C3  1  0.01482600  0.01482600  0.52191500  1
  C  C4  1  0.57707000  0.57707000  0.21109500  1
  C  C5  1  0.42293000  0.42293000  0.78890500  1
