# generated using pymatgen
data_MgSi2
_symmetry_space_group_name_H-M   'P 1'
_cell_length_a   9.22985908
_cell_length_b   9.22985908
_cell_length_c   6.83295650
_cell_angle_alpha   89.56922364
_cell_angle_beta   89.56922364
_cell_angle_gamma   23.52728182
_symmetry_Int_Tables_number   1
_chemical_formula_structural   MgSi2
_chemical_formula_sum   'Mg4 Si8'
_cell_volume   232.35977774
_cell_formula_units_Z   4
loop_
 _symmetry_equiv_pos_site_id
 _symmetry_equiv_pos_as_xyz
  1  'x, y, z'
loop_
 _atom_site_type_symbol
 _atom_site_label
 _atom_site_symmetry_multiplicity
 _atom_site_fract_x
 _atom_site_fract_y
 _atom_site_fract_z
 _atom_site_occupancy
  Mg  Mg0  1  0.83820700  0.83820700  0.50194300  1
  Mg  Mg1  1  0.10087600  0.10087600  0.94099700  1
  Mg  Mg2  1  0.16179300  0.16179300  0.49805700  1
  Mg  Mg3  1  0.89912400  0.89912400  0.05900300  1
  Si  Si4  1  0.57866200  0.57866200  0.25267600  1
  Si  Si5  1  0.29352900  0.29352900  0.85192100  1
  Si  Si6  1  0.42133800  0.42133800  0.74732400  1
  Si  Si7  1  0.70647100  0.70647100  0.14807900  1
  Si  Si8  1  0.28329900  0.28329900  0.22269900  1
  Si  Si9  1  0.99285900  0.99285900  0.67413700  1
  Si  Si10  1  0.71670100  0.71670100  0.77730100  1
  Si  Si11  1  0.00714100  0.00714100  0.32586300  1
