# generated using pymatgen
data_K3Na5V3(MoO4)5
_symmetry_space_group_name_H-M   'P 1'
_cell_length_a   11.38270709
_cell_length_b   11.72066849
_cell_length_c   17.00846803
_cell_angle_alpha   110.39521133
_cell_angle_beta   109.23206305
_cell_angle_gamma   89.86708833
_symmetry_Int_Tables_number   1
_chemical_formula_structural   K3Na5V3(MoO4)5
_chemical_formula_sum   'K12 Na20 V12 Mo20 O80'
_cell_volume   1991.91822020
_cell_formula_units_Z   4
loop_
 _symmetry_equiv_pos_site_id
 _symmetry_equiv_pos_as_xyz
  1  'x, y, z'
loop_
 _atom_site_type_symbol
 _atom_site_label
 _atom_site_symmetry_multiplicity
 _atom_site_fract_x
 _atom_site_fract_y
 _atom_site_fract_z
 _atom_site_occupancy
  K  K0  1  0.30442100  0.07076900  0.11382100  1
  K  K1  1  0.30625800  0.56745300  0.11491600  1
  K  K2  1  0.80311000  0.06642500  0.11257100  1
  K  K3  1  0.80282300  0.56880000  0.11248300  1
  K  K4  1  0.19846700  0.93226600  0.39264300  1
  K  K5  1  0.18719200  0.92265700  0.87622600  1
  K  K6  1  0.68659100  0.42462400  0.87631800  1
  K  K7  1  0.05905200  0.29703300  0.11317400  1
  K  K8  1  0.05550600  0.79417400  0.11117700  1
  K  K9  1  0.55190800  0.29645600  0.11205000  1
  K  K10  1  0.55692400  0.79297800  0.11407500  1
  K  K11  1  0.93573300  0.70083800  0.87616400  1
  Na  Na12  1  0.30686200  0.07213400  0.61062200  1
  Na  Na13  1  0.30839000  0.57112500  0.61017200  1
  Na  Na14  1  0.80582600  0.06932200  0.60792900  1
  Na  Na15  1  0.80612200  0.57029500  0.60702500  1
  Na  Na16  1  0.20313600  0.43471900  0.40070000  1
  Na  Na17  1  0.19813900  0.42903800  0.88828400  1
  Na  Na18  1  0.69547700  0.43728300  0.40183500  1
  Na  Na19  1  0.70258500  0.93192500  0.40040400  1
  Na  Na20  1  0.69753900  0.92884500  0.88774600  1
  Na  Na21  1  0.05704100  0.28814500  0.60871700  1
  Na  Na22  1  0.05630800  0.78790900  0.60706300  1
  Na  Na23  1  0.55755200  0.28747900  0.60721500  1
  Na  Na24  1  0.55719000  0.78765600  0.60799000  1
  Na  Na25  1  0.44525100  0.21615400  0.40002200  1
  Na  Na26  1  0.44650900  0.20910200  0.88832100  1
  Na  Na27  1  0.44709400  0.71418500  0.39779500  1
  Na  Na28  1  0.44810300  0.70949200  0.88935000  1
  Na  Na29  1  0.94738900  0.21507700  0.40233500  1
  Na  Na30  1  0.94769900  0.20927700  0.88827100  1
  Na  Na31  1  0.95091500  0.71883700  0.40366800  1
  V  V32  1  0.10026600  0.08663900  0.74413800  1
  V  V33  1  0.10554100  0.57819200  0.74320500  1
  V  V34  1  0.60148200  0.08072600  0.74497600  1
  V  V35  1  0.60488000  0.59266800  0.25833100  1
  V  V36  1  0.59929800  0.58627900  0.74421000  1
  V  V37  1  0.36260200  0.41600400  0.25867400  1
  V  V38  1  0.35225700  0.41213200  0.74819000  1
  V  V39  1  0.36184500  0.91395400  0.25510700  1
  V  V40  1  0.35401300  0.91291600  0.74452000  1
  V  V41  1  0.85295400  0.40703700  0.74041100  1
  V  V42  1  0.85658400  0.91344600  0.25895800  1
  V  V43  1  0.84898800  0.91539700  0.74487800  1
  Mo  Mo44  1  0.99958800  0.99775600  0.99353100  1
  Mo  Mo45  1  0.00762000  0.00137500  0.50299800  1
  Mo  Mo46  1  0.99939100  0.49571200  0.99189200  1
  Mo  Mo47  1  0.01174400  0.50065500  0.50356300  1
  Mo  Mo48  1  0.49903100  0.99604100  0.99157100  1
  Mo  Mo49  1  0.50885500  0.00126900  0.50256100  1
  Mo  Mo50  1  0.49887800  0.49561600  0.99392600  1
  Mo  Mo51  1  0.50832300  0.50086400  0.50267200  1
  Mo  Mo52  1  0.24918900  0.24707900  0.99249200  1
  Mo  Mo53  1  0.26117000  0.25497300  0.50637400  1
  Mo  Mo54  1  0.25094500  0.74635500  0.99427300  1
  Mo  Mo55  1  0.26184800  0.75127300  0.50418000  1
  Mo  Mo56  1  0.75044000  0.24470700  0.99214800  1
  Mo  Mo57  1  0.75925500  0.25168500  0.50161600  1
  Mo  Mo58  1  0.74913200  0.74837900  0.99451800  1
  Mo  Mo59  1  0.75714600  0.75054600  0.50144100  1
  Mo  Mo60  1  0.10398700  0.09642100  0.25810300  1
  Mo  Mo61  1  0.10291000  0.58581000  0.25611000  1
  Mo  Mo62  1  0.60851100  0.09281800  0.25853900  1
  Mo  Mo63  1  0.84997600  0.41243200  0.25983000  1
  O  O64  1  0.12499100  0.12500500  0.49105400  1
  O  O65  1  0.11767100  0.11911600  0.98137600  1
  O  O66  1  0.12667000  0.61726100  0.48612600  1
  O  O67  1  0.12067000  0.61303800  0.98082200  1
  O  O68  1  0.62386100  0.11674300  0.48198000  1
  O  O69  1  0.61714600  0.11203300  0.97573800  1
  O  O70  1  0.62549200  0.61923000  0.48643400  1
  O  O71  1  0.61739800  0.61878800  0.98422500  1
  O  O72  1  0.12765700  0.37484100  0.99873200  1
  O  O73  1  0.14643200  0.38835400  0.52422200  1
  O  O74  1  0.12985400  0.87675500  0.00473200  1
  O  O75  1  0.14105900  0.88322100  0.52048600  1
  O  O76  1  0.62868900  0.37448400  0.00454800  1
  O  O77  1  0.64211800  0.38445700  0.51805700  1
  O  O78  1  0.62687800  0.87495700  0.99960300  1
  O  O79  1  0.64117100  0.88414400  0.51720100  1
  O  O80  1  0.37993000  0.12291600  0.49221500  1
  O  O81  1  0.37016800  0.11747100  0.98099400  1
  O  O82  1  0.37766700  0.61790100  0.48941500  1
  O  O83  1  0.36814300  0.61374800  0.97929600  1
  O  O84  1  0.87414200  0.11638100  0.48458700  1
  O  O85  1  0.86782500  0.11375800  0.97784000  1
  O  O86  1  0.87499000  0.61650400  0.48418500  1
  O  O87  1  0.86949800  0.61772400  0.98589800  1
  O  O88  1  0.37731600  0.37657900  0.00075000  1
  O  O89  1  0.39495000  0.38712800  0.52294100  1
  O  O90  1  0.38128300  0.87549500  0.00374300  1
  O  O91  1  0.39626300  0.88715900  0.52471400  1
  O  O92  1  0.88113000  0.37482400  0.00303400  1
  O  O93  1  0.89494600  0.38586000  0.52166400  1
  O  O94  1  0.87745300  0.87994300  0.00430200  1
  O  O95  1  0.89020400  0.88435500  0.51782300  1
  O  O96  1  0.07156000  0.09204600  0.13854000  1
  O  O97  1  0.07704000  0.10997500  0.64271200  1
  O  O98  1  0.07540700  0.58739400  0.13969600  1
  O  O99  1  0.08758000  0.60874600  0.64445100  1
  O  O100  1  0.57660300  0.08911600  0.13919300  1
  O  O101  1  0.58570000  0.10531500  0.64429000  1
  O  O102  1  0.57181000  0.58244800  0.14531900  1
  O  O103  1  0.57867600  0.61046700  0.64317600  1
  O  O104  1  0.44859900  0.39168800  0.35945800  1
  O  O105  1  0.43239600  0.39586500  0.85241800  1
  O  O106  1  0.43970700  0.89288600  0.35851900  1
  O  O107  1  0.42831400  0.89682600  0.84917600  1
  O  O108  1  0.95756000  0.38406100  0.36234300  1
  O  O109  1  0.92832800  0.40027000  0.84870300  1
  O  O110  1  0.94274300  0.88974000  0.35948600  1
  O  O111  1  0.93073100  0.90594500  0.85025400  1
  O  O112  1  0.32533600  0.31305500  0.14402000  1
  O  O113  1  0.33514200  0.28871800  0.64654400  1
  O  O114  1  0.33152100  0.80642200  0.14315800  1
  O  O115  1  0.33603700  0.78715500  0.64451800  1
  O  O116  1  0.82616800  0.30156900  0.14049200  1
  O  O117  1  0.83058700  0.27925900  0.64055900  1
  O  O118  1  0.82288500  0.81115400  0.14524200  1
  O  O119  1  0.83170900  0.78979800  0.64324500  1
  O  O120  1  0.20596200  0.22556700  0.36481000  1
  O  O121  1  0.18391000  0.20209900  0.85032100  1
  O  O122  1  0.21372600  0.70934600  0.36403900  1
  O  O123  1  0.18244100  0.69144400  0.85089500  1
  O  O124  1  0.70758800  0.22906600  0.36164000  1
  O  O125  1  0.68624500  0.19463600  0.85009300  1
  O  O126  1  0.69133700  0.71654100  0.35843500  1
  O  O127  1  0.68031800  0.70192400  0.85161100  1
  O  O128  1  0.44531800  0.06101600  0.26800600  1
  O  O129  1  0.43820100  0.05223500  0.74600100  1
  O  O130  1  0.44962400  0.55933600  0.26785600  1
  O  O131  1  0.43845900  0.54934900  0.74755300  1
  O  O132  1  0.94384400  0.05823100  0.26937600  1
  O  O133  1  0.93741400  0.05193400  0.74529400  1
  O  O134  1  0.94152700  0.56625800  0.27048300  1
  O  O135  1  0.93988100  0.53552800  0.73219600  1
  O  O136  1  0.20702200  0.45117100  0.26928200  1
  O  O137  1  0.18743100  0.43932500  0.74504500  1
  O  O138  1  0.20379900  0.95656300  0.25401500  1
  O  O139  1  0.18844500  0.94935100  0.73434500  1
  O  O140  1  0.68724700  0.45641300  0.26915900  1
  O  O141  1  0.69047800  0.45067300  0.73394100  1
  O  O142  1  0.70029100  0.95110400  0.26843700  1
  O  O143  1  0.68392300  0.94117600  0.74390300  1
