# generated using pymatgen
data_La7SmMn6(FeO10)2
_symmetry_space_group_name_H-M   'P 1'
_cell_length_a   11.31857117
_cell_length_b   11.87240719
_cell_length_c   17.85379378
_cell_angle_alpha   109.40438066
_cell_angle_beta   108.56547841
_cell_angle_gamma   90.01575311
_symmetry_Int_Tables_number   1
_chemical_formula_structural   La7SmMn6(FeO10)2
_chemical_formula_sum   'La28 Sm4 Mn24 Fe8 O80'
_cell_volume   2129.98651203
_cell_formula_units_Z   4
loop_
 _symmetry_equiv_pos_site_id
 _symmetry_equiv_pos_as_xyz
  1  'x, y, z'
loop_
 _atom_site_type_symbol
 _atom_site_label
 _atom_site_symmetry_multiplicity
 _atom_site_fract_x
 _atom_site_fract_y
 _atom_site_fract_z
 _atom_site_occupancy
  La  La0  1  0.29745100  0.06515200  0.11051900  1
  La  La1  1  0.30395100  0.06433900  0.61010600  1
  La  La2  1  0.30006800  0.56488000  0.61088200  1
  La  La3  1  0.79467100  0.06519500  0.61083500  1
  La  La4  1  0.79963700  0.56574800  0.10943300  1
  La  La5  1  0.79997300  0.56471000  0.61136700  1
  La  La6  1  0.18908100  0.43394100  0.38839200  1
  La  La7  1  0.18964100  0.43641600  0.89145500  1
  La  La8  1  0.19224800  0.93453100  0.38734500  1
  La  La9  1  0.19137700  0.93570600  0.88999700  1
  La  La10  1  0.68822100  0.43559900  0.38877800  1
  La  La11  1  0.68270100  0.93453800  0.38841900  1
  La  La12  1  0.69008000  0.93424700  0.89053100  1
  La  La13  1  0.04441400  0.29477700  0.11066200  1
  La  La14  1  0.05026700  0.29707400  0.61249700  1
  La  La15  1  0.04893800  0.79765400  0.61049400  1
  La  La16  1  0.55370700  0.29405600  0.11047500  1
  La  La17  1  0.54965900  0.29526000  0.61202900  1
  La  La18  1  0.54696500  0.79496200  0.11033000  1
  La  La19  1  0.55098300  0.79419000  0.61107600  1
  La  La20  1  0.43911000  0.20489100  0.38818400  1
  La  La21  1  0.44462200  0.20609000  0.88975800  1
  La  La22  1  0.43742500  0.70513000  0.38768300  1
  La  La23  1  0.44006200  0.70422100  0.88968600  1
  La  La24  1  0.93654800  0.20074100  0.38731200  1
  La  La25  1  0.93476700  0.20575600  0.88961200  1
  La  La26  1  0.93737900  0.70352200  0.38686400  1
  La  La27  1  0.94065600  0.70392900  0.89089700  1
  Sm  Sm28  1  0.29402300  0.56680400  0.10938200  1
  Sm  Sm29  1  0.79694600  0.06520900  0.10867100  1
  Sm  Sm30  1  0.68884500  0.43482000  0.89178300  1
  Sm  Sm31  1  0.04822100  0.79375800  0.11002100  1
  Mn  Mn32  1  0.00241400  0.00010100  0.49954600  1
  Mn  Mn33  1  0.00191700  0.49968700  0.49967700  1
  Mn  Mn34  1  0.50166000  0.49980300  0.49979500  1
  Mn  Mn35  1  0.25358700  0.25169000  0.00121800  1
  Mn  Mn36  1  0.25191800  0.24894700  0.49956900  1
  Mn  Mn37  1  0.25226100  0.75024100  0.49940700  1
  Mn  Mn38  1  0.75162800  0.24941200  0.50022600  1
  Mn  Mn39  1  0.75121900  0.75048700  0.49929000  1
  Mn  Mn40  1  0.10371400  0.09656700  0.24748700  1
  Mn  Mn41  1  0.10885100  0.10094700  0.75043900  1
  Mn  Mn42  1  0.10924900  0.59897700  0.24827100  1
  Mn  Mn43  1  0.10899900  0.59906900  0.75060800  1
  Mn  Mn44  1  0.60970800  0.09730600  0.24848900  1
  Mn  Mn45  1  0.60945600  0.09915400  0.75306400  1
  Mn  Mn46  1  0.60418600  0.59848000  0.24721800  1
  Mn  Mn47  1  0.60986000  0.59795400  0.75228800  1
  Mn  Mn48  1  0.35717000  0.40166100  0.24731300  1
  Mn  Mn49  1  0.36053100  0.40165200  0.75121200  1
  Mn  Mn50  1  0.35291700  0.89895600  0.24483900  1
  Mn  Mn51  1  0.35843900  0.90121200  0.75031200  1
  Mn  Mn52  1  0.85824900  0.40032800  0.24953700  1
  Mn  Mn53  1  0.85684000  0.40117200  0.75203600  1
  Mn  Mn54  1  0.85866900  0.90038100  0.24811300  1
  Mn  Mn55  1  0.86019100  0.90191700  0.75148100  1
  Fe  Fe56  1  0.00410200  0.99891200  0.00148900  1
  Fe  Fe57  1  0.00378200  0.50130200  0.00148700  1
  Fe  Fe58  1  0.50538000  0.99996500  0.00057500  1
  Fe  Fe59  1  0.50247800  0.99982400  0.49964700  1
  Fe  Fe60  1  0.50429200  0.50175300  0.00124000  1
  Fe  Fe61  1  0.25421600  0.75024400  0.00101600  1
  Fe  Fe62  1  0.75355700  0.24996000  0.00044800  1
  Fe  Fe63  1  0.75601100  0.75067300  0.00125600  1
  O  O64  1  0.11141500  0.11402800  0.47133100  1
  O  O65  1  0.11074800  0.11604900  0.97673900  1
  O  O66  1  0.10944900  0.61775600  0.47376100  1
  O  O67  1  0.11426500  0.61757400  0.97988700  1
  O  O68  1  0.61209500  0.11758900  0.48070800  1
  O  O69  1  0.61529500  0.11614100  0.97821500  1
  O  O70  1  0.61012900  0.61942600  0.47668600  1
  O  O71  1  0.61477900  0.61391900  0.97518800  1
  O  O72  1  0.13595200  0.38598600  0.02728400  1
  O  O73  1  0.13591500  0.38229700  0.52604000  1
  O  O74  1  0.13520400  0.87927100  0.02693900  1
  O  O75  1  0.13903600  0.88500500  0.52640800  1
  O  O76  1  0.63502700  0.37991600  0.02090200  1
  O  O77  1  0.63385400  0.38094200  0.52382800  1
  O  O78  1  0.63986400  0.88433100  0.02522000  1
  O  O79  1  0.63109800  0.88234900  0.51828800  1
  O  O80  1  0.36665000  0.11021400  0.47981000  1
  O  O81  1  0.36596100  0.10985600  0.97565700  1
  O  O82  1  0.36019900  0.60724400  0.47519700  1
  O  O83  1  0.36270600  0.61218100  0.97645100  1
  O  O84  1  0.85966500  0.10689700  0.47337000  1
  O  O85  1  0.86260500  0.10922300  0.97983800  1
  O  O86  1  0.85978800  0.60747600  0.47442000  1
  O  O87  1  0.86055100  0.60664200  0.97432600  1
  O  O88  1  0.38741000  0.40173100  0.02844800  1
  O  O89  1  0.38424100  0.39131000  0.52319500  1
  O  O90  1  0.38557500  0.89245500  0.02274800  1
  O  O91  1  0.38740200  0.88895900  0.52002500  1
  O  O92  1  0.88252300  0.39079200  0.02056200  1
  O  O93  1  0.88510900  0.39263300  0.52539700  1
  O  O94  1  0.88929300  0.89360800  0.02943000  1
  O  O95  1  0.88585100  0.89269400  0.52538600  1
  O  O96  1  0.10260500  0.12166400  0.14042100  1
  O  O97  1  0.10547100  0.12133200  0.64066900  1
  O  O98  1  0.10544900  0.62198100  0.13985000  1
  O  O99  1  0.10283600  0.62136700  0.64113000  1
  O  O100  1  0.60979200  0.11812400  0.14034100  1
  O  O101  1  0.60137000  0.12007100  0.64342200  1
  O  O102  1  0.60727500  0.62124200  0.14014200  1
  O  O103  1  0.60296400  0.61874200  0.64203600  1
  O  O104  1  0.46043500  0.38073800  0.35796100  1
  O  O105  1  0.46862300  0.38313300  0.86051000  1
  O  O106  1  0.45469000  0.88053300  0.35571700  1
  O  O107  1  0.45983800  0.88068700  0.86044800  1
  O  O108  1  0.96195700  0.37788600  0.35890800  1
  O  O109  1  0.96288800  0.38047700  0.86096700  1
  O  O110  1  0.96501800  0.87865600  0.35766900  1
  O  O111  1  0.95967100  0.88117900  0.86196200  1
  O  O112  1  0.35680300  0.26850500  0.14039500  1
  O  O113  1  0.35312100  0.27155400  0.64108500  1
  O  O114  1  0.35233000  0.76653200  0.13855900  1
  O  O115  1  0.35556300  0.77241100  0.64043400  1
  O  O116  1  0.84668400  0.26904700  0.13919300  1
  O  O117  1  0.85011600  0.27091200  0.64155200  1
  O  O118  1  0.86107500  0.76958700  0.14042000  1
  O  O119  1  0.84902400  0.77172600  0.64037500  1
  O  O120  1  0.21312900  0.22479000  0.35784800  1
  O  O121  1  0.21546900  0.23079100  0.86060100  1
  O  O122  1  0.21182500  0.72901400  0.35862100  1
  O  O123  1  0.20896500  0.72946100  0.86116200  1
  O  O124  1  0.70833500  0.22884100  0.35960200  1
  O  O125  1  0.70890600  0.23164800  0.86203800  1
  O  O126  1  0.70773900  0.72881700  0.35803600  1
  O  O127  1  0.71046700  0.73045700  0.86173200  1
  O  O128  1  0.42185100  0.06867100  0.24921600  1
  O  O129  1  0.42200700  0.06996100  0.75061600  1
  O  O130  1  0.41427600  0.57051700  0.24404400  1
  O  O131  1  0.42073100  0.57084500  0.74985500  1
  O  O132  1  0.91408100  0.07034200  0.24453700  1
  O  O133  1  0.92081800  0.07134300  0.75076200  1
  O  O134  1  0.92246500  0.56839900  0.24898700  1
  O  O135  1  0.92110000  0.56914300  0.75062900  1
  O  O136  1  0.17051800  0.42944900  0.24970800  1
  O  O137  1  0.17301800  0.43076100  0.75139400  1
  O  O138  1  0.16461100  0.92523500  0.24364900  1
  O  O139  1  0.17078300  0.93064700  0.75033400  1
  O  O140  1  0.67104000  0.43120100  0.24994800  1
  O  O141  1  0.67101700  0.42979700  0.75640900  1
  O  O142  1  0.67152400  0.92874900  0.24998700  1
  O  O143  1  0.67198100  0.92995800  0.75036600  1
