# generated using pymatgen
data_Mg5Si9
_symmetry_space_group_name_H-M   'P 1'
_cell_length_a   6.12452324
_cell_length_b   7.44031052
_cell_length_c   13.12321202
_cell_angle_alpha   76.87578991
_cell_angle_beta   78.09332677
_cell_angle_gamma   112.49973435
_symmetry_Int_Tables_number   1
_chemical_formula_structural   Mg5Si9
_chemical_formula_sum   'Mg10 Si18'
_cell_volume   508.68144153
_cell_formula_units_Z   2
loop_
 _symmetry_equiv_pos_site_id
 _symmetry_equiv_pos_as_xyz
  1  'x, y, z'
loop_
 _atom_site_type_symbol
 _atom_site_label
 _atom_site_symmetry_multiplicity
 _atom_site_fract_x
 _atom_site_fract_y
 _atom_site_fract_z
 _atom_site_occupancy
  Mg  Mg0  1  0.42704700  0.02882700  0.71095900  1
  Mg  Mg1  1  0.16925400  0.95020300  0.43958900  1
  Mg  Mg2  1  0.93206900  0.46391100  0.53321800  1
  Mg  Mg3  1  0.30786100  0.42265500  0.30991800  1
  Mg  Mg4  1  0.10061300  0.16703400  0.61588600  1
  Mg  Mg5  1  0.64280000  0.67298800  0.42292900  1
  Mg  Mg6  1  0.49907600  0.99653000  0.04220100  1
  Mg  Mg7  1  0.61144900  0.75150900  0.83620100  1
  Mg  Mg8  1  0.00059500  0.28376900  0.06199700  1
  Mg  Mg9  1  0.11169700  0.73199000  0.97260800  1
  Si  Si10  1  0.77929500  0.80252200  0.12573300  1
  Si  Si11  1  0.42306400  0.26218200  0.87807300  1
  Si  Si12  1  0.84735900  0.13796900  0.32114100  1
  Si  Si13  1  0.97479700  0.74454700  0.67150200  1
  Si  Si14  1  0.11122700  0.70042100  0.31250400  1
  Si  Si15  1  0.81003400  0.21305400  0.80025300  1
  Si  Si16  1  0.80679700  0.46437100  0.24349800  1
  Si  Si17  1  0.08042700  0.55137600  0.81269800  1
  Si  Si18  1  0.50042300  0.24638300  0.17383700  1
  Si  Si19  1  0.72183600  0.00947800  0.52229700  1
  Si  Si20  1  0.97655800  0.03940000  0.92569700  1
  Si  Si21  1  0.07825700  0.00091000  0.21252500  1
  Si  Si22  1  0.55341300  0.92714400  0.25003000  1
  Si  Si23  1  0.56346300  0.47667800  0.68877500  1
  Si  Si24  1  0.65958200  0.44313600  0.98012500  1
  Si  Si25  1  0.41495800  0.58514200  0.07405400  1
  Si  Si26  1  0.34537500  0.66102200  0.61023200  1
  Si  Si27  1  0.55097100  0.26503700  0.45130600  1
