# generated using pymatgen
data_La7SmV8O20
_symmetry_space_group_name_H-M   'P 1'
_cell_length_a   11.12427269
_cell_length_b   11.63559620
_cell_length_c   18.00562666
_cell_angle_alpha   108.90468072
_cell_angle_beta   107.99853785
_cell_angle_gamma   90.24314524
_symmetry_Int_Tables_number   1
_chemical_formula_structural   La7SmV8O20
_chemical_formula_sum   'La28 Sm4 V32 O80'
_cell_volume   2082.83943574
_cell_formula_units_Z   4
loop_
 _symmetry_equiv_pos_site_id
 _symmetry_equiv_pos_as_xyz
  1  'x, y, z'
loop_
 _atom_site_type_symbol
 _atom_site_label
 _atom_site_symmetry_multiplicity
 _atom_site_fract_x
 _atom_site_fract_y
 _atom_site_fract_z
 _atom_site_occupancy
  La  La0  1  0.30229200  0.06188900  0.11152400  1
  La  La1  1  0.31000000  0.06355700  0.61552100  1
  La  La2  1  0.31510400  0.56106900  0.61936500  1
  La  La3  1  0.81504100  0.06157600  0.61012700  1
  La  La4  1  0.80781000  0.56408300  0.11497100  1
  La  La5  1  0.81992700  0.56164800  0.61846000  1
  La  La6  1  0.19997400  0.43829800  0.39415100  1
  La  La7  1  0.19433200  0.44027800  0.88558900  1
  La  La8  1  0.19815800  0.94098100  0.38874900  1
  La  La9  1  0.19528700  0.94250500  0.88907600  1
  La  La10  1  0.70076000  0.43811200  0.39393000  1
  La  La11  1  0.69524400  0.94022200  0.38749500  1
  La  La12  1  0.70127800  0.93715900  0.88915200  1
  La  La13  1  0.05867900  0.29883000  0.11098800  1
  La  La14  1  0.05925900  0.30150500  0.60843600  1
  La  La15  1  0.06042700  0.79897800  0.61191100  1
  La  La16  1  0.55621000  0.30381500  0.11005200  1
  La  La17  1  0.55767200  0.30436000  0.61372000  1
  La  La18  1  0.55373500  0.79829500  0.10695000  1
  La  La19  1  0.55692900  0.79853700  0.61104100  1
  La  La20  1  0.45235700  0.20264300  0.39303200  1
  La  La21  1  0.44521900  0.19629100  0.88334700  1
  La  La22  1  0.45214200  0.70064400  0.38503600  1
  La  La23  1  0.45306000  0.69122800  0.88118500  1
  La  La24  1  0.94684000  0.19788700  0.38891400  1
  La  La25  1  0.95043400  0.19540900  0.88784400  1
  La  La26  1  0.94463100  0.69901400  0.38198500  1
  La  La27  1  0.94825200  0.69905000  0.88392000  1
  Sm  Sm28  1  0.31360300  0.56464500  0.10755800  1
  Sm  Sm29  1  0.81105400  0.06357000  0.10884300  1
  Sm  Sm30  1  0.69628500  0.43939900  0.89359000  1
  Sm  Sm31  1  0.05064500  0.79750100  0.10804900  1
  V  V32  1  0.00858200  0.00007100  0.00256400  1
  V  V33  1  0.00503100  0.99572500  0.49728800  1
  V  V34  1  0.00779700  0.50130400  0.00149300  1
  V  V35  1  0.00525600  0.50301800  0.49782200  1
  V  V36  1  0.50914900  0.00214800  0.00128500  1
  V  V37  1  0.50661700  0.99789100  0.49997500  1
  V  V38  1  0.50498400  0.50008400  0.99846200  1
  V  V39  1  0.50542700  0.50387800  0.49974400  1
  V  V40  1  0.25820800  0.25390700  0.00328500  1
  V  V41  1  0.25608500  0.24911200  0.49822000  1
  V  V42  1  0.25650200  0.75248300  0.00150400  1
  V  V43  1  0.25572200  0.74999900  0.49813200  1
  V  V44  1  0.75732400  0.25178700  0.00074800  1
  V  V45  1  0.75623600  0.25007600  0.50071200  1
  V  V46  1  0.75880000  0.75164400  0.00152400  1
  V  V47  1  0.75622200  0.74953100  0.49976900  1
  V  V48  1  0.10335400  0.09493700  0.25065700  1
  V  V49  1  0.11778900  0.11173400  0.74945400  1
  V  V50  1  0.12068500  0.59499100  0.24665200  1
  V  V51  1  0.12831800  0.61302400  0.75336500  1
  V  V52  1  0.60623500  0.09934800  0.24678100  1
  V  V53  1  0.61441000  0.10073500  0.75081400  1
  V  V54  1  0.61673900  0.60577500  0.24759400  1
  V  V55  1  0.62701700  0.60156100  0.74873600  1
  V  V56  1  0.36071500  0.40511400  0.25192400  1
  V  V57  1  0.35745700  0.38415900  0.75188800  1
  V  V58  1  0.35428700  0.90038900  0.24688800  1
  V  V59  1  0.35179900  0.88449500  0.75099300  1
  V  V60  1  0.85564000  0.39896200  0.24896800  1
  V  V61  1  0.85891500  0.39605200  0.75139200  1
  V  V62  1  0.85093500  0.89482700  0.24739400  1
  V  V63  1  0.85317400  0.88804000  0.74903500  1
  O  O64  1  0.11500600  0.11500600  0.47500400  1
  O  O65  1  0.11798500  0.11728200  0.97738700  1
  O  O66  1  0.11714400  0.62077000  0.47307200  1
  O  O67  1  0.11974900  0.61282600  0.98130000  1
  O  O68  1  0.61672400  0.11243900  0.47425600  1
  O  O69  1  0.61851800  0.11282300  0.97811400  1
  O  O70  1  0.62060400  0.62181100  0.47935200  1
  O  O71  1  0.61830000  0.61442500  0.97420400  1
  O  O72  1  0.14359300  0.39479400  0.02789300  1
  O  O73  1  0.14142100  0.38734800  0.52281200  1
  O  O74  1  0.14204700  0.88488500  0.03499300  1
  O  O75  1  0.14521700  0.88271000  0.52387400  1
  O  O76  1  0.64504400  0.38974800  0.02943100  1
  O  O77  1  0.64109100  0.38768800  0.52646400  1
  O  O78  1  0.64518200  0.89496400  0.02615000  1
  O  O79  1  0.64520800  0.88203700  0.52483400  1
  O  O80  1  0.36715000  0.10858600  0.47366600  1
  O  O81  1  0.37316200  0.11211200  0.97965700  1
  O  O82  1  0.36672700  0.61841700  0.47296600  1
  O  O83  1  0.36295900  0.60916200  0.96755000  1
  O  O84  1  0.86512600  0.10758200  0.47388700  1
  O  O85  1  0.86771800  0.11077400  0.97675500  1
  O  O86  1  0.86550700  0.61703100  0.47215500  1
  O  O87  1  0.86936800  0.60646000  0.97558300  1
  O  O88  1  0.39119400  0.39660000  0.02954700  1
  O  O89  1  0.38868100  0.39093300  0.52118900  1
  O  O90  1  0.39160200  0.89685100  0.02357400  1
  O  O91  1  0.38959500  0.88483700  0.52355600  1
  O  O92  1  0.89200500  0.39519700  0.02339700  1
  O  O93  1  0.88953000  0.39135000  0.52240800  1
  O  O94  1  0.89366900  0.89642100  0.03235200  1
  O  O95  1  0.88965700  0.87998700  0.51964600  1
  O  O96  1  0.08075500  0.11115200  0.13609000  1
  O  O97  1  0.06417100  0.10543500  0.62819600  1
  O  O98  1  0.08536600  0.61124400  0.13219000  1
  O  O99  1  0.06803100  0.60751100  0.62909300  1
  O  O100  1  0.59054300  0.10986200  0.13282300  1
  O  O101  1  0.58105300  0.10976800  0.63327400  1
  O  O102  1  0.56339300  0.60957900  0.12976900  1
  O  O103  1  0.56189800  0.60800200  0.63173100  1
  O  O104  1  0.45213800  0.39527500  0.36665100  1
  O  O105  1  0.46569800  0.39026600  0.86839900  1
  O  O106  1  0.44394100  0.89223000  0.36434800  1
  O  O107  1  0.45354800  0.89370000  0.87154300  1
  O  O108  1  0.94579100  0.39107900  0.36530200  1
  O  O109  1  0.95296100  0.39194400  0.87079200  1
  O  O110  1  0.94982300  0.89270000  0.36468400  1
  O  O111  1  0.94965800  0.89583600  0.87000600  1
  O  O112  1  0.33208400  0.27610900  0.13590200  1
  O  O113  1  0.33384600  0.27301500  0.62987300  1
  O  O114  1  0.34201400  0.77551500  0.13361000  1
  O  O115  1  0.32764200  0.77197700  0.62861700  1
  O  O116  1  0.83867300  0.27462300  0.13393100  1
  O  O117  1  0.83020400  0.27729000  0.63411500  1
  O  O118  1  0.84275100  0.77468700  0.13300400  1
  O  O119  1  0.83492400  0.77258700  0.62950100  1
  O  O120  1  0.19352700  0.21991400  0.36416200  1
  O  O121  1  0.19580900  0.23016000  0.87240200  1
  O  O122  1  0.19545700  0.72650600  0.36622700  1
  O  O123  1  0.17408400  0.73291000  0.87157500  1
  O  O124  1  0.69538500  0.22172000  0.36574200  1
  O  O125  1  0.69544200  0.22846000  0.86794000  1
  O  O126  1  0.68280400  0.72760300  0.37074400  1
  O  O127  1  0.69360700  0.72659100  0.87055500  1
  O  O128  1  0.41726200  0.07627800  0.25163500  1
  O  O129  1  0.42860100  0.05657900  0.74986200  1
  O  O130  1  0.40761800  0.57601600  0.24263400  1
  O  O131  1  0.43845700  0.55079900  0.74902300  1
  O  O132  1  0.90844000  0.07221400  0.24436800  1
  O  O133  1  0.91705300  0.06849500  0.74891800  1
  O  O134  1  0.93526700  0.56286800  0.24836100  1
  O  O135  1  0.94057000  0.55832900  0.75264300  1
  O  O136  1  0.17124300  0.42174100  0.25291800  1
  O  O137  1  0.17003000  0.43059900  0.74460700  1
  O  O138  1  0.16081900  0.91854700  0.24341800  1
  O  O139  1  0.16566600  0.93431400  0.75174800  1
  O  O140  1  0.66649500  0.42633500  0.25382900  1
  O  O141  1  0.67584800  0.42448100  0.75996000  1
  O  O142  1  0.66092500  0.92693700  0.24747200  1
  O  O143  1  0.66615000  0.92658500  0.74921700  1
