# generated using pymatgen
data_La4Sm4Ni7AgO20
_symmetry_space_group_name_H-M   'P 1'
_cell_length_a   11.01940259
_cell_length_b   11.48705544
_cell_length_c   17.51542152
_cell_angle_alpha   109.62866603
_cell_angle_beta   108.33819308
_cell_angle_gamma   89.80559260
_symmetry_Int_Tables_number   1
_chemical_formula_structural   La4Sm4Ni7AgO20
_chemical_formula_sum   'La16 Sm16 Ni28 Ag4 O80'
_cell_volume   1969.20424969
_cell_formula_units_Z   4
loop_
 _symmetry_equiv_pos_site_id
 _symmetry_equiv_pos_as_xyz
  1  'x, y, z'
loop_
 _atom_site_type_symbol
 _atom_site_label
 _atom_site_symmetry_multiplicity
 _atom_site_fract_x
 _atom_site_fract_y
 _atom_site_fract_z
 _atom_site_occupancy
  La  La0  1  0.30610200  0.06090900  0.60785900  1
  La  La1  1  0.30976000  0.56432900  0.61044200  1
  La  La2  1  0.80272100  0.06243000  0.60896700  1
  La  La3  1  0.80466600  0.56307700  0.61125500  1
  La  La4  1  0.19622900  0.43643200  0.38862700  1
  La  La5  1  0.19258600  0.43892300  0.88724100  1
  La  La6  1  0.69354200  0.43618800  0.38819600  1
  La  La7  1  0.69258600  0.93694100  0.38846400  1
  La  La8  1  0.05388700  0.29658400  0.60906200  1
  La  La9  1  0.05304200  0.79923200  0.61053300  1
  La  La10  1  0.55717600  0.29788200  0.60940500  1
  La  La11  1  0.44299500  0.20009100  0.38768800  1
  La  La12  1  0.44032000  0.20403200  0.88947100  1
  La  La13  1  0.94650000  0.20039300  0.38825600  1
  La  La14  1  0.94255100  0.19855100  0.88579400  1
  La  La15  1  0.94690800  0.70474200  0.38981100  1
  Sm  Sm16  1  0.29851600  0.06799000  0.11394800  1
  Sm  Sm17  1  0.31019600  0.56466500  0.11654600  1
  Sm  Sm18  1  0.79517000  0.07012800  0.11250700  1
  Sm  Sm19  1  0.79797100  0.55703100  0.11736300  1
  Sm  Sm20  1  0.19277900  0.93473400  0.38980200  1
  Sm  Sm21  1  0.18906100  0.93489900  0.88705000  1
  Sm  Sm22  1  0.67817700  0.43426100  0.88567700  1
  Sm  Sm23  1  0.68155400  0.93464400  0.87895800  1
  Sm  Sm24  1  0.05447800  0.30001400  0.11493500  1
  Sm  Sm25  1  0.06092900  0.79668500  0.11884100  1
  Sm  Sm26  1  0.55435500  0.30143000  0.11207800  1
  Sm  Sm27  1  0.53884000  0.79506700  0.11318400  1
  Sm  Sm28  1  0.55370700  0.79245100  0.60573700  1
  Sm  Sm29  1  0.44101900  0.70672800  0.39141400  1
  Sm  Sm30  1  0.43228900  0.69773000  0.88725300  1
  Sm  Sm31  1  0.94328300  0.70618300  0.88592700  1
  Ni  Ni32  1  0.00390600  0.99962800  0.49898800  1
  Ni  Ni33  1  0.00422800  0.49993900  0.49981700  1
  Ni  Ni34  1  0.50263900  0.99811300  0.49833400  1
  Ni  Ni35  1  0.50173000  0.49997300  0.00137800  1
  Ni  Ni36  1  0.50254400  0.49978500  0.49768900  1
  Ni  Ni37  1  0.25573600  0.25446700  0.00255100  1
  Ni  Ni38  1  0.25380200  0.24880600  0.49923000  1
  Ni  Ni39  1  0.25257400  0.75041600  0.00370400  1
  Ni  Ni40  1  0.25457300  0.74947400  0.49931900  1
  Ni  Ni41  1  0.75185300  0.25215200  0.99996700  1
  Ni  Ni42  1  0.75238000  0.25005300  0.49864600  1
  Ni  Ni43  1  0.75151000  0.74863600  0.49770400  1
  Ni  Ni44  1  0.10757300  0.09713800  0.25087500  1
  Ni  Ni45  1  0.10963600  0.09702700  0.75157600  1
  Ni  Ni46  1  0.11046300  0.60091800  0.24996900  1
  Ni  Ni47  1  0.11016200  0.60152100  0.75097700  1
  Ni  Ni48  1  0.60911800  0.09569700  0.24950400  1
  Ni  Ni49  1  0.60635400  0.09802100  0.74927300  1
  Ni  Ni50  1  0.60773200  0.60008600  0.25012000  1
  Ni  Ni51  1  0.61021100  0.60364600  0.75140000  1
  Ni  Ni52  1  0.35798500  0.40124700  0.24733200  1
  Ni  Ni53  1  0.35921900  0.40304500  0.74851200  1
  Ni  Ni54  1  0.35583100  0.90005000  0.25036600  1
  Ni  Ni55  1  0.36246900  0.89946100  0.74857200  1
  Ni  Ni56  1  0.85746200  0.39784000  0.24859400  1
  Ni  Ni57  1  0.85550500  0.40349900  0.74992900  1
  Ni  Ni58  1  0.85928300  0.89843600  0.24648800  1
  Ni  Ni59  1  0.85520000  0.89671900  0.74744000  1
  Ag  Ag60  1  0.99794600  0.00204000  0.00310900  1
  Ag  Ag61  1  0.00152500  0.50065800  0.00161500  1
  Ag  Ag62  1  0.49678900  0.00229200  0.00332500  1
  Ag  Ag63  1  0.74728700  0.74635900  0.00351600  1
  O  O64  1  0.11903800  0.11617100  0.48183200  1
  O  O65  1  0.11707400  0.12479700  0.97917300  1
  O  O66  1  0.11804800  0.61835300  0.48211300  1
  O  O67  1  0.10948000  0.62407400  0.97248000  1
  O  O68  1  0.61489200  0.11859300  0.48104400  1
  O  O69  1  0.61542000  0.12408200  0.98038300  1
  O  O70  1  0.61041400  0.62019500  0.47706600  1
  O  O71  1  0.59666300  0.60630000  0.96420100  1
  O  O72  1  0.14919700  0.38647000  0.03975100  1
  O  O73  1  0.13672700  0.38246400  0.52038000  1
  O  O74  1  0.14001700  0.88165300  0.03127200  1
  O  O75  1  0.13554100  0.88095700  0.51703600  1
  O  O76  1  0.63505500  0.38368500  0.02299200  1
  O  O77  1  0.63563100  0.38407400  0.51716900  1
  O  O78  1  0.63615200  0.88698800  0.04157400  1
  O  O79  1  0.63152000  0.87790700  0.51711700  1
  O  O80  1  0.36170100  0.10591900  0.47740400  1
  O  O81  1  0.34904800  0.10943800  0.96844900  1
  O  O82  1  0.36844800  0.61437500  0.47847300  1
  O  O83  1  0.36782500  0.61637600  0.98540600  1
  O  O84  1  0.86743700  0.11313600  0.48165900  1
  O  O85  1  0.84622700  0.10541900  0.96754800  1
  O  O86  1  0.86642700  0.61217800  0.48058800  1
  O  O87  1  0.84794100  0.59600200  0.95626800  1
  O  O88  1  0.38809600  0.39156100  0.02470300  1
  O  O89  1  0.38532100  0.38584200  0.51663800  1
  O  O90  1  0.37898500  0.88992100  0.02998200  1
  O  O91  1  0.38846300  0.88279500  0.51701600  1
  O  O92  1  0.88390000  0.39157000  0.03166800  1
  O  O93  1  0.88582800  0.38717500  0.51821900  1
  O  O94  1  0.88717700  0.89319900  0.03702200  1
  O  O95  1  0.88476800  0.88620600  0.51674600  1
  O  O96  1  0.13123400  0.14073400  0.15963500  1
  O  O97  1  0.08433600  0.10734900  0.63861700  1
  O  O98  1  0.14069500  0.63775400  0.15914800  1
  O  O99  1  0.08243700  0.61252700  0.63851900  1
  O  O100  1  0.62922100  0.14428600  0.15977600  1
  O  O101  1  0.58421400  0.10879300  0.63705300  1
  O  O102  1  0.59676000  0.61339700  0.13838000  1
  O  O103  1  0.57718700  0.60955000  0.63527500  1
  O  O104  1  0.44143800  0.38807200  0.36008300  1
  O  O105  1  0.44747000  0.38945000  0.86047100  1
  O  O106  1  0.44704200  0.88906700  0.36206000  1
  O  O107  1  0.47118500  0.86156800  0.84684100  1
  O  O108  1  0.94436900  0.39006500  0.36184100  1
  O  O109  1  0.96659700  0.36413300  0.84403600  1
  O  O110  1  0.95498600  0.89393200  0.36149500  1
  O  O111  1  0.97760600  0.87001500  0.84324900  1
  O  O112  1  0.36074600  0.27472800  0.13948700  1
  O  O113  1  0.33758100  0.27924100  0.63664100  1
  O  O114  1  0.34725100  0.77611000  0.14054500  1
  O  O115  1  0.34079000  0.77980300  0.63447000  1
  O  O116  1  0.85279800  0.27597500  0.13776100  1
  O  O117  1  0.82484300  0.28057100  0.63469400  1
  O  O118  1  0.88399000  0.75657000  0.15633300  1
  O  O119  1  0.82376300  0.77615600  0.63246100  1
  O  O120  1  0.19052400  0.22152000  0.36504700  1
  O  O121  1  0.20006300  0.22479200  0.86290400  1
  O  O122  1  0.20162900  0.72433600  0.36355200  1
  O  O123  1  0.21466800  0.72411600  0.86333900  1
  O  O124  1  0.69289000  0.21981600  0.36412400  1
  O  O125  1  0.69616600  0.22669200  0.86160300  1
  O  O126  1  0.70000100  0.72172000  0.36166300  1
  O  O127  1  0.73028500  0.73763800  0.84271500  1
  O  O128  1  0.42424100  0.06079300  0.24564800  1
  O  O129  1  0.42538300  0.06528100  0.74980800  1
  O  O130  1  0.42783200  0.56927200  0.25299500  1
  O  O131  1  0.42781200  0.56825800  0.75354100  1
  O  O132  1  0.92150100  0.06364500  0.24482600  1
  O  O133  1  0.92556500  0.05912300  0.74746900  1
  O  O134  1  0.92523400  0.56046000  0.24891500  1
  O  O135  1  0.92988200  0.56669500  0.75313900  1
  O  O136  1  0.17472500  0.43512300  0.24736500  1
  O  O137  1  0.17897600  0.43785000  0.74873800  1
  O  O138  1  0.17510200  0.93481100  0.25386200  1
  O  O139  1  0.18289300  0.93452200  0.75394500  1
  O  O140  1  0.67455600  0.43582700  0.24531200  1
  O  O141  1  0.67199900  0.43645500  0.75280500  1
  O  O142  1  0.67333700  0.92857500  0.24704300  1
  O  O143  1  0.67062000  0.93244200  0.74528500  1
