# generated using pymatgen
data_SrCa7Fe2(CoO4)6
_symmetry_space_group_name_H-M   'P 1'
_cell_length_a   7.60028476
_cell_length_b   7.60028476
_cell_length_c   7.64712000
_cell_angle_alpha   90.00000000
_cell_angle_beta   90.00000000
_cell_angle_gamma   90.09622837
_symmetry_Int_Tables_number   1
_chemical_formula_structural   SrCa7Fe2(CoO4)6
_chemical_formula_sum   'Sr1 Ca7 Fe2 Co6 O24'
_cell_volume   441.73012860
_cell_formula_units_Z   1
loop_
 _symmetry_equiv_pos_site_id
 _symmetry_equiv_pos_as_xyz
  1  'x, y, z'
loop_
 _atom_site_type_symbol
 _atom_site_label
 _atom_site_symmetry_multiplicity
 _atom_site_fract_x
 _atom_site_fract_y
 _atom_site_fract_z
 _atom_site_occupancy
  Sr  Sr0  1  0.75214100  0.75214100  0.00000000  1
  Ca  Ca1  1  0.75483200  0.24536400  0.50000000  1
  Ca  Ca2  1  0.75474100  0.24556600  0.00000000  1
  Ca  Ca3  1  0.24524800  0.24524800  0.50000000  1
  Ca  Ca4  1  0.24544700  0.24544700  0.00000000  1
  Ca  Ca5  1  0.75472500  0.75472500  0.50000000  1
  Ca  Ca6  1  0.24536400  0.75483200  0.50000000  1
  Ca  Ca7  1  0.24556600  0.75474100  0.00000000  1
  Fe  Fe8  1  0.00079500  0.00079500  0.74935600  1
  Fe  Fe9  1  0.00079500  0.00079500  0.25064400  1
  Co  Co10  1  0.49931500  0.00095900  0.74906900  1
  Co  Co11  1  0.49931500  0.00095900  0.25093100  1
  Co  Co12  1  0.00095900  0.49931500  0.74906900  1
  Co  Co13  1  0.00095900  0.49931500  0.25093100  1
  Co  Co14  1  0.49904900  0.49904900  0.74903700  1
  Co  Co15  1  0.49904900  0.49904900  0.25096300  1
  O  O16  1  0.00112300  0.25127900  0.74902300  1
  O  O17  1  0.00112300  0.25127900  0.25097700  1
  O  O18  1  0.49921100  0.24325600  0.74920900  1
  O  O19  1  0.49921100  0.24325600  0.25079100  1
  O  O20  1  0.00336300  0.74887100  0.74619100  1
  O  O21  1  0.00336300  0.74887100  0.25380900  1
  O  O22  1  0.49665600  0.75719000  0.74670900  1
  O  O23  1  0.49665600  0.75719000  0.25329100  1
  O  O24  1  0.74887100  0.00336300  0.74619100  1
  O  O25  1  0.74887100  0.00336300  0.25380900  1
  O  O26  1  0.25127900  0.00112300  0.74902300  1
  O  O27  1  0.25127900  0.00112300  0.25097700  1
  O  O28  1  0.75719000  0.49665600  0.74670900  1
  O  O29  1  0.75719000  0.49665600  0.25329100  1
  O  O30  1  0.24325600  0.49921100  0.74920900  1
  O  O31  1  0.24325600  0.49921100  0.25079100  1
  O  O32  1  0.00113400  0.00113400  0.50000000  1
  O  O33  1  0.00327100  0.00327100  0.00000000  1
  O  O34  1  0.49910100  0.00105100  0.50000000  1
  O  O35  1  0.49538500  0.00376200  0.00000000  1
  O  O36  1  0.00105100  0.49910100  0.50000000  1
  O  O37  1  0.00376200  0.49538500  0.00000000  1
  O  O38  1  0.49933500  0.49933500  0.50000000  1
  O  O39  1  0.49675900  0.49675900  0.00000000  1
