# generated using pymatgen
data_Sr5Ca3Mn4(FeO5)4
_symmetry_space_group_name_H-M   'P 1'
_cell_length_a   11.10754103
_cell_length_b   11.21553474
_cell_length_c   17.66070303
_cell_angle_alpha   108.45263906
_cell_angle_beta   108.47657351
_cell_angle_gamma   90.00751091
_symmetry_Int_Tables_number   1
_chemical_formula_structural   Sr5Ca3Mn4(FeO5)4
_chemical_formula_sum   'Sr20 Ca12 Mn16 Fe16 O80'
_cell_volume   1967.04793212
_cell_formula_units_Z   4
loop_
 _symmetry_equiv_pos_site_id
 _symmetry_equiv_pos_as_xyz
  1  'x, y, z'
loop_
 _atom_site_type_symbol
 _atom_site_label
 _atom_site_symmetry_multiplicity
 _atom_site_fract_x
 _atom_site_fract_y
 _atom_site_fract_z
 _atom_site_occupancy
  Sr  Sr0  1  0.30791600  0.05807500  0.60842100  1
  Sr  Sr1  1  0.30691700  0.55854100  0.60876300  1
  Sr  Sr2  1  0.80768700  0.05888300  0.60911100  1
  Sr  Sr3  1  0.80917600  0.55856200  0.61032800  1
  Sr  Sr4  1  0.19623000  0.43919500  0.38721000  1
  Sr  Sr5  1  0.19900100  0.44205100  0.89329700  1
  Sr  Sr6  1  0.69691800  0.44004100  0.38776300  1
  Sr  Sr7  1  0.69682300  0.94008100  0.38769000  1
  Sr  Sr8  1  0.70000400  0.94089400  0.89311600  1
  Sr  Sr9  1  0.05910600  0.30065900  0.60972200  1
  Sr  Sr10  1  0.05877100  0.80142400  0.60983600  1
  Sr  Sr11  1  0.55810900  0.30152400  0.61026800  1
  Sr  Sr12  1  0.55796200  0.80098000  0.60943600  1
  Sr  Sr13  1  0.44687600  0.19813700  0.38784500  1
  Sr  Sr14  1  0.45071500  0.20266100  0.89373900  1
  Sr  Sr15  1  0.44651700  0.69798500  0.38723500  1
  Sr  Sr16  1  0.44922900  0.70112800  0.89303300  1
  Sr  Sr17  1  0.94682400  0.19763800  0.38752000  1
  Sr  Sr18  1  0.94960400  0.20176800  0.89322400  1
  Sr  Sr19  1  0.94702200  0.69847700  0.38731900  1
  Ca  Ca20  1  0.30445100  0.06259900  0.10464800  1
  Ca  Ca21  1  0.30359700  0.56361300  0.10515000  1
  Ca  Ca22  1  0.80441000  0.06280700  0.10457800  1
  Ca  Ca23  1  0.80471700  0.56314500  0.10490100  1
  Ca  Ca24  1  0.20083500  0.93866600  0.39316200  1
  Ca  Ca25  1  0.20253600  0.93984500  0.89809700  1
  Ca  Ca26  1  0.70355500  0.44089300  0.89791400  1
  Ca  Ca27  1  0.05479600  0.29216100  0.10600400  1
  Ca  Ca28  1  0.05610100  0.79277000  0.10624600  1
  Ca  Ca29  1  0.55407300  0.29186000  0.10540200  1
  Ca  Ca30  1  0.55557100  0.79208100  0.10493200  1
  Ca  Ca31  1  0.95370700  0.70823800  0.89811000  1
  Mn  Mn32  1  0.10646300  0.09133600  0.24599000  1
  Mn  Mn33  1  0.11342400  0.09573100  0.75335700  1
  Mn  Mn34  1  0.10758300  0.59768100  0.24467100  1
  Mn  Mn35  1  0.11109000  0.60295900  0.75418300  1
  Mn  Mn36  1  0.60591900  0.09221000  0.24503600  1
  Mn  Mn37  1  0.61318100  0.10145300  0.75218300  1
  Mn  Mn38  1  0.60736800  0.59357100  0.24465800  1
  Mn  Mn39  1  0.61593400  0.59647600  0.75363500  1
  Mn  Mn40  1  0.35668300  0.40153300  0.24457100  1
  Mn  Mn41  1  0.36522200  0.40425400  0.75200300  1
  Mn  Mn42  1  0.35317000  0.90187200  0.24629400  1
  Mn  Mn43  1  0.36034100  0.90441800  0.75366900  1
  Mn  Mn44  1  0.85768200  0.40217800  0.24502700  1
  Mn  Mn45  1  0.86090900  0.40887800  0.75549500  1
  Mn  Mn46  1  0.85886500  0.90045100  0.24461900  1
  Mn  Mn47  1  0.86556300  0.90028100  0.75255400  1
  Fe  Fe48  1  0.00758200  0.00082800  0.00378400  1
  Fe  Fe49  1  0.00259000  0.99890600  0.49733900  1
  Fe  Fe50  1  0.00589300  0.50226200  0.00310600  1
  Fe  Fe51  1  0.00201400  0.49968900  0.49875800  1
  Fe  Fe52  1  0.50641300  0.00150300  0.00424200  1
  Fe  Fe53  1  0.50193000  0.99930900  0.49765400  1
  Fe  Fe54  1  0.50754600  0.50196400  0.00437300  1
  Fe  Fe55  1  0.50290000  0.49948400  0.49888100  1
  Fe  Fe56  1  0.25649200  0.25164300  0.00420200  1
  Fe  Fe57  1  0.25181600  0.24796600  0.49740300  1
  Fe  Fe58  1  0.25599700  0.75303900  0.00407400  1
  Fe  Fe59  1  0.25164700  0.74896600  0.49751100  1
  Fe  Fe60  1  0.75748800  0.25357700  0.00513500  1
  Fe  Fe61  1  0.75283400  0.24996600  0.49939700  1
  Fe  Fe62  1  0.75738400  0.75062900  0.00253900  1
  Fe  Fe63  1  0.75270600  0.74895800  0.49864800  1
  O  O64  1  0.12520100  0.11937500  0.49166700  1
  O  O65  1  0.12778900  0.11964800  0.99343000  1
  O  O66  1  0.12430100  0.62316200  0.49391800  1
  O  O67  1  0.12275400  0.62590200  0.99270200  1
  O  O68  1  0.62478900  0.12359800  0.49522800  1
  O  O69  1  0.62753800  0.12474900  0.99717200  1
  O  O70  1  0.62461600  0.62336300  0.49485300  1
  O  O71  1  0.62909900  0.62032000  0.99370800  1
  O  O72  1  0.13583800  0.38080500  0.01518900  1
  O  O73  1  0.12871400  0.37565400  0.50344300  1
  O  O74  1  0.13527600  0.87996900  0.01213800  1
  O  O75  1  0.12943700  0.87624200  0.50088800  1
  O  O76  1  0.63654400  0.38124300  0.01402900  1
  O  O77  1  0.62878700  0.37572600  0.50249800  1
  O  O78  1  0.63614100  0.87960800  0.01466000  1
  O  O79  1  0.62890300  0.87596300  0.50310900  1
  O  O80  1  0.37078200  0.11728300  0.49056500  1
  O  O81  1  0.37349700  0.11778600  0.99343300  1
  O  O82  1  0.37453600  0.62223100  0.49479700  1
  O  O83  1  0.37737200  0.62319600  0.99743500  1
  O  O84  1  0.87570700  0.12217900  0.49559600  1
  O  O85  1  0.87765500  0.12167500  0.99606600  1
  O  O86  1  0.87469300  0.62209700  0.49442500  1
  O  O87  1  0.87470900  0.61960200  0.99040100  1
  O  O88  1  0.38651200  0.38307400  0.01439800  1
  O  O89  1  0.37908600  0.37660500  0.50295500  1
  O  O90  1  0.38516300  0.88423600  0.01438800  1
  O  O91  1  0.37742500  0.87740500  0.50170100  1
  O  O92  1  0.88389900  0.38520000  0.01351700  1
  O  O93  1  0.87875900  0.37679600  0.50274000  1
  O  O94  1  0.88744500  0.88124400  0.01320900  1
  O  O95  1  0.87920700  0.87719900  0.50254100  1
  O  O96  1  0.08580500  0.09320700  0.13625300  1
  O  O97  1  0.07917300  0.07913400  0.63772800  1
  O  O98  1  0.08120700  0.59805100  0.13395500  1
  O  O99  1  0.07125500  0.58237900  0.63696100  1
  O  O100  1  0.58133700  0.09643000  0.13539200  1
  O  O101  1  0.57375300  0.08214500  0.63597900  1
  O  O102  1  0.58412700  0.59791900  0.13510400  1
  O  O103  1  0.57841800  0.57955200  0.63736600  1
  O  O104  1  0.43524100  0.42098400  0.36143800  1
  O  O105  1  0.44502500  0.41665700  0.86736800  1
  O  O106  1  0.43754100  0.92035100  0.36198300  1
  O  O107  1  0.44467500  0.91540800  0.86769700  1
  O  O108  1  0.93523800  0.42086500  0.36156800  1
  O  O109  1  0.94366200  0.41250100  0.86790100  1
  O  O110  1  0.93776200  0.92090900  0.36088900  1
  O  O111  1  0.94538300  0.90802400  0.86680100  1
  O  O112  1  0.33200500  0.28720400  0.13503100  1
  O  O113  1  0.32488800  0.30274900  0.63592000  1
  O  O114  1  0.32574400  0.79031600  0.13607200  1
  O  O115  1  0.32159100  0.80634100  0.63739200  1
  O  O116  1  0.83475400  0.28866500  0.13546700  1
  O  O117  1  0.82489800  0.31005000  0.63883700  1
  O  O118  1  0.83461800  0.78758400  0.13465800  1
  O  O119  1  0.82562100  0.80412500  0.63634700  1
  O  O120  1  0.18416300  0.19435400  0.36104900  1
  O  O121  1  0.19145100  0.20436000  0.86672000  1
  O  O122  1  0.18588400  0.69845800  0.36143100  1
  O  O123  1  0.19410100  0.71038900  0.86798300  1
  O  O124  1  0.68473700  0.18943400  0.36102700  1
  O  O125  1  0.69112700  0.20837200  0.86696200  1
  O  O126  1  0.68525500  0.69094000  0.36133900  1
  O  O127  1  0.69531700  0.70460700  0.86700300  1
  O  O128  1  0.42946500  0.06086500  0.23966500  1
  O  O129  1  0.44203600  0.06298400  0.75236300  1
  O  O130  1  0.42965800  0.56325100  0.23897200  1
  O  O131  1  0.44233000  0.56648600  0.75169700  1
  O  O132  1  0.92968600  0.06343900  0.23892100  1
  O  O133  1  0.94215400  0.06385100  0.75212000  1
  O  O134  1  0.93034000  0.56325000  0.23964800  1
  O  O135  1  0.93882500  0.57526600  0.76080500  1
  O  O136  1  0.17981800  0.42917700  0.23975500  1
  O  O137  1  0.19251900  0.44252500  0.75304200  1
  O  O138  1  0.17903400  0.92404300  0.24791400  1
  O  O139  1  0.19043600  0.93303400  0.76026300  1
  O  O140  1  0.67957900  0.42608700  0.23918800  1
  O  O141  1  0.68813600  0.43142500  0.75987000  1
  O  O142  1  0.68227700  0.92644900  0.23939100  1
  O  O143  1  0.69539700  0.94091600  0.75295100  1
