# generated using pymatgen
data_NO
_symmetry_space_group_name_H-M   'P 1'
_cell_length_a   4.75801997
_cell_length_b   4.75801997
_cell_length_c   7.07885521
_cell_angle_alpha   74.78936881
_cell_angle_beta   74.78936881
_cell_angle_gamma   66.45426995
_symmetry_Int_Tables_number   1
_chemical_formula_structural   NO
_chemical_formula_sum   'N4 O4'
_cell_volume   139.50037765
_cell_formula_units_Z   4
loop_
 _symmetry_equiv_pos_site_id
 _symmetry_equiv_pos_as_xyz
  1  'x, y, z'
loop_
 _atom_site_type_symbol
 _atom_site_label
 _atom_site_symmetry_multiplicity
 _atom_site_fract_x
 _atom_site_fract_y
 _atom_site_fract_z
 _atom_site_occupancy
  N  N0  1  0.15026600  0.84973400  0.75000000  1
  N  N1  1  0.84973400  0.15026600  0.25000000  1
  N  N2  1  0.41476400  0.58523600  0.75000000  1
  N  N3  1  0.58523600  0.41476400  0.25000000  1
  O  O4  1  0.38865400  0.34921800  0.86813000  1
  O  O5  1  0.65078200  0.61134600  0.63187000  1
  O  O6  1  0.61134600  0.65078200  0.13187000  1
  O  O7  1  0.34921800  0.38865400  0.36813000  1
