# generated using pymatgen
data_Sc2SnAu2
_symmetry_space_group_name_H-M   'P 1'
_cell_length_a   7.75400700
_cell_length_b   7.75400700
_cell_length_c   3.47308300
_cell_angle_alpha   90.00000000
_cell_angle_beta   90.00000000
_cell_angle_gamma   90.00000000
_symmetry_Int_Tables_number   1
_chemical_formula_structural   Sc2SnAu2
_chemical_formula_sum   'Sc4 Sn2 Au4'
_cell_volume   208.81781143
_cell_formula_units_Z   2
loop_
 _symmetry_equiv_pos_site_id
 _symmetry_equiv_pos_as_xyz
  1  'x, y, z'
loop_
 _atom_site_type_symbol
 _atom_site_label
 _atom_site_symmetry_multiplicity
 _atom_site_fract_x
 _atom_site_fract_y
 _atom_site_fract_z
 _atom_site_occupancy
  Sc  Sc0  1  0.16767600  0.33232400  0.00000000  1
  Sc  Sc1  1  0.83232400  0.66767600  0.00000000  1
  Sc  Sc2  1  0.66767600  0.16767600  0.00000000  1
  Sc  Sc3  1  0.33232400  0.83232400  0.00000000  1
  Sn  Sn4  1  0.00000000  0.00000000  0.50000000  1
  Sn  Sn5  1  0.50000000  0.50000000  0.50000000  1
  Au  Au6  1  0.37102100  0.12897900  0.50000000  1
  Au  Au7  1  0.62897900  0.87102100  0.50000000  1
  Au  Au8  1  0.87102100  0.37102100  0.50000000  1
  Au  Au9  1  0.12897900  0.62897900  0.50000000  1
