# generated using pymatgen
data_MgSi(HO2)2
_symmetry_space_group_name_H-M   'P 1'
_cell_length_a   2.85960800
_cell_length_b   4.33505400
_cell_length_c   4.80114196
_cell_angle_alpha   86.65801884
_cell_angle_beta   90.00000000
_cell_angle_gamma   90.00000000
_symmetry_Int_Tables_number   1
_chemical_formula_structural   MgSi(HO2)2
_chemical_formula_sum   'Mg1 Si1 H2 O4'
_cell_volume   59.41640347
_cell_formula_units_Z   1
loop_
 _symmetry_equiv_pos_site_id
 _symmetry_equiv_pos_as_xyz
  1  'x, y, z'
loop_
 _atom_site_type_symbol
 _atom_site_label
 _atom_site_symmetry_multiplicity
 _atom_site_fract_x
 _atom_site_fract_y
 _atom_site_fract_z
 _atom_site_occupancy
  Mg  Mg0  1  0.50000000  0.50035800  0.52461300  1
  Si  Si1  1  0.00000000  0.00098400  0.99753100  1
  H  H2  1  0.00000000  0.97851700  0.48309200  1
  H  H3  1  0.50000000  0.46535400  0.02854200  1
  O  O4  1  0.00000000  0.22370600  0.69090800  1
  O  O5  1  0.50000000  0.24809400  0.14057700  1
  O  O6  1  0.00000000  0.80259300  0.34135400  1
  O  O7  1  0.50000000  0.77189400  0.89358400  1
