# generated using pymatgen
data_Ni(ClO)2
_symmetry_space_group_name_H-M   'P 1'
_cell_length_a   7.08895754
_cell_length_b   7.08895754
_cell_length_c   6.68163218
_cell_angle_alpha   62.87993419
_cell_angle_beta   62.87993419
_cell_angle_gamma   57.06488146
_symmetry_Int_Tables_number   1
_chemical_formula_structural   Ni(ClO)2
_chemical_formula_sum   'Ni2 Cl4 O4'
_cell_volume   240.90590108
_cell_formula_units_Z   2
loop_
 _symmetry_equiv_pos_site_id
 _symmetry_equiv_pos_as_xyz
  1  'x, y, z'
loop_
 _atom_site_type_symbol
 _atom_site_label
 _atom_site_symmetry_multiplicity
 _atom_site_fract_x
 _atom_site_fract_y
 _atom_site_fract_z
 _atom_site_occupancy
  Ni  Ni0  1  0.25011900  0.74988100  0.00000000  1
  Ni  Ni1  1  0.74988100  0.25011900  0.00000000  1
  Cl  Cl2  1  0.93401800  0.93401800  0.84874900  1
  Cl  Cl3  1  0.06598200  0.06598200  0.15125100  1
  Cl  Cl4  1  0.46081300  0.46081300  0.80666000  1
  Cl  Cl5  1  0.53918700  0.53918700  0.19334000  1
  O  O6  1  0.01772800  0.49729700  0.40192700  1
  O  O7  1  0.50270300  0.98227200  0.59807300  1
  O  O8  1  0.98227200  0.50270300  0.59807300  1
  O  O9  1  0.49729700  0.01772800  0.40192700  1
