# generated using pymatgen
data_Te2Mo(WSe2)3
_symmetry_space_group_name_H-M   'P 1'
_cell_length_a   3.38097951
_cell_length_b   3.38097951
_cell_length_c   38.64300300
_cell_angle_alpha   90.00000000
_cell_angle_beta   90.00000000
_cell_angle_gamma   119.99999035
_symmetry_Int_Tables_number   1
_chemical_formula_structural   Te2Mo(WSe2)3
_chemical_formula_sum   'Te2 Mo1 W3 Se6'
_cell_volume   382.54860211
_cell_formula_units_Z   1
loop_
 _symmetry_equiv_pos_site_id
 _symmetry_equiv_pos_as_xyz
  1  'x, y, z'
loop_
 _atom_site_type_symbol
 _atom_site_label
 _atom_site_symmetry_multiplicity
 _atom_site_fract_x
 _atom_site_fract_y
 _atom_site_fract_z
 _atom_site_occupancy
  Te  Te0  1  0.33333300  0.66666700  0.42074900  1
  Te  Te1  1  0.33333300  0.66666700  0.51856900  1
  Mo  Mo2  1  0.00000000  0.00000000  0.09391600  1
  W  W3  1  0.00000000  0.00000000  0.46966900  1
  W  W4  1  0.33333300  0.66666700  0.28177700  1
  W  W5  1  0.33333300  0.66666700  0.65756000  1
  Se  Se6  1  0.00000000  0.00000000  0.32477300  1
  Se  Se7  1  0.00000000  0.00000000  0.70053500  1
  Se  Se8  1  0.33333300  0.66666700  0.05107800  1
  Se  Se9  1  0.33333300  0.66666700  0.13677800  1
  Se  Se10  1  0.00000000  0.00000000  0.23878900  1
  Se  Se11  1  0.00000000  0.00000000  0.61455600  1
