# generated using pymatgen
data_TlAgPd2
_symmetry_space_group_name_H-M   'P 1'
_cell_length_a   11.39660974
_cell_length_b   11.39660974
_cell_length_c   11.39660974
_cell_angle_alpha   125.33095501
_cell_angle_beta   118.26215715
_cell_angle_gamma   87.03046070
_symmetry_Int_Tables_number   1
_chemical_formula_structural   TlAgPd2
_chemical_formula_sum   'Tl1 Ag1 Pd2'
_cell_volume   1011.59976250
_cell_formula_units_Z   1
loop_
 _symmetry_equiv_pos_site_id
 _symmetry_equiv_pos_as_xyz
  1  'x, y, z'
loop_
 _atom_site_type_symbol
 _atom_site_label
 _atom_site_symmetry_multiplicity
 _atom_site_fract_x
 _atom_site_fract_y
 _atom_site_fract_z
 _atom_site_occupancy
  Tl  Tl0  1  0.00000000  0.50000000  0.50000000  1
  Ag  Ag1  1  0.00000000  0.00000000  0.00000000  1
  Pd  Pd2  1  0.00000000  0.25380000  0.25380000  1
  Pd  Pd3  1  0.00000000  0.74620000  0.74620000  1
