# generated using pymatgen
data_CeSe2
_symmetry_space_group_name_H-M   'P 1'
_cell_length_a   12.62815096
_cell_length_b   21.09806586
_cell_length_c   21.09806619
_cell_angle_alpha   69.06608296
_cell_angle_beta   72.58607317
_cell_angle_gamma   72.58607286
_symmetry_Int_Tables_number   1
_chemical_formula_structural   CeSe2
_chemical_formula_sum   'Ce18 Se36'
_cell_volume   4891.41920975
_cell_formula_units_Z   18
loop_
 _symmetry_equiv_pos_site_id
 _symmetry_equiv_pos_as_xyz
  1  'x, y, z'
loop_
 _atom_site_type_symbol
 _atom_site_label
 _atom_site_symmetry_multiplicity
 _atom_site_fract_x
 _atom_site_fract_y
 _atom_site_fract_z
 _atom_site_occupancy
  Ce  Ce0  1  0.53141355  0.47364408  0.87823832  1
  Ce  Ce1  1  0.11670406  0.87823832  0.47364408  1
  Ce  Ce2  1  0.46858645  0.12176168  0.52635592  1
  Ce  Ce3  1  0.88329594  0.52635592  0.12176168  1
  Ce  Ce4  1  0.46858645  0.52635592  0.12176168  1
  Ce  Ce5  1  0.88329594  0.12176168  0.52635592  1
  Ce  Ce6  1  0.53141355  0.87823832  0.47364408  1
  Ce  Ce7  1  0.11670406  0.47364408  0.87823832  1
  Ce  Ce8  1  0.56316190  0.72956099  0.72956099  1
  Ce  Ce9  1  0.97771612  0.72956099  0.72956099  1
  Ce  Ce10  1  0.43683810  0.27043901  0.27043901  1
  Ce  Ce11  1  0.02228388  0.27043901  0.27043901  1
  Ce  Ce12  1  0.08279248  0.71457210  0.11984293  1
  Ce  Ce13  1  0.08279248  0.11984293  0.71457210  1
  Ce  Ce14  1  0.91720752  0.88015707  0.28542790  1
  Ce  Ce15  1  0.91720752  0.28542790  0.88015707  1
  Ce  Ce16  1  0.15207760  0.84792240  0.84792240  1
  Ce  Ce17  1  0.84792240  0.15207760  0.15207760  1
  Se  Se18  1  0.74796241  0.75203759  0.75203759  1
  Se  Se19  1  0.25203759  0.24796241  0.24796241  1
  Se  Se20  1  0.00000000  0.77902895  0.22097105  1
  Se  Se21  1  1.00000000  0.22097105  0.77902895  1
  Se  Se22  1  0.10333789  0.80427008  0.98905415  1
  Se  Se23  1  0.10333789  0.98905415  0.80427008  1
  Se  Se24  1  0.89666211  0.01094585  0.19572992  1
  Se  Se25  1  0.89666211  0.19572992  0.01094585  1
  Se  Se26  1  0.50000000  0.50000000  -0.00000000  1
  Se  Se27  1  -0.00000000  0.00000000  0.50000000  1
  Se  Se28  1  0.50000000  0.00000000  0.50000000  1
  Se  Se29  1  -0.00000000  0.50000000  -0.00000000  1
  Se  Se30  1  0.37535237  0.79940720  0.79940720  1
  Se  Se31  1  0.02583322  0.79940720  0.79940720  1
  Se  Se32  1  0.62464763  0.20059280  0.20059280  1
  Se  Se33  1  0.97416678  0.20059280  0.20059280  1
  Se  Se34  1  0.65671534  0.55889387  0.12767546  1
  Se  Se35  1  0.65671534  0.12767546  0.55889387  1
  Se  Se36  1  0.34328466  0.87232454  0.44110613  1
  Se  Se37  1  0.34328466  0.44110613  0.87232454  1
  Se  Se38  1  0.28799251  0.63227954  0.13968261  1
  Se  Se39  1  0.94004534  0.13968261  0.63227954  1
  Se  Se40  1  0.71200749  0.86031739  0.36772046  1
  Se  Se41  1  0.05995466  0.36772046  0.86031739  1
  Se  Se42  1  0.71200749  0.36772046  0.86031739  1
  Se  Se43  1  0.05995466  0.86031739  0.36772046  1
  Se  Se44  1  0.28799251  0.13968261  0.63227954  1
  Se  Se45  1  0.94004534  0.63227954  0.13968261  1
  Se  Se46  1  0.55783837  0.59274658  0.77484331  1
  Se  Se47  1  0.07457173  0.77484331  0.59274658  1
  Se  Se48  1  0.44216163  0.22515669  0.40725342  1
  Se  Se49  1  0.92542827  0.40725342  0.22515669  1
  Se  Se50  1  0.44216163  0.40725342  0.22515669  1
  Se  Se51  1  0.92542827  0.22515669  0.40725342  1
  Se  Se52  1  0.55783837  0.77484331  0.59274658  1
  Se  Se53  1  0.07457173  0.59274658  0.77484331  1
