# generated using pymatgen
data_CeSe2
_symmetry_space_group_name_H-M   'P 1'
_cell_length_a   15.55404217
_cell_length_b   15.55404217
_cell_length_c   15.06584672
_cell_angle_alpha   81.32598076
_cell_angle_beta   81.32598076
_cell_angle_gamma   111.33640048
_symmetry_Int_Tables_number   1
_chemical_formula_structural   CeSe2
_chemical_formula_sum   'Ce12 Se24'
_cell_volume   3271.40290795
_cell_formula_units_Z   12
loop_
 _symmetry_equiv_pos_site_id
 _symmetry_equiv_pos_as_xyz
  1  'x, y, z'
loop_
 _atom_site_type_symbol
 _atom_site_label
 _atom_site_symmetry_multiplicity
 _atom_site_fract_x
 _atom_site_fract_y
 _atom_site_fract_z
 _atom_site_occupancy
  Ce  Ce0  1  0.40407900  0.89154800  0.89296800  1
  Ce  Ce1  1  0.89154800  0.40407900  0.89296800  1
  Ce  Ce2  1  0.59592100  0.10845200  0.10703200  1
  Ce  Ce3  1  0.10845200  0.59592100  0.10703200  1
  Ce  Ce4  1  0.29433200  0.09404900  0.33203400  1
  Ce  Ce5  1  0.09404900  0.29433200  0.33203400  1
  Ce  Ce6  1  0.70566800  0.90595100  0.66796600  1
  Ce  Ce7  1  0.90595100  0.70566800  0.66796600  1
  Ce  Ce8  1  0.20026100  0.99837300  0.69058200  1
  Ce  Ce9  1  0.99837300  0.20026100  0.69058200  1
  Ce  Ce10  1  0.79973900  0.00162700  0.30941800  1
  Ce  Ce11  1  0.00162700  0.79973900  0.30941800  1
  Se  Se12  1  0.27823800  0.72176200  0.00000000  1
  Se  Se13  1  0.72176200  0.27823800  0.00000000  1
  Se  Se14  1  0.46946300  0.14487600  0.22419300  1
  Se  Se15  1  0.14487600  0.46946300  0.22419300  1
  Se  Se16  1  0.53053700  0.85512400  0.77580700  1
  Se  Se17  1  0.85512400  0.53053700  0.77580700  1
  Se  Se18  1  0.12020100  0.12020100  0.73193500  1
  Se  Se19  1  0.87979900  0.87979900  0.26806500  1
  Se  Se20  1  0.32025100  0.99280900  0.80349200  1
  Se  Se21  1  0.99280900  0.32025100  0.80349200  1
  Se  Se22  1  0.67974900  0.00719100  0.19650800  1
  Se  Se23  1  0.00719100  0.67974900  0.19650800  1
  Se  Se24  1  0.06096100  0.82209000  0.71787900  1
  Se  Se25  1  0.82209000  0.06096100  0.71787900  1
  Se  Se26  1  0.93903900  0.17791000  0.28212100  1
  Se  Se27  1  0.17791000  0.93903900  0.28212100  1
  Se  Se28  1  0.30157600  0.05637900  0.51296600  1
  Se  Se29  1  0.05637900  0.30157600  0.51296600  1
  Se  Se30  1  0.69842400  0.94362100  0.48703400  1
  Se  Se31  1  0.94362100  0.69842400  0.48703400  1
  Se  Se32  1  0.50000000  0.00000000  0.00000000  1
  Se  Se33  1  0.00000000  0.50000000  0.00000000  1
  Se  Se34  1  0.23828300  0.23828300  0.28807300  1
  Se  Se35  1  0.76171700  0.76171700  0.71192700  1
