# generated using pymatgen
data_Ce2Sb2Se5
_symmetry_space_group_name_H-M   'P 1'
_cell_length_a   4.22533700
_cell_length_b   11.90473600
_cell_length_c   19.48509400
_cell_angle_alpha   90.00000000
_cell_angle_beta   90.00000000
_cell_angle_gamma   90.00000000
_symmetry_Int_Tables_number   1
_chemical_formula_structural   Ce2Sb2Se5
_chemical_formula_sum   'Ce8 Sb8 Se20'
_cell_volume   980.12987469
_cell_formula_units_Z   4
loop_
 _symmetry_equiv_pos_site_id
 _symmetry_equiv_pos_as_xyz
  1  'x, y, z'
loop_
 _atom_site_type_symbol
 _atom_site_label
 _atom_site_symmetry_multiplicity
 _atom_site_fract_x
 _atom_site_fract_y
 _atom_site_fract_z
 _atom_site_occupancy
  Ce  Ce0  1  0.25000000  0.31419600  0.71748600  1
  Ce  Ce1  1  0.25000000  0.18580400  0.21748600  1
  Ce  Ce2  1  0.75000000  0.68580400  0.28251400  1
  Ce  Ce3  1  0.75000000  0.81419600  0.78251400  1
  Ce  Ce4  1  0.25000000  0.99941900  0.60308700  1
  Ce  Ce5  1  0.25000000  0.50058100  0.10308700  1
  Ce  Ce6  1  0.75000000  0.00058100  0.39691300  1
  Ce  Ce7  1  0.75000000  0.49941900  0.89691300  1
  Sb  Sb8  1  0.25000000  0.12186700  0.88116400  1
  Sb  Sb9  1  0.25000000  0.37813300  0.38116400  1
  Sb  Sb10  1  0.75000000  0.87813300  0.11883600  1
  Sb  Sb11  1  0.75000000  0.62186700  0.61883600  1
  Sb  Sb12  1  0.25000000  0.81876100  0.98511200  1
  Sb  Sb13  1  0.25000000  0.68123900  0.48511200  1
  Sb  Sb14  1  0.75000000  0.18123900  0.01488800  1
  Sb  Sb15  1  0.75000000  0.31876100  0.51488800  1
  Se  Se16  1  0.25000000  0.99874700  0.76207100  1
  Se  Se17  1  0.25000000  0.50125300  0.26207100  1
  Se  Se18  1  0.75000000  0.00125300  0.23792900  1
  Se  Se19  1  0.75000000  0.49874700  0.73792900  1
  Se  Se20  1  0.25000000  0.81914200  0.36586900  1
  Se  Se21  1  0.25000000  0.68085800  0.86586900  1
  Se  Se22  1  0.75000000  0.18085800  0.63413100  1
  Se  Se23  1  0.75000000  0.31914200  0.13413100  1
  Se  Se24  1  0.25000000  0.77744200  0.67534600  1
  Se  Se25  1  0.25000000  0.72255800  0.17534600  1
  Se  Se26  1  0.75000000  0.22255800  0.32465400  1
  Se  Se27  1  0.75000000  0.27744200  0.82465400  1
  Se  Se28  1  0.25000000  0.37640100  0.97088100  1
  Se  Se29  1  0.25000000  0.12359900  0.47088100  1
  Se  Se30  1  0.75000000  0.62359900  0.02911900  1
  Se  Se31  1  0.75000000  0.87640100  0.52911900  1
  Se  Se32  1  0.25000000  0.44610400  0.57593900  1
  Se  Se33  1  0.25000000  0.05389600  0.07593900  1
  Se  Se34  1  0.75000000  0.55389600  0.42406100  1
  Se  Se35  1  0.75000000  0.94610400  0.92406100  1
