# generated using pymatgen
data_InSiCN
_symmetry_space_group_name_H-M   'P 1'
_cell_length_a   3.26395400
_cell_length_b   5.35000600
_cell_length_c   5.84748900
_cell_angle_alpha   90.00000000
_cell_angle_beta   90.00000000
_cell_angle_gamma   90.00000000
_symmetry_Int_Tables_number   1
_chemical_formula_structural   InSiCN
_chemical_formula_sum   'In2 Si2 C2 N2'
_cell_volume   102.10986736
_cell_formula_units_Z   2
loop_
 _symmetry_equiv_pos_site_id
 _symmetry_equiv_pos_as_xyz
  1  'x, y, z'
loop_
 _atom_site_type_symbol
 _atom_site_label
 _atom_site_symmetry_multiplicity
 _atom_site_fract_x
 _atom_site_fract_y
 _atom_site_fract_z
 _atom_site_occupancy
  In  In0  1  0.50000000  0.50424400  0.39521900  1
  In  In1  1  0.00000000  0.00424400  0.60478100  1
  Si  Si2  1  0.50000000  0.99423900  0.08343700  1
  Si  Si3  1  0.00000000  0.49423900  0.91656300  1
  C  C4  1  0.50000000  0.35142000  0.04223000  1
  C  C5  1  0.00000000  0.85142000  0.95777000  1
  N  N6  1  0.50000000  0.91399700  0.37810300  1
  N  N7  1  0.00000000  0.41399700  0.62189700  1
