# generated using pymatgen
data_SmAu6
_symmetry_space_group_name_H-M   'P 1'
_cell_length_a   10.58958400
_cell_length_b   10.58958400
_cell_length_c   9.95138200
_cell_angle_alpha   90.00000000
_cell_angle_beta   90.00000000
_cell_angle_gamma   90.00000000
_symmetry_Int_Tables_number   1
_chemical_formula_structural   SmAu6
_chemical_formula_sum   'Sm8 Au48'
_cell_volume   1115.94090496
_cell_formula_units_Z   8
loop_
 _symmetry_equiv_pos_site_id
 _symmetry_equiv_pos_as_xyz
  1  'x, y, z'
loop_
 _atom_site_type_symbol
 _atom_site_label
 _atom_site_symmetry_multiplicity
 _atom_site_fract_x
 _atom_site_fract_y
 _atom_site_fract_z
 _atom_site_occupancy
  Sm  Sm0  1  0.67533400  0.17533400  0.03955100  1
  Sm  Sm1  1  0.32466600  0.82466600  0.03955100  1
  Sm  Sm2  1  0.32466600  0.17533400  0.53955100  1
  Sm  Sm3  1  0.67533400  0.82466600  0.53955100  1
  Sm  Sm4  1  0.17533400  0.67533400  0.46044900  1
  Sm  Sm5  1  0.17533400  0.32466600  0.96044900  1
  Sm  Sm6  1  0.82466600  0.67533400  0.96044900  1
  Sm  Sm7  1  0.82466600  0.32466600  0.46044900  1
  Au  Au8  1  0.89645800  0.39645800  0.93099600  1
  Au  Au9  1  0.89645800  0.60354200  0.43099600  1
  Au  Au10  1  0.10354200  0.39645800  0.43099600  1
  Au  Au11  1  0.10354200  0.60354200  0.93099600  1
  Au  Au12  1  0.60354200  0.89645800  0.06900400  1
  Au  Au13  1  0.39645800  0.10354200  0.06900400  1
  Au  Au14  1  0.39645800  0.89645800  0.56900400  1
  Au  Au15  1  0.60354200  0.10354200  0.56900400  1
  Au  Au16  1  0.05139600  0.87357300  0.89469300  1
  Au  Au17  1  0.37357300  0.44860400  0.39469300  1
  Au  Au18  1  0.62642700  0.55139600  0.39469300  1
  Au  Au19  1  0.94860400  0.12642700  0.89469300  1
  Au  Au20  1  0.44860400  0.37357300  0.10530700  1
  Au  Au21  1  0.55139600  0.62642700  0.10530700  1
  Au  Au22  1  0.87357300  0.05139600  0.60530700  1
  Au  Au23  1  0.12642700  0.94860400  0.60530700  1
  Au  Au24  1  0.44860400  0.62642700  0.60530700  1
  Au  Au25  1  0.12642700  0.05139600  0.10530700  1
  Au  Au26  1  0.87357300  0.94860400  0.10530700  1
  Au  Au27  1  0.55139600  0.37357300  0.60530700  1
  Au  Au28  1  0.05139600  0.12642700  0.39469300  1
  Au  Au29  1  0.94860400  0.87357300  0.39469300  1
  Au  Au30  1  0.62642700  0.44860400  0.89469300  1
  Au  Au31  1  0.37357300  0.55139600  0.89469300  1
  Au  Au32  1  0.76350700  0.93111700  0.82872300  1
  Au  Au33  1  0.43111700  0.73649300  0.32872300  1
  Au  Au34  1  0.56888300  0.26350700  0.32872300  1
  Au  Au35  1  0.23649300  0.06888300  0.82872300  1
  Au  Au36  1  0.73649300  0.43111700  0.17127700  1
  Au  Au37  1  0.26350700  0.56888300  0.17127700  1
  Au  Au38  1  0.93111700  0.76350700  0.67127700  1
  Au  Au39  1  0.06888300  0.23649300  0.67127700  1
  Au  Au40  1  0.73649300  0.56888300  0.67127700  1
  Au  Au41  1  0.06888300  0.76350700  0.17127700  1
  Au  Au42  1  0.93111700  0.23649300  0.17127700  1
  Au  Au43  1  0.26350700  0.43111700  0.67127700  1
  Au  Au44  1  0.76350700  0.06888300  0.32872300  1
  Au  Au45  1  0.23649300  0.93111700  0.32872300  1
  Au  Au46  1  0.56888300  0.73649300  0.82872300  1
  Au  Au47  1  0.43111700  0.26350700  0.82872300  1
  Au  Au48  1  0.50000000  0.00000000  0.31326200  1
  Au  Au49  1  0.50000000  0.00000000  0.81326200  1
  Au  Au50  1  0.00000000  0.50000000  0.68673800  1
  Au  Au51  1  0.00000000  0.50000000  0.18673800  1
  Au  Au52  1  0.25000000  0.75000000  0.75000000  1
  Au  Au53  1  0.25000000  0.25000000  0.25000000  1
  Au  Au54  1  0.75000000  0.75000000  0.25000000  1
  Au  Au55  1  0.75000000  0.25000000  0.75000000  1
