# generated using pymatgen
data_V3PC
_symmetry_space_group_name_H-M   'P 1'
_cell_length_a   5.09858126
_cell_length_b   5.09858126
_cell_length_c   7.54820000
_cell_angle_alpha   90.00000000
_cell_angle_beta   90.00000000
_cell_angle_gamma   144.48176733
_symmetry_Int_Tables_number   1
_chemical_formula_structural   V3PC
_chemical_formula_sum   'V6 P2 C2'
_cell_volume   113.99605240
_cell_formula_units_Z   2
loop_
 _symmetry_equiv_pos_site_id
 _symmetry_equiv_pos_as_xyz
  1  'x, y, z'
loop_
 _atom_site_type_symbol
 _atom_site_label
 _atom_site_symmetry_multiplicity
 _atom_site_fract_x
 _atom_site_fract_y
 _atom_site_fract_z
 _atom_site_occupancy
  V  V0  1  0.63432700  0.36567300  0.44530400  1
  V  V1  1  0.36567300  0.63432700  0.55469600  1
  V  V2  1  0.63432700  0.36567300  0.05469600  1
  V  V3  1  0.36567300  0.63432700  0.94530400  1
  V  V4  1  0.93585200  0.06414800  0.25000000  1
  V  V5  1  0.06414800  0.93585200  0.75000000  1
  P  P6  1  0.25240800  0.74759200  0.25000000  1
  P  P7  1  0.74759200  0.25240800  0.75000000  1
  C  C8  1  0.00000000  0.00000000  0.50000000  1
  C  C9  1  0.00000000  0.00000000  0.00000000  1
