# generated using pymatgen
data_TaNb2W
_symmetry_space_group_name_H-M   'P 1'
_cell_length_a   10.71649172
_cell_length_b   10.71649172
_cell_length_c   10.71649172
_cell_angle_alpha   128.15643915
_cell_angle_beta   117.14402307
_cell_angle_gamma   85.75396312
_symmetry_Int_Tables_number   1
_chemical_formula_structural   TaNb2W
_chemical_formula_sum   'Ta1 Nb2 W1'
_cell_volume   822.30016297
_cell_formula_units_Z   1
loop_
 _symmetry_equiv_pos_site_id
 _symmetry_equiv_pos_as_xyz
  1  'x, y, z'
loop_
 _atom_site_type_symbol
 _atom_site_label
 _atom_site_symmetry_multiplicity
 _atom_site_fract_x
 _atom_site_fract_y
 _atom_site_fract_z
 _atom_site_occupancy
  Ta  Ta0  1  0.00000000  0.00000000  0.00000000  1
  Nb  Nb1  1  0.00000000  0.25587700  0.25587700  1
  Nb  Nb2  1  0.00000000  0.74412300  0.74412300  1
  W  W3  1  0.00000000  0.50000000  0.50000000  1
