# generated using pymatgen
data_AgPd2Au
_symmetry_space_group_name_H-M   'P 1'
_cell_length_a   10.65635139
_cell_length_b   10.65635139
_cell_length_c   10.65635139
_cell_angle_alpha   120.73272391
_cell_angle_beta   119.30181529
_cell_angle_gamma   89.97456001
_symmetry_Int_Tables_number   1
_chemical_formula_structural   AgPd2Au
_chemical_formula_sum   'Ag1 Pd2 Au1'
_cell_volume   855.28818094
_cell_formula_units_Z   1
loop_
 _symmetry_equiv_pos_site_id
 _symmetry_equiv_pos_as_xyz
  1  'x, y, z'
loop_
 _atom_site_type_symbol
 _atom_site_label
 _atom_site_symmetry_multiplicity
 _atom_site_fract_x
 _atom_site_fract_y
 _atom_site_fract_z
 _atom_site_occupancy
  Ag  Ag0  1  0.00000000  0.00000000  0.00000000  1
  Pd  Pd1  1  0.00000000  0.25330800  0.25330800  1
  Pd  Pd2  1  0.00000000  0.74669200  0.74669200  1
  Au  Au3  1  0.00000000  0.50000000  0.50000000  1
