# generated using pymatgen
data_K2Re
_symmetry_space_group_name_H-M   'P 1'
_cell_length_a   9.46904790
_cell_length_b   9.46904790
_cell_length_c   4.88149500
_cell_angle_alpha   90.00000000
_cell_angle_beta   90.00000000
_cell_angle_gamma   119.99999929
_symmetry_Int_Tables_number   1
_chemical_formula_structural   K2Re
_chemical_formula_sum   'K6 Re3'
_cell_volume   379.04965910
_cell_formula_units_Z   3
loop_
 _symmetry_equiv_pos_site_id
 _symmetry_equiv_pos_as_xyz
  1  'x, y, z'
loop_
 _atom_site_type_symbol
 _atom_site_label
 _atom_site_symmetry_multiplicity
 _atom_site_fract_x
 _atom_site_fract_y
 _atom_site_fract_z
 _atom_site_occupancy
  K  K0  1  0.41065900  0.41065900  0.00000000  1
  K  K1  1  0.58934100  0.00000000  0.00000000  1
  K  K2  1  0.00000000  0.58934100  0.00000000  1
  K  K3  1  0.74258000  0.74258000  0.50000000  1
  K  K4  1  0.25742000  0.00000000  0.50000000  1
  K  K5  1  0.00000000  0.25742000  0.50000000  1
  Re  Re6  1  0.00000000  0.00000000  0.00000000  1
  Re  Re7  1  0.66666700  0.33333300  0.50000000  1
  Re  Re8  1  0.33333300  0.66666700  0.50000000  1
