# generated using pymatgen
data_MgCrPt2
_symmetry_space_group_name_H-M   'P 1'
_cell_length_a   10.53772158
_cell_length_b   10.53772158
_cell_length_c   10.53772158
_cell_angle_alpha   126.13426576
_cell_angle_beta   117.62797200
_cell_angle_gamma   86.93848475
_symmetry_Int_Tables_number   1
_chemical_formula_structural   MgCrPt2
_chemical_formula_sum   'Mg1 Cr1 Pt2'
_cell_volume   796.72310816
_cell_formula_units_Z   1
loop_
 _symmetry_equiv_pos_site_id
 _symmetry_equiv_pos_as_xyz
  1  'x, y, z'
loop_
 _atom_site_type_symbol
 _atom_site_label
 _atom_site_symmetry_multiplicity
 _atom_site_fract_x
 _atom_site_fract_y
 _atom_site_fract_z
 _atom_site_occupancy
  Mg  Mg0  1  0.00000000  0.00000000  0.00000000  1
  Cr  Cr1  1  0.00000000  0.50000000  0.50000000  1
  Pt  Pt2  1  0.00000000  0.26300900  0.26300900  1
  Pt  Pt3  1  0.00000000  0.73699100  0.73699100  1
