# generated using pymatgen
data_YZn2Pd
_symmetry_space_group_name_H-M   'P 1'
_cell_length_a   11.61303786
_cell_length_b   11.61303786
_cell_length_c   11.61303786
_cell_angle_alpha   123.61819266
_cell_angle_beta   119.26283497
_cell_angle_gamma   87.56576295
_symmetry_Int_Tables_number   1
_chemical_formula_structural   YZn2Pd
_chemical_formula_sum   'Y1 Zn2 Pd1'
_cell_volume   1080.20965639
_cell_formula_units_Z   1
loop_
 _symmetry_equiv_pos_site_id
 _symmetry_equiv_pos_as_xyz
  1  'x, y, z'
loop_
 _atom_site_type_symbol
 _atom_site_label
 _atom_site_symmetry_multiplicity
 _atom_site_fract_x
 _atom_site_fract_y
 _atom_site_fract_z
 _atom_site_occupancy
  Y  Y0  1  0.00000000  0.00000000  0.00000000  1
  Zn  Zn1  1  0.00000000  0.28026800  0.28026800  1
  Zn  Zn2  1  0.00000000  0.71973200  0.71973200  1
  Pd  Pd3  1  0.00000000  0.50000000  0.50000000  1
