# generated using pymatgen
data_Li3Mn4O8
_symmetry_space_group_name_H-M   'P 1'
_cell_length_a   5.76570659
_cell_length_b   9.95523043
_cell_length_c   11.44135934
_cell_angle_alpha   91.48276448
_cell_angle_beta   90.01613725
_cell_angle_gamma   90.02147815
_symmetry_Int_Tables_number   1
_chemical_formula_structural   Li3Mn4O8
_chemical_formula_sum   'Li12 Mn16 O32'
_cell_volume   656.50189671
_cell_formula_units_Z   4
loop_
 _symmetry_equiv_pos_site_id
 _symmetry_equiv_pos_as_xyz
  1  'x, y, z'
loop_
 _atom_site_type_symbol
 _atom_site_label
 _atom_site_symmetry_multiplicity
 _atom_site_fract_x
 _atom_site_fract_y
 _atom_site_fract_z
 _atom_site_occupancy
  Li  Li0  1  0.74861000  0.65527600  0.54073400  1
  Li  Li1  1  0.49984500  0.53092600  0.31795200  1
  Li  Li2  1  0.98486300  0.53470900  0.31503000  1
  Li  Li3  1  0.74093400  0.12768100  0.09286000  1
  Li  Li4  1  0.24630700  0.06666200  0.79604100  1
  Li  Li5  1  0.74434400  0.05326400  0.81358200  1
  Li  Li6  1  0.23505500  0.34507100  0.45936700  1
  Li  Li7  1  0.99818200  0.46533800  0.68499400  1
  Li  Li8  1  0.48325500  0.46920800  0.68193400  1
  Li  Li9  1  0.23811200  0.94676100  0.18646700  1
  Li  Li10  1  0.73601900  0.93303500  0.20395500  1
  Li  Li11  1  0.24301800  0.87211700  0.90744200  1
  Mn  Mn12  1  0.48936800  0.80484600  0.37753800  1
  Mn  Mn13  1  0.99203900  0.80636500  0.37224900  1
  Mn  Mn14  1  0.49464300  0.65863200  0.83875400  1
  Mn  Mn15  1  0.99076000  0.65561800  0.84123900  1
  Mn  Mn16  1  0.99222400  0.34426500  0.15867500  1
  Mn  Mn17  1  0.48838600  0.34111400  0.16115700  1
  Mn  Mn18  1  0.99174500  0.19378700  0.62777900  1
  Mn  Mn19  1  0.49455700  0.19530300  0.62258400  1
  Mn  Mn20  1  0.24423200  0.32529500  0.87567400  1
  Mn  Mn21  1  0.74139300  0.32639800  0.86422100  1
  Mn  Mn22  1  0.23572800  0.14070600  0.33498800  1
  Mn  Mn23  1  0.73864600  0.15799000  0.34284400  1
  Mn  Mn24  1  0.24519900  0.84206100  0.65722100  1
  Mn  Mn25  1  0.74827200  0.85953500  0.66507600  1
  Mn  Mn26  1  0.24159500  0.67346500  0.13566600  1
  Mn  Mn27  1  0.73864700  0.67456200  0.12423200  1
  O  O28  1  0.24373600  0.06662600  0.63268200  1
  O  O29  1  0.74310000  0.06661700  0.64069400  1
  O  O30  1  0.24222900  0.30316700  0.05438900  1
  O  O31  1  0.73827400  0.30374900  0.05011100  1
  O  O32  1  0.24468000  0.69592800  0.94981200  1
  O  O33  1  0.74068900  0.69653700  0.94555500  1
  O  O34  1  0.24064500  0.93356900  0.35920700  1
  O  O35  1  0.74004700  0.93353400  0.36730200  1
  O  O36  1  0.98902100  0.55067700  0.13936200  1
  O  O37  1  0.49034300  0.53917200  0.14432100  1
  O  O38  1  0.98911100  0.80145300  0.54786600  1
  O  O39  1  0.50624800  0.80336600  0.55964200  1
  O  O40  1  0.47771000  0.19698900  0.44041600  1
  O  O41  1  0.99483100  0.19888500  0.45221900  1
  O  O42  1  0.49253900  0.46065800  0.85559900  1
  O  O43  1  0.99386800  0.44917500  0.86067400  1
  O  O44  1  0.49295800  0.19161700  0.84633700  1
  O  O45  1  0.99543800  0.19453400  0.81933600  1
  O  O46  1  0.97660900  0.11434000  0.22031800  1
  O  O47  1  0.49744900  0.13284300  0.21244000  1
  O  O48  1  0.98758400  0.80536600  0.18058700  1
  O  O49  1  0.48993100  0.80824200  0.15341700  1
  O  O50  1  0.48616800  0.86710500  0.78761700  1
  O  O51  1  0.00721900  0.88579200  0.77981500  1
  O  O52  1  0.24075500  0.67052200  0.35585600  1
  O  O53  1  0.74262500  0.66660200  0.37057400  1
  O  O54  1  0.24220100  0.63278600  0.72534800  1
  O  O55  1  0.74285900  0.63334300  0.71867700  1
  O  O56  1  0.24102700  0.33357000  0.62953700  1
  O  O57  1  0.74296000  0.32959700  0.64425000  1
  O  O58  1  0.24030100  0.36657100  0.28126400  1
  O  O59  1  0.74087100  0.36714500  0.27456000  1
