# generated using pymatgen
data_CeSe2
_symmetry_space_group_name_H-M   'P 1'
_cell_length_a   13.92764868
_cell_length_b   13.92764868
_cell_length_c   13.92764868
_cell_angle_alpha   95.72438962
_cell_angle_beta   95.72438962
_cell_angle_gamma   143.17915354
_symmetry_Int_Tables_number   1
_chemical_formula_structural   CeSe2
_chemical_formula_sum   'Ce16 Se32'
_cell_volume   1536.28453961
_cell_formula_units_Z   16
loop_
 _symmetry_equiv_pos_site_id
 _symmetry_equiv_pos_as_xyz
  1  'x, y, z'
loop_
 _atom_site_type_symbol
 _atom_site_label
 _atom_site_symmetry_multiplicity
 _atom_site_fract_x
 _atom_site_fract_y
 _atom_site_fract_z
 _atom_site_occupancy
  Ce  Ce0  1  0.50597000  0.50542100  0.75247300  1
  Ce  Ce1  1  0.75294800  0.75349700  0.24752700  1
  Ce  Ce2  1  0.00349700  0.25597000  0.50054900  1
  Ce  Ce3  1  0.75542100  0.50294800  0.49945100  1
  Ce  Ce4  1  0.74403000  0.24457900  0.74752700  1
  Ce  Ce5  1  0.49705200  0.99650300  0.25247300  1
  Ce  Ce6  1  0.24650300  0.49403000  0.99945100  1
  Ce  Ce7  1  0.49457900  0.24705200  0.00054900  1
  Ce  Ce8  1  0.99599600  0.99814800  0.74729200  1
  Ce  Ce9  1  0.25085600  0.24870400  0.25270800  1
  Ce  Ce10  1  0.49870400  0.74599600  0.49784800  1
  Ce  Ce11  1  0.24814800  0.00085600  0.50215200  1
  Ce  Ce12  1  0.25400400  0.75185200  0.75270800  1
  Ce  Ce13  1  0.99914400  0.50129600  0.24729200  1
  Ce  Ce14  1  0.75129600  0.00400400  0.00215200  1
  Ce  Ce15  1  0.00185200  0.74914400  0.99784800  1
  Se  Se16  1  0.14904300  0.99946600  0.90419400  1
  Se  Se17  1  0.09527200  0.24484900  0.09580600  1
  Se  Se18  1  0.49484900  0.89904300  0.64957700  1
  Se  Se19  1  0.24946600  0.84527200  0.35042300  1
  Se  Se20  1  0.10095700  0.75053400  0.59580600  1
  Se  Se21  1  0.15472800  0.50515100  0.40419400  1
  Se  Se22  1  0.75515100  0.85095700  0.85042300  1
  Se  Se23  1  0.00053400  0.90472800  0.14957700  1
  Se  Se24  1  0.65392600  0.49849800  0.90340400  1
  Se  Se25  1  0.59509400  0.75052200  0.09659600  1
  Se  Se26  1  0.00052200  0.40392600  0.65542800  1
  Se  Se27  1  0.74849800  0.34509400  0.34457200  1
  Se  Se28  1  0.59607400  0.25150200  0.59659600  1
  Se  Se29  1  0.65490600  0.99947800  0.40340400  1
  Se  Se30  1  0.24947800  0.34607400  0.84457200  1
  Se  Se31  1  0.50150200  0.40490600  0.15542800  1
  Se  Se32  1  0.84619600  0.00302700  0.59619900  1
  Se  Se33  1  0.40682900  0.24999700  0.40380100  1
  Se  Se34  1  0.49999700  0.59619600  0.34316900  1
  Se  Se35  1  0.25302700  0.15682900  0.65683100  1
  Se  Se36  1  0.40380400  0.74697300  0.90380100  1
  Se  Se37  1  0.84317100  0.50000300  0.09619900  1
  Se  Se38  1  0.75000300  0.15380400  0.15683100  1
  Se  Se39  1  0.99697300  0.59317100  0.84316900  1
  Se  Se40  1  0.34830600  0.49680400  0.59352100  1
  Se  Se41  1  0.90328300  0.75478500  0.40647900  1
  Se  Se42  1  0.00478500  0.09830600  0.35150200  1
  Se  Se43  1  0.74680400  0.65328300  0.64849800  1
  Se  Se44  1  0.90169400  0.25319600  0.90647900  1
  Se  Se45  1  0.34671700  0.99521500  0.09352100  1
  Se  Se46  1  0.24521500  0.65169400  0.14849800  1
  Se  Se47  1  0.50319600  0.09671700  0.85150200  1
