# generated using pymatgen
data_Y5Mg
_symmetry_space_group_name_H-M   'P 1'
_cell_length_a   9.46853247
_cell_length_b   9.46853247
_cell_length_c   5.63297000
_cell_angle_alpha   90.00000000
_cell_angle_beta   90.00000000
_cell_angle_gamma   158.14120011
_symmetry_Int_Tables_number   1
_chemical_formula_structural   Y5Mg
_chemical_formula_sum   'Y5 Mg1'
_cell_volume   188.02679047
_cell_formula_units_Z   1
loop_
 _symmetry_equiv_pos_site_id
 _symmetry_equiv_pos_as_xyz
  1  'x, y, z'
loop_
 _atom_site_type_symbol
 _atom_site_label
 _atom_site_symmetry_multiplicity
 _atom_site_fract_x
 _atom_site_fract_y
 _atom_site_fract_z
 _atom_site_occupancy
  Y  Y0  1  0.00000700  0.99999300  0.00000000  1
  Y  Y1  1  0.33027200  0.66972800  0.00000000  1
  Y  Y2  1  0.66768000  0.33232000  0.00000000  1
  Y  Y3  1  0.11300200  0.88699800  0.50000000  1
  Y  Y4  1  0.44520400  0.55479600  0.50000000  1
  Mg  Mg5  1  0.77716800  0.22283200  0.50000000  1
