# generated using pymatgen
data_Sr2Mg
_symmetry_space_group_name_H-M   'P 1'
_cell_length_a   7.55109862
_cell_length_b   7.55109862
_cell_length_c   8.71519666
_cell_angle_alpha   74.78989350
_cell_angle_beta   74.78989350
_cell_angle_gamma   31.82998031
_symmetry_Int_Tables_number   1
_chemical_formula_structural   Sr2Mg
_chemical_formula_sum   'Sr4 Mg2'
_cell_volume   252.14064378
_cell_formula_units_Z   2
loop_
 _symmetry_equiv_pos_site_id
 _symmetry_equiv_pos_as_xyz
  1  'x, y, z'
loop_
 _atom_site_type_symbol
 _atom_site_label
 _atom_site_symmetry_multiplicity
 _atom_site_fract_x
 _atom_site_fract_y
 _atom_site_fract_z
 _atom_site_occupancy
  Sr  Sr0  1  0.31574500  0.31574500  0.13935600  1
  Sr  Sr1  1  0.02313400  0.02313400  0.26811600  1
  Sr  Sr2  1  0.97686600  0.97686600  0.73188400  1
  Sr  Sr3  1  0.68425500  0.68425500  0.86064400  1
  Mg  Mg4  1  0.67395600  0.67395600  0.45505200  1
  Mg  Mg5  1  0.32604400  0.32604400  0.54494800  1
