# generated using pymatgen
data_Na3Cl2
_symmetry_space_group_name_H-M   'P 1'
_cell_length_a   8.09116900
_cell_length_b   8.09116900
_cell_length_c   3.70536800
_cell_angle_alpha   90.00000000
_cell_angle_beta   90.00000000
_cell_angle_gamma   90.00000000
_symmetry_Int_Tables_number   1
_chemical_formula_structural   Na3Cl2
_chemical_formula_sum   'Na6 Cl4'
_cell_volume   242.57938535
_cell_formula_units_Z   2
loop_
 _symmetry_equiv_pos_site_id
 _symmetry_equiv_pos_as_xyz
  1  'x, y, z'
loop_
 _atom_site_type_symbol
 _atom_site_label
 _atom_site_symmetry_multiplicity
 _atom_site_fract_x
 _atom_site_fract_y
 _atom_site_fract_z
 _atom_site_occupancy
  Na  Na0  1  0.88509800  0.32611200  0.50000000  1
  Na  Na1  1  0.11490200  0.67388800  0.50000000  1
  Na  Na2  1  0.67388800  0.88509800  0.50000000  1
  Na  Na3  1  0.32611200  0.11490200  0.50000000  1
  Na  Na4  1  0.50000000  0.50000000  0.50000000  1
  Na  Na5  1  0.00000000  0.00000000  0.00000000  1
  Cl  Cl6  1  0.79749000  0.59542500  0.00000000  1
  Cl  Cl7  1  0.20251000  0.40457500  0.00000000  1
  Cl  Cl8  1  0.40457500  0.79749000  0.00000000  1
  Cl  Cl9  1  0.59542500  0.20251000  0.00000000  1
