# generated using pymatgen
data_MgSn
_symmetry_space_group_name_H-M   'P 1'
_cell_length_a   6.03542057
_cell_length_b   6.03542057
_cell_length_c   7.98360646
_cell_angle_alpha   70.80336357
_cell_angle_beta   70.80336357
_cell_angle_gamma   32.82589965
_symmetry_Int_Tables_number   1
_chemical_formula_structural   MgSn
_chemical_formula_sum   'Mg3 Sn3'
_cell_volume   148.09554787
_cell_formula_units_Z   3
loop_
 _symmetry_equiv_pos_site_id
 _symmetry_equiv_pos_as_xyz
  1  'x, y, z'
loop_
 _atom_site_type_symbol
 _atom_site_label
 _atom_site_symmetry_multiplicity
 _atom_site_fract_x
 _atom_site_fract_y
 _atom_site_fract_z
 _atom_site_occupancy
  Mg  Mg0  1  0.98802900  0.98802900  0.00359900  1
  Mg  Mg1  1  0.61141400  0.61141400  0.27514600  1
  Mg  Mg2  1  0.67690700  0.67690700  0.66474400  1
  Sn  Sn3  1  0.33208100  0.33208100  0.32722800  1
  Sn  Sn4  1  0.95924600  0.95924600  0.61596300  1
  Sn  Sn5  1  0.26565500  0.26565500  0.94665200  1
