# generated using pymatgen
data_MgTi
_symmetry_space_group_name_H-M   'P 1'
_cell_length_a   4.80072400
_cell_length_b   6.22445800
_cell_length_c   8.09326625
_cell_angle_alpha   79.03005065
_cell_angle_beta   90.00000000
_cell_angle_gamma   90.00000000
_symmetry_Int_Tables_number   1
_chemical_formula_structural   MgTi
_chemical_formula_sum   'Mg6 Ti6'
_cell_volume   237.42305973
_cell_formula_units_Z   6
loop_
 _symmetry_equiv_pos_site_id
 _symmetry_equiv_pos_as_xyz
  1  'x, y, z'
loop_
 _atom_site_type_symbol
 _atom_site_label
 _atom_site_symmetry_multiplicity
 _atom_site_fract_x
 _atom_site_fract_y
 _atom_site_fract_z
 _atom_site_occupancy
  Mg  Mg0  1  0.25000000  0.47197200  0.61286100  1
  Mg  Mg1  1  0.75000000  0.52802800  0.38713900  1
  Mg  Mg2  1  0.75000000  0.86526700  0.06168500  1
  Mg  Mg3  1  0.75000000  0.35712300  0.05714100  1
  Mg  Mg4  1  0.25000000  0.64287700  0.94285900  1
  Mg  Mg5  1  0.25000000  0.13473300  0.93831500  1
  Ti  Ti6  1  0.25000000  0.97451400  0.59879800  1
  Ti  Ti7  1  0.75000000  0.02548600  0.40120200  1
  Ti  Ti8  1  0.25000000  0.82790600  0.30343000  1
  Ti  Ti9  1  0.25000000  0.26792000  0.29787500  1
  Ti  Ti10  1  0.75000000  0.73208000  0.70212500  1
  Ti  Ti11  1  0.75000000  0.17209400  0.69657000  1
