# generated using pymatgen
data_MgSb
_symmetry_space_group_name_H-M   'P 1'
_cell_length_a   8.76376172
_cell_length_b   8.76376172
_cell_length_c   5.45376600
_cell_angle_alpha   90.00000000
_cell_angle_beta   90.00000000
_cell_angle_gamma   158.64657234
_symmetry_Int_Tables_number   1
_chemical_formula_structural   MgSb
_chemical_formula_sum   'Mg3 Sb3'
_cell_volume   152.51831314
_cell_formula_units_Z   3
loop_
 _symmetry_equiv_pos_site_id
 _symmetry_equiv_pos_as_xyz
  1  'x, y, z'
loop_
 _atom_site_type_symbol
 _atom_site_label
 _atom_site_symmetry_multiplicity
 _atom_site_fract_x
 _atom_site_fract_y
 _atom_site_fract_z
 _atom_site_occupancy
  Mg  Mg0  1  0.99916200  0.00083800  0.00000000  1
  Mg  Mg1  1  0.66728300  0.33271700  0.00000000  1
  Mg  Mg2  1  0.10907300  0.89092700  0.50000000  1
  Sb  Sb3  1  0.34048100  0.65951900  0.00000000  1
  Sb  Sb4  1  0.46342300  0.53657700  0.50000000  1
  Sb  Sb5  1  0.75391200  0.24608800  0.50000000  1
