# generated using pymatgen
data_MgCu2AsO7
_symmetry_space_group_name_H-M   'P 1'
_cell_length_a   5.11667000
_cell_length_b   5.33073211
_cell_length_c   5.96250482
_cell_angle_alpha   87.19185711
_cell_angle_beta   114.73813150
_cell_angle_gamma   97.92596711
_symmetry_Int_Tables_number   1
_chemical_formula_structural   MgCu2AsO7
_chemical_formula_sum   'Mg1 Cu2 As1 O7'
_cell_volume   146.28833367
_cell_formula_units_Z   1
loop_
 _symmetry_equiv_pos_site_id
 _symmetry_equiv_pos_as_xyz
  1  'x, y, z'
loop_
 _atom_site_type_symbol
 _atom_site_label
 _atom_site_symmetry_multiplicity
 _atom_site_fract_x
 _atom_site_fract_y
 _atom_site_fract_z
 _atom_site_occupancy
  Mg  Mg0  1  0.50531700  0.45287700  0.86959000  1
  Cu  Cu1  1  0.23433900  0.95112600  0.58217700  1
  Cu  Cu2  1  0.00850800  0.43015000  0.37332700  1
  As  As3  1  0.00256000  0.99241000  0.00843600  1
  O  O4  1  0.20700600  0.84166300  0.27972400  1
  O  O5  1  0.70729900  0.80013200  0.82343200  1
  O  O6  1  0.34719800  0.28182800  0.51992000  1
  O  O7  1  0.88307000  0.26531600  0.06262300  1
  O  O8  1  0.13208600  0.62212400  0.65724400  1
  O  O9  1  0.65535400  0.54156700  0.24342300  1
  O  O10  1  0.23626200  0.09780700  0.86910500  1
