# generated using pymatgen
data_MgSn
_symmetry_space_group_name_H-M   'P 1'
_cell_length_a   8.06079637
_cell_length_b   8.06079637
_cell_length_c   5.59043400
_cell_angle_alpha   90.00000000
_cell_angle_beta   90.00000000
_cell_angle_gamma   155.67468236
_symmetry_Int_Tables_number   1
_chemical_formula_structural   MgSn
_chemical_formula_sum   'Mg3 Sn3'
_cell_volume   149.62742059
_cell_formula_units_Z   3
loop_
 _symmetry_equiv_pos_site_id
 _symmetry_equiv_pos_as_xyz
  1  'x, y, z'
loop_
 _atom_site_type_symbol
 _atom_site_label
 _atom_site_symmetry_multiplicity
 _atom_site_fract_x
 _atom_site_fract_y
 _atom_site_fract_z
 _atom_site_occupancy
  Mg  Mg0  1  0.00007400  0.99992600  0.00000000  1
  Mg  Mg1  1  0.66556300  0.33443700  0.00000000  1
  Mg  Mg2  1  0.11098400  0.88901600  0.50000000  1
  Sn  Sn3  1  0.33490100  0.66509900  0.00000000  1
  Sn  Sn4  1  0.45196600  0.54803400  0.50000000  1
  Sn  Sn5  1  0.76984500  0.23015500  0.50000000  1
