# generated using pymatgen
data_MgGa2
_symmetry_space_group_name_H-M   'P 1'
_cell_length_a   3.07464913
_cell_length_b   3.07464913
_cell_length_c   14.59802700
_cell_angle_alpha   90.00000000
_cell_angle_beta   90.00000000
_cell_angle_gamma   119.99998122
_symmetry_Int_Tables_number   1
_chemical_formula_structural   MgGa2
_chemical_formula_sum   'Mg2 Ga4'
_cell_volume   119.51323462
_cell_formula_units_Z   2
loop_
 _symmetry_equiv_pos_site_id
 _symmetry_equiv_pos_as_xyz
  1  'x, y, z'
loop_
 _atom_site_type_symbol
 _atom_site_label
 _atom_site_symmetry_multiplicity
 _atom_site_fract_x
 _atom_site_fract_y
 _atom_site_fract_z
 _atom_site_occupancy
  Mg  Mg0  1  0.33333300  0.66666700  0.90764600  1
  Mg  Mg1  1  0.66666700  0.33333300  0.09235400  1
  Ga  Ga2  1  0.66666700  0.33333300  0.74483100  1
  Ga  Ga3  1  0.33333300  0.66666700  0.58519500  1
  Ga  Ga4  1  0.66666700  0.33333300  0.41480500  1
  Ga  Ga5  1  0.33333300  0.66666700  0.25516900  1
