# generated using pymatgen
data_Na2TlHg
_symmetry_space_group_name_H-M   'P 1'
_cell_length_a   12.98652657
_cell_length_b   12.98652657
_cell_length_c   12.98652657
_cell_angle_alpha   121.25538025
_cell_angle_beta   119.53594388
_cell_angle_gamma   89.32257587
_symmetry_Int_Tables_number   1
_chemical_formula_structural   Na2TlHg
_chemical_formula_sum   'Na2 Tl1 Hg1'
_cell_volume   1538.87024399
_cell_formula_units_Z   1
loop_
 _symmetry_equiv_pos_site_id
 _symmetry_equiv_pos_as_xyz
  1  'x, y, z'
loop_
 _atom_site_type_symbol
 _atom_site_label
 _atom_site_symmetry_multiplicity
 _atom_site_fract_x
 _atom_site_fract_y
 _atom_site_fract_z
 _atom_site_occupancy
  Na  Na0  1  0.00000000  0.24965600  0.24965600  1
  Na  Na1  1  0.00000000  0.75034400  0.75034400  1
  Tl  Tl2  1  0.00000000  0.50000000  0.50000000  1
  Hg  Hg3  1  0.00000000  0.00000000  0.00000000  1
