# generated using pymatgen
data_Ti2VMo
_symmetry_space_group_name_H-M   'P 1'
_cell_length_a   10.03973560
_cell_length_b   10.03973560
_cell_length_c   10.03973560
_cell_angle_alpha   123.09756426
_cell_angle_beta   118.89898001
_cell_angle_gamma   88.31909344
_symmetry_Int_Tables_number   1
_chemical_formula_structural   Ti2VMo
_chemical_formula_sum   'Ti2 V1 Mo1'
_cell_volume   703.21670309
_cell_formula_units_Z   1
loop_
 _symmetry_equiv_pos_site_id
 _symmetry_equiv_pos_as_xyz
  1  'x, y, z'
loop_
 _atom_site_type_symbol
 _atom_site_label
 _atom_site_symmetry_multiplicity
 _atom_site_fract_x
 _atom_site_fract_y
 _atom_site_fract_z
 _atom_site_occupancy
  Ti  Ti0  1  0.00000000  0.27513700  0.27513700  1
  Ti  Ti1  1  0.00000000  0.72486300  0.72486300  1
  V  V2  1  0.00000000  0.00000000  0.00000000  1
  Mo  Mo3  1  0.00000000  0.50000000  0.50000000  1
