# generated using pymatgen
data_InAgPd2
_symmetry_space_group_name_H-M   'P 1'
_cell_length_a   11.01504061
_cell_length_b   11.01504061
_cell_length_c   11.01504061
_cell_angle_alpha   124.04333495
_cell_angle_beta   118.64629625
_cell_angle_gamma   87.75223103
_symmetry_Int_Tables_number   1
_chemical_formula_structural   InAgPd2
_chemical_formula_sum   'In1 Ag1 Pd2'
_cell_volume   922.34652646
_cell_formula_units_Z   1
loop_
 _symmetry_equiv_pos_site_id
 _symmetry_equiv_pos_as_xyz
  1  'x, y, z'
loop_
 _atom_site_type_symbol
 _atom_site_label
 _atom_site_symmetry_multiplicity
 _atom_site_fract_x
 _atom_site_fract_y
 _atom_site_fract_z
 _atom_site_occupancy
  In  In0  1  0.00000000  0.50000000  0.50000000  1
  Ag  Ag1  1  0.00000000  0.00000000  0.00000000  1
  Pd  Pd2  1  0.00000000  0.25769000  0.25769000  1
  Pd  Pd3  1  0.00000000  0.74231000  0.74231000  1
