# generated using pymatgen
data_Ca2TlAg
_symmetry_space_group_name_H-M   'P 1'
_cell_length_a   13.23923476
_cell_length_b   13.23923476
_cell_length_c   13.23923476
_cell_angle_alpha   123.72465855
_cell_angle_beta   119.85309085
_cell_angle_gamma   86.96303315
_symmetry_Int_Tables_number   1
_chemical_formula_structural   Ca2TlAg
_chemical_formula_sum   'Ca2 Tl1 Ag1'
_cell_volume   1591.63289531
_cell_formula_units_Z   1
loop_
 _symmetry_equiv_pos_site_id
 _symmetry_equiv_pos_as_xyz
  1  'x, y, z'
loop_
 _atom_site_type_symbol
 _atom_site_label
 _atom_site_symmetry_multiplicity
 _atom_site_fract_x
 _atom_site_fract_y
 _atom_site_fract_z
 _atom_site_occupancy
  Ca  Ca0  1  0.00000000  0.23958300  0.23958300  1
  Ca  Ca1  1  0.00000000  0.76041700  0.76041700  1
  Tl  Tl2  1  0.00000000  0.50000000  0.50000000  1
  Ag  Ag3  1  0.00000000  0.00000000  0.00000000  1
