# generated using pymatgen
data_HgBiPb2
_symmetry_space_group_name_H-M   'P 1'
_cell_length_a   12.76701779
_cell_length_b   12.76701779
_cell_length_c   12.76701779
_cell_angle_alpha   120.21887227
_cell_angle_beta   120.07805651
_cell_angle_gamma   89.74308737
_symmetry_Int_Tables_number   1
_chemical_formula_structural   HgBiPb2
_chemical_formula_sum   'Hg1 Bi1 Pb2'
_cell_volume   1468.15588056
_cell_formula_units_Z   1
loop_
 _symmetry_equiv_pos_site_id
 _symmetry_equiv_pos_as_xyz
  1  'x, y, z'
loop_
 _atom_site_type_symbol
 _atom_site_label
 _atom_site_symmetry_multiplicity
 _atom_site_fract_x
 _atom_site_fract_y
 _atom_site_fract_z
 _atom_site_occupancy
  Hg  Hg0  1  0.00000000  0.00000000  0.00000000  1
  Bi  Bi1  1  0.00000000  0.50000000  0.50000000  1
  Pb  Pb2  1  0.00000000  0.27954300  0.27954300  1
  Pb  Pb3  1  0.00000000  0.72045700  0.72045700  1
