# generated using pymatgen
data_Na2TlCd
_symmetry_space_group_name_H-M   'P 1'
_cell_length_a   13.08955380
_cell_length_b   13.08955380
_cell_length_c   13.08955380
_cell_angle_alpha   121.11500267
_cell_angle_beta   119.63240734
_cell_angle_gamma   89.35878336
_symmetry_Int_Tables_number   1
_chemical_formula_structural   Na2TlCd
_chemical_formula_sum   'Na2 Tl1 Cd1'
_cell_volume   1576.44130444
_cell_formula_units_Z   1
loop_
 _symmetry_equiv_pos_site_id
 _symmetry_equiv_pos_as_xyz
  1  'x, y, z'
loop_
 _atom_site_type_symbol
 _atom_site_label
 _atom_site_symmetry_multiplicity
 _atom_site_fract_x
 _atom_site_fract_y
 _atom_site_fract_z
 _atom_site_occupancy
  Na  Na0  1  0.00000000  0.25000300  0.25000300  1
  Na  Na1  1  0.00000000  0.74999700  0.74999700  1
  Tl  Tl2  1  0.00000000  0.50000000  0.50000000  1
  Cd  Cd3  1  0.00000000  0.00000000  0.00000000  1
