# generated using pymatgen
data_InHg2Pb
_symmetry_space_group_name_H-M   'P 1'
_cell_length_a   12.46142322
_cell_length_b   12.46142322
_cell_length_c   12.46142322
_cell_angle_alpha   122.94686114
_cell_angle_beta   119.03322416
_cell_angle_gamma   88.32800462
_symmetry_Int_Tables_number   1
_chemical_formula_structural   InHg2Pb
_chemical_formula_sum   'In1 Hg2 Pb1'
_cell_volume   1345.18422412
_cell_formula_units_Z   1
loop_
 _symmetry_equiv_pos_site_id
 _symmetry_equiv_pos_as_xyz
  1  'x, y, z'
loop_
 _atom_site_type_symbol
 _atom_site_label
 _atom_site_symmetry_multiplicity
 _atom_site_fract_x
 _atom_site_fract_y
 _atom_site_fract_z
 _atom_site_occupancy
  In  In0  1  0.00000000  0.00000000  0.00000000  1
  Hg  Hg1  1  0.00000000  0.25139500  0.25139500  1
  Hg  Hg2  1  0.00000000  0.74860500  0.74860500  1
  Pb  Pb3  1  0.00000000  0.50000000  0.50000000  1
