# generated using pymatgen
data_MnAgPd2
_symmetry_space_group_name_H-M   'P 1'
_cell_length_a   10.57773979
_cell_length_b   10.57773979
_cell_length_c   10.57773979
_cell_angle_alpha   123.25908281
_cell_angle_beta   118.92204093
_cell_angle_gamma   88.16364684
_symmetry_Int_Tables_number   1
_chemical_formula_structural   MnAgPd2
_chemical_formula_sum   'Mn1 Ag1 Pd2'
_cell_volume   821.09342141
_cell_formula_units_Z   1
loop_
 _symmetry_equiv_pos_site_id
 _symmetry_equiv_pos_as_xyz
  1  'x, y, z'
loop_
 _atom_site_type_symbol
 _atom_site_label
 _atom_site_symmetry_multiplicity
 _atom_site_fract_x
 _atom_site_fract_y
 _atom_site_fract_z
 _atom_site_occupancy
  Mn  Mn0  1  0.00000000  0.00000000  0.00000000  1
  Ag  Ag1  1  0.00000000  0.50000000  0.50000000  1
  Pd  Pd2  1  0.00000000  0.23491700  0.23491700  1
  Pd  Pd3  1  0.00000000  0.76508300  0.76508300  1
