# generated using pymatgen
data_Y2CdAg
_symmetry_space_group_name_H-M   'P 1'
_cell_length_a   12.51819350
_cell_length_b   12.51819350
_cell_length_c   12.51819350
_cell_angle_alpha   121.74335038
_cell_angle_beta   119.48733758
_cell_angle_gamma   88.94876808
_symmetry_Int_Tables_number   1
_chemical_formula_structural   Y2CdAg
_chemical_formula_sum   'Y2 Cd1 Ag1'
_cell_volume   1373.27379629
_cell_formula_units_Z   1
loop_
 _symmetry_equiv_pos_site_id
 _symmetry_equiv_pos_as_xyz
  1  'x, y, z'
loop_
 _atom_site_type_symbol
 _atom_site_label
 _atom_site_symmetry_multiplicity
 _atom_site_fract_x
 _atom_site_fract_y
 _atom_site_fract_z
 _atom_site_occupancy
  Y  Y0  1  0.00000000  0.24352600  0.24352600  1
  Y  Y1  1  0.00000000  0.75647400  0.75647400  1
  Cd  Cd2  1  0.00000000  0.50000000  0.50000000  1
  Ag  Ag3  1  0.00000000  0.00000000  0.00000000  1
