# generated using pymatgen
data_TlHg2Pb
_symmetry_space_group_name_H-M   'P 1'
_cell_length_a   12.37620237
_cell_length_b   12.37620237
_cell_length_c   12.37620237
_cell_angle_alpha   121.59784539
_cell_angle_beta   119.45452349
_cell_angle_gamma   89.10119477
_symmetry_Int_Tables_number   1
_chemical_formula_structural   TlHg2Pb
_chemical_formula_sum   'Tl1 Hg2 Pb1'
_cell_volume   1329.00827499
_cell_formula_units_Z   1
loop_
 _symmetry_equiv_pos_site_id
 _symmetry_equiv_pos_as_xyz
  1  'x, y, z'
loop_
 _atom_site_type_symbol
 _atom_site_label
 _atom_site_symmetry_multiplicity
 _atom_site_fract_x
 _atom_site_fract_y
 _atom_site_fract_z
 _atom_site_occupancy
  Tl  Tl0  1  0.00000000  0.00000000  0.00000000  1
  Hg  Hg1  1  0.00000000  0.25563700  0.25563700  1
  Hg  Hg2  1  0.00000000  0.74436300  0.74436300  1
  Pb  Pb3  1  0.00000000  0.50000000  0.50000000  1
