# generated using pymatgen
data_CeAsS
_symmetry_space_group_name_H-M   'P 1'
_cell_length_a   3.93946900
_cell_length_b   3.94304400
_cell_length_c   16.98916300
_cell_angle_alpha   90.00000000
_cell_angle_beta   90.00000000
_cell_angle_gamma   90.00000000
_symmetry_Int_Tables_number   1
_chemical_formula_structural   CeAsS
_chemical_formula_sum   'Ce4 As4 S4'
_cell_volume   263.90115673
_cell_formula_units_Z   4
loop_
 _symmetry_equiv_pos_site_id
 _symmetry_equiv_pos_as_xyz
  1  'x, y, z'
loop_
 _atom_site_type_symbol
 _atom_site_label
 _atom_site_symmetry_multiplicity
 _atom_site_fract_x
 _atom_site_fract_y
 _atom_site_fract_z
 _atom_site_occupancy
  Ce  Ce0  1  0.23138500  0.25000000  0.85478100  1
  Ce  Ce1  1  0.26861500  0.25000000  0.35478100  1
  Ce  Ce2  1  0.76861500  0.75000000  0.14521900  1
  Ce  Ce3  1  0.73138500  0.75000000  0.64521900  1
  As  As4  1  0.23113100  0.75000000  0.50060600  1
  As  As5  1  0.26886900  0.75000000  0.00060600  1
  As  As6  1  0.76886900  0.25000000  0.49939400  1
  As  As7  1  0.73113100  0.25000000  0.99939400  1
  S  S8  1  0.23124000  0.25000000  0.68361700  1
  S  S9  1  0.26876000  0.25000000  0.18361700  1
  S  S10  1  0.76876000  0.75000000  0.31638300  1
  S  S11  1  0.73124000  0.75000000  0.81638300  1
