# generated using pymatgen
data_MgNbIr2
_symmetry_space_group_name_H-M   'P 1'
_cell_length_a   10.65018959
_cell_length_b   10.65018959
_cell_length_c   10.65018959
_cell_angle_alpha   125.45427103
_cell_angle_beta   118.25388274
_cell_angle_gamma   86.93709214
_symmetry_Int_Tables_number   1
_chemical_formula_structural   MgNbIr2
_chemical_formula_sum   'Mg1 Nb1 Ir2'
_cell_volume   824.58706710
_cell_formula_units_Z   1
loop_
 _symmetry_equiv_pos_site_id
 _symmetry_equiv_pos_as_xyz
  1  'x, y, z'
loop_
 _atom_site_type_symbol
 _atom_site_label
 _atom_site_symmetry_multiplicity
 _atom_site_fract_x
 _atom_site_fract_y
 _atom_site_fract_z
 _atom_site_occupancy
  Mg  Mg0  1  0.00000000  0.00000000  0.00000000  1
  Nb  Nb1  1  0.00000000  0.50000000  0.50000000  1
  Ir  Ir2  1  0.00000000  0.27561200  0.27561200  1
  Ir  Ir3  1  0.00000000  0.72438800  0.72438800  1
