# generated using pymatgen
data_BaNa2Ca
_symmetry_space_group_name_H-M   'P 1'
_cell_length_a   14.99206167
_cell_length_b   14.99206167
_cell_length_c   14.99206167
_cell_angle_alpha   120.40453858
_cell_angle_beta   118.93995591
_cell_angle_gamma   90.57326149
_symmetry_Int_Tables_number   1
_chemical_formula_structural   BaNa2Ca
_chemical_formula_sum   'Ba1 Na2 Ca1'
_cell_volume   2393.88956741
_cell_formula_units_Z   1
loop_
 _symmetry_equiv_pos_site_id
 _symmetry_equiv_pos_as_xyz
  1  'x, y, z'
loop_
 _atom_site_type_symbol
 _atom_site_label
 _atom_site_symmetry_multiplicity
 _atom_site_fract_x
 _atom_site_fract_y
 _atom_site_fract_z
 _atom_site_occupancy
  Ba  Ba0  1  0.50000000  0.00000000  0.50000000  1
  Na  Na1  1  0.23841900  0.00000000  0.23841900  1
  Na  Na2  1  0.76158100  0.00000000  0.76158100  1
  Ca  Ca3  1  0.00000000  0.00000000  0.00000000  1
