# generated using pymatgen
data_MgCuAu2
_symmetry_space_group_name_H-M   'P 1'
_cell_length_a   10.94604515
_cell_length_b   10.94604515
_cell_length_c   10.94604515
_cell_angle_alpha   126.10855570
_cell_angle_beta   118.04768690
_cell_angle_gamma   86.58755044
_symmetry_Int_Tables_number   1
_chemical_formula_structural   MgCuAu2
_chemical_formula_sum   'Mg1 Cu1 Au2'
_cell_volume   890.53034278
_cell_formula_units_Z   1
loop_
 _symmetry_equiv_pos_site_id
 _symmetry_equiv_pos_as_xyz
  1  'x, y, z'
loop_
 _atom_site_type_symbol
 _atom_site_label
 _atom_site_symmetry_multiplicity
 _atom_site_fract_x
 _atom_site_fract_y
 _atom_site_fract_z
 _atom_site_occupancy
  Mg  Mg0  1  0.00000000  0.00000000  0.00000000  1
  Cu  Cu1  1  0.00000000  0.50000000  0.50000000  1
  Au  Au2  1  0.00000000  0.25111800  0.25111800  1
  Au  Au3  1  0.00000000  0.74888200  0.74888200  1
