# generated using pymatgen
data_Mg2HgPd
_symmetry_space_group_name_H-M   'P 1'
_cell_length_a   11.56147174
_cell_length_b   11.56147174
_cell_length_c   11.56147174
_cell_angle_alpha   122.82385656
_cell_angle_beta   119.00726345
_cell_angle_gamma   88.45404979
_symmetry_Int_Tables_number   1
_chemical_formula_structural   Mg2HgPd
_chemical_formula_sum   'Mg2 Hg1 Pd1'
_cell_volume   1075.66582591
_cell_formula_units_Z   1
loop_
 _symmetry_equiv_pos_site_id
 _symmetry_equiv_pos_as_xyz
  1  'x, y, z'
loop_
 _atom_site_type_symbol
 _atom_site_label
 _atom_site_symmetry_multiplicity
 _atom_site_fract_x
 _atom_site_fract_y
 _atom_site_fract_z
 _atom_site_occupancy
  Mg  Mg0  1  0.00000000  0.22465000  0.22465000  1
  Mg  Mg1  1  0.00000000  0.77535000  0.77535000  1
  Hg  Hg2  1  0.00000000  0.50000000  0.50000000  1
  Pd  Pd3  1  0.00000000  0.00000000  0.00000000  1
