# generated using pymatgen
data_AlAgS2
_symmetry_space_group_name_H-M   'P 1'
_cell_length_a   7.22879799
_cell_length_b   7.22879799
_cell_length_c   7.22879815
_cell_angle_alpha   28.39034885
_cell_angle_beta   28.39034885
_cell_angle_gamma   28.39034379
_symmetry_Int_Tables_number   1
_chemical_formula_structural   AlAgS2
_chemical_formula_sum   'Al1 Ag1 S2'
_cell_volume   75.46961940
_cell_formula_units_Z   1
loop_
 _symmetry_equiv_pos_site_id
 _symmetry_equiv_pos_as_xyz
  1  'x, y, z'
loop_
 _atom_site_type_symbol
 _atom_site_label
 _atom_site_symmetry_multiplicity
 _atom_site_fract_x
 _atom_site_fract_y
 _atom_site_fract_z
 _atom_site_occupancy
  Al  Al0  1  0.99900500  0.99900500  0.99900500  1
  Ag  Ag1  1  0.15533400  0.15533400  0.15533400  1
  S  S2  1  0.27228500  0.27228500  0.27228500  1
  S  S3  1  0.73237600  0.73237600  0.73237600  1
