# generated using pymatgen
data_Y2SiPd
_symmetry_space_group_name_H-M   'P 1'
_cell_length_a   11.59536255
_cell_length_b   11.59536255
_cell_length_c   11.59536255
_cell_angle_alpha   126.22836136
_cell_angle_beta   117.83030783
_cell_angle_gamma   86.68304048
_symmetry_Int_Tables_number   1
_chemical_formula_structural   Y2SiPd
_chemical_formula_sum   'Y2 Si1 Pd1'
_cell_volume   1058.92170704
_cell_formula_units_Z   1
loop_
 _symmetry_equiv_pos_site_id
 _symmetry_equiv_pos_as_xyz
  1  'x, y, z'
loop_
 _atom_site_type_symbol
 _atom_site_label
 _atom_site_symmetry_multiplicity
 _atom_site_fract_x
 _atom_site_fract_y
 _atom_site_fract_z
 _atom_site_occupancy
  Y  Y0  1  0.00000000  0.24911500  0.24911500  1
  Y  Y1  1  0.00000000  0.75088500  0.75088500  1
  Si  Si2  1  0.00000000  0.00000000  0.00000000  1
  Pd  Pd3  1  0.00000000  0.50000000  0.50000000  1
