# generated using pymatgen
data_Al2ZnS4
_symmetry_space_group_name_H-M   'P 1'
_cell_length_a   5.91054400
_cell_length_b   7.22181000
_cell_length_c   12.47498600
_cell_angle_alpha   90.00000000
_cell_angle_beta   90.00000000
_cell_angle_gamma   90.00000000
_symmetry_Int_Tables_number   1
_chemical_formula_structural   Al2ZnS4
_chemical_formula_sum   'Al8 Zn4 S16'
_cell_volume   532.49260383
_cell_formula_units_Z   4
loop_
 _symmetry_equiv_pos_site_id
 _symmetry_equiv_pos_as_xyz
  1  'x, y, z'
loop_
 _atom_site_type_symbol
 _atom_site_label
 _atom_site_symmetry_multiplicity
 _atom_site_fract_x
 _atom_site_fract_y
 _atom_site_fract_z
 _atom_site_occupancy
  Al  Al0  1  0.58948900  0.75000000  0.08533100  1
  Al  Al1  1  0.91051100  0.75000000  0.58533100  1
  Al  Al2  1  0.41051100  0.25000000  0.91466900  1
  Al  Al3  1  0.08948900  0.25000000  0.41466900  1
  Al  Al4  1  0.00000000  0.50000000  0.00000000  1
  Al  Al5  1  0.50000000  0.00000000  0.50000000  1
  Al  Al6  1  0.00000000  0.00000000  0.00000000  1
  Al  Al7  1  0.50000000  0.50000000  0.50000000  1
  Zn  Zn8  1  0.00371700  0.75000000  0.26614900  1
  Zn  Zn9  1  0.49628300  0.75000000  0.76614900  1
  Zn  Zn10  1  0.99628300  0.25000000  0.73385100  1
  Zn  Zn11  1  0.50371700  0.25000000  0.23385100  1
  S  S12  1  0.20886800  0.75000000  0.08605900  1
  S  S13  1  0.29113200  0.75000000  0.58605900  1
  S  S14  1  0.79113200  0.25000000  0.91394100  1
  S  S15  1  0.70886800  0.25000000  0.41394100  1
  S  S16  1  0.73187400  0.75000000  0.42414800  1
  S  S17  1  0.76812600  0.75000000  0.92414800  1
  S  S18  1  0.26812600  0.25000000  0.57585200  1
  S  S19  1  0.23187400  0.25000000  0.07585200  1
  S  S20  1  0.75990400  0.50320300  0.15998100  1
  S  S21  1  0.74009600  0.99679700  0.65998100  1
  S  S22  1  0.24009600  0.00320300  0.84001900  1
  S  S23  1  0.25990400  0.49679700  0.34001900  1
  S  S24  1  0.24009600  0.49679700  0.84001900  1
  S  S25  1  0.25990400  0.00320300  0.34001900  1
  S  S26  1  0.75990400  0.99679700  0.15998100  1
  S  S27  1  0.74009600  0.50320300  0.65998100  1
