# generated using pymatgen
data_K2W2O5
_symmetry_space_group_name_H-M   'P 1'
_cell_length_a   5.83249632
_cell_length_b   5.82295928
_cell_length_c   9.00617982
_cell_angle_alpha   109.10572987
_cell_angle_beta   109.06469836
_cell_angle_gamma   89.62125123
_symmetry_Int_Tables_number   1
_chemical_formula_structural   K2W2O5
_chemical_formula_sum   'K4 W4 O10'
_cell_volume   271.44176685
_cell_formula_units_Z   2
loop_
 _symmetry_equiv_pos_site_id
 _symmetry_equiv_pos_as_xyz
  1  'x, y, z'
loop_
 _atom_site_type_symbol
 _atom_site_label
 _atom_site_symmetry_multiplicity
 _atom_site_fract_x
 _atom_site_fract_y
 _atom_site_fract_z
 _atom_site_occupancy
  K  K0  1  0.39506500  0.86624500  0.75680300  1
  K  K1  1  0.64209900  0.12531300  0.24444700  1
  K  K2  1  0.89817900  0.38092800  0.75629300  1
  K  K3  1  0.13681700  0.61209200  0.24397100  1
  W  W4  1  0.01774000  0.00087900  0.99962000  1
  W  W5  1  0.51806000  0.50138700  0.00137200  1
  W  W6  1  0.75997800  0.73057700  0.49994200  1
  W  W7  1  0.27781500  0.22235200  0.50034700  1
  O  O8  1  0.77057400  0.25639500  0.00910400  1
  O  O9  1  0.77801900  0.76027800  0.98940300  1
  O  O10  1  0.25845900  0.24120900  0.01085500  1
  O  O11  1  0.26369600  0.74462100  0.99082400  1
  O  O12  1  0.88690300  0.90061900  0.73884900  1
  O  O13  1  0.15029000  0.10553500  0.26103600  1
  O  O14  1  0.38351900  0.34004200  0.73910800  1
  O  O15  1  0.65071900  0.66445000  0.26110600  1
  O  O16  1  0.01643700  0.52467600  0.50106700  1
  O  O17  1  0.50883500  0.52239700  0.49585600  1
