# generated using pymatgen
data_Y2MgOs
_symmetry_space_group_name_H-M   'P 1'
_cell_length_a   11.48101822
_cell_length_b   11.48101822
_cell_length_c   11.48101822
_cell_angle_alpha   118.51039678
_cell_angle_beta   115.04148147
_cell_angle_gamma   95.70505111
_symmetry_Int_Tables_number   1
_chemical_formula_structural   Y2MgOs
_chemical_formula_sum   'Y2 Mg1 Os1'
_cell_volume   1115.12541906
_cell_formula_units_Z   1
loop_
 _symmetry_equiv_pos_site_id
 _symmetry_equiv_pos_as_xyz
  1  'x, y, z'
loop_
 _atom_site_type_symbol
 _atom_site_label
 _atom_site_symmetry_multiplicity
 _atom_site_fract_x
 _atom_site_fract_y
 _atom_site_fract_z
 _atom_site_occupancy
  Y  Y0  1  0.00000000  0.29500400  0.29500400  1
  Y  Y1  1  0.00000000  0.70499600  0.70499600  1
  Mg  Mg2  1  0.00000000  0.00000000  0.00000000  1
  Os  Os3  1  0.00000000  0.50000000  0.50000000  1
