# generated using pymatgen
data_TiMo2W
_symmetry_space_group_name_H-M   'P 1'
_cell_length_a   9.95508772
_cell_length_b   9.95508772
_cell_length_c   9.95508772
_cell_angle_alpha   125.74813658
_cell_angle_beta   118.14253822
_cell_angle_gamma   86.79607276
_symmetry_Int_Tables_number   1
_chemical_formula_structural   TiMo2W
_chemical_formula_sum   'Ti1 Mo2 W1'
_cell_volume   671.96041802
_cell_formula_units_Z   1
loop_
 _symmetry_equiv_pos_site_id
 _symmetry_equiv_pos_as_xyz
  1  'x, y, z'
loop_
 _atom_site_type_symbol
 _atom_site_label
 _atom_site_symmetry_multiplicity
 _atom_site_fract_x
 _atom_site_fract_y
 _atom_site_fract_z
 _atom_site_occupancy
  Ti  Ti0  1  0.00000000  0.00000000  0.00000000  1
  Mo  Mo1  1  0.00000000  0.24729000  0.24729000  1
  Mo  Mo2  1  0.00000000  0.75271000  0.75271000  1
  W  W3  1  0.00000000  0.50000000  0.50000000  1
