# generated using pymatgen
data_BaSrZn2
_symmetry_space_group_name_H-M   'P 1'
_cell_length_a   13.14495122
_cell_length_b   13.14495122
_cell_length_c   13.14495122
_cell_angle_alpha   120.25078671
_cell_angle_beta   119.06629902
_cell_angle_gamma   90.59547500
_symmetry_Int_Tables_number   1
_chemical_formula_structural   BaSrZn2
_chemical_formula_sum   'Ba1 Sr1 Zn2'
_cell_volume   1614.04244656
_cell_formula_units_Z   1
loop_
 _symmetry_equiv_pos_site_id
 _symmetry_equiv_pos_as_xyz
  1  'x, y, z'
loop_
 _atom_site_type_symbol
 _atom_site_label
 _atom_site_symmetry_multiplicity
 _atom_site_fract_x
 _atom_site_fract_y
 _atom_site_fract_z
 _atom_site_occupancy
  Ba  Ba0  1  0.50000000  0.00000000  0.50000000  1
  Sr  Sr1  1  0.00000000  0.00000000  0.00000000  1
  Zn  Zn2  1  0.25339100  0.00000000  0.25339100  1
  Zn  Zn3  1  0.74660900  0.00000000  0.74660900  1
