# generated using pymatgen
data_KMg6W
_symmetry_space_group_name_H-M   'P 1'
_cell_length_a   6.55480139
_cell_length_b   6.55480139
_cell_length_c   4.37840400
_cell_angle_alpha   90.00000000
_cell_angle_beta   90.00000000
_cell_angle_gamma   90.00888806
_symmetry_Int_Tables_number   1
_chemical_formula_structural   KMg6W
_chemical_formula_sum   'K1 Mg6 W1'
_cell_volume   188.11997019
_cell_formula_units_Z   1
loop_
 _symmetry_equiv_pos_site_id
 _symmetry_equiv_pos_as_xyz
  1  'x, y, z'
loop_
 _atom_site_type_symbol
 _atom_site_label
 _atom_site_symmetry_multiplicity
 _atom_site_fract_x
 _atom_site_fract_y
 _atom_site_fract_z
 _atom_site_occupancy
  K  K0  1  0.87088600  0.12911400  0.50000000  1
  Mg  Mg1  1  0.37217600  0.12223400  0.50000000  1
  Mg  Mg2  1  0.87776600  0.62782400  0.50000000  1
  Mg  Mg3  1  0.16270400  0.40959100  0.00000000  1
  Mg  Mg4  1  0.59040900  0.83729600  0.00000000  1
  Mg  Mg5  1  0.59101400  0.40898600  0.00000000  1
  Mg  Mg6  1  0.15910600  0.84089400  0.00000000  1
  W  W7  1  0.37594000  0.62406000  0.50000000  1
