# generated using pymatgen
data_HfScHg2
_symmetry_space_group_name_H-M   'P 1'
_cell_length_a   11.87082206
_cell_length_b   11.87082206
_cell_length_c   11.87082206
_cell_angle_alpha   121.17494737
_cell_angle_beta   119.61254570
_cell_angle_gamma   89.32474251
_symmetry_Int_Tables_number   1
_chemical_formula_structural   HfScHg2
_chemical_formula_sum   'Hf1 Sc1 Hg2'
_cell_volume   1175.43835056
_cell_formula_units_Z   1
loop_
 _symmetry_equiv_pos_site_id
 _symmetry_equiv_pos_as_xyz
  1  'x, y, z'
loop_
 _atom_site_type_symbol
 _atom_site_label
 _atom_site_symmetry_multiplicity
 _atom_site_fract_x
 _atom_site_fract_y
 _atom_site_fract_z
 _atom_site_occupancy
  Hf  Hf0  1  0.00000000  0.50000000  0.50000000  1
  Sc  Sc1  1  0.00000000  0.00000000  0.00000000  1
  Hg  Hg2  1  0.00000000  0.25097200  0.25097200  1
  Hg  Hg3  1  0.00000000  0.74902800  0.74902800  1
