# generated using pymatgen
data_CrN2
_symmetry_space_group_name_H-M   'P 1'
_cell_length_a   7.93302450
_cell_length_b   7.93302450
_cell_length_c   9.45891862
_cell_angle_alpha   53.59658675
_cell_angle_beta   53.59658675
_cell_angle_gamma   39.80474216
_symmetry_Int_Tables_number   1
_chemical_formula_structural   CrN2
_chemical_formula_sum   'Cr6 N12'
_cell_volume   295.58489231
_cell_formula_units_Z   6
loop_
 _symmetry_equiv_pos_site_id
 _symmetry_equiv_pos_as_xyz
  1  'x, y, z'
loop_
 _atom_site_type_symbol
 _atom_site_label
 _atom_site_symmetry_multiplicity
 _atom_site_fract_x
 _atom_site_fract_y
 _atom_site_fract_z
 _atom_site_occupancy
  Cr  Cr0  1  0.02341100  0.97658900  0.25000000  1
  Cr  Cr1  1  0.97658900  0.02341100  0.75000000  1
  Cr  Cr2  1  0.57800600  0.08474900  0.65916100  1
  Cr  Cr3  1  0.91525100  0.42199400  0.84083900  1
  Cr  Cr4  1  0.42199400  0.91525100  0.34083900  1
  Cr  Cr5  1  0.08474900  0.57800600  0.15916100  1
  N  N6  1  0.65528500  0.77945200  0.80145000  1
  N  N7  1  0.22054800  0.34471500  0.69855000  1
  N  N8  1  0.34471500  0.22054800  0.19855000  1
  N  N9  1  0.77945200  0.65528500  0.30145000  1
  N  N10  1  0.73915300  0.06329400  0.43691500  1
  N  N11  1  0.93670600  0.26084700  0.06308500  1
  N  N12  1  0.26084700  0.93670600  0.56308500  1
  N  N13  1  0.06329400  0.73915300  0.93691500  1
  N  N14  1  0.72189800  0.13105100  0.70403700  1
  N  N15  1  0.86894900  0.27810200  0.79596300  1
  N  N16  1  0.27810200  0.86894900  0.29596300  1
  N  N17  1  0.13105100  0.72189800  0.20403700  1
