# generated using pymatgen
data_MnRu2W
_symmetry_space_group_name_H-M   'P 1'
_cell_length_a   10.20020689
_cell_length_b   10.20020689
_cell_length_c   10.20020689
_cell_angle_alpha   124.48307078
_cell_angle_beta   118.54649518
_cell_angle_gamma   87.47619493
_symmetry_Int_Tables_number   1
_chemical_formula_structural   MnRu2W
_chemical_formula_sum   'Mn1 Ru2 W1'
_cell_volume   729.87987702
_cell_formula_units_Z   1
loop_
 _symmetry_equiv_pos_site_id
 _symmetry_equiv_pos_as_xyz
  1  'x, y, z'
loop_
 _atom_site_type_symbol
 _atom_site_label
 _atom_site_symmetry_multiplicity
 _atom_site_fract_x
 _atom_site_fract_y
 _atom_site_fract_z
 _atom_site_occupancy
  Mn  Mn0  1  0.00000000  0.00000000  0.00000000  1
  Ru  Ru1  1  0.00000000  0.27438400  0.27438400  1
  Ru  Ru2  1  0.00000000  0.72561600  0.72561600  1
  W  W3  1  0.00000000  0.50000000  0.50000000  1
