# generated using pymatgen
data_Y2MgHg
_symmetry_space_group_name_H-M   'P 1'
_cell_length_a   13.37336649
_cell_length_b   13.37336649
_cell_length_c   13.37336649
_cell_angle_alpha   125.26222700
_cell_angle_beta   123.03600418
_cell_angle_gamma   82.96443668
_symmetry_Int_Tables_number   1
_chemical_formula_structural   Y2MgHg
_chemical_formula_sum   'Y2 Mg1 Hg1'
_cell_volume   1571.30396823
_cell_formula_units_Z   1
loop_
 _symmetry_equiv_pos_site_id
 _symmetry_equiv_pos_as_xyz
  1  'x, y, z'
loop_
 _atom_site_type_symbol
 _atom_site_label
 _atom_site_symmetry_multiplicity
 _atom_site_fract_x
 _atom_site_fract_y
 _atom_site_fract_z
 _atom_site_occupancy
  Y  Y0  1  0.26405300  0.00000000  0.26405300  1
  Y  Y1  1  0.73594700  0.00000000  0.73594700  1
  Mg  Mg2  1  0.00000000  0.00000000  0.00000000  1
  Hg  Hg3  1  0.50000000  0.00000000  0.50000000  1
