# generated using pymatgen
data_CsHfMg14O15
_symmetry_space_group_name_H-M   'P 1'
_cell_length_a   4.13727000
_cell_length_b   8.26774100
_cell_length_c   11.71992500
_cell_angle_alpha   90.00000000
_cell_angle_beta   90.00000000
_cell_angle_gamma   90.00000000
_symmetry_Int_Tables_number   1
_chemical_formula_structural   CsHfMg14O15
_chemical_formula_sum   'Cs1 Hf1 Mg14 O15'
_cell_volume   400.89031074
_cell_formula_units_Z   1
loop_
 _symmetry_equiv_pos_site_id
 _symmetry_equiv_pos_as_xyz
  1  'x, y, z'
loop_
 _atom_site_type_symbol
 _atom_site_label
 _atom_site_symmetry_multiplicity
 _atom_site_fract_x
 _atom_site_fract_y
 _atom_site_fract_z
 _atom_site_occupancy
  Cs  Cs0  1  0.00000000  0.00000000  0.92743800  1
  Hf  Hf1  1  0.00000000  0.50000000  0.99414100  1
  Mg  Mg2  1  0.00000000  0.00000000  0.46445800  1
  Mg  Mg3  1  0.00000000  0.50000000  0.45515600  1
  Mg  Mg4  1  0.50000000  0.76268100  0.09013100  1
  Mg  Mg5  1  0.50000000  0.23731900  0.09013100  1
  Mg  Mg6  1  0.50000000  0.74200800  0.48226300  1
  Mg  Mg7  1  0.50000000  0.25799200  0.48226300  1
  Mg  Mg8  1  0.50000000  0.00000000  0.65827300  1
  Mg  Mg9  1  0.50000000  0.50000000  0.75015700  1
  Mg  Mg10  1  0.50000000  0.00000000  0.26523300  1
  Mg  Mg11  1  0.50000000  0.50000000  0.28400100  1
  Mg  Mg12  1  0.00000000  0.74786900  0.66625500  1
  Mg  Mg13  1  0.00000000  0.25213100  0.66625500  1
  Mg  Mg14  1  0.00000000  0.75043900  0.26421300  1
  Mg  Mg15  1  0.00000000  0.24956100  0.26421300  1
  O  O16  1  0.00000000  0.50000000  0.81678700  1
  O  O17  1  0.00000000  0.00000000  0.29338900  1
  O  O18  1  0.00000000  0.50000000  0.28279400  1
  O  O19  1  0.50000000  0.73069200  0.67338200  1
  O  O20  1  0.50000000  0.26930800  0.67338200  1
  O  O21  1  0.50000000  0.74680900  0.26614200  1
  O  O22  1  0.50000000  0.25319100  0.26614200  1
  O  O23  1  0.50000000  0.00000000  0.08827000  1
  O  O24  1  0.50000000  0.50000000  0.02586000  1
  O  O25  1  0.50000000  0.00000000  0.48136700  1
  O  O26  1  0.50000000  0.50000000  0.45781800  1
  O  O27  1  0.00000000  0.71429800  0.07528800  1
  O  O28  1  0.00000000  0.28570200  0.07528800  1
  O  O29  1  0.00000000  0.74487100  0.48475700  1
  O  O30  1  0.00000000  0.25512900  0.48475700  1
