# generated using pymatgen
data_BeFeRu2
_symmetry_space_group_name_H-M   'P 1'
_cell_length_a   9.45535412
_cell_length_b   9.45535412
_cell_length_c   9.45535412
_cell_angle_alpha   123.74991861
_cell_angle_beta   118.81424625
_cell_angle_gamma   87.84857656
_symmetry_Int_Tables_number   1
_chemical_formula_structural   BeFeRu2
_chemical_formula_sum   'Be1 Fe1 Ru2'
_cell_volume   584.29194205
_cell_formula_units_Z   1
loop_
 _symmetry_equiv_pos_site_id
 _symmetry_equiv_pos_as_xyz
  1  'x, y, z'
loop_
 _atom_site_type_symbol
 _atom_site_label
 _atom_site_symmetry_multiplicity
 _atom_site_fract_x
 _atom_site_fract_y
 _atom_site_fract_z
 _atom_site_occupancy
  Be  Be0  1  0.00000000  0.00000000  0.00000000  1
  Fe  Fe1  1  0.00000000  0.50000000  0.50000000  1
  Ru  Ru2  1  0.00000000  0.24249100  0.24249100  1
  Ru  Ru3  1  0.00000000  0.75750900  0.75750900  1
