# generated using pymatgen
data_Hf2VOs
_symmetry_space_group_name_H-M   'P 1'
_cell_length_a   10.84138668
_cell_length_b   10.84138668
_cell_length_c   10.84138668
_cell_angle_alpha   125.13528232
_cell_angle_beta   118.41994222
_cell_angle_gamma   87.05144379
_symmetry_Int_Tables_number   1
_chemical_formula_structural   Hf2VOs
_chemical_formula_sum   'Hf2 V1 Os1'
_cell_volume   871.54612781
_cell_formula_units_Z   1
loop_
 _symmetry_equiv_pos_site_id
 _symmetry_equiv_pos_as_xyz
  1  'x, y, z'
loop_
 _atom_site_type_symbol
 _atom_site_label
 _atom_site_symmetry_multiplicity
 _atom_site_fract_x
 _atom_site_fract_y
 _atom_site_fract_z
 _atom_site_occupancy
  Hf  Hf0  1  0.00000000  0.27021100  0.27021100  1
  Hf  Hf1  1  0.00000000  0.72978900  0.72978900  1
  V  V2  1  0.00000000  0.00000000  0.00000000  1
  Os  Os3  1  0.00000000  0.50000000  0.50000000  1
