# generated using pymatgen
data_Al2OsRh
_symmetry_space_group_name_H-M   'P 1'
_cell_length_a   10.07231683
_cell_length_b   10.07231683
_cell_length_c   10.07231683
_cell_angle_alpha   123.94691092
_cell_angle_beta   122.21260866
_cell_angle_gamma   84.75084266
_symmetry_Int_Tables_number   1
_chemical_formula_structural   Al2OsRh
_chemical_formula_sum   'Al2 Os1 Rh1'
_cell_volume   685.55812876
_cell_formula_units_Z   1
loop_
 _symmetry_equiv_pos_site_id
 _symmetry_equiv_pos_as_xyz
  1  'x, y, z'
loop_
 _atom_site_type_symbol
 _atom_site_label
 _atom_site_symmetry_multiplicity
 _atom_site_fract_x
 _atom_site_fract_y
 _atom_site_fract_z
 _atom_site_occupancy
  Al  Al0  1  0.75449700  0.00000000  0.75449700  1
  Al  Al1  1  0.24550300  0.00000000  0.24550300  1
  Os  Os2  1  0.50000000  0.00000000  0.50000000  1
  Rh  Rh3  1  0.00000000  0.00000000  0.00000000  1
