# generated using pymatgen
data_SrLaMg2
_symmetry_space_group_name_H-M   'P 1'
_cell_length_a   12.59197755
_cell_length_b   12.59197755
_cell_length_c   12.59197755
_cell_angle_alpha   123.09149356
_cell_angle_beta   111.45756410
_cell_angle_gamma   95.06066112
_symmetry_Int_Tables_number   1
_chemical_formula_structural   SrLaMg2
_chemical_formula_sum   'Sr1 La1 Mg2'
_cell_volume   1446.74433312
_cell_formula_units_Z   1
loop_
 _symmetry_equiv_pos_site_id
 _symmetry_equiv_pos_as_xyz
  1  'x, y, z'
loop_
 _atom_site_type_symbol
 _atom_site_label
 _atom_site_symmetry_multiplicity
 _atom_site_fract_x
 _atom_site_fract_y
 _atom_site_fract_z
 _atom_site_occupancy
  Sr  Sr0  1  0.00000000  0.00000000  0.00000000  1
  La  La1  1  0.50000000  0.00000000  0.50000000  1
  Mg  Mg2  1  0.74122400  0.00000000  0.74122400  1
  Mg  Mg3  1  0.25877600  0.00000000  0.25877600  1
