# generated using pymatgen
data_Ca2CdRh
_symmetry_space_group_name_H-M   'P 1'
_cell_length_a   12.51295042
_cell_length_b   12.51295042
_cell_length_c   12.51295042
_cell_angle_alpha   125.34599289
_cell_angle_beta   119.25573880
_cell_angle_gamma   86.14560224
_symmetry_Int_Tables_number   1
_chemical_formula_structural   Ca2CdRh
_chemical_formula_sum   'Ca2 Cd1 Rh1'
_cell_volume   1328.76425008
_cell_formula_units_Z   1
loop_
 _symmetry_equiv_pos_site_id
 _symmetry_equiv_pos_as_xyz
  1  'x, y, z'
loop_
 _atom_site_type_symbol
 _atom_site_label
 _atom_site_symmetry_multiplicity
 _atom_site_fract_x
 _atom_site_fract_y
 _atom_site_fract_z
 _atom_site_occupancy
  Ca  Ca0  1  0.00000000  0.20708100  0.20708100  1
  Ca  Ca1  1  0.00000000  0.79291900  0.79291900  1
  Cd  Cd2  1  0.00000000  0.50000000  0.50000000  1
  Rh  Rh3  1  0.00000000  0.00000000  0.00000000  1
