# generated using pymatgen
data_ZnNiAu2
_symmetry_space_group_name_H-M   'P 1'
_cell_length_a   10.72454195
_cell_length_b   10.72454195
_cell_length_c   10.72454195
_cell_angle_alpha   125.66977411
_cell_angle_beta   118.21214946
_cell_angle_gamma   86.79834440
_symmetry_Int_Tables_number   1
_chemical_formula_structural   ZnNiAu2
_chemical_formula_sum   'Zn1 Ni1 Au2'
_cell_volume   840.37891695
_cell_formula_units_Z   1
loop_
 _symmetry_equiv_pos_site_id
 _symmetry_equiv_pos_as_xyz
  1  'x, y, z'
loop_
 _atom_site_type_symbol
 _atom_site_label
 _atom_site_symmetry_multiplicity
 _atom_site_fract_x
 _atom_site_fract_y
 _atom_site_fract_z
 _atom_site_occupancy
  Zn  Zn0  1  0.00000000  0.50000000  0.50000000  1
  Ni  Ni1  1  0.00000000  0.00000000  0.00000000  1
  Au  Au2  1  0.00000000  0.25125500  0.25125500  1
  Au  Au3  1  0.00000000  0.74874500  0.74874500  1
