# generated using pymatgen
data_Y2Zr8O19
_symmetry_space_group_name_H-M   'P 1'
_cell_length_a   3.64661800
_cell_length_b   3.64661800
_cell_length_c   25.74810400
_cell_angle_alpha   90.00000000
_cell_angle_beta   90.00000000
_cell_angle_gamma   90.00000000
_symmetry_Int_Tables_number   1
_chemical_formula_structural   Y2Zr8O19
_chemical_formula_sum   'Y2 Zr8 O19'
_cell_volume   342.39372540
_cell_formula_units_Z   1
loop_
 _symmetry_equiv_pos_site_id
 _symmetry_equiv_pos_as_xyz
  1  'x, y, z'
loop_
 _atom_site_type_symbol
 _atom_site_label
 _atom_site_symmetry_multiplicity
 _atom_site_fract_x
 _atom_site_fract_y
 _atom_site_fract_z
 _atom_site_occupancy
  Y  Y0  1  0.50000000  0.00000000  0.44348400  1
  Y  Y1  1  0.00000000  0.50000000  0.55651600  1
  Zr  Zr2  1  0.50000000  0.00000000  0.65282700  1
  Zr  Zr3  1  0.00000000  0.50000000  0.75195400  1
  Zr  Zr4  1  0.50000000  0.00000000  0.85105700  1
  Zr  Zr5  1  0.00000000  0.50000000  0.95028700  1
  Zr  Zr6  1  0.50000000  0.00000000  0.04971300  1
  Zr  Zr7  1  0.00000000  0.50000000  0.14894300  1
  Zr  Zr8  1  0.50000000  0.00000000  0.24804600  1
  Zr  Zr9  1  0.00000000  0.50000000  0.34717300  1
  O  O10  1  0.00000000  0.00000000  0.00000000  1
  O  O11  1  0.50000000  0.50000000  0.10176200  1
  O  O12  1  0.00000000  0.00000000  0.19466700  1
  O  O13  1  0.50000000  0.50000000  0.30288400  1
  O  O14  1  0.00000000  0.00000000  0.39083800  1
  O  O15  1  0.00000000  0.00000000  0.50000000  1
  O  O16  1  0.00000000  0.00000000  0.60916200  1
  O  O17  1  0.50000000  0.50000000  0.59770400  1
  O  O18  1  0.50000000  0.50000000  0.69711600  1
  O  O19  1  0.00000000  0.00000000  0.80533300  1
  O  O20  1  0.00000000  0.00000000  0.70738900  1
  O  O21  1  0.50000000  0.50000000  0.79735900  1
  O  O22  1  0.50000000  0.50000000  0.89823800  1
  O  O23  1  0.00000000  0.00000000  0.90273800  1
  O  O24  1  0.50000000  0.50000000  0.00000000  1
  O  O25  1  0.00000000  0.00000000  0.09726200  1
  O  O26  1  0.50000000  0.50000000  0.20264100  1
  O  O27  1  0.00000000  0.00000000  0.29261100  1
  O  O28  1  0.50000000  0.50000000  0.40229600  1
