# generated using pymatgen
data_U2Bi18O31
_symmetry_space_group_name_H-M   'P 1'
_cell_length_a   3.96105724
_cell_length_b   3.96772878
_cell_length_c   77.66221465
_cell_angle_alpha   59.32778843
_cell_angle_beta   59.30563895
_cell_angle_gamma   60.02142386
_symmetry_Int_Tables_number   1
_chemical_formula_structural   U2Bi18O31
_chemical_formula_sum   'U2 Bi18 O31'
_cell_volume   854.18747953
_cell_formula_units_Z   1
loop_
 _symmetry_equiv_pos_site_id
 _symmetry_equiv_pos_as_xyz
  1  'x, y, z'
loop_
 _atom_site_type_symbol
 _atom_site_label
 _atom_site_symmetry_multiplicity
 _atom_site_fract_x
 _atom_site_fract_y
 _atom_site_fract_z
 _atom_site_occupancy
  U  U0  1  0.99755600  0.99555500  0.95049000  1
  U  U1  1  0.98679300  0.97740400  0.90252000  1
  Bi  Bi2  1  0.00364900  0.00499700  0.99934700  1
  Bi  Bi3  1  0.06238200  0.06274200  0.04061900  1
  Bi  Bi4  1  0.02215200  0.02234900  0.09665600  1
  Bi  Bi5  1  0.99699600  0.99881900  0.20029500  1
  Bi  Bi6  1  0.98656100  0.98598000  0.15203300  1
  Bi  Bi7  1  0.03362300  0.03421800  0.24492300  1
  Bi  Bi8  1  0.03594900  0.03553200  0.34463000  1
  Bi  Bi9  1  0.06227400  0.06200200  0.29069300  1
  Bi  Bi10  1  0.01195700  0.01163300  0.39824100  1
  Bi  Bi11  1  0.00814500  0.00908500  0.44870000  1
  Bi  Bi12  1  0.97763200  0.97747000  0.50338700  1
  Bi  Bi13  1  0.99027200  0.99010400  0.55149200  1
  Bi  Bi14  1  0.00718300  0.00711700  0.69892800  1
  Bi  Bi15  1  0.99325700  0.99308000  0.60103100  1
  Bi  Bi16  1  0.00075500  0.00070200  0.64989200  1
  Bi  Bi17  1  0.01321100  0.01324700  0.74802200  1
  Bi  Bi18  1  0.02233300  0.02250200  0.79663600  1
  Bi  Bi19  1  0.02678700  0.02795500  0.84589300  1
  O  O20  1  0.69556000  0.69513100  0.04569500  1
  O  O21  1  0.69979700  0.69941800  0.09504700  1
  O  O22  1  0.79600000  0.79702000  0.13052500  1
  O  O23  1  0.73390800  0.73363700  0.18990900  1
  O  O24  1  0.75578200  0.75435200  0.23674000  1
  O  O25  1  0.67195800  0.67132100  0.29926600  1
  O  O26  1  0.26958800  0.27053800  0.40949300  1
  O  O27  1  0.69945700  0.69852100  0.34513900  1
  O  O28  1  0.81032300  0.81055200  0.37843000  1
  O  O29  1  0.23203700  0.23299600  0.51515000  1
  O  O30  1  0.72172900  0.72200000  0.44170700  1
  O  O31  1  0.26685500  0.26692400  0.55998300  1
  O  O32  1  0.77390200  0.77341300  0.48396600  1
  O  O33  1  0.23118100  0.23197700  0.61527400  1
  O  O34  1  0.73151200  0.73155900  0.54028800  1
  O  O35  1  0.75541500  0.75451800  0.58675500  1
  O  O36  1  0.27388400  0.27374600  0.65892600  1
  O  O37  1  0.72935300  0.72932900  0.64060000  1
  O  O38  1  0.24310600  0.24398800  0.71347800  1
  O  O39  1  0.76963000  0.76863100  0.68462300  1
  O  O40  1  0.28387800  0.28383800  0.75742500  1
  O  O41  1  0.73951600  0.73957200  0.73907500  1
  O  O42  1  0.25589400  0.25686300  0.81155100  1
  O  O43  1  0.78341700  0.78257700  0.78254900  1
  O  O44  1  0.18253200  0.18743100  0.87228900  1
  O  O45  1  0.73488700  0.73569400  0.83970400  1
  O  O46  1  0.22409400  0.22661700  0.91624900  1
  O  O47  1  0.67951200  0.68699800  0.89763600  1
  O  O48  1  0.25507400  0.25329900  0.96184900  1
  O  O49  1  0.74364900  0.74041100  0.93864600  1
  O  O50  1  0.76710300  0.76463300  0.98510500  1
