# generated using pymatgen
data_RbYMg6
_symmetry_space_group_name_H-M   'P 1'
_cell_length_a   6.85970460
_cell_length_b   6.85970460
_cell_length_c   5.47240200
_cell_angle_alpha   90.00000000
_cell_angle_beta   90.00000000
_cell_angle_gamma   118.09108866
_symmetry_Int_Tables_number   1
_chemical_formula_structural   RbYMg6
_chemical_formula_sum   'Rb1 Y1 Mg6'
_cell_volume   227.17259022
_cell_formula_units_Z   1
loop_
 _symmetry_equiv_pos_site_id
 _symmetry_equiv_pos_as_xyz
  1  'x, y, z'
loop_
 _atom_site_type_symbol
 _atom_site_label
 _atom_site_symmetry_multiplicity
 _atom_site_fract_x
 _atom_site_fract_y
 _atom_site_fract_z
 _atom_site_occupancy
  Rb  Rb0  1  0.14835300  0.85164700  0.00000000  1
  Y  Y1  1  0.34935900  0.65064100  0.50000000  1
  Mg  Mg2  1  0.82101600  0.64734600  0.50000000  1
  Mg  Mg3  1  0.35265400  0.17898400  0.50000000  1
  Mg  Mg4  1  0.84238400  0.15761600  0.50000000  1
  Mg  Mg5  1  0.64570800  0.82478000  0.00000000  1
  Mg  Mg6  1  0.17522000  0.35429200  0.00000000  1
  Mg  Mg7  1  0.66530700  0.33469300  0.00000000  1
