# generated using pymatgen
data_Mg5Si6
_symmetry_space_group_name_H-M   'P 1'
_cell_length_a   3.95985800
_cell_length_b   7.12433219
_cell_length_c   14.56247372
_cell_angle_alpha   95.08775423
_cell_angle_beta   97.37426543
_cell_angle_gamma   89.87413842
_symmetry_Int_Tables_number   1
_chemical_formula_structural   Mg5Si6
_chemical_formula_sum   'Mg10 Si12'
_cell_volume   405.80616802
_cell_formula_units_Z   2
loop_
 _symmetry_equiv_pos_site_id
 _symmetry_equiv_pos_as_xyz
  1  'x, y, z'
loop_
 _atom_site_type_symbol
 _atom_site_label
 _atom_site_symmetry_multiplicity
 _atom_site_fract_x
 _atom_site_fract_y
 _atom_site_fract_z
 _atom_site_occupancy
  Mg  Mg0  1  0.91613900  0.74541300  0.99688600  1
  Mg  Mg1  1  0.16839400  0.03110800  0.48985400  1
  Mg  Mg2  1  0.03573000  0.27232400  0.22938100  1
  Mg  Mg3  1  0.75169500  0.85777500  0.65795400  1
  Mg  Mg4  1  0.33793400  0.90573600  0.84042600  1
  Mg  Mg5  1  0.45576600  0.07782800  0.07763400  1
  Mg  Mg6  1  0.65041700  0.73356900  0.44463400  1
  Mg  Mg7  1  0.70695700  0.34142400  0.57531200  1
  Mg  Mg8  1  0.38090200  0.41507000  0.92165000  1
  Mg  Mg9  1  0.49673900  0.59322300  0.15517500  1
  Si  Si10  1  0.94310400  0.37525500  0.05598000  1
  Si  Si11  1  0.88093900  0.11278500  0.94119700  1
  Si  Si12  1  0.20946200  0.64682400  0.55893300  1
  Si  Si13  1  0.14460700  0.38359600  0.43783900  1
  Si  Si14  1  0.58700100  0.42470200  0.33302300  1
  Si  Si15  1  0.82320100  0.59338400  0.80810900  1
  Si  Si16  1  0.26876600  0.16451600  0.68876400  1
  Si  Si17  1  0.55784600  0.98870600  0.29817000  1
  Si  Si18  1  0.00754400  0.89876900  0.18735500  1
  Si  Si19  1  0.81068100  0.22341800  0.78935400  1
  Si  Si20  1  0.27909500  0.53293000  0.70921000  1
  Si  Si21  1  0.08708000  0.68164500  0.30679200  1
