# generated using pymatgen
data_MgSi
_symmetry_space_group_name_H-M   'P 1'
_cell_length_a   5.48990743
_cell_length_b   5.48990743
_cell_length_c   9.69254099
_cell_angle_alpha   74.27886321
_cell_angle_beta   74.27886321
_cell_angle_gamma   49.44033500
_symmetry_Int_Tables_number   1
_chemical_formula_structural   MgSi
_chemical_formula_sum   'Mg6 Si6'
_cell_volume   211.83179087
_cell_formula_units_Z   6
loop_
 _symmetry_equiv_pos_site_id
 _symmetry_equiv_pos_as_xyz
  1  'x, y, z'
loop_
 _atom_site_type_symbol
 _atom_site_label
 _atom_site_symmetry_multiplicity
 _atom_site_fract_x
 _atom_site_fract_y
 _atom_site_fract_z
 _atom_site_occupancy
  Mg  Mg0  1  0.37470900  0.37470900  0.12496700  1
  Mg  Mg1  1  0.88360900  0.88360900  0.63683900  1
  Mg  Mg2  1  0.82029900  0.82029900  0.34523500  1
  Mg  Mg3  1  0.11639100  0.11639100  0.36316100  1
  Mg  Mg4  1  0.17970100  0.17970100  0.65476500  1
  Mg  Mg5  1  0.62529100  0.62529100  0.87503300  1
  Si  Si6  1  0.66829900  0.66829900  0.15252300  1
  Si  Si7  1  0.56694300  0.56694300  0.59241800  1
  Si  Si8  1  0.33170100  0.33170100  0.84747700  1
  Si  Si9  1  0.90929400  0.90929400  0.93017200  1
  Si  Si10  1  0.09070600  0.09070600  0.06982800  1
  Si  Si11  1  0.43305700  0.43305700  0.40758200  1
