# generated using pymatgen
data_YBO3
_symmetry_space_group_name_H-M   'P 1'
_cell_length_a   3.95142725
_cell_length_b   3.98674911
_cell_length_c   8.41153500
_cell_angle_alpha   90.00000000
_cell_angle_beta   90.00000000
_cell_angle_gamma   111.71590228
_symmetry_Int_Tables_number   1
_chemical_formula_structural   YBO3
_chemical_formula_sum   'Y2 B2 O6'
_cell_volume   123.10561187
_cell_formula_units_Z   2
loop_
 _symmetry_equiv_pos_site_id
 _symmetry_equiv_pos_as_xyz
  1  'x, y, z'
loop_
 _atom_site_type_symbol
 _atom_site_label
 _atom_site_symmetry_multiplicity
 _atom_site_fract_x
 _atom_site_fract_y
 _atom_site_fract_z
 _atom_site_occupancy
  Y  Y0  1  0.07996300  0.07718800  0.00017200  1
  Y  Y1  1  0.07996300  0.07718800  0.49982800  1
  B  B2  1  0.49699000  0.76832600  0.75000000  1
  B  B3  1  0.76759900  0.49054500  0.25000000  1
  O  O4  1  0.99555700  0.84900600  0.25000000  1
  O  O5  1  0.33171300  0.67095800  0.60185200  1
  O  O6  1  0.33171300  0.67095800  0.89814800  1
  O  O7  1  0.67070000  0.32385000  0.39763900  1
  O  O8  1  0.67070000  0.32385000  0.10236100  1
  O  O9  1  0.85810100  0.00013100  0.75000000  1
