# generated using pymatgen
data_CsMg6Ti
_symmetry_space_group_name_H-M   'P 1'
_cell_length_a   6.77797449
_cell_length_b   6.77797449
_cell_length_c   5.44063200
_cell_angle_alpha   90.00000000
_cell_angle_beta   90.00000000
_cell_angle_gamma   120.20854544
_symmetry_Int_Tables_number   1
_chemical_formula_structural   CsMg6Ti
_chemical_formula_sum   'Cs1 Mg6 Ti1'
_cell_volume   216.00477806
_cell_formula_units_Z   1
loop_
 _symmetry_equiv_pos_site_id
 _symmetry_equiv_pos_as_xyz
  1  'x, y, z'
loop_
 _atom_site_type_symbol
 _atom_site_label
 _atom_site_symmetry_multiplicity
 _atom_site_fract_x
 _atom_site_fract_y
 _atom_site_fract_z
 _atom_site_occupancy
  Cs  Cs0  1  0.33970200  0.66029800  0.50000000  1
  Mg  Mg1  1  0.15019000  0.30671800  0.00000000  1
  Mg  Mg2  1  0.69328200  0.84981000  0.00000000  1
  Mg  Mg3  1  0.66717400  0.33282600  0.00000000  1
  Mg  Mg4  1  0.31912200  0.14411100  0.50000000  1
  Mg  Mg5  1  0.85588900  0.68087800  0.50000000  1
  Mg  Mg6  1  0.83060300  0.16939700  0.50000000  1
  Ti  Ti7  1  0.14403900  0.85596100  0.00000000  1
