# generated using pymatgen
data_ZrPbO3
_symmetry_space_group_name_H-M   'P 1'
_cell_length_a   4.29524433
_cell_length_b   8.44422720
_cell_length_c   8.42931700
_cell_angle_alpha   90.00000000
_cell_angle_beta   90.00000000
_cell_angle_gamma   90.52704893
_symmetry_Int_Tables_number   1
_chemical_formula_structural   ZrPbO3
_chemical_formula_sum   'Zr4 Pb4 O12'
_cell_volume   305.71855244
_cell_formula_units_Z   4
loop_
 _symmetry_equiv_pos_site_id
 _symmetry_equiv_pos_as_xyz
  1  'x, y, z'
loop_
 _atom_site_type_symbol
 _atom_site_label
 _atom_site_symmetry_multiplicity
 _atom_site_fract_x
 _atom_site_fract_y
 _atom_site_fract_z
 _atom_site_occupancy
  Zr  Zr0  1  0.46836700  0.25179300  0.25334400  1
  Zr  Zr1  1  0.46836700  0.25179300  0.74665600  1
  Zr  Zr2  1  0.44974700  0.75394100  0.24670300  1
  Zr  Zr3  1  0.44974700  0.75394100  0.75329700  1
  Pb  Pb4  1  0.95605100  0.05764400  0.00000000  1
  Pb  Pb5  1  0.86715600  0.51371500  0.50000000  1
  Pb  Pb6  1  0.89382600  0.53065200  0.00000000  1
  Pb  Pb7  1  0.87356200  0.98227900  0.50000000  1
  O  O8  1  0.99583300  0.24009100  0.22724000  1
  O  O9  1  0.99583300  0.24009100  0.77276000  1
  O  O10  1  0.51450100  0.99713900  0.26996500  1
  O  O11  1  0.51145600  0.22626100  0.00000000  1
  O  O12  1  0.54021500  0.25500000  0.50000000  1
  O  O13  1  0.52819100  0.49787500  0.25272500  1
  O  O14  1  0.49447900  0.72808000  0.00000000  1
  O  O15  1  0.52819100  0.49787500  0.74727500  1
  O  O16  1  0.52325200  0.73817000  0.50000000  1
  O  O17  1  0.51450100  0.99713900  0.73003500  1
  O  O18  1  0.98136300  0.74326000  0.24999500  1
  O  O19  1  0.98136300  0.74326000  0.75000500  1
