# generated using pymatgen
data_CaSnS3
_symmetry_space_group_name_H-M   'P 1'
_cell_length_a   4.78198300
_cell_length_b   7.85460500
_cell_length_c   14.03250400
_cell_angle_alpha   90.00000000
_cell_angle_beta   90.00000000
_cell_angle_gamma   90.00000000
_symmetry_Int_Tables_number   1
_chemical_formula_structural   CaSnS3
_chemical_formula_sum   'Ca4 Sn4 S12'
_cell_volume   527.06909548
_cell_formula_units_Z   4
loop_
 _symmetry_equiv_pos_site_id
 _symmetry_equiv_pos_as_xyz
  1  'x, y, z'
loop_
 _atom_site_type_symbol
 _atom_site_label
 _atom_site_symmetry_multiplicity
 _atom_site_fract_x
 _atom_site_fract_y
 _atom_site_fract_z
 _atom_site_occupancy
  Ca  Ca0  1  0.44108600  0.82320600  0.50000000  1
  Ca  Ca1  1  0.55891400  0.32320600  0.50000000  1
  Ca  Ca2  1  0.25507700  0.21818400  0.00000000  1
  Ca  Ca3  1  0.74492300  0.71818400  0.00000000  1
  Sn  Sn4  1  0.05647000  0.55998400  0.71276300  1
  Sn  Sn5  1  0.05647000  0.55998400  0.28723700  1
  Sn  Sn6  1  0.94353000  0.05998400  0.28723700  1
  Sn  Sn7  1  0.94353000  0.05998400  0.71276300  1
  S  S8  1  0.05949100  0.50187000  0.50000000  1
  S  S9  1  0.94050900  0.00187000  0.50000000  1
  S  S10  1  0.24587600  0.55882600  0.00000000  1
  S  S11  1  0.75412400  0.05882600  0.00000000  1
  S  S12  1  0.44540500  0.07964700  0.65148600  1
  S  S13  1  0.44540500  0.07964700  0.34851400  1
  S  S14  1  0.55459500  0.57964700  0.34851400  1
  S  S15  1  0.55459500  0.57964700  0.65148600  1
  S  S16  1  0.03656600  0.81427700  0.82117400  1
  S  S17  1  0.03656600  0.81427700  0.17882600  1
  S  S18  1  0.96343400  0.31427700  0.17882600  1
  S  S19  1  0.96343400  0.31427700  0.82117400  1
