# generated using pymatgen
data_YMg5
_symmetry_space_group_name_H-M   'P 1'
_cell_length_a   6.46727733
_cell_length_b   6.46727733
_cell_length_c   7.59564049
_cell_angle_alpha   76.11792398
_cell_angle_beta   76.11792398
_cell_angle_gamma   29.04209710
_symmetry_Int_Tables_number   1
_chemical_formula_structural   YMg5
_chemical_formula_sum   'Y1 Mg5'
_cell_volume   149.41291941
_cell_formula_units_Z   1
loop_
 _symmetry_equiv_pos_site_id
 _symmetry_equiv_pos_as_xyz
  1  'x, y, z'
loop_
 _atom_site_type_symbol
 _atom_site_label
 _atom_site_symmetry_multiplicity
 _atom_site_fract_x
 _atom_site_fract_y
 _atom_site_fract_z
 _atom_site_occupancy
  Y  Y0  1  0.61256200  0.61256200  0.27335500  1
  Mg  Mg1  1  0.99589300  0.99589300  0.99788400  1
  Mg  Mg2  1  0.33572600  0.33572600  0.33481800  1
  Mg  Mg3  1  0.94098700  0.94098700  0.61713200  1
  Mg  Mg4  1  0.66656500  0.66656500  0.66995900  1
  Mg  Mg5  1  0.28160100  0.28160100  0.94018400  1
