# generated using pymatgen
data_VP2H13CN3O11
_symmetry_space_group_name_H-M   'P 1'
_cell_length_a   9.40459941
_cell_length_b   9.40459933
_cell_length_c   13.68930965
_cell_angle_alpha   86.00371959
_cell_angle_beta   86.00371938
_cell_angle_gamma   80.75489663
_symmetry_Int_Tables_number   1
_chemical_formula_structural   VP2H13CN3O11
_chemical_formula_sum   'V4 P8 H52 C4 N12 O44'
_cell_volume   1190.03224939
_cell_formula_units_Z   4
loop_
 _symmetry_equiv_pos_site_id
 _symmetry_equiv_pos_as_xyz
  1  'x, y, z'
loop_
 _atom_site_type_symbol
 _atom_site_label
 _atom_site_symmetry_multiplicity
 _atom_site_fract_x
 _atom_site_fract_y
 _atom_site_fract_z
 _atom_site_occupancy
  V  V0  1  0.26345700  0.44740100  0.99533000  1
  V  V1  1  0.44740100  0.26345700  0.49533000  1
  V  V2  1  0.55259900  0.73654300  0.50467000  1
  V  V3  1  0.73654300  0.55259900  0.00467000  1
  P  P4  1  0.00656800  0.65798600  0.87466200  1
  P  P5  1  0.33822400  0.53364500  0.62610000  1
  P  P6  1  0.34201400  0.99343200  0.62533800  1
  P  P7  1  0.53364500  0.33822400  0.12610000  1
  P  P8  1  0.46635500  0.66177600  0.87390000  1
  P  P9  1  0.65798600  0.00656800  0.37466200  1
  P  P10  1  0.66177600  0.46635500  0.37390000  1
  P  P11  1  0.99343200  0.34201400  0.12533800  1
  H  H12  1  0.02571600  0.29176000  0.77051200  1
  H  H13  1  0.06419000  0.31568900  0.50962700  1
  H  H14  1  0.98828300  0.95891700  0.11519200  1
  H  H15  1  0.04143900  0.83621200  0.04258600  1
  H  H16  1  0.07628600  0.64886000  0.71490600  1
  H  H17  1  0.14612300  0.26861300  0.66726400  1
  H  H18  1  0.04108300  0.01171700  0.38480800  1
  H  H19  1  0.11843400  0.62867500  0.50615000  1
  H  H20  1  0.20367800  0.17733100  0.39965300  1
  H  H21  1  0.17733100  0.20367800  0.89965300  1
  H  H22  1  0.21228700  0.32418100  0.33943700  1
  H  H23  1  0.26861300  0.14612300  0.16726400  1
  H  H24  1  0.31568900  0.06419000  0.00962700  1
  H  H25  1  0.29176000  0.02571600  0.27051200  1
  H  H26  1  0.16378800  0.95856100  0.45741400  1
  H  H27  1  0.21296100  0.59771900  0.24978700  1
  H  H28  1  0.18929600  0.78546500  0.88158700  1
  H  H29  1  0.21453500  0.81070400  0.61841300  1
  H  H30  1  0.32418100  0.21228700  0.83943700  1
  H  H31  1  0.27901400  0.58142400  0.36752100  1
  H  H32  1  0.36260400  0.46865100  0.78438100  1
  H  H33  1  0.37132500  0.88156600  0.99385000  1
  H  H34  1  0.46865100  0.36260400  0.28438100  1
  H  H35  1  0.40228100  0.78703900  0.25021300  1
  H  H36  1  0.41857600  0.72098600  0.13247900  1
  H  H37  1  0.35114000  0.92371400  0.78509400  1
  H  H38  1  0.64886000  0.07628600  0.21490600  1
  H  H39  1  0.58142400  0.27901400  0.86752100  1
  H  H40  1  0.59771900  0.21296100  0.74978700  1
  H  H41  1  0.53134900  0.63739600  0.71561900  1
  H  H42  1  0.62867500  0.11843400  0.00615000  1
  H  H43  1  0.63739600  0.53134900  0.21561900  1
  H  H44  1  0.72098600  0.41857600  0.63247900  1
  H  H45  1  0.67581900  0.78771300  0.16056300  1
  H  H46  1  0.78546500  0.18929600  0.38158700  1
  H  H47  1  0.81070400  0.21453500  0.11841300  1
  H  H48  1  0.78703900  0.40228100  0.75021300  1
  H  H49  1  0.83621200  0.04143900  0.54258600  1
  H  H50  1  0.70824000  0.97428400  0.72948800  1
  H  H51  1  0.68431100  0.93581000  0.99037300  1
  H  H52  1  0.73138700  0.85387700  0.83273600  1
  H  H53  1  0.78771300  0.67581900  0.66056300  1
  H  H54  1  0.82266900  0.79632200  0.10034700  1
  H  H55  1  0.79632200  0.82266900  0.60034700  1
  H  H56  1  0.88156600  0.37132500  0.49385000  1
  H  H57  1  0.95891700  0.98828300  0.61519200  1
  H  H58  1  0.85387700  0.73138700  0.33273600  1
  H  H59  1  0.92371400  0.35114000  0.28509400  1
  H  H60  1  0.95856100  0.16378800  0.95741400  1
  H  H61  1  0.01171700  0.04108300  0.88480800  1
  H  H62  1  0.93581000  0.68431100  0.49037300  1
  H  H63  1  0.97428400  0.70824000  0.22948800  1
  C  C64  1  0.06235300  0.65389600  0.36217000  1
  C  C65  1  0.34610400  0.93764700  0.13783000  1
  C  C66  1  0.65389600  0.06235300  0.86217000  1
  C  C67  1  0.93764700  0.34610400  0.63783000  1
  N  N68  1  0.04610400  0.30706800  0.69677000  1
  N  N69  1  0.03843400  0.66245600  0.45931300  1
  N  N70  1  0.30706800  0.04610400  0.19677000  1
  N  N71  1  0.19467600  0.60519400  0.32357500  1
  N  N72  1  0.33754400  0.96156600  0.04068700  1
  N  N73  1  0.39480600  0.80532400  0.17642500  1
  N  N74  1  0.60519400  0.19467600  0.82357500  1
  N  N75  1  0.66245600  0.03843400  0.95931300  1
  N  N76  1  0.80532400  0.39480600  0.67642500  1
  N  N77  1  0.69293200  0.95389600  0.80323000  1
  N  N78  1  0.96156600  0.33754400  0.54068700  1
  N  N79  1  0.95389600  0.69293200  0.30323000  1
  O  O80  1  0.01067800  0.14342800  0.89390900  1
  O  O81  1  0.01535900  0.33693200  0.23902900  1
  O  O82  1  0.14342800  0.01067800  0.39390900  1
  O  O83  1  0.14518900  0.31341500  0.07633900  1
  O  O84  1  0.10048100  0.51770400  0.90643200  1
  O  O85  1  0.07852900  0.79417700  0.89726500  1
  O  O86  1  0.23231000  0.27418500  0.40322000  1
  O  O87  1  0.24892300  0.57751700  0.07067600  1
  O  O88  1  0.20522200  0.65230700  0.63869400  1
  O  O89  1  0.31341500  0.14518900  0.57633900  1
  O  O90  1  0.27418500  0.23231000  0.90322000  1
  O  O91  1  0.33693200  0.01535900  0.73902900  1
  O  O92  1  0.20582300  0.92147100  0.60273500  1
  O  O93  1  0.32029400  0.44481300  0.53965000  1
  O  O94  1  0.35075800  0.42516000  0.71975500  1
  O  O95  1  0.42516000  0.35075800  0.21975500  1
  O  O96  1  0.44481300  0.32029400  0.03965000  1
  O  O97  1  0.34769300  0.79477800  0.86130600  1
  O  O98  1  0.39578900  0.52187000  0.88407600  1
  O  O99  1  0.51770400  0.10048100  0.40643200  1
  O  O100  1  0.42248300  0.75107700  0.42932400  1
  O  O101  1  0.52187000  0.39578900  0.38407600  1
  O  O102  1  0.47813000  0.60421100  0.61592400  1
  O  O103  1  0.57751700  0.24892300  0.57067600  1
  O  O104  1  0.48229600  0.89951900  0.59356800  1
  O  O105  1  0.60421100  0.47813000  0.11592400  1
  O  O106  1  0.65230700  0.20522200  0.13869400  1
  O  O107  1  0.55518700  0.67970600  0.96035000  1
  O  O108  1  0.57484000  0.64924200  0.78024500  1
  O  O109  1  0.64924200  0.57484000  0.28024500  1
  O  O110  1  0.67970600  0.55518700  0.46035000  1
  O  O111  1  0.79417700  0.07852900  0.39726500  1
  O  O112  1  0.66306800  0.98464100  0.26097100  1
  O  O113  1  0.72581500  0.76769000  0.09678000  1
  O  O114  1  0.68658500  0.85481100  0.42366100  1
  O  O115  1  0.79477800  0.34769300  0.36130600  1
  O  O116  1  0.75107700  0.42248300  0.92932400  1
  O  O117  1  0.76769000  0.72581500  0.59678000  1
  O  O118  1  0.92147100  0.20582300  0.10273500  1
  O  O119  1  0.89951900  0.48229600  0.09356800  1
  O  O120  1  0.85481100  0.68658500  0.92366100  1
  O  O121  1  0.85657200  0.98932200  0.60609100  1
  O  O122  1  0.98464100  0.66306800  0.76097100  1
  O  O123  1  0.98932200  0.85657200  0.10609100  1
