# generated using pymatgen
data_RbMg6Sb
_symmetry_space_group_name_H-M   'P 1'
_cell_length_a   9.18256183
_cell_length_b   9.18256183
_cell_length_c   4.93744600
_cell_angle_alpha   90.00000000
_cell_angle_beta   90.00000000
_cell_angle_gamma   140.63446202
_symmetry_Int_Tables_number   1
_chemical_formula_structural   RbMg6Sb
_chemical_formula_sum   'Rb1 Mg6 Sb1'
_cell_volume   264.05916841
_cell_formula_units_Z   1
loop_
 _symmetry_equiv_pos_site_id
 _symmetry_equiv_pos_as_xyz
  1  'x, y, z'
loop_
 _atom_site_type_symbol
 _atom_site_label
 _atom_site_symmetry_multiplicity
 _atom_site_fract_x
 _atom_site_fract_y
 _atom_site_fract_z
 _atom_site_occupancy
  Rb  Rb0  1  0.79028600  0.20971400  0.50000000  1
  Mg  Mg1  1  0.31388700  0.17572300  0.50000000  1
  Mg  Mg2  1  0.82427700  0.68611300  0.50000000  1
  Mg  Mg3  1  0.18886400  0.29058100  0.00000000  1
  Mg  Mg4  1  0.70941900  0.81113600  0.00000000  1
  Mg  Mg5  1  0.62067700  0.37932300  0.00000000  1
  Mg  Mg6  1  0.13538600  0.86461400  0.00000000  1
  Sb  Sb7  1  0.41721300  0.58278700  0.50000000  1
