# generated using pymatgen
data_Zr3Sc4N8
_symmetry_space_group_name_H-M   'P 1'
_cell_length_a   3.30100012
_cell_length_b   3.30099994
_cell_length_c   25.58324442
_cell_angle_alpha   58.92771444
_cell_angle_beta   58.92771582
_cell_angle_gamma   59.99999316
_symmetry_Int_Tables_number   1
_chemical_formula_structural   Zr3Sc4N8
_chemical_formula_sum   'Zr3 Sc4 N8'
_cell_volume   193.86494010
_cell_formula_units_Z   1
loop_
 _symmetry_equiv_pos_site_id
 _symmetry_equiv_pos_as_xyz
  1  'x, y, z'
loop_
 _atom_site_type_symbol
 _atom_site_label
 _atom_site_symmetry_multiplicity
 _atom_site_fract_x
 _atom_site_fract_y
 _atom_site_fract_z
 _atom_site_occupancy
  Zr  Zr0  1  0.01456400  0.01456400  0.36953800  1
  Zr  Zr1  1  0.00000000  0.00000000  0.50000000  1
  Zr  Zr2  1  0.98543600  0.98543600  0.63046200  1
  Sc  Sc3  1  0.04999900  0.04999900  0.10625000  1
  Sc  Sc4  1  0.03885600  0.03885600  0.23542900  1
  Sc  Sc5  1  0.96114400  0.96114400  0.76457100  1
  Sc  Sc6  1  0.95000100  0.95000100  0.89375000  1
  N  N7  1  0.47689400  0.47689400  0.07116500  1
  N  N8  1  0.49601800  0.49601800  0.18899300  1
  N  N9  1  0.49894900  0.49894900  0.31289400  1
  N  N10  1  0.50810900  0.50810900  0.43445900  1
  N  N11  1  0.49189100  0.49189100  0.56554100  1
  N  N12  1  0.50105100  0.50105100  0.68710600  1
  N  N13  1  0.50398200  0.50398200  0.81100700  1
  N  N14  1  0.52310600  0.52310600  0.92883500  1
