# generated using pymatgen
data_NbSe2
_symmetry_space_group_name_H-M   'P 1'
_cell_length_a   3.48038404
_cell_length_b   3.48038404
_cell_length_c   25.87265600
_cell_angle_alpha   90.00000000
_cell_angle_beta   90.00000000
_cell_angle_gamma   120.00000068
_symmetry_Int_Tables_number   1
_chemical_formula_structural   NbSe2
_chemical_formula_sum   'Nb4 Se8'
_cell_volume   271.41008356
_cell_formula_units_Z   4
loop_
 _symmetry_equiv_pos_site_id
 _symmetry_equiv_pos_as_xyz
  1  'x, y, z'
loop_
 _atom_site_type_symbol
 _atom_site_label
 _atom_site_symmetry_multiplicity
 _atom_site_fract_x
 _atom_site_fract_y
 _atom_site_fract_z
 _atom_site_occupancy
  Nb  Nb0  1  0.00000000  0.00000000  0.50000000  1
  Nb  Nb1  1  0.00000000  0.00000000  0.00000000  1
  Nb  Nb2  1  0.00000000  0.00000000  0.25000000  1
  Nb  Nb3  1  0.00000000  0.00000000  0.75000000  1
  Se  Se4  1  0.33333300  0.66666700  0.43481000  1
  Se  Se5  1  0.66666700  0.33333300  0.56519000  1
  Se  Se6  1  0.66666700  0.33333300  0.93481000  1
  Se  Se7  1  0.33333300  0.66666700  0.06519000  1
  Se  Se8  1  0.66666700  0.33333300  0.31490700  1
  Se  Se9  1  0.33333300  0.66666700  0.68509300  1
  Se  Se10  1  0.33333300  0.66666700  0.81490700  1
  Se  Se11  1  0.66666700  0.33333300  0.18509300  1
