# generated using pymatgen
data_Sm4Th3O12
_symmetry_space_group_name_H-M   'P 1'
_cell_length_a   3.90374845
_cell_length_b   3.90374845
_cell_length_c   23.12412740
_cell_angle_alpha   94.84201545
_cell_angle_beta   90.00000000
_cell_angle_gamma   120.00000000
_symmetry_Int_Tables_number   1
_chemical_formula_structural   Sm4Th3O12
_chemical_formula_sum   'Sm4 Th3 O12'
_cell_volume   303.72946934
_cell_formula_units_Z   1
loop_
 _symmetry_equiv_pos_site_id
 _symmetry_equiv_pos_as_xyz
  1  'x, y, z'
loop_
 _atom_site_type_symbol
 _atom_site_label
 _atom_site_symmetry_multiplicity
 _atom_site_fract_x
 _atom_site_fract_y
 _atom_site_fract_z
 _atom_site_occupancy
  Sm  Sm0  1  0.14186700  0.28373400  0.42560100  1
  Sm  Sm1  1  0.85912100  0.71824200  0.57736200  1
  Sm  Sm2  1  0.28725300  0.57450700  0.86176000  1
  Sm  Sm3  1  0.57004200  0.14008600  0.71012800  1
  Th  Th4  1  0.99892100  0.99784200  0.99676300  1
  Th  Th5  1  0.71346000  0.42692000  0.14038100  1
  Th  Th6  1  0.42773100  0.85546100  0.28319200  1
  O  O7  1  0.39350700  0.78701300  0.18052000  1
  O  O8  1  0.67892100  0.35784300  0.03676400  1
  O  O9  1  0.03605100  0.07210300  0.10815300  1
  O  O10  1  0.75021300  0.50042600  0.25063900  1
  O  O11  1  0.46909000  0.93818000  0.40727000  1
  O  O12  1  0.10717500  0.21435000  0.32152700  1
  O  O13  1  0.17391500  0.34783000  0.52174500  1
  O  O14  1  0.89707300  0.79414600  0.69121800  1
  O  O15  1  0.53581200  0.07162400  0.60743600  1
  O  O16  1  0.60219800  0.20439800  0.80659600  1
  O  O17  1  0.32156900  0.64313700  0.96470600  1
  O  O18  1  0.96465200  0.92930300  0.89395400  1
