# generated using pymatgen
data_SrTb2Sc2O7
_symmetry_space_group_name_H-M   'P 1'
_cell_length_a   4.04606644
_cell_length_b   4.04606644
_cell_length_c   10.51731374
_cell_angle_alpha   101.09249322
_cell_angle_beta   101.09249322
_cell_angle_gamma   89.98786395
_symmetry_Int_Tables_number   1
_chemical_formula_structural   SrTb2Sc2O7
_chemical_formula_sum   'Sr1 Tb2 Sc2 O7'
_cell_volume   165.68106258
_cell_formula_units_Z   1
loop_
 _symmetry_equiv_pos_site_id
 _symmetry_equiv_pos_as_xyz
  1  'x, y, z'
loop_
 _atom_site_type_symbol
 _atom_site_label
 _atom_site_symmetry_multiplicity
 _atom_site_fract_x
 _atom_site_fract_y
 _atom_site_fract_z
 _atom_site_occupancy
  Sr  Sr0  1  0.50000000  0.50000000  0.00000000  1
  Tb  Tb1  1  0.68303000  0.68303000  0.36605900  1
  Tb  Tb2  1  0.31697000  0.31697000  0.63394100  1
  Sc  Sc3  1  0.89726900  0.89726900  0.79453900  1
  Sc  Sc4  1  0.10273100  0.10273100  0.20546100  1
  O  O5  1  0.00000000  0.00000000  0.00000000  1
  O  O6  1  0.78830600  0.78830600  0.57661200  1
  O  O7  1  0.21169400  0.21169400  0.42338800  1
  O  O8  1  0.38613000  0.88613000  0.77226000  1
  O  O9  1  0.11387000  0.61387000  0.22774000  1
  O  O10  1  0.61387000  0.11387000  0.22774000  1
  O  O11  1  0.88613000  0.38613000  0.77226000  1
