# generated using pymatgen
data_PrHfO4
_symmetry_space_group_name_H-M   'P 1'
_cell_length_a   10.82732100
_cell_length_b   10.82732100
_cell_length_c   10.82732100
_cell_angle_alpha   90.00000000
_cell_angle_beta   90.00000000
_cell_angle_gamma   90.00000000
_symmetry_Int_Tables_number   1
_chemical_formula_structural   PrHfO4
_chemical_formula_sum   'Pr16 Hf16 O64'
_cell_volume   1269.29636927
_cell_formula_units_Z   16
loop_
 _symmetry_equiv_pos_site_id
 _symmetry_equiv_pos_as_xyz
  1  'x, y, z'
loop_
 _atom_site_type_symbol
 _atom_site_label
 _atom_site_symmetry_multiplicity
 _atom_site_fract_x
 _atom_site_fract_y
 _atom_site_fract_z
 _atom_site_occupancy
  Pr  Pr0  1  0.12298700  0.37740700  0.37590800  1
  Pr  Pr1  1  0.12409200  0.87701300  0.87740700  1
  Pr  Pr2  1  0.12259300  0.62409200  0.62298700  1
  Pr  Pr3  1  0.12509700  0.12509700  0.12509700  1
  Pr  Pr4  1  0.37490300  0.87490300  0.62509700  1
  Pr  Pr5  1  0.37740700  0.37590800  0.12298700  1
  Pr  Pr6  1  0.37590800  0.12298700  0.37740700  1
  Pr  Pr7  1  0.37701300  0.62259300  0.87590800  1
  Pr  Pr8  1  0.62298700  0.12259300  0.62409200  1
  Pr  Pr9  1  0.62409200  0.62298700  0.12259300  1
  Pr  Pr10  1  0.62259300  0.87590800  0.37701300  1
  Pr  Pr11  1  0.62509700  0.37490300  0.87490300  1
  Pr  Pr12  1  0.87490300  0.62509700  0.37490300  1
  Pr  Pr13  1  0.87740700  0.12409200  0.87701300  1
  Pr  Pr14  1  0.87590800  0.37701300  0.62259300  1
  Pr  Pr15  1  0.87701300  0.87740700  0.12409200  1
  Hf  Hf16  1  0.12029500  0.61790400  0.11628200  1
  Hf  Hf17  1  0.11628200  0.12029500  0.61790400  1
  Hf  Hf18  1  0.12297800  0.87702200  0.37702200  1
  Hf  Hf19  1  0.11790400  0.38371800  0.87970500  1
  Hf  Hf20  1  0.38209600  0.61628200  0.37970500  1
  Hf  Hf21  1  0.37702200  0.12297800  0.87702200  1
  Hf  Hf22  1  0.38371800  0.87970500  0.11790400  1
  Hf  Hf23  1  0.37970500  0.38209600  0.61628200  1
  Hf  Hf24  1  0.62029500  0.88209600  0.88371800  1
  Hf  Hf25  1  0.61628200  0.37970500  0.38209600  1
  Hf  Hf26  1  0.62297800  0.62297800  0.62297800  1
  Hf  Hf27  1  0.61790400  0.11628200  0.12029500  1
  Hf  Hf28  1  0.88209600  0.88371800  0.62029500  1
  Hf  Hf29  1  0.87702200  0.37702200  0.12297800  1
  Hf  Hf30  1  0.88371800  0.62029500  0.88209600  1
  Hf  Hf31  1  0.87970500  0.11790400  0.38371800  1
  O  O32  1  0.03512700  0.74433300  0.24880700  1
  O  O33  1  0.00101800  0.99563400  0.28217300  1
  O  O34  1  0.00147200  0.73042300  0.99886700  1
  O  O35  1  0.00282700  0.00282700  0.00282700  1
  O  O36  1  0.98981800  0.01018200  0.51018200  1
  O  O37  1  0.99886700  0.00147200  0.73042300  1
  O  O38  1  0.00436600  0.78217300  0.49898200  1
  O  O39  1  0.03984600  0.25055200  0.75139900  1
  O  O40  1  0.24944800  0.24860100  0.53984600  1
  O  O41  1  0.24860100  0.53984600  0.24944800  1
  O  O42  1  0.25660400  0.24339600  0.75660400  1
  O  O43  1  0.24880700  0.03512700  0.74433300  1
  O  O44  1  0.21782700  0.99898200  0.49563400  1
  O  O45  1  0.23042300  0.50113300  0.99852800  1
  O  O46  1  0.25566700  0.74880700  0.46487300  1
  O  O47  1  0.24878300  0.74878300  0.75121700  1
  O  O48  1  0.25121700  0.25121700  0.25121700  1
  O  O49  1  0.24433300  0.25119300  0.96487300  1
  O  O50  1  0.26957700  0.49886700  0.49852800  1
  O  O51  1  0.28217300  0.00101800  0.99563400  1
  O  O52  1  0.25119300  0.96487300  0.24433300  1
  O  O53  1  0.24339600  0.75660400  0.25660400  1
  O  O54  1  0.25139900  0.46015400  0.74944800  1
  O  O55  1  0.25055200  0.75139900  0.03984600  1
  O  O56  1  0.46015400  0.74944800  0.25139900  1
  O  O57  1  0.49717300  0.99717300  0.50282700  1
  O  O58  1  0.51018200  0.98981800  0.01018200  1
  O  O59  1  0.50113300  0.99852800  0.23042300  1
  O  O60  1  0.49563400  0.21782700  0.99898200  1
  O  O61  1  0.49852800  0.26957700  0.49886700  1
  O  O62  1  0.46487300  0.25566700  0.74880700  1
  O  O63  1  0.49898200  0.00436600  0.78217300  1
  O  O64  1  0.50101800  0.50436600  0.71782700  1
  O  O65  1  0.53512700  0.75566700  0.75119300  1
  O  O66  1  0.50147200  0.76957700  0.00113300  1
  O  O67  1  0.50282700  0.49717300  0.99717300  1
  O  O68  1  0.49886700  0.49852800  0.26957700  1
  O  O69  1  0.48981800  0.48981800  0.48981800  1
  O  O70  1  0.50436600  0.71782700  0.50101800  1
  O  O71  1  0.53984600  0.24944800  0.24860100  1
  O  O72  1  0.74944800  0.25139900  0.46015400  1
  O  O73  1  0.74860100  0.96015400  0.75055200  1
  O  O74  1  0.75660400  0.25660400  0.24339600  1
  O  O75  1  0.74880700  0.46487300  0.25566700  1
  O  O76  1  0.71782700  0.50101800  0.50436600  1
  O  O77  1  0.73042300  0.99886700  0.00147200  1
  O  O78  1  0.75566700  0.75119300  0.53512700  1
  O  O79  1  0.74878300  0.75121700  0.24878300  1
  O  O80  1  0.75121700  0.24878300  0.74878300  1
  O  O81  1  0.74433300  0.24880700  0.03512700  1
  O  O82  1  0.76957700  0.00113300  0.50147200  1
  O  O83  1  0.78217300  0.49898200  0.00436600  1
  O  O84  1  0.75119300  0.53512700  0.75566700  1
  O  O85  1  0.74339600  0.74339600  0.74339600  1
  O  O86  1  0.75139900  0.03984600  0.25055200  1
  O  O87  1  0.75055200  0.74860100  0.96015400  1
  O  O88  1  0.96015400  0.75055200  0.74860100  1
  O  O89  1  0.99563400  0.28217300  0.00101800  1
  O  O90  1  0.01018200  0.51018200  0.98981800  1
  O  O91  1  0.00113300  0.50147200  0.76957700  1
  O  O92  1  0.99717300  0.50282700  0.49717300  1
  O  O93  1  0.99852800  0.23042300  0.50113300  1
  O  O94  1  0.96487300  0.24433300  0.25119300  1
  O  O95  1  0.99898200  0.49563400  0.21782700  1
