# generated using pymatgen
data_Rb3HoO3
_symmetry_space_group_name_H-M   'P 1'
_cell_length_a   6.69449100
_cell_length_b   10.23606600
_cell_length_c   11.37194171
_cell_angle_alpha   73.56754284
_cell_angle_beta   90.00000000
_cell_angle_gamma   90.00000000
_symmetry_Int_Tables_number   1
_chemical_formula_structural   Rb3HoO3
_chemical_formula_sum   'Rb12 Ho4 O12'
_cell_volume   747.43520859
_cell_formula_units_Z   4
loop_
 _symmetry_equiv_pos_site_id
 _symmetry_equiv_pos_as_xyz
  1  'x, y, z'
loop_
 _atom_site_type_symbol
 _atom_site_label
 _atom_site_symmetry_multiplicity
 _atom_site_fract_x
 _atom_site_fract_y
 _atom_site_fract_z
 _atom_site_occupancy
  Rb  Rb0  1  0.47152200  0.74024900  0.92578500  1
  Rb  Rb1  1  0.98004200  0.10853600  0.27791300  1
  Rb  Rb2  1  0.95573600  0.47407800  0.16206600  1
  Rb  Rb3  1  0.45573600  0.52592200  0.33793400  1
  Rb  Rb4  1  0.48004200  0.89146400  0.22208700  1
  Rb  Rb5  1  0.97152200  0.25975100  0.57421500  1
  Rb  Rb6  1  0.02847800  0.74024900  0.42578500  1
  Rb  Rb7  1  0.51995800  0.10853600  0.77791300  1
  Rb  Rb8  1  0.54426400  0.47407800  0.66206600  1
  Rb  Rb9  1  0.04426400  0.52592200  0.83793400  1
  Rb  Rb10  1  0.01995800  0.89146400  0.72208700  1
  Rb  Rb11  1  0.52847800  0.25975100  0.07421500  1
  Ho  Ho12  1  0.00039600  0.83725400  0.05132700  1
  Ho  Ho13  1  0.50039600  0.16274600  0.44867300  1
  Ho  Ho14  1  0.49960400  0.83725400  0.55132700  1
  Ho  Ho15  1  0.99960400  0.16274600  0.94867300  1
  O  O16  1  0.12748900  0.29050200  0.04479500  1
  O  O17  1  0.81753300  0.00840600  0.07484500  1
  O  O18  1  0.66122300  0.28490300  0.29723600  1
  O  O19  1  0.16122300  0.71509700  0.20276400  1
  O  O20  1  0.31753300  0.99159400  0.42515500  1
  O  O21  1  0.62748900  0.70949800  0.45520500  1
  O  O22  1  0.37251100  0.29050200  0.54479500  1
  O  O23  1  0.68246700  0.00840600  0.57484500  1
  O  O24  1  0.83877700  0.28490300  0.79723600  1
  O  O25  1  0.33877700  0.71509700  0.70276400  1
  O  O26  1  0.18246700  0.99159400  0.92515500  1
  O  O27  1  0.87251100  0.70949800  0.95520500  1
