# generated using pymatgen
data_NbV3O8
_symmetry_space_group_name_H-M   'P 1'
_cell_length_a   6.01735867
_cell_length_b   5.98727846
_cell_length_c   9.38494591
_cell_angle_alpha   88.15710090
_cell_angle_beta   90.91683880
_cell_angle_gamma   119.83456809
_symmetry_Int_Tables_number   1
_chemical_formula_structural   NbV3O8
_chemical_formula_sum   'Nb2 V6 O16'
_cell_volume   293.15319271
_cell_formula_units_Z   2
loop_
 _symmetry_equiv_pos_site_id
 _symmetry_equiv_pos_as_xyz
  1  'x, y, z'
loop_
 _atom_site_type_symbol
 _atom_site_label
 _atom_site_symmetry_multiplicity
 _atom_site_fract_x
 _atom_site_fract_y
 _atom_site_fract_z
 _atom_site_occupancy
  Nb  Nb0  1  0.34536000  0.67869400  0.49950100  1
  Nb  Nb1  1  0.65464600  0.33333300  0.99950000  1
  V  V2  1  0.15841800  0.81714400  0.21934900  1
  V  V3  1  0.16717100  0.33956300  0.20465100  1
  V  V4  1  0.65711400  0.82114200  0.21813800  1
  V  V5  1  0.34287800  0.16401800  0.71813900  1
  V  V6  1  0.84156700  0.65871800  0.71934600  1
  V  V7  1  0.83284300  0.17240600  0.70465200  1
  O  O8  1  0.17611200  0.82923200  0.60288800  1
  O  O9  1  0.04729500  0.53220800  0.33673400  1
  O  O10  1  0.33674400  0.68212700  0.10653200  1
  O  O11  1  0.99836700  0.99553000  0.30155000  1
  O  O12  1  0.00163400  0.99716200  0.80155000  1
  O  O13  1  0.18299000  0.34182600  0.59727200  1
  O  O14  1  0.47787100  0.95483500  0.33635300  1
  O  O15  1  0.48768600  0.53361300  0.33538400  1
  O  O16  1  0.33565600  0.15957100  0.09951100  1
  O  O17  1  0.66434700  0.82392400  0.59951400  1
  O  O18  1  0.52212300  0.47696300  0.83634800  1
  O  O19  1  0.51232000  0.04593000  0.83538000  1
  O  O20  1  0.66325700  0.34538400  0.60653400  1
  O  O21  1  0.82387800  0.65311800  0.10288900  1
  O  O22  1  0.95270500  0.48491800  0.83673700  1
  O  O23  1  0.81701500  0.15884100  0.09727300  1
