# generated using pymatgen
data_MgAl2
_symmetry_space_group_name_H-M   'P 1'
_cell_length_a   13.38845547
_cell_length_b   13.38845547
_cell_length_c   13.38845547
_cell_angle_alpha   162.31644372
_cell_angle_beta   162.31644372
_cell_angle_gamma   25.10964236
_symmetry_Int_Tables_number   1
_chemical_formula_structural   MgAl2
_chemical_formula_sum   'Mg4 Al8'
_cell_volume   221.37286598
_cell_formula_units_Z   4
loop_
 _symmetry_equiv_pos_site_id
 _symmetry_equiv_pos_as_xyz
  1  'x, y, z'
loop_
 _atom_site_type_symbol
 _atom_site_label
 _atom_site_symmetry_multiplicity
 _atom_site_fract_x
 _atom_site_fract_y
 _atom_site_fract_z
 _atom_site_occupancy
  Mg  Mg0  1  0.83151400  0.33151400  0.50000000  1
  Mg  Mg1  1  0.91848600  0.91848600  0.00000000  1
  Mg  Mg2  1  0.66848600  0.16848600  0.50000000  1
  Mg  Mg3  1  0.08151400  0.08151400  0.00000000  1
  Al  Al4  1  0.00028900  0.50028900  0.50000000  1
  Al  Al5  1  0.74971100  0.74971100  0.00000000  1
  Al  Al6  1  0.49971100  0.99971100  0.50000000  1
  Al  Al7  1  0.25028900  0.25028900  0.00000000  1
  Al  Al8  1  0.16954100  0.66954100  0.50000000  1
  Al  Al9  1  0.58045900  0.58045900  0.00000000  1
  Al  Al10  1  0.33045900  0.83045900  0.50000000  1
  Al  Al11  1  0.41954100  0.41954100  0.00000000  1
