# generated using pymatgen
data_Pr2Al
_symmetry_space_group_name_H-M   'P 1'
_cell_length_a   5.31084500
_cell_length_b   6.82017300
_cell_length_c   9.92515400
_cell_angle_alpha   90.00000000
_cell_angle_beta   90.00000000
_cell_angle_gamma   90.00000000
_symmetry_Int_Tables_number   1
_chemical_formula_structural   Pr2Al
_chemical_formula_sum   'Pr8 Al4'
_cell_volume   359.49782865
_cell_formula_units_Z   4
loop_
 _symmetry_equiv_pos_site_id
 _symmetry_equiv_pos_as_xyz
  1  'x, y, z'
loop_
 _atom_site_type_symbol
 _atom_site_label
 _atom_site_symmetry_multiplicity
 _atom_site_fract_x
 _atom_site_fract_y
 _atom_site_fract_z
 _atom_site_occupancy
  Pr  Pr0  1  0.25000000  0.80616400  0.92293200  1
  Pr  Pr1  1  0.25000000  0.30616400  0.57706800  1
  Pr  Pr2  1  0.75000000  0.19383600  0.07706800  1
  Pr  Pr3  1  0.75000000  0.69383600  0.42293200  1
  Pr  Pr4  1  0.25000000  0.97728000  0.29801400  1
  Pr  Pr5  1  0.25000000  0.47728000  0.20198600  1
  Pr  Pr6  1  0.75000000  0.02272000  0.70198600  1
  Pr  Pr7  1  0.75000000  0.52272000  0.79801400  1
  Al  Al8  1  0.25000000  0.28910700  0.89802200  1
  Al  Al9  1  0.25000000  0.78910700  0.60197800  1
  Al  Al10  1  0.75000000  0.71089300  0.10197800  1
  Al  Al11  1  0.75000000  0.21089300  0.39802200  1
