# generated using pymatgen
data_AlPS4
_symmetry_space_group_name_H-M   'P 1'
_cell_length_a   5.75862000
_cell_length_b   5.75862000
_cell_length_c   9.67129400
_cell_angle_alpha   90.00000000
_cell_angle_beta   90.00000000
_cell_angle_gamma   90.00000000
_symmetry_Int_Tables_number   1
_chemical_formula_structural   AlPS4
_chemical_formula_sum   'Al2 P2 S8'
_cell_volume   320.71659187
_cell_formula_units_Z   2
loop_
 _symmetry_equiv_pos_site_id
 _symmetry_equiv_pos_as_xyz
  1  'x, y, z'
loop_
 _atom_site_type_symbol
 _atom_site_label
 _atom_site_symmetry_multiplicity
 _atom_site_fract_x
 _atom_site_fract_y
 _atom_site_fract_z
 _atom_site_occupancy
  Al  Al0  1  0.50000000  0.50000000  0.75000000  1
  Al  Al1  1  0.50000000  0.50000000  0.25000000  1
  P  P2  1  0.00000000  0.50000000  0.75000000  1
  P  P3  1  0.50000000  0.00000000  0.25000000  1
  S  S4  1  0.22351200  0.30324300  0.62958000  1
  S  S5  1  0.77648800  0.69675700  0.62958000  1
  S  S6  1  0.22351200  0.69675700  0.87042000  1
  S  S7  1  0.77648800  0.30324300  0.87042000  1
  S  S8  1  0.30324300  0.77648800  0.37042000  1
  S  S9  1  0.69675700  0.22351200  0.37042000  1
  S  S10  1  0.69675700  0.77648800  0.12958000  1
  S  S11  1  0.30324300  0.22351200  0.12958000  1
