# generated using pymatgen
data_Sn(PO3)3
_symmetry_space_group_name_H-M   'P 1'
_cell_length_a   6.80324698
_cell_length_b   6.80324698
_cell_length_c   10.57202000
_cell_angle_alpha   90.00000000
_cell_angle_beta   90.00000000
_cell_angle_gamma   120.00000957
_symmetry_Int_Tables_number   1
_chemical_formula_structural   Sn(PO3)3
_chemical_formula_sum   'Sn2 P6 O18'
_cell_volume   423.76105529
_cell_formula_units_Z   2
loop_
 _symmetry_equiv_pos_site_id
 _symmetry_equiv_pos_as_xyz
  1  'x, y, z'
loop_
 _atom_site_type_symbol
 _atom_site_label
 _atom_site_symmetry_multiplicity
 _atom_site_fract_x
 _atom_site_fract_y
 _atom_site_fract_z
 _atom_site_occupancy
  Sn  Sn0  1  0.00000000  0.00000000  0.50000000  1
  Sn  Sn1  1  0.00000000  0.00000000  0.00000000  1
  P  P2  1  0.71962600  0.11212000  0.77337400  1
  P  P3  1  0.88788000  0.28037400  0.22662600  1
  P  P4  1  0.71962600  0.60750600  0.22662600  1
  P  P5  1  0.88788000  0.60750600  0.77337400  1
  P  P6  1  0.39249400  0.28037400  0.77337400  1
  P  P7  1  0.39249400  0.11212000  0.22662600  1
  O  O8  1  0.90055200  0.52134700  0.21123800  1
  O  O9  1  0.90055200  0.37920500  0.78876200  1
  O  O10  1  0.47865300  0.09944800  0.78876200  1
  O  O11  1  0.62079500  0.09944800  0.21123800  1
  O  O12  1  0.73467300  0.02137600  0.64845600  1
  O  O13  1  0.74512600  0.99673100  0.89150600  1
  O  O14  1  0.47865300  0.37920500  0.21123800  1
  O  O15  1  0.73467300  0.71329800  0.35154400  1
  O  O16  1  0.74512600  0.74839600  0.10849400  1
  O  O17  1  0.62079500  0.52134700  0.78876200  1
  O  O18  1  0.97862400  0.26532700  0.35154400  1
  O  O19  1  0.00326900  0.25487400  0.10849400  1
  O  O20  1  0.25160400  0.25487400  0.89150600  1
  O  O21  1  0.28670200  0.26532700  0.64845600  1
  O  O22  1  0.00326900  0.74839600  0.89150600  1
  O  O23  1  0.97862400  0.71329800  0.64845600  1
  O  O24  1  0.25160400  0.99673100  0.10849400  1
  O  O25  1  0.28670200  0.02137600  0.35154400  1
