# generated using pymatgen
data_Rb2U(BrO)4
_symmetry_space_group_name_H-M   'P 1'
_cell_length_a   7.03767200
_cell_length_b   7.05912750
_cell_length_c   8.15854546
_cell_angle_alpha   73.37235123
_cell_angle_beta   81.39259113
_cell_angle_gamma   63.21157561
_symmetry_Int_Tables_number   1
_chemical_formula_structural   Rb2U(BrO)4
_chemical_formula_sum   'Rb2 U1 Br4 O4'
_cell_volume   346.58447338
_cell_formula_units_Z   1
loop_
 _symmetry_equiv_pos_site_id
 _symmetry_equiv_pos_as_xyz
  1  'x, y, z'
loop_
 _atom_site_type_symbol
 _atom_site_label
 _atom_site_symmetry_multiplicity
 _atom_site_fract_x
 _atom_site_fract_y
 _atom_site_fract_z
 _atom_site_occupancy
  Rb  Rb0  1  0.74834500  0.55337600  0.74188500  1
  Rb  Rb1  1  0.25165500  0.44662400  0.25811500  1
  U  U2  1  0.00000000  0.00000000  0.50000000  1
  Br  Br3  1  0.59120700  0.15573000  0.65025100  1
  Br  Br4  1  0.40879300  0.84427000  0.34974900  1
  Br  Br5  1  0.84962400  0.26578700  0.16449400  1
  Br  Br6  1  0.15037600  0.73421300  0.83550600  1
  O  O7  1  0.96792600  0.77200400  0.46739500  1
  O  O8  1  0.03207400  0.22799600  0.53260500  1
  O  O9  1  0.17020700  0.35175500  0.93141800  1
  O  O10  1  0.82979300  0.64824500  0.06858200  1
