# generated using pymatgen
data_HPb2IO2
_symmetry_space_group_name_H-M   'P 1'
_cell_length_a   4.28236200
_cell_length_b   8.15387286
_cell_length_c   9.97037482
_cell_angle_alpha   108.33607002
_cell_angle_beta   90.00000000
_cell_angle_gamma   105.22420361
_symmetry_Int_Tables_number   1
_chemical_formula_structural   HPb2IO2
_chemical_formula_sum   'H2 Pb4 I2 O4'
_cell_volume   317.57060165
_cell_formula_units_Z   2
loop_
 _symmetry_equiv_pos_site_id
 _symmetry_equiv_pos_as_xyz
  1  'x, y, z'
loop_
 _atom_site_type_symbol
 _atom_site_label
 _atom_site_symmetry_multiplicity
 _atom_site_fract_x
 _atom_site_fract_y
 _atom_site_fract_z
 _atom_site_occupancy
  H  H0  1  0.69237600  0.38475100  0.85982500  1
  H  H1  1  0.30762400  0.61524900  0.14017500  1
  Pb  Pb2  1  0.66631400  0.33262900  0.54968800  1
  Pb  Pb3  1  0.33368600  0.66737100  0.45031200  1
  Pb  Pb4  1  0.67513800  0.35027700  0.15312000  1
  Pb  Pb5  1  0.32486200  0.64972300  0.84688000  1
  I  I6  1  0.48867700  0.97735400  0.22925600  1
  I  I7  1  0.51132300  0.02264600  0.77074400  1
  O  O8  1  0.75062700  0.50125400  0.39210800  1
  O  O9  1  0.24937300  0.49874600  0.60789200  1
  O  O10  1  0.74757500  0.49515000  0.83419300  1
  O  O11  1  0.25242500  0.50485000  0.16580700  1
