# generated using pymatgen
data_Cr2Cu(NO2)4
_symmetry_space_group_name_H-M   'P 1'
_cell_length_a   6.02731500
_cell_length_b   7.17146612
_cell_length_c   7.91875461
_cell_angle_alpha   110.24739625
_cell_angle_beta   91.91357601
_cell_angle_gamma   107.57942039
_symmetry_Int_Tables_number   1
_chemical_formula_structural   Cr2Cu(NO2)4
_chemical_formula_sum   'Cr2 Cu1 N4 O8'
_cell_volume   302.47603885
_cell_formula_units_Z   1
loop_
 _symmetry_equiv_pos_site_id
 _symmetry_equiv_pos_as_xyz
  1  'x, y, z'
loop_
 _atom_site_type_symbol
 _atom_site_label
 _atom_site_symmetry_multiplicity
 _atom_site_fract_x
 _atom_site_fract_y
 _atom_site_fract_z
 _atom_site_occupancy
  Cr  Cr0  1  0.68850500  0.28592800  0.21202100  1
  Cr  Cr1  1  0.31149500  0.71407200  0.78797900  1
  Cu  Cu2  1  0.00000000  0.00000000  0.00000000  1
  N  N3  1  0.03172600  0.99364000  0.23843300  1
  N  N4  1  0.96827400  0.00636000  0.76156700  1
  N  N5  1  0.35483500  0.64947400  0.26410100  1
  N  N6  1  0.64516500  0.35052600  0.73589900  1
  O  O7  1  0.61915400  0.14722300  0.34007700  1
  O  O8  1  0.38084600  0.85277700  0.65992300  1
  O  O9  1  0.44407200  0.23957500  0.07644700  1
  O  O10  1  0.55592800  0.76042500  0.92355300  1
  O  O11  1  0.90809000  0.22929800  0.08637000  1
  O  O12  1  0.09191000  0.77070200  0.91363000  1
  O  O13  1  0.78273800  0.53632200  0.34264700  1
  O  O14  1  0.21726200  0.46367800  0.65735300  1
