# generated using pymatgen
data_Mn(IO2)2
_symmetry_space_group_name_H-M   'P 1'
_cell_length_a   7.53981500
_cell_length_b   6.16600600
_cell_length_c   6.75064110
_cell_angle_alpha   61.65757098
_cell_angle_beta   90.00000000
_cell_angle_gamma   90.00000000
_symmetry_Int_Tables_number   1
_chemical_formula_structural   Mn(IO2)2
_chemical_formula_sum   'Mn2 I4 O8'
_cell_volume   276.21961862
_cell_formula_units_Z   2
loop_
 _symmetry_equiv_pos_site_id
 _symmetry_equiv_pos_as_xyz
  1  'x, y, z'
loop_
 _atom_site_type_symbol
 _atom_site_label
 _atom_site_symmetry_multiplicity
 _atom_site_fract_x
 _atom_site_fract_y
 _atom_site_fract_z
 _atom_site_occupancy
  Mn  Mn0  1  0.50000000  0.00000000  0.50000000  1
  Mn  Mn1  1  0.00000000  0.00000000  0.00000000  1
  I  I2  1  0.93915600  0.64407300  0.60745600  1
  I  I3  1  0.43915600  0.35592700  0.89254400  1
  I  I4  1  0.06084400  0.35592700  0.39254400  1
  I  I5  1  0.56084400  0.64407300  0.10745600  1
  O  O6  1  0.55949400  0.93678900  0.79437600  1
  O  O7  1  0.05949400  0.06321100  0.70562400  1
  O  O8  1  0.44050600  0.06321100  0.20562400  1
  O  O9  1  0.94050600  0.93678900  0.29437600  1
  O  O10  1  0.41307400  0.67770000  0.61177500  1
  O  O11  1  0.91307400  0.32230000  0.88822500  1
  O  O12  1  0.58692600  0.32230000  0.38822500  1
  O  O13  1  0.08692600  0.67770000  0.11177500  1
