# generated using pymatgen
data_IrN7ClO6
_symmetry_space_group_name_H-M   'P 1'
_cell_length_a   7.51762621
_cell_length_b   7.51762621
_cell_length_c   7.51762621
_cell_angle_alpha   120.21882218
_cell_angle_beta   120.21882218
_cell_angle_gamma   89.62140488
_symmetry_Int_Tables_number   1
_chemical_formula_structural   IrN7ClO6
_chemical_formula_sum   'Ir1 N7 Cl1 O6'
_cell_volume   299.41813683
_cell_formula_units_Z   1
loop_
 _symmetry_equiv_pos_site_id
 _symmetry_equiv_pos_as_xyz
  1  'x, y, z'
loop_
 _atom_site_type_symbol
 _atom_site_label
 _atom_site_symmetry_multiplicity
 _atom_site_fract_x
 _atom_site_fract_y
 _atom_site_fract_z
 _atom_site_occupancy
  Ir  Ir0  1  0.83063100  0.83063100  0.00000000  1
  N  N1  1  0.66895400  0.66895400  0.00000000  1
  N  N2  1  0.70257100  0.06019600  0.01053000  1
  N  N3  1  0.04966600  0.69204100  0.98947000  1
  N  N4  1  0.69204100  0.70257100  0.64237500  1
  N  N5  1  0.06019600  0.04966600  0.35762500  1
  N  N6  1  0.61570200  0.11570200  0.50000000  1
  N  N7  1  0.11570200  0.61570200  0.50000000  1
  Cl  Cl8  1  0.07700700  0.07700700  0.00000000  1
  O  O9  1  0.73361400  0.23361400  0.50000000  1
  O  O10  1  0.23361400  0.73361400  0.50000000  1
  O  O11  1  0.63339800  0.18187400  0.69952100  1
  O  O12  1  0.48235300  0.93387700  0.30047900  1
  O  O13  1  0.93387700  0.63339800  0.45152400  1
  O  O14  1  0.18187400  0.48235300  0.54847600  1
