# generated using pymatgen
data_Rb3Na(WO4)2
_symmetry_space_group_name_H-M   'P 1'
_cell_length_a   6.35799389
_cell_length_b   6.35822269
_cell_length_c   8.02292701
_cell_angle_alpha   89.99999821
_cell_angle_beta   90.00444490
_cell_angle_gamma   120.00117881
_symmetry_Int_Tables_number   1
_chemical_formula_structural   Rb3Na(WO4)2
_chemical_formula_sum   'Rb3 Na1 W2 O8'
_cell_volume   280.87569040
_cell_formula_units_Z   1
loop_
 _symmetry_equiv_pos_site_id
 _symmetry_equiv_pos_as_xyz
  1  'x, y, z'
loop_
 _atom_site_type_symbol
 _atom_site_label
 _atom_site_symmetry_multiplicity
 _atom_site_fract_x
 _atom_site_fract_y
 _atom_site_fract_z
 _atom_site_occupancy
  Rb  Rb0  1  0.00000000  0.00000000  0.50000000  1
  Rb  Rb1  1  0.33338500  0.66669200  0.83138700  1
  Rb  Rb2  1  0.66661500  0.33330800  0.16861300  1
  Na  Na3  1  0.00000000  0.00000000  0.00000000  1
  W  W4  1  0.33335800  0.66667900  0.27634600  1
  W  W5  1  0.66664200  0.33332100  0.72365400  1
  O  O6  1  0.17850800  0.82152200  0.19537900  1
  O  O7  1  0.17850800  0.35698600  0.19537900  1
  O  O8  1  0.64302900  0.82151400  0.19536400  1
  O  O9  1  0.82149200  0.17847800  0.80462100  1
  O  O10  1  0.82149200  0.64301400  0.80462100  1
  O  O11  1  0.35697100  0.17848600  0.80463600  1
  O  O12  1  0.33339400  0.66669700  0.50135900  1
  O  O13  1  0.66660600  0.33330300  0.49864100  1
