# generated using pymatgen
data_Y(Mo3S4)2
_symmetry_space_group_name_H-M   'P 1'
_cell_length_a   6.50632029
_cell_length_b   6.50632029
_cell_length_c   6.50632085
_cell_angle_alpha   89.45938020
_cell_angle_beta   89.45938020
_cell_angle_gamma   89.45937816
_symmetry_Int_Tables_number   1
_chemical_formula_structural   Y(Mo3S4)2
_chemical_formula_sum   'Y1 Mo6 S8'
_cell_volume   275.39034802
_cell_formula_units_Z   1
loop_
 _symmetry_equiv_pos_site_id
 _symmetry_equiv_pos_as_xyz
  1  'x, y, z'
loop_
 _atom_site_type_symbol
 _atom_site_label
 _atom_site_symmetry_multiplicity
 _atom_site_fract_x
 _atom_site_fract_y
 _atom_site_fract_z
 _atom_site_occupancy
  Y  Y0  1  0.00000000  0.00000000  0.00000000  1
  Mo  Mo1  1  0.77645700  0.58002200  0.43988400  1
  Mo  Mo2  1  0.43988400  0.77645700  0.58002200  1
  Mo  Mo3  1  0.58002200  0.43988400  0.77645700  1
  Mo  Mo4  1  0.22354300  0.41997800  0.56011600  1
  Mo  Mo5  1  0.56011600  0.22354300  0.41997800  1
  Mo  Mo6  1  0.41997800  0.56011600  0.22354300  1
  S  S7  1  0.76183100  0.76183100  0.76183100  1
  S  S8  1  0.23816900  0.23816900  0.23816900  1
  S  S9  1  0.24812900  0.63105900  0.87149500  1
  S  S10  1  0.87149500  0.24812900  0.63105900  1
  S  S11  1  0.63105900  0.87149500  0.24812900  1
  S  S12  1  0.75187100  0.36894100  0.12850500  1
  S  S13  1  0.12850500  0.75187100  0.36894100  1
  S  S14  1  0.36894100  0.12850500  0.75187100  1
