# generated using pymatgen
data_Ni(SO6)2
_symmetry_space_group_name_H-M   'P 1'
_cell_length_a   6.38594930
_cell_length_b   7.62462570
_cell_length_c   7.21363654
_cell_angle_alpha   68.75689741
_cell_angle_beta   85.44099047
_cell_angle_gamma   97.50645095
_symmetry_Int_Tables_number   1
_chemical_formula_structural   Ni(SO6)2
_chemical_formula_sum   'Ni1 S2 O12'
_cell_volume   321.49283784
_cell_formula_units_Z   1
loop_
 _symmetry_equiv_pos_site_id
 _symmetry_equiv_pos_as_xyz
  1  'x, y, z'
loop_
 _atom_site_type_symbol
 _atom_site_label
 _atom_site_symmetry_multiplicity
 _atom_site_fract_x
 _atom_site_fract_y
 _atom_site_fract_z
 _atom_site_occupancy
  Ni  Ni0  1  0.00000000  0.00000000  0.00000000  1
  S  S1  1  0.49219900  0.69182500  0.56819400  1
  S  S2  1  0.50780100  0.30817500  0.43180600  1
  O  O3  1  0.32786700  0.58616600  0.73381800  1
  O  O4  1  0.67213300  0.41383400  0.26618200  1
  O  O5  1  0.43642900  0.78231600  0.36958800  1
  O  O6  1  0.56357100  0.21768400  0.63041200  1
  O  O7  1  0.71335800  0.70353000  0.59520900  1
  O  O8  1  0.28664200  0.29647000  0.40479100  1
  O  O9  1  0.08043500  0.20641200  0.07163700  1
  O  O10  1  0.91956500  0.79358800  0.92836300  1
  O  O11  1  0.95253300  0.07867800  0.74058300  1
  O  O12  1  0.04746700  0.92132200  0.25941700  1
  O  O13  1  0.76875900  0.08330600  0.07776800  1
  O  O14  1  0.23124100  0.91669400  0.92223200  1
