# generated using pymatgen
data_FeCuAs2PbO10
_symmetry_space_group_name_H-M   'P 1'
_cell_length_a   5.47468386
_cell_length_b   5.67703722
_cell_length_c   7.71167826
_cell_angle_alpha   107.50141633
_cell_angle_beta   95.84951182
_cell_angle_gamma   111.87455331
_symmetry_Int_Tables_number   1
_chemical_formula_structural   FeCuAs2PbO10
_chemical_formula_sum   'Fe1 Cu1 As2 Pb1 O10'
_cell_volume   205.83432496
_cell_formula_units_Z   1
loop_
 _symmetry_equiv_pos_site_id
 _symmetry_equiv_pos_as_xyz
  1  'x, y, z'
loop_
 _atom_site_type_symbol
 _atom_site_label
 _atom_site_symmetry_multiplicity
 _atom_site_fract_x
 _atom_site_fract_y
 _atom_site_fract_z
 _atom_site_occupancy
  Fe  Fe0  1  0.00000000  0.00000000  0.50000000  1
  Cu  Cu1  1  0.50000000  0.50000000  0.50000000  1
  As  As2  1  0.59852700  0.22105200  0.78548300  1
  As  As3  1  0.40147300  0.77894800  0.21451700  1
  Pb  Pb4  1  0.00000000  0.00000000  0.00000000  1
  O  O5  1  0.81947700  0.61202900  0.43555700  1
  O  O6  1  0.18052300  0.38797100  0.56444300  1
  O  O7  1  0.72909700  0.00467200  0.66259300  1
  O  O8  1  0.27090300  0.99532800  0.33740700  1
  O  O9  1  0.75390800  0.95874600  0.27371600  1
  O  O10  1  0.24609200  0.04125400  0.72628400  1
  O  O11  1  0.31352200  0.48596500  0.27166100  1
  O  O12  1  0.68647800  0.51403500  0.72833900  1
  O  O13  1  0.72096800  0.30709900  0.01616900  1
  O  O14  1  0.27903200  0.69290100  0.98383100  1
