# generated using pymatgen
data_RbBi2Br7
_symmetry_space_group_name_H-M   'P 1'
_cell_length_a   7.81959800
_cell_length_b   9.84903813
_cell_length_c   10.70384992
_cell_angle_alpha   75.94300743
_cell_angle_beta   83.93770154
_cell_angle_gamma   76.55232071
_symmetry_Int_Tables_number   1
_chemical_formula_structural   RbBi2Br7
_chemical_formula_sum   'Rb2 Bi4 Br14'
_cell_volume   776.69669416
_cell_formula_units_Z   2
loop_
 _symmetry_equiv_pos_site_id
 _symmetry_equiv_pos_as_xyz
  1  'x, y, z'
loop_
 _atom_site_type_symbol
 _atom_site_label
 _atom_site_symmetry_multiplicity
 _atom_site_fract_x
 _atom_site_fract_y
 _atom_site_fract_z
 _atom_site_occupancy
  Rb  Rb0  1  0.38839200  0.86028300  0.30670500  1
  Rb  Rb1  1  0.61160800  0.13971700  0.69329500  1
  Bi  Bi2  1  0.87064200  0.64252400  0.62444200  1
  Bi  Bi3  1  0.12935800  0.35747600  0.37555800  1
  Bi  Bi4  1  0.30835100  0.70525300  0.93363000  1
  Bi  Bi5  1  0.69164900  0.29474700  0.06637000  1
  Br  Br6  1  0.87440600  0.86881300  0.42502200  1
  Br  Br7  1  0.12559400  0.13118700  0.57497800  1
  Br  Br8  1  0.96554100  0.79279300  0.79248200  1
  Br  Br9  1  0.03445900  0.20720700  0.20751800  1
  Br  Br10  1  0.50527900  0.77284700  0.66793400  1
  Br  Br11  1  0.49472100  0.22715300  0.33206600  1
  Br  Br12  1  0.76564800  0.48450400  0.45154000  1
  Br  Br13  1  0.23435200  0.51549600  0.54846000  1
  Br  Br14  1  0.88354400  0.34880200  0.83263600  1
  Br  Br15  1  0.11645600  0.65119800  0.16736400  1
  Br  Br16  1  0.27724400  0.97829200  0.94559300  1
  Br  Br17  1  0.72275600  0.02170800  0.05440700  1
  Br  Br18  1  0.61817700  0.62256900  0.06690700  1
  Br  Br19  1  0.38182300  0.37743100  0.93309300  1
