# generated using pymatgen
data_Sc2MnNiO6
_symmetry_space_group_name_H-M   'P 1'
_cell_length_a   5.05269453
_cell_length_b   5.38846200
_cell_length_c   7.50071000
_cell_angle_alpha   89.99998173
_cell_angle_beta   90.79277284
_cell_angle_gamma   89.99979177
_symmetry_Int_Tables_number   1
_chemical_formula_structural   Sc2MnNiO6
_chemical_formula_sum   'Sc4 Mn2 Ni2 O12'
_cell_volume   204.19667586
_cell_formula_units_Z   2
loop_
 _symmetry_equiv_pos_site_id
 _symmetry_equiv_pos_as_xyz
  1  'x, y, z'
loop_
 _atom_site_type_symbol
 _atom_site_label
 _atom_site_symmetry_multiplicity
 _atom_site_fract_x
 _atom_site_fract_y
 _atom_site_fract_z
 _atom_site_occupancy
  Sc  Sc0  1  0.52780600  0.57314000  0.24558300  1
  Sc  Sc1  1  0.02780600  0.92685900  0.74558000  1
  Sc  Sc2  1  0.47219100  0.42686100  0.75441600  1
  Sc  Sc3  1  0.97219500  0.07314900  0.25442300  1
  Mn  Mn4  1  0.00000300  0.49999700  0.00001600  1
  Mn  Mn5  1  0.49999200  0.00000400  0.49999600  1
  Ni  Ni6  1  0.99999400  0.50000700  0.49999500  1
  Ni  Ni7  1  0.49999900  0.99999500  0.99999400  1
  O  O8  1  0.14099300  0.43802200  0.23896200  1
  O  O9  1  0.64099400  0.06198000  0.73896900  1
  O  O10  1  0.85901100  0.56198000  0.76103700  1
  O  O11  1  0.35900800  0.93801300  0.26102900  1
  O  O12  1  0.30537100  0.68365200  0.93421400  1
  O  O13  1  0.80536900  0.81634100  0.43421100  1
  O  O14  1  0.69463400  0.31634600  0.06578500  1
  O  O15  1  0.19463200  0.18365600  0.56579000  1
  O  O16  1  0.82277300  0.79840200  0.07767700  1
  O  O17  1  0.32276800  0.70160100  0.57768100  1
  O  O18  1  0.17722900  0.20159600  0.92232000  1
  O  O19  1  0.67723300  0.29839900  0.42232200  1
