# generated using pymatgen
data_BH5NCl
_symmetry_space_group_name_H-M   'P 1'
_cell_length_a   4.68170750
_cell_length_b   4.68170750
_cell_length_c   8.67051100
_cell_angle_alpha   90.00000000
_cell_angle_beta   90.00000000
_cell_angle_gamma   98.01214440
_symmetry_Int_Tables_number   1
_chemical_formula_structural   BH5NCl
_chemical_formula_sum   'B2 H10 N2 Cl2'
_cell_volume   188.18849799
_cell_formula_units_Z   2
loop_
 _symmetry_equiv_pos_site_id
 _symmetry_equiv_pos_as_xyz
  1  'x, y, z'
loop_
 _atom_site_type_symbol
 _atom_site_label
 _atom_site_symmetry_multiplicity
 _atom_site_fract_x
 _atom_site_fract_y
 _atom_site_fract_z
 _atom_site_occupancy
  B  B0  1  0.14623000  0.14623000  0.52057700  1
  B  B1  1  0.85377000  0.85377000  0.02057700  1
  H  H2  1  0.79534600  0.79534600  0.54512700  1
  H  H3  1  0.20465400  0.20465400  0.04512700  1
  H  H4  1  0.98853200  0.75331700  0.38949800  1
  H  H5  1  0.75331700  0.98853200  0.38949800  1
  H  H6  1  0.01146800  0.24668300  0.88949800  1
  H  H7  1  0.24668300  0.01146800  0.88949800  1
  H  H8  1  0.03000600  0.31775700  0.59296300  1
  H  H9  1  0.31775700  0.03000600  0.59296300  1
  H  H10  1  0.96999400  0.68224300  0.09296300  1
  H  H11  1  0.68224300  0.96999400  0.09296300  1
  N  N12  1  0.90406700  0.90406700  0.45513800  1
  N  N13  1  0.09593300  0.09593300  0.95513800  1
  Cl  Cl14  1  0.33928900  0.33928900  0.34897600  1
  Cl  Cl15  1  0.66071100  0.66071100  0.84897600  1
