# generated using pymatgen
data_Lu3Mg
_symmetry_space_group_name_H-M   'P 1'
_cell_length_a   6.86429401
_cell_length_b   6.86429401
_cell_length_c   5.47131700
_cell_angle_alpha   90.00000000
_cell_angle_beta   90.00000000
_cell_angle_gamma   120.00000014
_symmetry_Int_Tables_number   1
_chemical_formula_structural   Lu3Mg
_chemical_formula_sum   'Lu6 Mg2'
_cell_volume   223.26171848
_cell_formula_units_Z   2
loop_
 _symmetry_equiv_pos_site_id
 _symmetry_equiv_pos_as_xyz
  1  'x, y, z'
loop_
 _atom_site_type_symbol
 _atom_site_label
 _atom_site_symmetry_multiplicity
 _atom_site_fract_x
 _atom_site_fract_y
 _atom_site_fract_z
 _atom_site_occupancy
  Lu  Lu0  1  0.16835600  0.33671300  0.25000000  1
  Lu  Lu1  1  0.16835600  0.83164400  0.25000000  1
  Lu  Lu2  1  0.66328700  0.83164400  0.25000000  1
  Lu  Lu3  1  0.33671300  0.16835600  0.75000000  1
  Lu  Lu4  1  0.83164400  0.16835600  0.75000000  1
  Lu  Lu5  1  0.83164400  0.66328700  0.75000000  1
  Mg  Mg6  1  0.66666700  0.33333300  0.25000000  1
  Mg  Mg7  1  0.33333300  0.66666700  0.75000000  1
