# generated using pymatgen
data_La(ReB)4
_symmetry_space_group_name_H-M   'P 1'
_cell_length_a   5.44218600
_cell_length_b   5.44218600
_cell_length_c   7.72012300
_cell_angle_alpha   90.00000000
_cell_angle_beta   90.00000000
_cell_angle_gamma   90.00000000
_symmetry_Int_Tables_number   1
_chemical_formula_structural   La(ReB)4
_chemical_formula_sum   'La2 Re8 B8'
_cell_volume   228.64988184
_cell_formula_units_Z   2
loop_
 _symmetry_equiv_pos_site_id
 _symmetry_equiv_pos_as_xyz
  1  'x, y, z'
loop_
 _atom_site_type_symbol
 _atom_site_label
 _atom_site_symmetry_multiplicity
 _atom_site_fract_x
 _atom_site_fract_y
 _atom_site_fract_z
 _atom_site_occupancy
  La  La0  1  0.00000000  0.00000000  0.00000000  1
  La  La1  1  0.50000000  0.50000000  0.50000000  1
  Re  Re2  1  0.25182600  0.50000000  0.86291000  1
  Re  Re3  1  0.74817400  0.50000000  0.86291000  1
  Re  Re4  1  0.00000000  0.75182600  0.36291000  1
  Re  Re5  1  0.00000000  0.24817400  0.36291000  1
  Re  Re6  1  0.24817400  0.00000000  0.63709000  1
  Re  Re7  1  0.75182600  0.00000000  0.63709000  1
  Re  Re8  1  0.50000000  0.74817400  0.13709000  1
  Re  Re9  1  0.50000000  0.25182600  0.13709000  1
  B  B10  1  0.82994200  0.50000000  0.14600700  1
  B  B11  1  0.17005800  0.50000000  0.14600700  1
  B  B12  1  0.00000000  0.32994200  0.64600700  1
  B  B13  1  0.00000000  0.67005800  0.64600700  1
  B  B14  1  0.67005800  0.00000000  0.35399300  1
  B  B15  1  0.32994200  0.00000000  0.35399300  1
  B  B16  1  0.50000000  0.17005800  0.85399300  1
  B  B17  1  0.50000000  0.82994200  0.85399300  1
