# generated using pymatgen
data_TeMoWS3
_symmetry_space_group_name_H-M   'P 1'
_cell_length_a   3.27368133
_cell_length_b   3.27368133
_cell_length_c   37.23453800
_cell_angle_alpha   90.00000000
_cell_angle_beta   90.00000000
_cell_angle_gamma   119.99998642
_symmetry_Int_Tables_number   1
_chemical_formula_structural   TeMoWS3
_chemical_formula_sum   'Te2 Mo2 W2 S6'
_cell_volume   345.58068677
_cell_formula_units_Z   2
loop_
 _symmetry_equiv_pos_site_id
 _symmetry_equiv_pos_as_xyz
  1  'x, y, z'
loop_
 _atom_site_type_symbol
 _atom_site_label
 _atom_site_symmetry_multiplicity
 _atom_site_fract_x
 _atom_site_fract_y
 _atom_site_fract_z
 _atom_site_occupancy
  Te  Te0  1  0.33333300  0.66666700  0.33393600  1
  Te  Te1  1  0.33333300  0.66666700  0.22965500  1
  Mo  Mo2  1  0.33333300  0.66666700  0.09386600  1
  Mo  Mo3  1  0.33333300  0.66666700  0.46972100  1
  W  W4  1  0.66666700  0.33333300  0.28179800  1
  W  W5  1  0.66666700  0.33333300  0.65753400  1
  S  S6  1  0.33333300  0.66666700  0.69906600  1
  S  S7  1  0.66666700  0.33333300  0.05254900  1
  S  S8  1  0.66666700  0.33333300  0.42837500  1
  S  S9  1  0.66666700  0.33333300  0.13522300  1
  S  S10  1  0.66666700  0.33333300  0.51102800  1
  S  S11  1  0.33333300  0.66666700  0.61599600  1
