# generated using pymatgen
data_Rb2LiVF6
_symmetry_space_group_name_H-M   'P 1'
_cell_length_a   5.90009800
_cell_length_b   5.90009735
_cell_length_c   5.90009714
_cell_angle_alpha   59.99999965
_cell_angle_beta   59.99999519
_cell_angle_gamma   59.99999634
_symmetry_Int_Tables_number   1
_chemical_formula_structural   Rb2LiVF6
_chemical_formula_sum   'Rb2 Li1 V1 F6'
_cell_volume   145.23207352
_cell_formula_units_Z   1
loop_
 _symmetry_equiv_pos_site_id
 _symmetry_equiv_pos_as_xyz
  1  'x, y, z'
loop_
 _atom_site_type_symbol
 _atom_site_label
 _atom_site_symmetry_multiplicity
 _atom_site_fract_x
 _atom_site_fract_y
 _atom_site_fract_z
 _atom_site_occupancy
  Rb  Rb0  1  0.25000000  0.25000000  0.25000000  1
  Rb  Rb1  1  0.75000000  0.75000000  0.75000000  1
  Li  Li2  1  0.50000000  0.50000000  0.50000000  1
  V  V3  1  0.00000000  0.00000000  0.00000000  1
  F  F4  1  0.23694000  0.76306000  0.23694000  1
  F  F5  1  0.76306000  0.76306000  0.23694000  1
  F  F6  1  0.76306000  0.23694000  0.76306000  1
  F  F7  1  0.76306000  0.23694000  0.23694000  1
  F  F8  1  0.23694000  0.76306000  0.76306000  1
  F  F9  1  0.23694000  0.23694000  0.76306000  1
