# generated using pymatgen
data_NaCo2BiO6
_symmetry_space_group_name_H-M   'P 1'
_cell_length_a   5.63294482
_cell_length_b   5.63294482
_cell_length_c   5.63294526
_cell_angle_alpha   56.82030304
_cell_angle_beta   56.82030304
_cell_angle_gamma   56.82030767
_symmetry_Int_Tables_number   1
_chemical_formula_structural   NaCo2BiO6
_chemical_formula_sum   'Na1 Co2 Bi1 O6'
_cell_volume   117.10963938
_cell_formula_units_Z   1
loop_
 _symmetry_equiv_pos_site_id
 _symmetry_equiv_pos_as_xyz
  1  'x, y, z'
loop_
 _atom_site_type_symbol
 _atom_site_label
 _atom_site_symmetry_multiplicity
 _atom_site_fract_x
 _atom_site_fract_y
 _atom_site_fract_z
 _atom_site_occupancy
  Na  Na0  1  0.28227400  0.28227400  0.28227400  1
  Co  Co1  1  0.01027000  0.01027000  0.01027000  1
  Co  Co2  1  0.51045900  0.51045900  0.51045900  1
  Bi  Bi3  1  0.79782700  0.79782700  0.79782700  1
  O  O4  1  0.12666700  0.73785400  0.37679300  1
  O  O5  1  0.37679300  0.12666700  0.73785400  1
  O  O6  1  0.73785400  0.37679300  0.12666700  1
  O  O7  1  0.23007500  0.66424300  0.82933900  1
  O  O8  1  0.66424300  0.82933900  0.23007500  1
  O  O9  1  0.82933900  0.23007500  0.66424300  1
