# generated using pymatgen
data_Rb2MnAuF6
_symmetry_space_group_name_H-M   'P 1'
_cell_length_a   6.25209900
_cell_length_b   6.25209876
_cell_length_c   6.25209873
_cell_angle_alpha   59.99999850
_cell_angle_beta   59.99999326
_cell_angle_gamma   59.99999346
_symmetry_Int_Tables_number   1
_chemical_formula_structural   Rb2MnAuF6
_chemical_formula_sum   'Rb2 Mn1 Au1 F6'
_cell_volume   172.80744824
_cell_formula_units_Z   1
loop_
 _symmetry_equiv_pos_site_id
 _symmetry_equiv_pos_as_xyz
  1  'x, y, z'
loop_
 _atom_site_type_symbol
 _atom_site_label
 _atom_site_symmetry_multiplicity
 _atom_site_fract_x
 _atom_site_fract_y
 _atom_site_fract_z
 _atom_site_occupancy
  Rb  Rb0  1  0.25000000  0.25000000  0.25000000  1
  Rb  Rb1  1  0.75000000  0.75000000  0.75000000  1
  Mn  Mn2  1  0.00000000  0.00000000  0.00000000  1
  Au  Au3  1  0.50000000  0.50000000  0.50000000  1
  F  F4  1  0.22281300  0.77718700  0.22281300  1
  F  F5  1  0.77718700  0.77718700  0.22281300  1
  F  F6  1  0.77718700  0.22281300  0.77718700  1
  F  F7  1  0.77718700  0.22281300  0.22281300  1
  F  F8  1  0.22281300  0.77718700  0.77718700  1
  F  F9  1  0.22281300  0.22281300  0.77718700  1
