# generated using pymatgen
data_Rb2TlCrF6
_symmetry_space_group_name_H-M   'P 1'
_cell_length_a   6.48794000
_cell_length_b   6.48794012
_cell_length_c   6.48794015
_cell_angle_alpha   60.00000058
_cell_angle_beta   60.00000079
_cell_angle_gamma   60.00000063
_symmetry_Int_Tables_number   1
_chemical_formula_structural   Rb2TlCrF6
_chemical_formula_sum   'Rb2 Tl1 Cr1 F6'
_cell_volume   193.11032821
_cell_formula_units_Z   1
loop_
 _symmetry_equiv_pos_site_id
 _symmetry_equiv_pos_as_xyz
  1  'x, y, z'
loop_
 _atom_site_type_symbol
 _atom_site_label
 _atom_site_symmetry_multiplicity
 _atom_site_fract_x
 _atom_site_fract_y
 _atom_site_fract_z
 _atom_site_occupancy
  Rb  Rb0  1  0.25000000  0.25000000  0.25000000  1
  Rb  Rb1  1  0.75000000  0.75000000  0.75000000  1
  Tl  Tl2  1  0.50000000  0.50000000  0.50000000  1
  Cr  Cr3  1  0.00000000  0.00000000  0.00000000  1
  F  F4  1  0.21154400  0.78845600  0.21154400  1
  F  F5  1  0.78845600  0.78845600  0.21154400  1
  F  F6  1  0.78845600  0.21154400  0.78845600  1
  F  F7  1  0.78845600  0.21154400  0.21154400  1
  F  F8  1  0.21154400  0.78845600  0.78845600  1
  F  F9  1  0.21154400  0.21154400  0.78845600  1
