# generated using pymatgen
data_Al4Si2Ni13(SbO14)2
_symmetry_space_group_name_H-M   'P 1'
_cell_length_a   11.62761389
_cell_length_b   11.62761389
_cell_length_c   8.79156088
_cell_angle_alpha   87.50770190
_cell_angle_beta   87.50770190
_cell_angle_gamma   152.95714213
_symmetry_Int_Tables_number   1
_chemical_formula_structural   Al4Si2Ni13(SbO14)2
_chemical_formula_sum   'Al4 Si2 Ni13 Sb2 O28'
_cell_volume   530.99043112
_cell_formula_units_Z   1
loop_
 _symmetry_equiv_pos_site_id
 _symmetry_equiv_pos_as_xyz
  1  'x, y, z'
loop_
 _atom_site_type_symbol
 _atom_site_label
 _atom_site_symmetry_multiplicity
 _atom_site_fract_x
 _atom_site_fract_y
 _atom_site_fract_z
 _atom_site_occupancy
  Al  Al0  1  0.50958400  0.93898600  0.32768100  1
  Al  Al1  1  0.06101400  0.49041600  0.67231900  1
  Al  Al2  1  0.49041600  0.06101400  0.67231900  1
  Al  Al3  1  0.93898600  0.50958400  0.32768100  1
  Si  Si4  1  0.76316400  0.76316400  0.68988600  1
  Si  Si5  1  0.23683600  0.23683600  0.31011400  1
  Ni  Ni6  1  0.36000900  0.07234600  0.35913700  1
  Ni  Ni7  1  0.20743400  0.34606400  0.64766500  1
  Ni  Ni8  1  0.92765400  0.63999100  0.64086300  1
  Ni  Ni9  1  0.63999100  0.92765400  0.64086300  1
  Ni  Ni10  1  0.79256600  0.65393600  0.35233500  1
  Ni  Ni11  1  0.28725300  0.71274700  0.00000000  1
  Ni  Ni12  1  0.65393600  0.79256600  0.35233500  1
  Ni  Ni13  1  0.00000000  0.00000000  0.00000000  1
  Ni  Ni14  1  0.42797900  0.57202100  0.00000000  1
  Ni  Ni15  1  0.34606400  0.20743400  0.64766500  1
  Ni  Ni16  1  0.07234600  0.36000900  0.35913700  1
  Ni  Ni17  1  0.57202100  0.42797900  0.00000000  1
  Ni  Ni18  1  0.71274700  0.28725300  0.00000000  1
  Sb  Sb19  1  0.85976200  0.14023800  0.00000000  1
  Sb  Sb20  1  0.14023800  0.85976200  0.00000000  1
  O  O21  1  0.01718500  0.31500400  0.60042200  1
  O  O22  1  0.38220700  0.82735900  0.63460800  1
  O  O23  1  0.06605900  0.06605900  0.64458200  1
  O  O24  1  0.68959800  0.68959800  0.87967900  1
  O  O25  1  0.61779300  0.17264100  0.36539200  1
  O  O26  1  0.98281500  0.68499600  0.39957800  1
  O  O27  1  0.40659300  0.98680600  0.88243500  1
  O  O28  1  0.59340700  0.01319400  0.11756500  1
  O  O29  1  0.31040200  0.31040200  0.12032100  1
  O  O30  1  0.72587300  0.87468300  0.11858300  1
  O  O31  1  0.59206500  0.71232700  0.61650400  1
  O  O32  1  0.68499600  0.98281500  0.39957800  1
  O  O33  1  0.01319400  0.59340700  0.11756500  1
  O  O34  1  0.12531700  0.27412700  0.88141700  1
  O  O35  1  0.28767300  0.40793500  0.38349600  1
  O  O36  1  0.93394100  0.93394100  0.35541800  1
  O  O37  1  0.87468300  0.72587300  0.11858300  1
  O  O38  1  0.27412700  0.12531700  0.88141700  1
  O  O39  1  0.98680600  0.40659300  0.88243500  1
  O  O40  1  0.57703200  0.86411100  0.87765200  1
  O  O41  1  0.42296800  0.13588900  0.12234800  1
  O  O42  1  0.71232700  0.59206500  0.61650400  1
  O  O43  1  0.86411100  0.57703200  0.87765200  1
  O  O44  1  0.82735900  0.38220700  0.63460800  1
  O  O45  1  0.40793500  0.28767300  0.38349600  1
  O  O46  1  0.13588900  0.42296800  0.12234800  1
  O  O47  1  0.31500400  0.01718500  0.60042200  1
  O  O48  1  0.17264100  0.61779300  0.36539200  1
