# generated using pymatgen
data_La3Eu
_symmetry_space_group_name_H-M   'P 1'
_cell_length_a   7.55612371
_cell_length_b   7.55612371
_cell_length_c   5.97690400
_cell_angle_alpha   90.00000000
_cell_angle_beta   90.00000000
_cell_angle_gamma   119.99999744
_symmetry_Int_Tables_number   1
_chemical_formula_structural   La3Eu
_chemical_formula_sum   'La6 Eu2'
_cell_volume   295.53236021
_cell_formula_units_Z   2
loop_
 _symmetry_equiv_pos_site_id
 _symmetry_equiv_pos_as_xyz
  1  'x, y, z'
loop_
 _atom_site_type_symbol
 _atom_site_label
 _atom_site_symmetry_multiplicity
 _atom_site_fract_x
 _atom_site_fract_y
 _atom_site_fract_z
 _atom_site_occupancy
  La  La0  1  0.16373000  0.32746000  0.25000000  1
  La  La1  1  0.67254000  0.83627000  0.25000000  1
  La  La2  1  0.16373000  0.83627000  0.25000000  1
  La  La3  1  0.83627000  0.67254000  0.75000000  1
  La  La4  1  0.32746000  0.16373000  0.75000000  1
  La  La5  1  0.83627000  0.16373000  0.75000000  1
  Eu  Eu6  1  0.33333300  0.66666700  0.75000000  1
  Eu  Eu7  1  0.66666700  0.33333300  0.25000000  1
