# generated using pymatgen
data_SrLi3La11(CoO8)3
_symmetry_space_group_name_H-M   'P 1'
_cell_length_a   10.70331060
_cell_length_b   7.56233156
_cell_length_c   21.66729596
_cell_angle_alpha   95.01063036
_cell_angle_beta   75.70039681
_cell_angle_gamma   44.95412585
_symmetry_Int_Tables_number   1
_chemical_formula_structural   SrLi3La11(CoO8)3
_chemical_formula_sum   'Sr2 Li6 La22 Co6 O48'
_cell_volume   1109.24284219
_cell_formula_units_Z   2
loop_
 _symmetry_equiv_pos_site_id
 _symmetry_equiv_pos_as_xyz
  1  'x, y, z'
loop_
 _atom_site_type_symbol
 _atom_site_label
 _atom_site_symmetry_multiplicity
 _atom_site_fract_x
 _atom_site_fract_y
 _atom_site_fract_z
 _atom_site_occupancy
  Sr  Sr0  1  0.05215700  0.63636500  0.75932300  1
  Sr  Sr1  1  0.94784300  0.36363500  0.24067700  1
  Li  Li2  1  0.08528900  0.49646900  0.33105800  1
  Li  Li3  1  0.24968100  0.50000000  0.00000000  1
  Li  Li4  1  0.41281700  0.50353100  0.66894200  1
  Li  Li5  1  0.58718300  0.49646900  0.33105800  1
  Li  Li6  1  0.75031900  0.50000000  0.00000000  1
  Li  Li7  1  0.91471100  0.50353100  0.66894200  1
  La  La8  1  0.21948700  0.13925100  0.42550100  1
  La  La9  1  0.38314100  0.14056500  0.09260600  1
  La  La10  1  0.05397300  0.13869100  0.75810100  1
  La  La11  1  0.45197400  0.35588800  0.24016200  1
  La  La12  1  0.22268300  0.63091600  0.42371700  1
  La  La13  1  0.38233800  0.64397100  0.09135300  1
  La  La14  1  0.27932000  0.36332700  0.57803500  1
  La  La15  1  0.11390900  0.36367300  0.90851000  1
  La  La16  1  0.88368800  0.14056500  0.09260600  1
  La  La17  1  0.45076400  0.86130900  0.24189900  1
  La  La18  1  0.71575900  0.13925100  0.42550100  1
  La  La19  1  0.28424100  0.86074900  0.57449900  1
  La  La20  1  0.54923600  0.13869100  0.75810100  1
  La  La21  1  0.11631200  0.85943500  0.90739400  1
  La  La22  1  0.88609100  0.63632700  0.09149000  1
  La  La23  1  0.77731700  0.36908400  0.57628300  1
  La  La24  1  0.54802600  0.64411200  0.75983800  1
  La  La25  1  0.72068000  0.63667300  0.42196500  1
  La  La26  1  0.61766200  0.35602900  0.90864700  1
  La  La27  1  0.78051300  0.86074900  0.57449900  1
  La  La28  1  0.94602700  0.86130900  0.24189900  1
  La  La29  1  0.61685900  0.85943500  0.90739400  1
  Co  Co30  1  0.25119300  0.99831000  0.99930400  1
  Co  Co31  1  0.08351800  0.99922800  0.33373600  1
  Co  Co32  1  0.58261900  0.00113500  0.33362700  1
  Co  Co33  1  0.74880700  0.00169000  0.00069600  1
  Co  Co34  1  0.41738100  0.99886500  0.66637300  1
  Co  Co35  1  0.91648200  0.00077200  0.66626400  1
  O  O36  1  0.00590800  0.24413400  0.99885600  1
  O  O37  1  0.10954200  0.16582300  0.11509400  1
  O  O38  1  0.25110300  0.24413400  0.99885600  1
  O  O39  1  0.08399900  0.24225500  0.33539800  1
  O  O40  1  0.24327600  0.31975900  0.21229800  1
  O  O41  1  0.10130100  0.68024600  0.12139800  1
  O  O42  1  0.06325700  0.32024300  0.54579700  1
  O  O43  1  0.25528300  0.74850900  0.99874000  1
  O  O44  1  0.50253200  0.25149100  0.00126000  1
  O  O45  1  0.08440300  0.75550500  0.33440700  1
  O  O46  1  0.33615000  0.24995100  0.33465000  1
  O  O47  1  0.17504600  0.23835900  0.66434900  1
  O  O48  1  0.60050400  0.18015700  0.11883700  1
  O  O49  1  0.22104000  0.83162900  0.22629100  1
  O  O50  1  0.27349700  0.16641800  0.78658800  1
  O  O51  1  0.42830100  0.18841600  0.45498200  1
  O  O52  1  0.05006900  0.84216300  0.55769900  1
  O  O53  1  0.74471700  0.25149100  0.00126000  1
  O  O54  1  0.49746800  0.74850900  0.99874000  1
  O  O55  1  0.42224800  0.23835900  0.66434900  1
  O  O56  1  0.57924800  0.24995100  0.33465000  1
  O  O57  1  0.16165400  0.75774500  0.66460200  1
  O  O58  1  0.32568500  0.75550500  0.33440700  1
  O  O59  1  0.27533200  0.68024100  0.78770200  1
  O  O60  1  0.72466800  0.31975900  0.21229800  1
  O  O61  1  0.57070300  0.32024300  0.54579700  1
  O  O62  1  0.59705600  0.68024600  0.12139800  1
  O  O63  1  0.40294400  0.31975400  0.87860200  1
  O  O64  1  0.42929700  0.67975700  0.45420300  1
  O  O65  1  0.83834600  0.24225500  0.33539800  1
  O  O66  1  0.42075200  0.75004900  0.66535000  1
  O  O67  1  0.57775200  0.76164100  0.33565100  1
  O  O68  1  0.74889700  0.75586600  0.00114400  1
  O  O69  1  0.67431500  0.24449500  0.66559300  1
  O  O70  1  0.77896000  0.16837100  0.77370900  1
  O  O71  1  0.94993100  0.15783700  0.44230100  1
  O  O72  1  0.39949600  0.81984300  0.88116300  1
  O  O73  1  0.57169900  0.81158400  0.54501800  1
  O  O74  1  0.72650300  0.83358200  0.21341200  1
  O  O75  1  0.91559700  0.24449500  0.66559300  1
  O  O76  1  0.66385000  0.75004900  0.66535000  1
  O  O77  1  0.82495400  0.76164100  0.33565100  1
  O  O78  1  0.99409200  0.75586600  0.00114400  1
  O  O79  1  0.75672400  0.68024100  0.78770200  1
  O  O80  1  0.89869900  0.31975400  0.87860200  1
  O  O81  1  0.93674300  0.67975700  0.45420300  1
  O  O82  1  0.91600100  0.75774500  0.66460200  1
  O  O83  1  0.89045800  0.83417700  0.88490600  1
