# generated using pymatgen
data_GeTe
_symmetry_space_group_name_H-M   'P 1'
_cell_length_a   4.15860229
_cell_length_b   4.15860229
_cell_length_c   4.15860211
_cell_angle_alpha   75.84518923
_cell_angle_beta   75.84518923
_cell_angle_gamma   75.84519975
_symmetry_Int_Tables_number   1
_chemical_formula_structural   GeTe
_chemical_formula_sum   'Ge1 Te1'
_cell_volume   66.29974933
_cell_formula_units_Z   1
loop_
 _symmetry_equiv_pos_site_id
 _symmetry_equiv_pos_as_xyz
  1  'x, y, z'
loop_
 _atom_site_type_symbol
 _atom_site_label
 _atom_site_symmetry_multiplicity
 _atom_site_fract_x
 _atom_site_fract_y
 _atom_site_fract_z
 _atom_site_occupancy
  Ge  Ge0  1  0.15745100  0.15745100  0.15745100  1
  Te  Te1  1  0.84254900  0.84254900  0.84254900  1
