# generated using pymatgen
data_Sr3Pr7Cr9NiO30
_symmetry_space_group_name_H-M   'P 1'
_cell_length_a   5.56291370
_cell_length_b   5.51613987
_cell_length_c   39.15346005
_cell_angle_alpha   89.87661368
_cell_angle_beta   89.96471372
_cell_angle_gamma   90.30377166
_symmetry_Int_Tables_number   1
_chemical_formula_structural   Sr3Pr7Cr9NiO30
_chemical_formula_sum   'Sr6 Pr14 Cr18 Ni2 O60'
_cell_volume   1201.43573109
_cell_formula_units_Z   2
loop_
 _symmetry_equiv_pos_site_id
 _symmetry_equiv_pos_as_xyz
  1  'x, y, z'
loop_
 _atom_site_type_symbol
 _atom_site_label
 _atom_site_symmetry_multiplicity
 _atom_site_fract_x
 _atom_site_fract_y
 _atom_site_fract_z
 _atom_site_occupancy
  Sr  Sr0  1  0.02586181  0.99407566  0.04986181  1
  Sr  Sr1  1  0.02585612  0.99523467  0.24917664  1
  Sr  Sr2  1  0.02948515  0.99295664  0.44956755  1
  Sr  Sr3  1  0.02922546  0.99484270  0.64975996  1
  Sr  Sr4  1  0.02849863  0.99400176  0.84940391  1
  Sr  Sr5  1  0.47634194  0.49634236  0.14961168  1
  Pr  Pr6  1  0.46315935  0.49429820  0.35066870  1
  Pr  Pr7  1  0.45966695  0.49287163  0.55076819  1
  Pr  Pr8  1  0.45946891  0.49246473  0.75058122  1
  Pr  Pr9  1  0.46415234  0.49456075  0.95090739  1
  Pr  Pr10  1  0.53913082  0.50917579  0.04989519  1
  Pr  Pr11  1  0.54025369  0.50960049  0.24906020  1
  Pr  Pr12  1  0.54335645  0.51073255  0.64959136  1
  Pr  Pr13  1  0.53950202  0.51020606  0.44941809  1
  Pr  Pr14  1  0.54346909  0.51009766  0.84931541  1
  Pr  Pr15  1  0.96073326  0.00934345  0.14967132  1
  Pr  Pr16  1  0.95789616  0.00879008  0.55078791  1
  Pr  Pr17  1  0.95870277  0.00730330  0.75040836  1
  Pr  Pr18  1  0.95787778  0.00996767  0.35093220  1
  Pr  Pr19  1  0.95849282  0.00946516  0.95073106  1
  Cr  Cr20  1  0.00131627  0.50136257  0.00013416  1
  Cr  Cr21  1  0.00330377  0.49978896  0.09984160  1
  Cr  Cr22  1  0.00172017  0.50218704  0.29965269  1
  Cr  Cr23  1  0.00087403  0.50367452  0.50009149  1
  Cr  Cr24  1  0.49671633  0.00182035  0.09980328  1
  Cr  Cr25  1  0.49677696  0.99902499  0.00021392  1
  Cr  Cr26  1  0.49742957  0.99885968  0.29971091  1
  Cr  Cr27  1  0.49691282  0.00083082  0.49999859  1
  Cr  Cr28  1  0.49669130  0.00073413  0.19957977  1
  Cr  Cr29  1  0.49711582  0.99945648  0.69979793  1
  Cr  Cr30  1  0.49784420  0.99919131  0.89973991  1
  Cr  Cr31  1  0.49771431  0.99768336  0.60021094  1
  Cr  Cr32  1  0.49708530  0.99960603  0.40034356  1
  Cr  Cr33  1  0.49795708  0.99800570  0.79995630  1
  Cr  Cr34  1  0.00342810  0.50028045  0.19957772  1
  Cr  Cr35  1  0.00120469  0.50172375  0.69975583  1
  Cr  Cr36  1  0.00058316  0.50073280  0.40034197  1
  Cr  Cr37  1  0.00274194  0.50082518  0.89951413  1
  Ni  Ni38  1  0.00079543  0.50006571  0.60036342  1
  Ni  Ni39  1  0.00086480  0.50027522  0.80005102  1
  O  O40  1  0.01034295  0.57478987  0.14939406  1
  O  O41  1  0.01891656  0.57757744  0.34920512  1
  O  O42  1  0.01865603  0.57500881  0.54829068  1
  O  O43  1  0.01762788  0.57390303  0.74799059  1
  O  O44  1  0.01723501  0.57556862  0.94893735  1
  O  O45  1  0.21100298  0.21965365  0.10795235  1
  O  O46  1  0.21433403  0.22217618  0.30883563  1
  O  O47  1  0.21454143  0.22270643  0.50957233  1
  O  O48  1  0.21610007  0.21940003  0.70946540  1
  O  O49  1  0.21658974  0.22142452  0.90918571  1
  O  O50  1  0.21690669  0.20812531  0.19276717  1
  O  O51  1  0.22539812  0.20579599  0.59134906  1
  O  O52  1  0.21501099  0.21670003  0.39073130  1
  O  O53  1  0.22558338  0.20581385  0.79119865  1
  O  O54  1  0.21588123  0.21726532  0.99074769  1
  O  O55  1  0.28154880  0.70780100  0.09283978  1
  O  O56  1  0.28971058  0.70190804  0.29290848  1
  O  O57  1  0.28891595  0.70195529  0.49325550  1
  O  O58  1  0.28818994  0.70094668  0.69298703  1
  O  O59  1  0.29454420  0.70315503  0.00679103  1
  O  O60  1  0.28811614  0.70056729  0.89297824  1
  O  O61  1  0.28895297  0.71935003  0.20774858  1
  O  O62  1  0.29373573  0.70373686  0.40727035  1
  O  O63  1  0.29949759  0.71723505  0.60699430  1
  O  O64  1  0.29902374  0.71700467  0.80649140  1
  O  O65  1  0.49094738  0.07817132  0.05017874  1
  O  O66  1  0.49038839  0.08192939  0.64978400  1
  O  O67  1  0.49060881  0.07520635  0.24918700  1
  O  O68  1  0.49073977  0.08167044  0.45041570  1
  O  O69  1  0.49167960  0.08036604  0.84954442  1
  O  O70  1  0.51428710  0.92589198  0.34966029  1
  O  O71  1  0.51717452  0.94417148  0.15117361  1
  O  O72  1  0.51504036  0.92349605  0.55013434  1
  O  O73  1  0.51398534  0.92379642  0.74978286  1
  O  O74  1  0.51349427  0.92646325  0.94959490  1
  O  O75  1  0.72250792  0.26975804  0.19332660  1
  O  O76  1  0.71569607  0.28480678  0.39130359  1
  O  O77  1  0.70717003  0.27441053  0.59188507  1
  O  O78  1  0.72935552  0.27912043  0.10690884  1
  O  O79  1  0.71976141  0.28612871  0.30828288  1
  O  O80  1  0.70771768  0.27469718  0.79163136  1
  O  O81  1  0.72030914  0.28735289  0.50916261  1
  O  O82  1  0.71698317  0.28341361  0.99114641  1
  O  O83  1  0.72155548  0.28785260  0.70872215  1
  O  O84  1  0.72259836  0.28763639  0.90847455  1
  O  O85  1  0.77212424  0.77815108  0.20641420  1
  O  O86  1  0.78043440  0.77964917  0.00596955  1
  O  O87  1  0.77141384  0.79174375  0.60604198  1
  O  O88  1  0.78072211  0.78021113  0.40659708  1
  O  O89  1  0.77749419  0.76923127  0.09365828  1
  O  O90  1  0.77014146  0.79073527  0.80570058  1
  O  O91  1  0.77995915  0.77768296  0.69308456  1
  O  O92  1  0.78119446  0.77293806  0.29325932  1
  O  O93  1  0.78151844  0.77417385  0.49343437  1
  O  O94  1  0.78048042  0.77476200  0.89299619  1
  O  O95  1  0.97952699  0.44096124  0.25097515  1
  O  O96  1  0.97935017  0.44055199  0.05090408  1
  O  O97  1  0.97935677  0.44201529  0.65233331  1
  O  O98  1  0.97972095  0.43721132  0.45155237  1
  O  O99  1  0.97799677  0.44161535  0.85208901  1
