# generated using pymatgen
data_Te2Mo3W(SeS2)2
_symmetry_space_group_name_H-M   'P 1'
_cell_length_a   3.31055189
_cell_length_b   3.31055189
_cell_length_c   37.63057300
_cell_angle_alpha   90.00000000
_cell_angle_beta   90.00000000
_cell_angle_gamma   119.99999771
_symmetry_Int_Tables_number   1
_chemical_formula_structural   Te2Mo3W(SeS2)2
_chemical_formula_sum   'Te2 Mo3 W1 Se2 S4'
_cell_volume   357.16777700
_cell_formula_units_Z   1
loop_
 _symmetry_equiv_pos_site_id
 _symmetry_equiv_pos_as_xyz
  1  'x, y, z'
loop_
 _atom_site_type_symbol
 _atom_site_label
 _atom_site_symmetry_multiplicity
 _atom_site_fract_x
 _atom_site_fract_y
 _atom_site_fract_z
 _atom_site_occupancy
  Te  Te0  1  0.33333300  0.66666700  0.33294500  1
  Te  Te1  1  0.33333300  0.66666700  0.23065100  1
  Mo  Mo2  1  0.33333300  0.66666700  0.09389900  1
  Mo  Mo3  1  0.33333300  0.66666700  0.46968600  1
  Mo  Mo4  1  0.66666700  0.33333300  0.65753200  1
  W  W5  1  0.66666700  0.33333300  0.28180300  1
  Se  Se6  1  0.33333300  0.66666700  0.70217400  1
  Se  Se7  1  0.33333300  0.66666700  0.61288900  1
  S  S8  1  0.66666700  0.33333300  0.05331000  1
  S  S9  1  0.66666700  0.33333300  0.42908000  1
  S  S10  1  0.66666700  0.33333300  0.13450800  1
  S  S11  1  0.66666700  0.33333300  0.51027200  1
