# generated using pymatgen
data_Sr4Fe3ClO8
_symmetry_space_group_name_H-M   'P 1'
_cell_length_a   3.97061100
_cell_length_b   3.97061100
_cell_length_c   15.64303600
_cell_angle_alpha   90.00000000
_cell_angle_beta   90.00000000
_cell_angle_gamma   90.00000000
_symmetry_Int_Tables_number   1
_chemical_formula_structural   Sr4Fe3ClO8
_chemical_formula_sum   'Sr4 Fe3 Cl1 O8'
_cell_volume   246.62422162
_cell_formula_units_Z   1
loop_
 _symmetry_equiv_pos_site_id
 _symmetry_equiv_pos_as_xyz
  1  'x, y, z'
loop_
 _atom_site_type_symbol
 _atom_site_label
 _atom_site_symmetry_multiplicity
 _atom_site_fract_x
 _atom_site_fract_y
 _atom_site_fract_z
 _atom_site_occupancy
  Sr  Sr0  1  0.00000000  0.00000000  0.61200300  1
  Sr  Sr1  1  0.00000000  0.00000000  0.12451800  1
  Sr  Sr2  1  0.00000000  0.00000000  0.38799700  1
  Sr  Sr3  1  0.00000000  0.00000000  0.87548200  1
  Fe  Fe4  1  0.50000000  0.50000000  0.75373800  1
  Fe  Fe5  1  0.50000000  0.50000000  0.24626200  1
  Fe  Fe6  1  0.50000000  0.50000000  0.50000000  1
  Cl  Cl7  1  0.50000000  0.50000000  0.00000000  1
  O  O8  1  0.50000000  0.00000000  0.50000000  1
  O  O9  1  0.50000000  0.50000000  0.63485000  1
  O  O10  1  0.00000000  0.50000000  0.78789900  1
  O  O11  1  0.50000000  0.50000000  0.36515000  1
  O  O12  1  0.50000000  0.00000000  0.21210100  1
  O  O13  1  0.00000000  0.50000000  0.50000000  1
  O  O14  1  0.00000000  0.50000000  0.21210100  1
  O  O15  1  0.50000000  0.00000000  0.78789900  1
