# generated using pymatgen
data_Ba2Zn3(PO)2
_symmetry_space_group_name_H-M   'P 1'
_cell_length_a   4.16128780
_cell_length_b   4.16128782
_cell_length_c   10.31175671
_cell_angle_alpha   101.64072204
_cell_angle_beta   101.64072281
_cell_angle_gamma   89.99999051
_symmetry_Int_Tables_number   1
_chemical_formula_structural   Ba2Zn3(PO)2
_chemical_formula_sum   'Ba2 Zn3 P2 O2'
_cell_volume   171.13756392
_cell_formula_units_Z   1
loop_
 _symmetry_equiv_pos_site_id
 _symmetry_equiv_pos_as_xyz
  1  'x, y, z'
loop_
 _atom_site_type_symbol
 _atom_site_label
 _atom_site_symmetry_multiplicity
 _atom_site_fract_x
 _atom_site_fract_y
 _atom_site_fract_z
 _atom_site_occupancy
  Ba  Ba0  1  0.59201000  0.59201000  0.18402000  1
  Ba  Ba1  1  0.40799000  0.40799000  0.81598000  1
  Zn  Zn2  1  0.00000000  0.00000000  0.00000000  1
  Zn  Zn3  1  0.75000000  0.25000000  0.50000000  1
  Zn  Zn4  1  0.25000000  0.75000000  0.50000000  1
  P  P5  1  0.17870400  0.17870400  0.35740800  1
  P  P6  1  0.82129600  0.82129600  0.64259200  1
  O  O7  1  0.00000000  0.50000000  0.00000000  1
  O  O8  1  0.50000000  0.00000000  0.00000000  1
