# generated using pymatgen
data_CoSiN2
_symmetry_space_group_name_H-M   'P 1'
_cell_length_a   4.31473415
_cell_length_b   4.31473396
_cell_length_c   5.15117619
_cell_angle_alpha   114.75951031
_cell_angle_beta   114.75951872
_cell_angle_gamma   90.00000253
_symmetry_Int_Tables_number   1
_chemical_formula_structural   CoSiN2
_chemical_formula_sum   'Co2 Si2 N4'
_cell_volume   77.26845065
_cell_formula_units_Z   2
loop_
 _symmetry_equiv_pos_site_id
 _symmetry_equiv_pos_as_xyz
  1  'x, y, z'
loop_
 _atom_site_type_symbol
 _atom_site_label
 _atom_site_symmetry_multiplicity
 _atom_site_fract_x
 _atom_site_fract_y
 _atom_site_fract_z
 _atom_site_occupancy
  Co  Co0  1  0.25000000  0.75000000  0.50000000  1
  Co  Co1  1  0.00000000  0.00000000  0.00000000  1
  Si  Si2  1  0.50000000  0.50000000  0.00000000  1
  Si  Si3  1  0.75000000  0.25000000  0.50000000  1
  N  N4  1  0.83580000  0.87500000  0.25000000  1
  N  N5  1  0.62500000  0.16420000  0.75000000  1
  N  N6  1  0.41420000  0.37500000  0.25000000  1
  N  N7  1  0.12500000  0.58580000  0.75000000  1
