# generated using pymatgen
data_CsHg3
_symmetry_space_group_name_H-M   'P 1'
_cell_length_a   7.84593746
_cell_length_b   7.84593746
_cell_length_c   5.92065500
_cell_angle_alpha   90.00000000
_cell_angle_beta   90.00000000
_cell_angle_gamma   119.99999544
_symmetry_Int_Tables_number   1
_chemical_formula_structural   CsHg3
_chemical_formula_sum   'Cs2 Hg6'
_cell_volume   315.63858725
_cell_formula_units_Z   2
loop_
 _symmetry_equiv_pos_site_id
 _symmetry_equiv_pos_as_xyz
  1  'x, y, z'
loop_
 _atom_site_type_symbol
 _atom_site_label
 _atom_site_symmetry_multiplicity
 _atom_site_fract_x
 _atom_site_fract_y
 _atom_site_fract_z
 _atom_site_occupancy
  Cs  Cs0  1  0.33333300  0.66666700  0.75000000  1
  Cs  Cs1  1  0.66666700  0.33333300  0.25000000  1
  Hg  Hg2  1  0.14057800  0.28115600  0.25000000  1
  Hg  Hg3  1  0.71884400  0.85942200  0.25000000  1
  Hg  Hg4  1  0.14057800  0.85942200  0.25000000  1
  Hg  Hg5  1  0.85942200  0.71884400  0.75000000  1
  Hg  Hg6  1  0.28115600  0.14057800  0.75000000  1
  Hg  Hg7  1  0.85942200  0.14057800  0.75000000  1
