# generated using pymatgen
data_Nb24Ge7Te48
_symmetry_space_group_name_H-M   'P 1'
_cell_length_a   15.85147253
_cell_length_b   15.85147253
_cell_length_c   13.35525090
_cell_angle_alpha   78.39576734
_cell_angle_beta   78.39576734
_cell_angle_gamma   131.16740828
_symmetry_Int_Tables_number   1
_chemical_formula_structural   Nb24Ge7Te48
_chemical_formula_sum   'Nb24 Ge7 Te48'
_cell_volume   2206.91034010
_cell_formula_units_Z   1
loop_
 _symmetry_equiv_pos_site_id
 _symmetry_equiv_pos_as_xyz
  1  'x, y, z'
loop_
 _atom_site_type_symbol
 _atom_site_label
 _atom_site_symmetry_multiplicity
 _atom_site_fract_x
 _atom_site_fract_y
 _atom_site_fract_z
 _atom_site_occupancy
  Nb  Nb0  1  0.48400100  0.98422500  0.81418200  1
  Nb  Nb1  1  0.79033800  0.29016400  0.46765200  1
  Nb  Nb2  1  0.79846700  0.29836700  0.68606900  1
  Nb  Nb3  1  0.06268100  0.06268100  0.82676200  1
  Nb  Nb4  1  0.25974200  0.75985200  0.03245500  1
  Nb  Nb5  1  0.12011700  0.62034000  0.33490200  1
  Nb  Nb6  1  0.98422500  0.48400100  0.81418200  1
  Nb  Nb7  1  0.37556900  0.37556900  0.66754300  1
  Nb  Nb8  1  0.24439100  0.24439100  0.96408600  1
  Nb  Nb9  1  0.29016400  0.79033800  0.46765200  1
  Nb  Nb10  1  0.45517600  0.95530800  0.16562400  1
  Nb  Nb11  1  0.69327200  0.69327200  0.31296000  1
  Nb  Nb12  1  0.29836700  0.79846700  0.68606900  1
  Nb  Nb13  1  0.54659300  0.54659300  0.83423200  1
  Nb  Nb14  1  0.70857700  0.70857700  0.53000600  1
  Nb  Nb15  1  0.75985200  0.25974200  0.03245500  1
  Nb  Nb16  1  0.62034000  0.12011700  0.33490200  1
  Nb  Nb17  1  0.02331200  0.02331200  0.18505000  1
  Nb  Nb18  1  0.88082300  0.88082300  0.66648100  1
  Nb  Nb19  1  0.73452600  0.73452600  0.97555400  1
  Nb  Nb20  1  0.95530800  0.45517600  0.16562400  1
  Nb  Nb21  1  0.20049400  0.20049400  0.31305500  1
  Nb  Nb22  1  0.20795800  0.20795800  0.53259000  1
  Nb  Nb23  1  0.51309400  0.51309400  0.18713000  1
  Ge  Ge24  1  0.62338000  0.12363800  0.92538000  1
  Ge  Ge25  1  0.04849100  0.54872000  0.57549500  1
  Ge  Ge26  1  0.44924500  0.44924500  0.42667200  1
  Ge  Ge27  1  0.12363800  0.62338000  0.92538000  1
  Ge  Ge28  1  0.54872000  0.04849100  0.57549500  1
  Ge  Ge29  1  0.95026100  0.95026100  0.42579300  1
  Ge  Ge30  1  0.37570100  0.37570100  0.07524100  1
  Te  Te31  1  0.58753900  0.21851800  0.65851700  1
  Te  Te32  1  0.83393600  0.96143700  0.82284200  1
  Te  Te33  1  0.87913800  0.50646900  0.49475500  1
  Te  Te34  1  0.00664500  0.37925900  0.49490700  1
  Te  Te35  1  0.03866100  0.67016900  0.18280100  1
  Te  Te36  1  0.87629000  0.24479500  0.84228100  1
  Te  Te37  1  0.74551800  0.37675900  0.84158100  1
  Te  Te38  1  0.28046600  0.41137900  0.34110700  1
  Te  Te39  1  0.28430800  0.14837200  0.67926200  1
  Te  Te40  1  0.14837200  0.28430800  0.67926200  1
  Te  Te41  1  0.11411300  0.99435000  0.99833500  1
  Te  Te42  1  0.99435000  0.11411300  0.99833500  1
  Te  Te43  1  0.50245600  0.87459500  0.00486700  1
  Te  Te44  1  0.37363900  0.00183000  0.00514200  1
  Te  Te45  1  0.35313900  0.72167300  0.31674600  1
  Te  Te46  1  0.22099900  0.85322500  0.31675900  1
  Te  Te47  1  0.21851800  0.58753900  0.65851700  1
  Te  Te48  1  0.08695900  0.71823600  0.65909800  1
  Te  Te49  1  0.62650000  0.75485800  0.15864100  1
  Te  Te50  1  0.75485800  0.62650000  0.15864100  1
  Te  Te51  1  0.33027700  0.46206500  0.81703200  1
  Te  Te52  1  0.46206500  0.33027700  0.81703200  1
  Te  Te53  1  0.61897700  0.49170200  0.50723300  1
  Te  Te54  1  0.49170200  0.61897700  0.50723300  1
  Te  Te55  1  0.37925900  0.00664500  0.49490700  1
  Te  Te56  1  0.50646900  0.87913800  0.49475500  1
  Te  Te57  1  0.53884200  0.17047000  0.18322500  1
  Te  Te58  1  0.67016900  0.03866100  0.18280100  1
  Te  Te59  1  0.24479500  0.87629000  0.84228100  1
  Te  Te60  1  0.37675900  0.74551800  0.84158100  1
  Te  Te61  1  0.91167200  0.78313500  0.33339400  1
  Te  Te62  1  0.78313500  0.91167200  0.33339400  1
  Te  Te63  1  0.77952600  0.64905600  0.68232000  1
  Te  Te64  1  0.64905600  0.77952600  0.68232000  1
  Te  Te65  1  0.62365000  0.49591100  0.99623200  1
  Te  Te66  1  0.49591100  0.62365000  0.99623200  1
  Te  Te67  1  0.00183000  0.37363900  0.00514200  1
  Te  Te68  1  0.87459500  0.50245600  0.00486700  1
  Te  Te69  1  0.85322500  0.22099900  0.31675900  1
  Te  Te70  1  0.72167300  0.35313900  0.31674600  1
  Te  Te71  1  0.71823600  0.08695900  0.65909800  1
  Te  Te72  1  0.12613300  0.25873700  0.15568300  1
  Te  Te73  1  0.25873700  0.12613300  0.15568300  1
  Te  Te74  1  0.96143700  0.83393600  0.82284200  1
  Te  Te75  1  0.11965000  0.99214700  0.50639800  1
  Te  Te76  1  0.99214700  0.11965000  0.50639800  1
  Te  Te77  1  0.17047000  0.53884200  0.18322500  1
  Te  Te78  1  0.41137900  0.28046600  0.34110700  1
