# generated using pymatgen
data_Na2Mn2Fe(PO4)3
_symmetry_space_group_name_H-M   'P 1'
_cell_length_a   8.80829695
_cell_length_b   8.80829695
_cell_length_c   6.60911425
_cell_angle_alpha   73.50195513
_cell_angle_beta   73.50195513
_cell_angle_gamma   92.86348334
_symmetry_Int_Tables_number   1
_chemical_formula_structural   Na2Mn2Fe(PO4)3
_chemical_formula_sum   'Na4 Mn4 Fe2 P6 O24'
_cell_volume   466.64094148
_cell_formula_units_Z   2
loop_
 _symmetry_equiv_pos_site_id
 _symmetry_equiv_pos_as_xyz
  1  'x, y, z'
loop_
 _atom_site_type_symbol
 _atom_site_label
 _atom_site_symmetry_multiplicity
 _atom_site_fract_x
 _atom_site_fract_y
 _atom_site_fract_z
 _atom_site_occupancy
  Na  Na0  1  0.02131700  0.97868300  0.00000000  1
  Na  Na1  1  0.98292400  0.01707600  0.50000000  1
  Na  Na2  1  0.50031300  0.49987900  0.25090800  1
  Na  Na3  1  0.50012100  0.49968700  0.74909200  1
  Mn  Mn4  1  0.93361400  0.62506000  0.39030700  1
  Mn  Mn5  1  0.37494000  0.06638600  0.60969200  1
  Mn  Mn6  1  0.26862900  0.73137100  0.50000000  1
  Mn  Mn7  1  0.72855000  0.27145000  0.00000000  1
  Fe  Fe8  1  0.06349500  0.38099400  0.11514100  1
  Fe  Fe9  1  0.61900600  0.93650500  0.88485900  1
  P  P10  1  0.65681900  0.87340100  0.37723600  1
  P  P11  1  0.12659900  0.34318100  0.62276400  1
  P  P12  1  0.34467500  0.12842800  0.12246900  1
  P  P13  1  0.87157200  0.65532500  0.87753100  1
  P  P14  1  0.28670700  0.71329300  0.00000000  1
  P  P15  1  0.71515400  0.28484600  0.50000000  1
  O  O16  1  0.66312200  0.99921500  0.14718200  1
  O  O17  1  0.00078500  0.33687800  0.85281800  1
  O  O18  1  0.31763600  0.99816900  0.34944200  1
  O  O19  1  0.00183100  0.68236400  0.65055800  1
  O  O20  1  0.53443900  0.72637800  0.42576300  1
  O  O21  1  0.27362200  0.46556100  0.57423700  1
  O  O22  1  0.46808400  0.27379900  0.07850400  1
  O  O23  1  0.72620100  0.53191600  0.92149600  1
  O  O24  1  0.26106000  0.53607000  0.00143200  1
  O  O25  1  0.46393000  0.73894000  0.99856800  1
  O  O26  1  0.73681300  0.45090900  0.52449200  1
  O  O27  1  0.54909100  0.26318700  0.47550800  1
  O  O28  1  0.60434700  0.94872400  0.56953700  1
  O  O29  1  0.05127600  0.39565300  0.43046300  1
  O  O30  1  0.40624600  0.04948900  0.93547900  1
  O  O31  1  0.95051100  0.59375400  0.06452100  1
  O  O32  1  0.83085800  0.84056300  0.35339500  1
  O  O33  1  0.15943700  0.16914200  0.64660500  1
  O  O34  1  0.17545100  0.18105700  0.12591800  1
  O  O35  1  0.81894300  0.82454900  0.87408200  1
  O  O36  1  0.17871500  0.74426700  0.21009400  1
  O  O37  1  0.25573300  0.82128500  0.78990600  1
  O  O38  1  0.83756100  0.26012800  0.28714400  1
  O  O39  1  0.73987200  0.16243900  0.71285600  1
