# generated using pymatgen
data_Li4MnCo2O7
_symmetry_space_group_name_H-M   'P 1'
_cell_length_a   5.90073474
_cell_length_b   6.52641962
_cell_length_c   7.70043754
_cell_angle_alpha   115.41570855
_cell_angle_beta   111.13878800
_cell_angle_gamma   75.87283989
_symmetry_Int_Tables_number   1
_chemical_formula_structural   Li4MnCo2O7
_chemical_formula_sum   'Li8 Mn2 Co4 O14'
_cell_volume   248.41719102
_cell_formula_units_Z   2
loop_
 _symmetry_equiv_pos_site_id
 _symmetry_equiv_pos_as_xyz
  1  'x, y, z'
loop_
 _atom_site_type_symbol
 _atom_site_label
 _atom_site_symmetry_multiplicity
 _atom_site_fract_x
 _atom_site_fract_y
 _atom_site_fract_z
 _atom_site_occupancy
  Li  Li0  1  0.21760000  0.43454100  0.14671500  1
  Li  Li1  1  0.92693300  0.85933600  0.28591400  1
  Li  Li2  1  0.64199700  0.28405600  0.43061600  1
  Li  Li3  1  0.35852100  0.71537500  0.56579000  1
  Li  Li4  1  0.06687700  0.14273600  0.71003600  1
  Li  Li5  1  0.78633200  0.57111200  0.85816100  1
  Li  Li6  1  0.50241600  0.99357300  0.00563900  1
  Li  Li7  1  0.42688100  0.85605600  0.28611600  1
  Mn  Mn8  1  0.00159000  0.99972900  0.00175600  1
  Mn  Mn9  1  0.71120900  0.43153000  0.14381100  1
  Co  Co10  1  0.14211000  0.27924800  0.42626300  1
  Co  Co11  1  0.84770800  0.71476500  0.56709400  1
  Co  Co12  1  0.56396000  0.13851900  0.70415100  1
  Co  Co13  1  0.29650400  0.57666200  0.86084400  1
  O  O14  1  0.88876700  0.27612200  0.94146000  1
  O  O15  1  0.61265000  0.69244100  0.07428700  1
  O  O16  1  0.28195100  0.13933100  0.21095300  1
  O  O17  1  0.01122900  0.55044500  0.34622200  1
  O  O18  1  0.75087200  0.99593300  0.51649700  1
  O  O19  1  0.45969200  0.43277600  0.65201200  1
  O  O20  1  0.17072300  0.86436700  0.79855100  1
  O  O21  1  0.55178500  0.56210700  0.34982000  1
  O  O22  1  0.25320000  0.02397200  0.50756800  1
  O  O23  1  0.97998400  0.43631000  0.63102300  1
  O  O24  1  0.70307800  0.86778500  0.79566400  1
  O  O25  1  0.42303800  0.29671000  0.93765500  1
  O  O26  1  0.10609700  0.72123600  0.05151700  1
  O  O27  1  0.81629700  0.14322600  0.19386100  1
