# generated using pymatgen
data_Mo3W(Se3S)2
_symmetry_space_group_name_H-M   'P 1'
_cell_length_a   3.29153754
_cell_length_b   3.29153754
_cell_length_c   37.63743600
_cell_angle_alpha   90.00000000
_cell_angle_beta   90.00000000
_cell_angle_gamma   119.99999085
_symmetry_Int_Tables_number   1
_chemical_formula_structural   Mo3W(Se3S)2
_chemical_formula_sum   'Mo3 W1 Se6 S2'
_cell_volume   353.14115103
_cell_formula_units_Z   1
loop_
 _symmetry_equiv_pos_site_id
 _symmetry_equiv_pos_as_xyz
  1  'x, y, z'
loop_
 _atom_site_type_symbol
 _atom_site_label
 _atom_site_symmetry_multiplicity
 _atom_site_fract_x
 _atom_site_fract_y
 _atom_site_fract_z
 _atom_site_occupancy
  Mo  Mo0  1  0.33333300  0.66666700  0.09334500  1
  Mo  Mo1  1  0.33333300  0.66666700  0.46883200  1
  Mo  Mo2  1  0.66666700  0.33333300  0.28185200  1
  W  W3  1  0.66666700  0.33333300  0.65890700  1
  Se  Se4  1  0.33333300  0.66666700  0.70390800  1
  Se  Se5  1  0.66666700  0.33333300  0.04857300  1
  Se  Se6  1  0.66666700  0.33333300  0.42404100  1
  Se  Se7  1  0.66666700  0.33333300  0.13811000  1
  Se  Se8  1  0.66666700  0.33333300  0.51359300  1
  Se  Se9  1  0.33333300  0.66666700  0.61390800  1
  S  S10  1  0.33333300  0.66666700  0.32256800  1
  S  S11  1  0.33333300  0.66666700  0.24111200  1
