# generated using pymatgen
data_Sc10V10O37
_symmetry_space_group_name_H-M   'P 1'
_cell_length_a   3.48836232
_cell_length_b   3.48836196
_cell_length_c   71.24056077
_cell_angle_alpha   60.68179735
_cell_angle_beta   60.68180100
_cell_angle_gamma   59.99999642
_symmetry_Int_Tables_number   1
_chemical_formula_structural   Sc10V10O37
_chemical_formula_sum   'Sc10 V10 O37'
_cell_volume   619.23426855
_cell_formula_units_Z   1
loop_
 _symmetry_equiv_pos_site_id
 _symmetry_equiv_pos_as_xyz
  1  'x, y, z'
loop_
 _atom_site_type_symbol
 _atom_site_label
 _atom_site_symmetry_multiplicity
 _atom_site_fract_x
 _atom_site_fract_y
 _atom_site_fract_z
 _atom_site_occupancy
  Sc  Sc0  1  0.01289216  0.01289216  0.54806618  1
  Sc  Sc1  1  0.03966452  0.03966452  0.49405032  1
  Sc  Sc2  1  0.03660429  0.03660429  0.59450936  1
  Sc  Sc3  1  0.99216784  0.99216784  0.65117482  1
  Sc  Sc4  1  0.99599523  0.99599523  0.75060072  1
  Sc  Sc5  1  0.00806787  0.00806787  0.69878982  1
  Sc  Sc6  1  0.99559045  0.99559045  0.80066143  1
  Sc  Sc7  1  0.98123023  0.98123023  0.85281547  1
  Sc  Sc8  1  0.98574332  0.98574332  0.95213850  1
  Sc  Sc9  1  0.97411446  0.97411446  0.90388283  1
  V  V10  1  0.97102940  0.97102940  0.00434559  1
  V  V11  1  0.99247492  0.99247492  0.05112876  1
  V  V12  1  0.00909580  0.00909580  0.09863563  1
  V  V13  1  0.02804117  0.02804117  0.14579382  1
  V  V14  1  0.01341695  0.01341695  0.19798746  1
  V  V15  1  0.01982310  0.01982310  0.29702654  1
  V  V16  1  0.99471526  0.99471526  0.25079271  1
  V  V17  1  0.99924794  0.99924794  0.35011281  1
  V  V18  1  0.03127284  0.03127284  0.39530907  1
  V  V19  1  0.04279625  0.04279625  0.44358056  1
  O  O20  1  0.23120853  0.23120853  0.01531872  1
  O  O21  1  0.21464627  0.21464627  0.06780306  1
  O  O22  1  0.72869093  0.72869093  0.04069636  1
  O  O23  1  0.26667953  0.26667953  0.10999807  1
  O  O24  1  0.72149580  0.72149580  0.09177563  1
  O  O25  1  0.22899636  0.22899636  0.16565055  1
  O  O26  1  0.76450637  0.76450637  0.13532404  1
  O  O27  1  0.68312489  0.68312489  0.19753127  1
  O  O28  1  0.26275655  0.26275655  0.26058652  1
  O  O29  1  0.79915428  0.79915427  0.23012686  1
  O  O30  1  0.73743726  0.73743726  0.28938441  1
  O  O31  1  0.26724841  0.26724841  0.35991274  1
  O  O32  1  0.24381289  0.24381289  0.41342807  1
  O  O33  1  0.80488062  0.80488062  0.32926791  1
  O  O34  1  0.76129886  0.76129886  0.38580517  1
  O  O35  1  0.29677137  0.29677137  0.45548429  1
  O  O36  1  0.74370533  0.74370533  0.43844420  1
  O  O37  1  0.75431972  0.75431972  0.48685204  1
  O  O38  1  0.28230551  0.28230551  0.55765417  1
  O  O39  1  0.82177695  0.82177695  0.52673346  1
  O  O40  1  0.23470731  0.23470731  0.61479390  1
  O  O41  1  0.26554947  0.26554947  0.66016758  1
  O  O42  1  0.76259542  0.76259542  0.58561069  1
  O  O43  1  0.24053902  0.24053902  0.71391915  1
  O  O44  1  0.79137804  0.79137804  0.63129329  1
  O  O45  1  0.24932578  0.24932578  0.76260113  1
  O  O46  1  0.74777013  0.74777013  0.68783448  1
  O  O47  1  0.23820970  0.23820970  0.81426855  1
  O  O48  1  0.75494523  0.75494523  0.73675822  1
  O  O49  1  0.74537940  0.74537940  0.78819309  1
  O  O50  1  0.24226546  0.24226546  0.86366018  1
  O  O51  1  0.74754600  0.74754600  0.83786810  1
  O  O52  1  0.21989586  0.21989586  0.91701562  1
  O  O53  1  0.73673662  0.73673662  0.88948951  1
  O  O54  1  0.17045017  0.17045017  0.97443247  1
  O  O55  1  0.70093528  0.70093528  0.94485971  1
  O  O56  1  0.66297067  0.66297067  0.00055440  1
