# generated using pymatgen
data_Li7Mn4CoO12
_symmetry_space_group_name_H-M   'P 1'
_cell_length_a   2.87405900
_cell_length_b   29.24750240
_cell_length_c   5.20916215
_cell_angle_alpha   87.18637122
_cell_angle_beta   90.00031128
_cell_angle_gamma   89.99910836
_symmetry_Int_Tables_number   1
_chemical_formula_structural   Li7Mn4CoO12
_chemical_formula_sum   'Li14 Mn8 Co2 O24'
_cell_volume   437.34934253
_cell_formula_units_Z   2
loop_
 _symmetry_equiv_pos_site_id
 _symmetry_equiv_pos_as_xyz
  1  'x, y, z'
loop_
 _atom_site_type_symbol
 _atom_site_label
 _atom_site_symmetry_multiplicity
 _atom_site_fract_x
 _atom_site_fract_y
 _atom_site_fract_z
 _atom_site_occupancy
  Li  Li0  1  0.00000100  0.08329400  0.66650500  1
  Li  Li1  1  0.00000200  0.58335400  0.66667700  1
  Li  Li2  1  0.50000200  0.33331600  0.16661400  1
  Li  Li3  1  0.50000100  0.83334100  0.16661200  1
  Li  Li4  1  0.50000100  0.08331900  0.16657300  1
  Li  Li5  1  0.50000100  0.58335000  0.16670000  1
  Li  Li6  1  0.50000400  0.00370000  0.49401100  1
  Li  Li7  1  0.50000300  0.50374000  0.49388300  1
  Li  Li8  1  0.49999800  0.16291600  0.83948700  1
  Li  Li9  1  0.50000000  0.66298200  0.83933000  1
  Li  Li10  1  0.00000000  0.24924200  0.99731200  1
  Li  Li11  1  0.99999400  0.74928200  0.99732200  1
  Li  Li12  1  0.00000200  0.41740100  0.33610000  1
  Li  Li13  1  0.00000800  0.91739700  0.33607900  1
  Mn  Mn14  1  0.00001500  0.50375000  0.02120700  1
  Mn  Mn15  1  0.00000600  0.16289500  0.31218400  1
  Mn  Mn16  1  0.49999700  0.24929200  0.49164600  1
  Mn  Mn17  1  0.49998100  0.41735600  0.84166600  1
  Mn  Mn18  1  0.99999700  0.00369200  0.02142300  1
  Mn  Mn19  1  0.00000100  0.66298500  0.31199300  1
  Mn  Mn20  1  0.49997100  0.74937100  0.49161700  1
  Mn  Mn21  1  0.49999300  0.91732000  0.84175300  1
  Co  Co22  1  0.00000200  0.33332600  0.66655500  1
  Co  Co23  1  0.00000200  0.83335100  0.66660300  1
  O  O24  1  0.50001500  0.46384500  0.16397200  1
  O  O25  1  0.50001300  0.96375900  0.16417400  1
  O  O26  1  0.49999200  0.20280300  0.16944300  1
  O  O27  1  0.49998900  0.70291300  0.16929300  1
  O  O28  1  0.99999700  0.03790400  0.30207700  1
  O  O29  1  0.00000500  0.53799100  0.30195000  1
  O  O30  1  0.00001600  0.12865700  0.03147300  1
  O  O31  1  0.00000000  0.62876500  0.03138000  1
  O  O32  1  0.50000600  0.12933900  0.48637900  1
  O  O33  1  0.50000600  0.62945000  0.48614300  1
  O  O34  1  0.49999600  0.03722500  0.84728400  1
  O  O35  1  0.49999000  0.53731300  0.84699900  1
  O  O36  1  0.00000600  0.20934000  0.62616200  1
  O  O37  1  0.99999500  0.70943400  0.62620800  1
  O  O38  1  0.99999400  0.45733100  0.70732900  1
  O  O39  1  0.00000800  0.95727200  0.70734700  1
  O  O40  1  0.00000400  0.37892200  0.99292500  1
  O  O41  1  0.00002300  0.87888300  0.99293300  1
  O  O42  1  0.99999400  0.28772100  0.34014300  1
  O  O43  1  0.99996800  0.78779300  0.34025200  1
  O  O44  1  0.50000000  0.29631900  0.81752600  1
  O  O45  1  0.49993800  0.79636700  0.81770700  1
  O  O46  1  0.50000100  0.37034100  0.51558100  1
  O  O47  1  0.50006300  0.87034000  0.51546900  1
