# generated using pymatgen
data_Gd3Ag
_symmetry_space_group_name_H-M   'P 1'
_cell_length_a   6.92494363
_cell_length_b   6.92494363
_cell_length_c   5.45094200
_cell_angle_alpha   90.00000000
_cell_angle_beta   90.00000000
_cell_angle_gamma   119.99999649
_symmetry_Int_Tables_number   1
_chemical_formula_structural   Gd3Ag
_chemical_formula_sum   'Gd6 Ag2'
_cell_volume   226.37824748
_cell_formula_units_Z   2
loop_
 _symmetry_equiv_pos_site_id
 _symmetry_equiv_pos_as_xyz
  1  'x, y, z'
loop_
 _atom_site_type_symbol
 _atom_site_label
 _atom_site_symmetry_multiplicity
 _atom_site_fract_x
 _atom_site_fract_y
 _atom_site_fract_z
 _atom_site_occupancy
  Gd  Gd0  1  0.17265900  0.34531800  0.25000000  1
  Gd  Gd1  1  0.65468200  0.82734100  0.25000000  1
  Gd  Gd2  1  0.17265900  0.82734100  0.25000000  1
  Gd  Gd3  1  0.82734100  0.65468200  0.75000000  1
  Gd  Gd4  1  0.34531800  0.17265900  0.75000000  1
  Gd  Gd5  1  0.82734100  0.17265900  0.75000000  1
  Ag  Ag6  1  0.33333300  0.66666700  0.75000000  1
  Ag  Ag7  1  0.66666700  0.33333300  0.25000000  1
