# generated using pymatgen
data_MgV2O6
_symmetry_space_group_name_H-M   'P 1'
_cell_length_a   5.03888676
_cell_length_b   5.03888676
_cell_length_c   6.82966571
_cell_angle_alpha   69.67349480
_cell_angle_beta   69.67349480
_cell_angle_gamma   41.06683914
_symmetry_Int_Tables_number   1
_chemical_formula_structural   MgV2O6
_chemical_formula_sum   'Mg1 V2 O6'
_cell_volume   105.79124267
_cell_formula_units_Z   1
loop_
 _symmetry_equiv_pos_site_id
 _symmetry_equiv_pos_as_xyz
  1  'x, y, z'
loop_
 _atom_site_type_symbol
 _atom_site_label
 _atom_site_symmetry_multiplicity
 _atom_site_fract_x
 _atom_site_fract_y
 _atom_site_fract_z
 _atom_site_occupancy
  Mg  Mg0  1  0.00000000  0.00000000  0.50000000  1
  V  V1  1  0.80563600  0.80563600  0.15626000  1
  V  V2  1  0.19436400  0.19436400  0.84374000  1
  O  O3  1  0.96118300  0.96118300  0.22424500  1
  O  O4  1  0.65095400  0.65095400  0.38662900  1
  O  O5  1  0.69390200  0.69390200  0.93446000  1
  O  O6  1  0.30609800  0.30609800  0.06554000  1
  O  O7  1  0.34904600  0.34904600  0.61337100  1
  O  O8  1  0.03881700  0.03881700  0.77575500  1
