# generated using pymatgen
data_LiMn(PO3)4
_symmetry_space_group_name_H-M   'P 1'
_cell_length_a   13.33334000
_cell_length_b   8.34865200
_cell_length_c   9.53604000
_cell_angle_alpha   90.00000000
_cell_angle_beta   90.00000000
_cell_angle_gamma   90.00000000
_symmetry_Int_Tables_number   1
_chemical_formula_structural   LiMn(PO3)4
_chemical_formula_sum   'Li4 Mn4 P16 O48'
_cell_volume   1061.50825633
_cell_formula_units_Z   4
loop_
 _symmetry_equiv_pos_site_id
 _symmetry_equiv_pos_as_xyz
  1  'x, y, z'
loop_
 _atom_site_type_symbol
 _atom_site_label
 _atom_site_symmetry_multiplicity
 _atom_site_fract_x
 _atom_site_fract_y
 _atom_site_fract_z
 _atom_site_occupancy
  Li  Li0  1  0.00000000  0.61008700  0.25000000  1
  Li  Li1  1  0.00000000  0.38991300  0.75000000  1
  Li  Li2  1  0.50000000  0.11008700  0.25000000  1
  Li  Li3  1  0.50000000  0.88991300  0.75000000  1
  Mn  Mn4  1  0.00000000  0.00621300  0.75000000  1
  Mn  Mn5  1  0.00000000  0.99378700  0.25000000  1
  Mn  Mn6  1  0.50000000  0.49378700  0.25000000  1
  Mn  Mn7  1  0.50000000  0.50621300  0.75000000  1
  P  P8  1  0.14034100  0.17758100  0.50497500  1
  P  P9  1  0.14034100  0.82241900  0.00497500  1
  P  P10  1  0.15238700  0.46285900  0.00978500  1
  P  P11  1  0.15238700  0.53714100  0.50978500  1
  P  P12  1  0.34761300  0.03714100  0.50978500  1
  P  P13  1  0.34761300  0.96285900  0.00978500  1
  P  P14  1  0.35965900  0.32241900  0.00497500  1
  P  P15  1  0.35965900  0.67758100  0.50497500  1
  P  P16  1  0.64034100  0.32241900  0.49502500  1
  P  P17  1  0.64034100  0.67758100  0.99502500  1
  P  P18  1  0.65238700  0.03714100  0.99021500  1
  P  P19  1  0.65238700  0.96285900  0.49021500  1
  P  P20  1  0.84761300  0.46285900  0.49021500  1
  P  P21  1  0.84761300  0.53714100  0.99021500  1
  P  P22  1  0.85965900  0.17758100  0.99502500  1
  P  P23  1  0.85965900  0.82241900  0.49502500  1
  O  O24  1  0.06673900  0.17973900  0.62469100  1
  O  O25  1  0.06673900  0.82026100  0.12469100  1
  O  O26  1  0.07976200  0.54631600  0.62982400  1
  O  O27  1  0.07976200  0.45368400  0.12982400  1
  O  O28  1  0.10858200  0.09823300  0.37074200  1
  O  O29  1  0.10858200  0.90176700  0.87074200  1
  O  O30  1  0.12343600  0.62839700  0.37994400  1
  O  O31  1  0.12343600  0.37160300  0.87994400  1
  O  O32  1  0.17846200  0.35445300  0.46907800  1
  O  O33  1  0.17846200  0.64554700  0.96907800  1
  O  O34  1  0.23970100  0.09504000  0.56657400  1
  O  O35  1  0.23970100  0.90496000  0.06657400  1
  O  O36  1  0.26029900  0.40496000  0.06657400  1
  O  O37  1  0.26029900  0.59504000  0.56657400  1
  O  O38  1  0.32153800  0.14554700  0.96907800  1
  O  O39  1  0.32153800  0.85445300  0.46907800  1
  O  O40  1  0.37656400  0.12839700  0.37994400  1
  O  O41  1  0.37656400  0.87160300  0.87994400  1
  O  O42  1  0.39141800  0.59823300  0.37074200  1
  O  O43  1  0.39141800  0.40176700  0.87074200  1
  O  O44  1  0.42023800  0.04631600  0.62982400  1
  O  O45  1  0.42023800  0.95368400  0.12982400  1
  O  O46  1  0.43326100  0.67973900  0.62469100  1
  O  O47  1  0.43326100  0.32026100  0.12469100  1
  O  O48  1  0.56673900  0.32026100  0.37530900  1
  O  O49  1  0.56673900  0.67973900  0.87530900  1
  O  O50  1  0.57976200  0.04631600  0.87017600  1
  O  O51  1  0.57976200  0.95368400  0.37017600  1
  O  O52  1  0.60858200  0.40176700  0.62925800  1
  O  O53  1  0.60858200  0.59823300  0.12925800  1
  O  O54  1  0.62343600  0.12839700  0.12005600  1
  O  O55  1  0.62343600  0.87160300  0.62005600  1
  O  O56  1  0.67846200  0.14554700  0.53092200  1
  O  O57  1  0.67846200  0.85445300  0.03092200  1
  O  O58  1  0.73970100  0.40496000  0.43342600  1
  O  O59  1  0.73970100  0.59504000  0.93342600  1
  O  O60  1  0.76029900  0.09504000  0.93342600  1
  O  O61  1  0.76029900  0.90496000  0.43342600  1
  O  O62  1  0.82153800  0.35445300  0.03092200  1
  O  O63  1  0.82153800  0.64554700  0.53092200  1
  O  O64  1  0.87656400  0.37160300  0.62005600  1
  O  O65  1  0.87656400  0.62839700  0.12005600  1
  O  O66  1  0.89141800  0.09823300  0.12925800  1
  O  O67  1  0.89141800  0.90176700  0.62925800  1
  O  O68  1  0.92023800  0.45368400  0.37017600  1
  O  O69  1  0.92023800  0.54631600  0.87017600  1
  O  O70  1  0.93326100  0.17973900  0.87530900  1
  O  O71  1  0.93326100  0.82026100  0.37530900  1
