# generated using pymatgen
data_Na4Mn2C4SO16
_symmetry_space_group_name_H-M   'P 1'
_cell_length_a   9.85727100
_cell_length_b   9.86119643
_cell_length_c   9.93142959
_cell_angle_alpha   118.55349682
_cell_angle_beta   119.14531949
_cell_angle_gamma   91.09488170
_symmetry_Int_Tables_number   1
_chemical_formula_structural   Na4Mn2C4SO16
_chemical_formula_sum   'Na8 Mn4 C8 S2 O32'
_cell_volume   699.53711903
_cell_formula_units_Z   2
loop_
 _symmetry_equiv_pos_site_id
 _symmetry_equiv_pos_as_xyz
  1  'x, y, z'
loop_
 _atom_site_type_symbol
 _atom_site_label
 _atom_site_symmetry_multiplicity
 _atom_site_fract_x
 _atom_site_fract_y
 _atom_site_fract_z
 _atom_site_occupancy
  Na  Na0  1  0.33503600  0.08555200  0.74910200  1
  Na  Na1  1  0.08900700  0.34337900  0.66437800  1
  Na  Na2  1  0.91681200  0.09145600  0.76147900  1
  Na  Na3  1  0.32378000  0.08611100  0.16687800  1
  Na  Na4  1  0.65686200  0.91261600  0.83450900  1
  Na  Na5  1  0.91264000  0.66228900  0.75022900  1
  Na  Na6  1  0.92087800  0.65291000  0.33333000  1
  Na  Na7  1  0.65704200  0.90974600  0.23973000  1
  Mn  Mn8  1  0.00416000  0.50248000  0.00701400  1
  Mn  Mn9  1  0.50115600  0.49938400  0.99831300  1
  Mn  Mn10  1  0.49439000  0.49705700  0.49625100  1
  Mn  Mn11  1  0.49621800  0.99930800  0.49780200  1
  C  C12  1  0.71161000  0.28698500  0.92988100  1
  C  C13  1  0.35646600  0.28229800  0.56683400  1
  C  C14  1  0.72081500  0.64582700  0.93658000  1
  C  C15  1  0.71256700  0.28564600  0.56582700  1
  C  C16  1  0.28185800  0.35249200  0.06212600  1
  C  C17  1  0.28980100  0.71508600  0.43484600  1
  C  C18  1  0.28733900  0.71000200  0.06526600  1
  C  C19  1  0.64842300  0.72087800  0.43853500  1
  S  S20  1  0.12310300  0.87569700  0.75038300  1
  S  S21  1  0.87312000  0.12532600  0.24918300  1
  O  O22  1  0.13968100  0.35300000  0.94621600  1
  O  O23  1  0.60177900  0.14415700  0.80382300  1
  O  O24  1  0.34059100  0.29838300  0.69475700  1
  O  O25  1  0.31593100  0.58972700  0.95946300  1
  O  O26  1  0.36314300  0.14700800  0.45448800  1
  O  O27  1  0.05870100  0.69408800  0.63074800  1
  O  O28  1  0.05729300  0.93515100  0.87030100  1
  O  O29  1  0.36289900  0.40481000  0.55007800  1
  O  O30  1  0.85292800  0.30996500  0.95098000  1
  O  O31  1  0.60400700  0.65004300  0.96612700  1
  O  O32  1  0.68944300  0.13878000  0.53489500  1
  O  O33  1  0.06191900  0.94058400  0.62871500  1
  O  O34  1  0.30587900  0.94165300  0.87298900  1
  O  O35  1  0.30595300  0.34378900  0.19530100  1
  O  O36  1  0.14890400  0.60642900  0.30246500  1
  O  O37  1  0.59052800  0.31240200  0.45902300  1
  O  O38  1  0.41157700  0.68788700  0.54278300  1
  O  O39  1  0.70006500  0.65824000  0.80554200  1
  O  O40  1  0.85519500  0.39513000  0.69640700  1
  O  O41  1  0.68862300  0.05878300  0.12583000  1
  O  O42  1  0.93096700  0.06512500  0.37518700  1
  O  O43  1  0.31557600  0.86297100  0.47062500  1
  O  O44  1  0.39759100  0.35211700  0.03208800  1
  O  O45  1  0.14055600  0.68367900  0.03090200  1
  O  O46  1  0.64503900  0.60340800  0.46461600  1
  O  O47  1  0.93679600  0.06570200  0.12890500  1
  O  O48  1  0.93453000  0.30757200  0.36739500  1
  O  O49  1  0.64916900  0.86217300  0.55404400  1
  O  O50  1  0.68637100  0.40784400  0.03853300  1
  O  O51  1  0.65863000  0.69990600  0.30622400  1
  O  O52  1  0.39727700  0.85183200  0.19554200  1
  O  O53  1  0.85583000  0.63514000  0.04653400  1
