# generated using pymatgen
data_Fe10OF19
_symmetry_space_group_name_H-M   'P 1'
_cell_length_a   4.79219100
_cell_length_b   8.16531676
_cell_length_c   10.13370298
_cell_angle_alpha   73.08878989
_cell_angle_beta   89.47798319
_cell_angle_gamma   89.68074026
_symmetry_Int_Tables_number   1
_chemical_formula_structural   Fe10OF19
_chemical_formula_sum   'Fe10 O1 F19'
_cell_volume   379.36458322
_cell_formula_units_Z   1
loop_
 _symmetry_equiv_pos_site_id
 _symmetry_equiv_pos_as_xyz
  1  'x, y, z'
loop_
 _atom_site_type_symbol
 _atom_site_label
 _atom_site_symmetry_multiplicity
 _atom_site_fract_x
 _atom_site_fract_y
 _atom_site_fract_z
 _atom_site_occupancy
  Fe  Fe0  1  0.49943300  0.30045100  0.09954300  1
  Fe  Fe1  1  0.49862400  0.09944700  0.69936300  1
  Fe  Fe2  1  0.47732800  0.90522200  0.31089200  1
  Fe  Fe3  1  0.50138000  0.70019800  0.89875100  1
  Fe  Fe4  1  0.50266100  0.49863300  0.49987500  1
  Fe  Fe5  1  0.99453300  0.60163400  0.20092400  1
  Fe  Fe6  1  0.01472200  0.19061600  0.39951000  1
  Fe  Fe7  1  0.01469700  0.80500100  0.59251800  1
  Fe  Fe8  1  0.99955200  0.40121900  0.79921800  1
  Fe  Fe9  1  0.99563600  0.99822200  0.00134300  1
  O  O10  1  0.20619700  0.95854300  0.41692300  1
  F  F11  1  0.19758000  0.75972200  0.02180300  1
  F  F12  1  0.20077200  0.55916800  0.61910100  1
  F  F13  1  0.19966900  0.36239900  0.21847600  1
  F  F14  1  0.19920900  0.15963700  0.82224400  1
  F  F15  1  0.30803500  0.05094700  0.12410500  1
  F  F16  1  0.30831100  0.66891300  0.31496000  1
  F  F17  1  0.30007700  0.45963600  0.92049900  1
  F  F18  1  0.29998400  0.85941600  0.72337200  1
  F  F19  1  0.30052900  0.26337000  0.52104000  1
  F  F20  1  0.69532700  0.13095900  0.27909700  1
  F  F21  1  0.69545300  0.74508200  0.47192300  1
  F  F22  1  0.69947500  0.34015600  0.68057400  1
  F  F23  1  0.69919300  0.93986500  0.88095900  1
  F  F24  1  0.69922500  0.53992800  0.07990700  1
  F  F25  1  0.80304500  0.43756700  0.37944100  1
  F  F26  1  0.79886400  0.04041300  0.58048400  1
  F  F27  1  0.78609900  0.84247300  0.18538800  1
  F  F28  1  0.80170100  0.23902800  0.98111700  1
  F  F29  1  0.80268800  0.64213400  0.77665100  1
