# generated using pymatgen
data_Li4V2Si(PO6)2
_symmetry_space_group_name_H-M   'P 1'
_cell_length_a   15.57615294
_cell_length_b   9.01897683
_cell_length_c   8.48787491
_cell_angle_alpha   122.15065821
_cell_angle_beta   72.42790938
_cell_angle_gamma   89.95888568
_symmetry_Int_Tables_number   1
_chemical_formula_structural   Li4V2Si(PO6)2
_chemical_formula_sum   'Li16 V8 Si4 P8 O48'
_cell_volume   942.99560573
_cell_formula_units_Z   4
loop_
 _symmetry_equiv_pos_site_id
 _symmetry_equiv_pos_as_xyz
  1  'x, y, z'
loop_
 _atom_site_type_symbol
 _atom_site_label
 _atom_site_symmetry_multiplicity
 _atom_site_fract_x
 _atom_site_fract_y
 _atom_site_fract_z
 _atom_site_occupancy
  Li  Li0  1  0.99969300  0.49403700  0.50491500  1
  Li  Li1  1  0.08090000  0.09121500  0.27520400  1
  Li  Li2  1  0.16797200  0.57063500  0.24624000  1
  Li  Li3  1  0.25408700  0.76401400  0.99545300  1
  Li  Li4  1  0.12753900  0.51816300  0.71445400  1
  Li  Li5  1  0.37767100  0.95231700  0.21992700  1
  Li  Li6  1  0.33049000  0.93231600  0.77358000  1
  Li  Li7  1  0.41893700  0.42478700  0.75041400  1
  Li  Li8  1  0.49809400  0.99742400  0.50735500  1
  Li  Li9  1  0.57921400  0.58895800  0.27142200  1
  Li  Li10  1  0.67163300  0.06862000  0.22683100  1
  Li  Li11  1  0.75440400  0.24277300  0.98725100  1
  Li  Li12  1  0.62507000  0.03575200  0.75981200  1
  Li  Li13  1  0.87449800  0.46395300  0.25303300  1
  Li  Li14  1  0.83104000  0.42551000  0.75503900  1
  Li  Li15  1  0.91901000  0.91595000  0.74084900  1
  V  V16  1  0.06794900  0.28453900  0.07596600  1
  V  V17  1  0.17911700  0.96595500  0.42572600  1
  V  V18  1  0.31960500  0.54112800  0.57652700  1
  V  V19  1  0.57093400  0.78873900  0.07222900  1
  V  V20  1  0.42774100  0.21142300  0.92737100  1
  V  V21  1  0.67966600  0.46453000  0.42706200  1
  V  V22  1  0.82003600  0.03785200  0.57500500  1
  V  V23  1  0.93048100  0.71257200  0.92173700  1
  Si  Si24  1  0.22707400  0.22557300  0.24773000  1
  Si  Si25  1  0.47807500  0.77300100  0.74669300  1
  Si  Si26  1  0.77360700  0.77287700  0.74990000  1
  Si  Si27  1  0.97693300  0.27315400  0.74829000  1
  P  P28  1  0.02320400  0.72566800  0.25352300  1
  P  P29  1  0.12644400  0.83017300  0.75024200  1
  P  P30  1  0.27273200  0.27941600  0.75426200  1
  P  P31  1  0.37633600  0.67390700  0.25285000  1
  P  P32  1  0.52297600  0.22694400  0.25535000  1
  P  P33  1  0.62293800  0.32845400  0.75202100  1
  P  P34  1  0.72780100  0.72005600  0.24197200  1
  P  P35  1  0.87256500  0.16983800  0.25026400  1
  O  O36  1  0.00447100  0.68498500  0.06802900  1
  O  O37  1  0.03008100  0.56137500  0.27109400  1
  O  O38  1  0.12106200  0.77254900  0.23019400  1
  O  O39  1  0.06173800  0.12489900  0.54564100  1
  O  O40  1  0.05187800  0.71196100  0.72749300  1
  O  O41  1  0.12402600  0.30275200  0.27063100  1
  O  O42  1  0.15822100  0.82973300  0.56055600  1
  O  O43  1  0.21978800  0.03165500  0.22380900  1
  O  O44  1  0.09177100  0.02018500  0.93970000  1
  O  O45  1  0.24165700  0.38458700  0.44920700  1
  O  O46  1  0.31091700  0.17184200  0.04568200  1
  O  O47  1  0.20180300  0.73995300  0.77637300  1
  O  O48  1  0.30083900  0.77276000  0.23429700  1
  O  O49  1  0.19458000  0.32564800  0.94476000  1
  O  O50  1  0.25619500  0.13716600  0.56483300  1
  O  O51  1  0.40551700  0.48417900  0.06318700  1
  O  O52  1  0.28153700  0.46181100  0.77444000  1
  O  O53  1  0.34330700  0.67357600  0.44177000  1
  O  O54  1  0.37015700  0.20633900  0.73124200  1
  O  O55  1  0.45354200  0.78697000  0.27316100  1
  O  O56  1  0.44510800  0.37274300  0.44494200  1
  O  O57  1  0.37590900  0.71621000  0.76915700  1
  O  O58  1  0.50694300  0.17814300  0.06452800  1
  O  O59  1  0.53111300  0.06775400  0.27967100  1
  O  O60  1  0.46820300  0.94396600  0.72551400  1
  O  O61  1  0.49109500  0.81930800  0.95064200  1
  O  O62  1  0.62012500  0.27910700  0.23030700  1
  O  O63  1  0.56405400  0.62884400  0.54528600  1
  O  O64  1  0.54476100  0.21692800  0.73598800  1
  O  O65  1  0.63004400  0.79727600  0.26954100  1
  O  O66  1  0.65356900  0.32751800  0.56252800  1
  O  O67  1  0.72084100  0.53728400  0.21983200  1
  O  O68  1  0.59440000  0.51698600  0.94211600  1
  O  O69  1  0.74581900  0.86373500  0.43005400  1
  O  O70  1  0.80391700  0.67578300  0.05041900  1
  O  O71  1  0.69725900  0.22550900  0.76850000  1
  O  O72  1  0.79584700  0.25564600  0.22186800  1
  O  O73  1  0.68720500  0.83352500  0.95209000  1
  O  O74  1  0.76103000  0.61236400  0.54728900  1
  O  O75  1  0.91023000  0.97996000  0.06155600  1
  O  O76  1  0.78297900  0.96337500  0.76614400  1
  O  O77  1  0.83748900  0.16805000  0.43862200  1
  O  O78  1  0.87634700  0.70235700  0.73325000  1
  O  O79  1  0.94562900  0.29103300  0.27918100  1
  O  O80  1  0.94643200  0.87056700  0.44649600  1
  O  O81  1  0.87401100  0.22064700  0.76335900  1
  O  O82  1  0.97048600  0.44589000  0.72900200  1
  O  O83  1  0.98960300  0.31234500  0.94952300  1
