# generated using pymatgen
data_La3ScO6
_symmetry_space_group_name_H-M   'P 1'
_cell_length_a   7.61824084
_cell_length_b   7.61824084
_cell_length_c   5.85250900
_cell_angle_alpha   90.00000000
_cell_angle_beta   90.00000000
_cell_angle_gamma   102.96508121
_symmetry_Int_Tables_number   1
_chemical_formula_structural   La3ScO6
_chemical_formula_sum   'La6 Sc2 O12'
_cell_volume   331.00643757
_cell_formula_units_Z   2
loop_
 _symmetry_equiv_pos_site_id
 _symmetry_equiv_pos_as_xyz
  1  'x, y, z'
loop_
 _atom_site_type_symbol
 _atom_site_label
 _atom_site_symmetry_multiplicity
 _atom_site_fract_x
 _atom_site_fract_y
 _atom_site_fract_z
 _atom_site_occupancy
  La  La0  1  0.08799500  0.30072500  0.46865500  1
  La  La1  1  0.30072500  0.08799500  0.96865500  1
  La  La2  1  0.60370100  0.39629900  0.42953200  1
  La  La3  1  0.39629900  0.60370100  0.92953200  1
  La  La4  1  0.69927500  0.91200500  0.46865500  1
  La  La5  1  0.91200500  0.69927500  0.96865500  1
  Sc  Sc6  1  0.80629600  0.19370400  0.99839000  1
  Sc  Sc7  1  0.19370400  0.80629600  0.49839000  1
  O  O8  1  0.32519300  0.35358800  0.20126000  1
  O  O9  1  0.35358800  0.32519300  0.70126000  1
  O  O10  1  0.58080600  0.11062400  0.17684200  1
  O  O11  1  0.11062400  0.58080600  0.67684200  1
  O  O12  1  0.95763500  0.04236500  0.13848600  1
  O  O13  1  0.78462400  0.21537600  0.65402300  1
  O  O14  1  0.21537600  0.78462400  0.15402300  1
  O  O15  1  0.04236500  0.95763500  0.63848600  1
  O  O16  1  0.41919400  0.88937600  0.67684200  1
  O  O17  1  0.88937600  0.41919400  0.17684200  1
  O  O18  1  0.64641200  0.67480700  0.20126000  1
  O  O19  1  0.67480700  0.64641200  0.70126000  1
