# generated using pymatgen
data_Fe2OF3
_symmetry_space_group_name_H-M   'P 1'
_cell_length_a   4.75184700
_cell_length_b   5.66294808
_cell_length_c   13.66022048
_cell_angle_alpha   79.67150802
_cell_angle_beta   89.76429770
_cell_angle_gamma   89.88165365
_symmetry_Int_Tables_number   1
_chemical_formula_structural   Fe2OF3
_chemical_formula_sum   'Fe10 O5 F15'
_cell_volume   361.62939131
_cell_formula_units_Z   5
loop_
 _symmetry_equiv_pos_site_id
 _symmetry_equiv_pos_as_xyz
  1  'x, y, z'
loop_
 _atom_site_type_symbol
 _atom_site_label
 _atom_site_symmetry_multiplicity
 _atom_site_fract_x
 _atom_site_fract_y
 _atom_site_fract_z
 _atom_site_occupancy
  Fe  Fe0  1  0.50029900  0.49922000  0.99913500  1
  Fe  Fe1  1  0.49119000  0.69630000  0.40190100  1
  Fe  Fe2  1  0.47187600  0.09436900  0.21222500  1
  Fe  Fe3  1  0.55069300  0.28722000  0.59188400  1
  Fe  Fe4  1  0.51537400  0.90880300  0.78994000  1
  Fe  Fe5  1  0.00547300  0.19749800  0.40007000  1
  Fe  Fe6  1  0.03234100  0.39514300  0.81105800  1
  Fe  Fe7  1  0.96576900  0.59928100  0.18630800  1
  Fe  Fe8  1  0.99391500  0.80663700  0.60400500  1
  Fe  Fe9  1  0.99817900  0.00090700  0.00035200  1
  O  O10  1  0.78609200  0.70147600  0.04866500  1
  O  O11  1  0.70365600  0.39291800  0.45552900  1
  O  O12  1  0.69121000  0.99562000  0.65092500  1
  O  O13  1  0.28952100  0.99636900  0.35231800  1
  O  O14  1  0.21177900  0.29753400  0.95278400  1
  F  F15  1  0.81341100  0.26182600  0.26402200  1
  F  F16  1  0.80247900  0.06965700  0.86781100  1
  F  F17  1  0.79755900  0.47909600  0.66502100  1
  F  F18  1  0.79622100  0.88721200  0.45570900  1
  F  F19  1  0.70673900  0.19084300  0.06749500  1
  F  F20  1  0.68648900  0.56392500  0.86267200  1
  F  F21  1  0.68843600  0.76051100  0.26818500  1
  F  F22  1  0.30311800  0.24143700  0.72500800  1
  F  F23  1  0.31693600  0.43587800  0.14101600  1
  F  F24  1  0.29156400  0.80850500  0.93766700  1
  F  F25  1  0.30743000  0.62274400  0.53819200  1
  F  F26  1  0.19018400  0.92973600  0.13538200  1
  F  F27  1  0.19565500  0.14661600  0.53377400  1
  F  F28  1  0.20100200  0.50789800  0.33773100  1
  F  F29  1  0.19541100  0.72481900  0.74321800  1
