# generated using pymatgen
data_Fe39Si3O56
_symmetry_space_group_name_H-M   'P 1'
_cell_length_a   13.53735205
_cell_length_b   8.51689300
_cell_length_c   10.45831294
_cell_angle_alpha   65.97200374
_cell_angle_beta   97.36238017
_cell_angle_gamma   90.00000000
_symmetry_Int_Tables_number   1
_chemical_formula_structural   Fe39Si3O56
_chemical_formula_sum   'Fe39 Si3 O56'
_cell_volume   1090.42314621
_cell_formula_units_Z   1
loop_
 _symmetry_equiv_pos_site_id
 _symmetry_equiv_pos_as_xyz
  1  'x, y, z'
loop_
 _atom_site_type_symbol
 _atom_site_label
 _atom_site_symmetry_multiplicity
 _atom_site_fract_x
 _atom_site_fract_y
 _atom_site_fract_z
 _atom_site_occupancy
  Fe  Fe0  1  0.03633600  0.68814200  0.85982000  1
  Fe  Fe1  1  0.03653100  0.69291500  0.36012100  1
  Fe  Fe2  1  0.10652100  0.83367600  0.56875200  1
  Fe  Fe3  1  0.17871100  0.98870500  0.78603100  1
  Fe  Fe4  1  0.14482500  0.28604300  0.42621400  1
  Fe  Fe5  1  0.28748000  0.57508300  0.85855800  1
  Fe  Fe6  1  0.99803200  0.99797100  0.00235800  1
  Fe  Fe7  1  0.39445900  0.91068000  0.93269800  1
  Fe  Fe8  1  0.31844300  0.27168000  0.71390200  1
  Fe  Fe9  1  0.25061000  0.62602800  0.49947200  1
  Fe  Fe10  1  0.17921600  0.98001800  0.28470300  1
  Fe  Fe11  1  0.10632600  0.33875100  0.06845000  1
  Fe  Fe12  1  0.21509900  0.67701800  0.14385700  1
  Fe  Fe13  1  0.35472000  0.96788700  0.57016600  1
  Fe  Fe14  1  0.39459800  0.41516500  0.42938800  1
  Fe  Fe15  1  0.46278100  0.55426400  0.63883600  1
  Fe  Fe16  1  0.53747000  0.69609700  0.85014700  1
  Fe  Fe17  1  0.32287300  0.26588400  0.21418000  1
  Fe  Fe18  1  0.24905700  0.12548200  0.00188300  1
  Fe  Fe19  1  0.57142900  0.13903700  0.71428600  1
  Fe  Fe20  1  0.60538700  0.83195700  0.57842400  1
  Fe  Fe21  1  0.46790600  0.55110200  0.14574000  1
  Fe  Fe22  1  0.53529500  0.19443100  0.35207600  1
  Fe  Fe23  1  0.68007600  0.47881500  0.78973500  1
  Fe  Fe24  1  0.78813700  0.82376600  0.85840600  1
  Fe  Fe25  1  0.49937700  0.25006000  0.99708000  1
  Fe  Fe26  1  0.64348000  0.53285300  0.43149200  1
  Fe  Fe27  1  0.89224700  0.41121500  0.92909900  1
  Fe  Fe28  1  0.67495100  0.98255600  0.28283100  1
  Fe  Fe29  1  0.82441400  0.27129600  0.71466900  1
  Fe  Fe30  1  0.60756200  0.83222200  0.07649500  1
  Fe  Fe31  1  0.74839800  0.12909300  0.49587300  1
  Fe  Fe32  1  0.85537700  0.71935600  0.57001300  1
  Fe  Fe33  1  0.81998400  0.76577800  0.21439200  1
  Fe  Fe34  1  0.89380100  0.41308000  0.42668800  1
  Fe  Fe35  1  0.74825900  0.13026800  0.99918400  1
  Fe  Fe36  1  0.96414600  0.06044900  0.64254000  1
  Fe  Fe37  1  0.92775800  0.10658900  0.28471400  1
  Fe  Fe38  1  0.96364100  0.55043500  0.14386900  1
  Si  Si39  1  0.07142900  0.39299200  0.71428600  1
  Si  Si40  1  0.42892500  0.85964600  0.28423900  1
  Si  Si41  1  0.71393200  0.42959900  0.14433300  1
  O  O42  1  0.04065200  0.44787900  0.84157500  1
  O  O43  1  0.03783900  0.94336700  0.84627100  1
  O  O44  1  0.03176100  0.44328400  0.35644700  1
  O  O45  1  0.10501800  0.07535200  0.58230000  1
  O  O46  1  0.17062900  0.74481500  0.78035100  1
  O  O47  1  0.03817000  0.93898500  0.36975600  1
  O  O48  1  0.25163800  0.88268200  0.98662000  1
  O  O49  1  0.16660100  0.24329300  0.77620200  1
  O  O50  1  0.10220500  0.57516800  0.58699700  1
  O  O51  1  0.17615800  0.72863700  0.29131500  1
  O  O52  1  0.24129000  0.87037500  0.50420800  1
  O  O53  1  0.10468700  0.59445600  0.05881600  1
  O  O54  1  0.38732800  0.15246900  0.92373300  1
  O  O55  1  0.31625100  0.01302600  0.72697500  1
  O  O56  1  0.18684500  0.22952300  0.28087300  1
  O  O57  1  0.11109600  0.08544600  0.07212400  1
  O  O58  1  0.39959300  0.67129400  0.93461400  1
  O  O59  1  0.32331900  0.52235500  0.71040000  1
  O  O60  1  0.25821900  0.37811200  0.49978300  1
  O  O61  1  0.46125100  0.30705800  0.63245500  1
  O  O62  1  0.33289300  0.00803600  0.22401200  1
  O  O63  1  0.25277200  0.36942600  0.00994300  1
  O  O64  1  0.53025400  0.93308400  0.86580200  1
  O  O65  1  0.39642100  0.67638000  0.40947100  1
  O  O66  1  0.53749600  0.45628400  0.85388700  1
  O  O67  1  0.32558400  0.50406400  0.22246400  1
  O  O68  1  0.39083300  0.17552200  0.42046600  1
  O  O69  1  0.46716500  0.80668400  0.64304200  1
  O  O70  1  0.45850800  0.30049200  0.14557600  1
  O  O71  1  0.67569200  0.73544100  0.78553000  1
  O  O72  1  0.60536100  0.59588400  0.57468400  1
  O  O73  1  0.53008000  0.44285900  0.35783800  1
  O  O74  1  0.74643600  0.37156500  0.01910000  1
  O  O75  1  0.68160600  0.22522700  0.79611700  1
  O  O76  1  0.61260300  0.08460200  0.56276900  1
  O  O77  1  0.45747800  0.81622900  0.14911800  1
  O  O78  1  0.52638100  0.93771800  0.35085700  1
  O  O79  1  0.81953800  0.51846900  0.71817200  1
  O  O80  1  0.61647600  0.57428800  0.07771500  1
  O  O81  1  0.74326500  0.89162200  0.49395700  1
  O  O82  1  0.88463800  0.16360900  0.92878900  1
  O  O83  1  0.68537900  0.25106100  0.27945300  1
  O  O84  1  0.82660600  0.02571500  0.70159700  1
  O  O85  1  0.75552900  0.36191600  0.50483800  1
  O  O86  1  0.61277700  0.08641100  0.07073400  1
  O  O87  1  0.68434900  0.73178200  0.28299500  1
  O  O88  1  0.90156700  0.66029800  0.92436300  1
  O  O89  1  0.97625600  0.30520900  0.65236900  1
  O  O90  1  0.81727300  0.01224200  0.20610800  1
  O  O91  1  0.89121900  0.15501600  0.44195100  1
  O  O92  1  0.75202400  0.88170200  0.00810600  1
  O  O93  1  0.89008500  0.66508300  0.41862900  1
  O  O94  1  0.97222800  0.81088000  0.64822100  1
  O  O95  1  0.80996400  0.51776200  0.20456000  1
  O  O96  1  0.95601200  0.79611000  0.14769800  1
  O  O97  1  0.96669900  0.30566600  0.13725700  1
