# generated using pymatgen
data_Eu2CoO4
_symmetry_space_group_name_H-M   'P 1'
_cell_length_a   7.15007500
_cell_length_b   5.89878000
_cell_length_c   10.57857376
_cell_angle_alpha   63.52472296
_cell_angle_beta   90.00000000
_cell_angle_gamma   90.00000000
_symmetry_Int_Tables_number   1
_chemical_formula_structural   Eu2CoO4
_chemical_formula_sum   'Eu8 Co4 O16'
_cell_volume   399.37831524
_cell_formula_units_Z   4
loop_
 _symmetry_equiv_pos_site_id
 _symmetry_equiv_pos_as_xyz
  1  'x, y, z'
loop_
 _atom_site_type_symbol
 _atom_site_label
 _atom_site_symmetry_multiplicity
 _atom_site_fract_x
 _atom_site_fract_y
 _atom_site_fract_z
 _atom_site_occupancy
  Eu  Eu0  1  0.99308700  0.48888600  0.30226300  1
  Eu  Eu1  1  0.35492300  0.20195100  0.56855500  1
  Eu  Eu2  1  0.49308700  0.51111400  0.19773700  1
  Eu  Eu3  1  0.85492300  0.79804900  0.93144500  1
  Eu  Eu4  1  0.14507700  0.20195100  0.06855500  1
  Eu  Eu5  1  0.50691300  0.48888600  0.80226300  1
  Eu  Eu6  1  0.64507700  0.79804900  0.43144500  1
  Eu  Eu7  1  0.00691300  0.51111400  0.69773700  1
  Co  Co8  1  0.78518600  0.14658300  0.58444300  1
  Co  Co9  1  0.28518600  0.85341700  0.91555700  1
  Co  Co10  1  0.71481400  0.14658300  0.08444300  1
  Co  Co11  1  0.21481400  0.85341700  0.41555700  1
  O  O12  1  0.65492100  0.37696000  0.62867300  1
  O  O13  1  0.26588900  0.20063500  0.80173200  1
  O  O14  1  0.15347900  0.78302100  0.08445900  1
  O  O15  1  0.03013300  0.23941700  0.56437700  1
  O  O16  1  0.65347900  0.21697900  0.41554100  1
  O  O17  1  0.53013300  0.76058300  0.93562300  1
  O  O18  1  0.84507900  0.37696000  0.12867300  1
  O  O19  1  0.76588900  0.79936500  0.69826800  1
  O  O20  1  0.23411100  0.20063500  0.30173200  1
  O  O21  1  0.15492100  0.62304000  0.87132700  1
  O  O22  1  0.46986700  0.23941700  0.06437700  1
  O  O23  1  0.34652100  0.78302100  0.58445900  1
  O  O24  1  0.96986700  0.76058300  0.43562300  1
  O  O25  1  0.84652100  0.21697900  0.91554100  1
  O  O26  1  0.73411100  0.79936500  0.19826800  1
  O  O27  1  0.34507900  0.62304000  0.37132700  1
