# generated using pymatgen
data_PrYSi2O7
_symmetry_space_group_name_H-M   'P 1'
_cell_length_a   5.58919394
_cell_length_b   9.50731200
_cell_length_c   11.72783539
_cell_angle_alpha   90.00000000
_cell_angle_beta   92.36926430
_cell_angle_gamma   90.00000000
_symmetry_Int_Tables_number   1
_chemical_formula_structural   PrYSi2O7
_chemical_formula_sum   'Pr4 Y4 Si8 O28'
_cell_volume   622.66344798
_cell_formula_units_Z   4
loop_
 _symmetry_equiv_pos_site_id
 _symmetry_equiv_pos_as_xyz
  1  'x, y, z'
loop_
 _atom_site_type_symbol
 _atom_site_label
 _atom_site_symmetry_multiplicity
 _atom_site_fract_x
 _atom_site_fract_y
 _atom_site_fract_z
 _atom_site_occupancy
  Pr  Pr0  1  0.25133000  0.30751600  0.68342100  1
  Pr  Pr1  1  0.24867000  0.80751600  0.81657900  1
  Pr  Pr2  1  0.74867000  0.69248400  0.31657900  1
  Pr  Pr3  1  0.75133000  0.19248400  0.18342100  1
  Y  Y4  1  0.71784200  0.12542300  0.86224500  1
  Y  Y5  1  0.78215800  0.62542300  0.63775500  1
  Y  Y6  1  0.28215800  0.87457700  0.13775500  1
  Y  Y7  1  0.21784200  0.37457700  0.36224500  1
  Si  Si8  1  0.45279500  0.01499900  0.39907300  1
  Si  Si9  1  0.04720500  0.51499900  0.10092700  1
  Si  Si10  1  0.54720500  0.98500100  0.60092700  1
  Si  Si11  1  0.95279500  0.48500100  0.89907300  1
  Si  Si12  1  0.28552000  0.65358400  0.54346100  1
  Si  Si13  1  0.21448000  0.15358400  0.95653900  1
  Si  Si14  1  0.71448000  0.34641600  0.45653900  1
  Si  Si15  1  0.78552000  0.84641600  0.04346100  1
  O  O16  1  0.40806900  0.15019100  0.31400600  1
  O  O17  1  0.09193100  0.65019100  0.18599400  1
  O  O18  1  0.59193100  0.84980900  0.68599400  1
  O  O19  1  0.90806900  0.34980900  0.81400600  1
  O  O20  1  0.44492900  0.87891000  0.31281800  1
  O  O21  1  0.05507100  0.37891000  0.18718200  1
  O  O22  1  0.55507100  0.12109000  0.68718200  1
  O  O23  1  0.94492900  0.62109000  0.81281800  1
  O  O24  1  0.88350900  0.96001900  0.14848400  1
  O  O25  1  0.61649100  0.46001900  0.35151600  1
  O  O26  1  0.11649100  0.03998100  0.85151600  1
  O  O27  1  0.38350900  0.53998100  0.64848400  1
  O  O28  1  0.11365200  0.75659600  0.61877300  1
  O  O29  1  0.38634800  0.25659600  0.88122700  1
  O  O30  1  0.88634800  0.24340400  0.38122700  1
  O  O31  1  0.61365200  0.74340400  0.11877300  1
  O  O32  1  0.79125800  0.49873900  0.01684700  1
  O  O33  1  0.70874200  0.99873900  0.48315300  1
  O  O34  1  0.20874200  0.50126100  0.98315300  1
  O  O35  1  0.29125800  0.00126100  0.51684700  1
  O  O36  1  0.04185400  0.80118300  0.99185500  1
  O  O37  1  0.45814700  0.30118300  0.50814500  1
  O  O38  1  0.95814700  0.19881700  0.00814500  1
  O  O39  1  0.54185300  0.69881700  0.49185500  1
  O  O40  1  0.60956200  0.90491600  0.93669600  1
  O  O41  1  0.89043800  0.40491600  0.56330400  1
  O  O42  1  0.39043800  0.09508400  0.06330400  1
  O  O43  1  0.10956200  0.59508400  0.43669600  1
