# generated using pymatgen
data_Ba3(ClO)2
_symmetry_space_group_name_H-M   'P 1'
_cell_length_a   8.13508400
_cell_length_b   7.59243100
_cell_length_c   7.62629505
_cell_angle_alpha   63.97415737
_cell_angle_beta   90.00000000
_cell_angle_gamma   90.00000000
_symmetry_Int_Tables_number   1
_chemical_formula_structural   Ba3(ClO)2
_chemical_formula_sum   'Ba6 Cl4 O4'
_cell_volume   423.27351264
_cell_formula_units_Z   2
loop_
 _symmetry_equiv_pos_site_id
 _symmetry_equiv_pos_as_xyz
  1  'x, y, z'
loop_
 _atom_site_type_symbol
 _atom_site_label
 _atom_site_symmetry_multiplicity
 _atom_site_fract_x
 _atom_site_fract_y
 _atom_site_fract_z
 _atom_site_occupancy
  Ba  Ba0  1  0.50000000  0.00000000  0.50000000  1
  Ba  Ba1  1  0.00000000  0.00000000  0.00000000  1
  Ba  Ba2  1  0.88799200  0.60215500  0.75911500  1
  Ba  Ba3  1  0.38799200  0.39784500  0.74088500  1
  Ba  Ba4  1  0.61200800  0.60215500  0.25911500  1
  Ba  Ba5  1  0.11200800  0.39784500  0.24088500  1
  Cl  Cl6  1  0.33778600  0.81935100  0.92563900  1
  Cl  Cl7  1  0.16221400  0.81935100  0.42563900  1
  Cl  Cl8  1  0.83778600  0.18064900  0.57436100  1
  Cl  Cl9  1  0.66221400  0.18064900  0.07436100  1
  O  O10  1  0.61288400  0.66098800  0.56342300  1
  O  O11  1  0.11288400  0.33901200  0.93657700  1
  O  O12  1  0.88711600  0.66098800  0.06342300  1
  O  O13  1  0.38711600  0.33901200  0.43657700  1
