# generated using pymatgen
data_TeC2S2(N2Cl)2
_symmetry_space_group_name_H-M   'P 1'
_cell_length_a   8.99499102
_cell_length_b   10.24322333
_cell_length_c   8.99499102
_cell_angle_alpha   106.68307859
_cell_angle_beta   127.45394208
_cell_angle_gamma   93.27021737
_symmetry_Int_Tables_number   1
_chemical_formula_structural   TeC2S2(N2Cl)2
_chemical_formula_sum   'Te2 C4 S4 N8 Cl4'
_cell_volume   600.27799769
_cell_formula_units_Z   2
loop_
 _symmetry_equiv_pos_site_id
 _symmetry_equiv_pos_as_xyz
  1  'x, y, z'
loop_
 _atom_site_type_symbol
 _atom_site_label
 _atom_site_symmetry_multiplicity
 _atom_site_fract_x
 _atom_site_fract_y
 _atom_site_fract_z
 _atom_site_occupancy
  Te  Te0  1  0.86444300  0.75000000  0.61444300  1
  Te  Te1  1  0.13555700  0.25000000  0.38555700  1
  C  C2  1  0.82974200  0.69044000  0.25119600  1
  C  C3  1  0.56075500  0.80956000  0.63930300  1
  C  C4  1  0.17025800  0.30956000  0.74880400  1
  C  C5  1  0.43924400  0.19044000  0.36069700  1
  S  S6  1  0.60788200  0.83774600  0.30820500  1
  S  S7  1  0.47046000  0.66225400  0.27013700  1
  S  S8  1  0.39211800  0.16225400  0.69179500  1
  S  S9  1  0.52954000  0.33774600  0.72986300  1
  N  N10  1  0.75891100  0.76058600  0.14672100  1
  N  N11  1  0.38613400  0.73941400  0.49832500  1
  N  N12  1  0.24108900  0.23941400  0.85327900  1
  N  N13  1  0.61386600  0.26058600  0.50167500  1
  N  N14  1  0.88839800  0.62226700  0.36152000  1
  N  N15  1  0.73925200  0.87773300  0.76613000  1
  N  N16  1  0.11160200  0.37773300  0.63848000  1
  N  N17  1  0.26074800  0.12226700  0.23387000  1
  Cl  Cl18  1  0.21118900  0.85484800  0.80210700  1
  Cl  Cl19  1  0.94725900  0.64515200  0.85634000  1
  Cl  Cl20  1  0.78881100  0.14515200  0.19789300  1
  Cl  Cl21  1  0.05274100  0.35484800  0.14366000  1
