# generated using pymatgen
data_Np2SO10
_symmetry_space_group_name_H-M   'P 1'
_cell_length_a   14.30348479
_cell_length_b   5.50917800
_cell_length_c   14.60784429
_cell_angle_alpha   90.00000000
_cell_angle_beta   98.45559316
_cell_angle_gamma   90.00000000
_symmetry_Int_Tables_number   1
_chemical_formula_structural   Np2SO10
_chemical_formula_sum   'Np8 S4 O40'
_cell_volume   1138.59224881
_cell_formula_units_Z   4
loop_
 _symmetry_equiv_pos_site_id
 _symmetry_equiv_pos_as_xyz
  1  'x, y, z'
loop_
 _atom_site_type_symbol
 _atom_site_label
 _atom_site_symmetry_multiplicity
 _atom_site_fract_x
 _atom_site_fract_y
 _atom_site_fract_z
 _atom_site_occupancy
  Np  Np0  1  0.34383100  0.81344700  0.65779000  1
  Np  Np1  1  0.65616900  0.81344700  0.84221000  1
  Np  Np2  1  0.65616900  0.18655200  0.34221000  1
  Np  Np3  1  0.34383100  0.18655200  0.15779000  1
  Np  Np4  1  0.13730300  0.31971200  0.66989500  1
  Np  Np5  1  0.86269700  0.31971200  0.83010500  1
  Np  Np6  1  0.86269700  0.68028800  0.33010500  1
  Np  Np7  1  0.13730300  0.68028800  0.16989500  1
  S  S8  1  0.24962500  0.62614300  0.86358700  1
  S  S9  1  0.75037500  0.62614300  0.63641300  1
  S  S10  1  0.75037500  0.37385700  0.13641300  1
  S  S11  1  0.24962500  0.37385700  0.36358700  1
  O  O12  1  0.16900100  0.77905600  0.87011600  1
  O  O13  1  0.83099900  0.77905600  0.62988400  1
  O  O14  1  0.83099900  0.22094400  0.12988400  1
  O  O15  1  0.16900100  0.22094400  0.37011600  1
  O  O16  1  0.29995400  0.52429400  0.94731200  1
  O  O17  1  0.70004600  0.52429400  0.55268800  1
  O  O18  1  0.70004600  0.47570600  0.05268800  1
  O  O19  1  0.29995400  0.47570600  0.44731200  1
  O  O20  1  0.31708300  0.74389800  0.80607400  1
  O  O21  1  0.68291700  0.74389800  0.69392600  1
  O  O22  1  0.68291700  0.25610200  0.19392600  1
  O  O23  1  0.31708300  0.25610200  0.30607400  1
  O  O24  1  0.21134700  0.39092200  0.80089900  1
  O  O25  1  0.78865200  0.39092200  0.69910100  1
  O  O26  1  0.78865200  0.60907800  0.19910100  1
  O  O27  1  0.21134700  0.60907800  0.30089900  1
  O  O28  1  0.45044100  0.64203200  0.64358000  1
  O  O29  1  0.54955900  0.64203200  0.85642000  1
  O  O30  1  0.54955900  0.35796800  0.35642000  1
  O  O31  1  0.45044100  0.35796800  0.14358000  1
  O  O32  1  0.06378800  0.24056600  0.56162000  1
  O  O33  1  0.93621200  0.24056600  0.93838000  1
  O  O34  1  0.93621200  0.75943400  0.43838000  1
  O  O35  1  0.06378800  0.75943400  0.06162000  1
  O  O36  1  0.26151500  0.54898300  0.63456700  1
  O  O37  1  0.73848500  0.54898300  0.86543300  1
  O  O38  1  0.73848500  0.45101700  0.36543300  1
  O  O39  1  0.26151500  0.45101700  0.13456700  1
  O  O40  1  0.40859700  0.09000600  0.68139000  1
  O  O41  1  0.59140300  0.09000600  0.81861000  1
  O  O42  1  0.59140300  0.90999400  0.31861000  1
  O  O43  1  0.40859700  0.90999400  0.18139000  1
  O  O44  1  0.07066800  0.59214400  0.68256300  1
  O  O45  1  0.92933200  0.59214400  0.81743700  1
  O  O46  1  0.92933200  0.40785600  0.31743700  1
  O  O47  1  0.07066800  0.40785600  0.18256300  1
  O  O48  1  0.21587900  0.03996300  0.65892700  1
  O  O49  1  0.78412100  0.03996300  0.84107300  1
  O  O50  1  0.78412100  0.96003700  0.34107300  1
  O  O51  1  0.21587900  0.96003700  0.15892700  1
