# generated using pymatgen
data_LiIO3
_symmetry_space_group_name_H-M   'P 1'
_cell_length_a   6.72181600
_cell_length_b   6.60573007
_cell_length_c   4.18163100
_cell_angle_alpha   90.00000000
_cell_angle_beta   90.00000000
_cell_angle_gamma   120.58305017
_symmetry_Int_Tables_number   1
_chemical_formula_structural   LiIO3
_chemical_formula_sum   'Li2 I2 O6'
_cell_volume   159.84612568
_cell_formula_units_Z   2
loop_
 _symmetry_equiv_pos_site_id
 _symmetry_equiv_pos_as_xyz
  1  'x, y, z'
loop_
 _atom_site_type_symbol
 _atom_site_label
 _atom_site_symmetry_multiplicity
 _atom_site_fract_x
 _atom_site_fract_y
 _atom_site_fract_z
 _atom_site_occupancy
  Li  Li0  1  0.00000000  0.00000000  0.75000000  1
  Li  Li1  1  0.00000000  0.00000000  0.25000000  1
  I  I2  1  0.78074400  0.56148700  0.50000000  1
  I  I3  1  0.21925600  0.43851300  0.00000000  1
  O  O4  1  0.81110500  0.62221000  0.00000000  1
  O  O5  1  0.30521200  0.21558800  0.00000000  1
  O  O6  1  0.91037600  0.21558800  0.00000000  1
  O  O7  1  0.18889500  0.37779000  0.50000000  1
  O  O8  1  0.69478800  0.78441200  0.50000000  1
  O  O9  1  0.08962400  0.78441200  0.50000000  1
