# generated using pymatgen
data_SbN2Cl5
_symmetry_space_group_name_H-M   'P 1'
_cell_length_a   7.49607571
_cell_length_b   7.49607571
_cell_length_c   12.08141632
_cell_angle_alpha   76.51194064
_cell_angle_beta   76.51194064
_cell_angle_gamma   60.87809872
_symmetry_Int_Tables_number   1
_chemical_formula_structural   SbN2Cl5
_chemical_formula_sum   'Sb2 N4 Cl10'
_cell_volume   570.93637842
_cell_formula_units_Z   2
loop_
 _symmetry_equiv_pos_site_id
 _symmetry_equiv_pos_as_xyz
  1  'x, y, z'
loop_
 _atom_site_type_symbol
 _atom_site_label
 _atom_site_symmetry_multiplicity
 _atom_site_fract_x
 _atom_site_fract_y
 _atom_site_fract_z
 _atom_site_occupancy
  Sb  Sb0  1  0.12931700  0.12931700  0.74838300  1
  Sb  Sb1  1  0.87068300  0.87068300  0.25161700  1
  N  N2  1  0.79657700  0.79657700  0.62327700  1
  N  N3  1  0.20342300  0.20342300  0.37672300  1
  N  N4  1  0.39730900  0.39730900  0.88652100  1
  N  N5  1  0.60269100  0.60269100  0.11347900  1
  Cl  Cl6  1  0.93216000  0.36273400  0.88279700  1
  Cl  Cl7  1  0.36273400  0.93216000  0.88279700  1
  Cl  Cl8  1  0.06784000  0.63726600  0.11720300  1
  Cl  Cl9  1  0.63726600  0.06784000  0.11720300  1
  Cl  Cl10  1  0.82273100  0.25231900  0.66899600  1
  Cl  Cl11  1  0.25231900  0.82273100  0.66899600  1
  Cl  Cl12  1  0.17726900  0.74768100  0.33100400  1
  Cl  Cl13  1  0.74768100  0.17726900  0.33100400  1
  Cl  Cl14  1  0.29878600  0.29878600  0.61759800  1
  Cl  Cl15  1  0.70121400  0.70121400  0.38240200  1
