# generated using pymatgen
data_Zn3B7BrO13
_symmetry_space_group_name_H-M   'P 1'
_cell_length_a   8.65746600
_cell_length_b   8.66521000
_cell_length_c   12.25075800
_cell_angle_alpha   90.00000000
_cell_angle_beta   90.00000000
_cell_angle_gamma   90.00000000
_symmetry_Int_Tables_number   1
_chemical_formula_structural   Zn3B7BrO13
_chemical_formula_sum   'Zn12 B28 Br4 O52'
_cell_volume   919.03668595
_cell_formula_units_Z   4
loop_
 _symmetry_equiv_pos_site_id
 _symmetry_equiv_pos_as_xyz
  1  'x, y, z'
loop_
 _atom_site_type_symbol
 _atom_site_label
 _atom_site_symmetry_multiplicity
 _atom_site_fract_x
 _atom_site_fract_y
 _atom_site_fract_z
 _atom_site_occupancy
  Zn  Zn0  1  0.25749100  0.75039300  0.24407700  1
  Zn  Zn1  1  0.74250900  0.24960700  0.74407700  1
  Zn  Zn2  1  0.24250900  0.75039300  0.74407700  1
  Zn  Zn3  1  0.75749100  0.24960700  0.24407700  1
  Zn  Zn4  1  0.98201300  0.46930600  0.52095100  1
  Zn  Zn5  1  0.01798700  0.53069400  0.02095100  1
  Zn  Zn6  1  0.51798700  0.46930600  0.02095100  1
  Zn  Zn7  1  0.48201300  0.53069400  0.52095100  1
  Zn  Zn8  1  0.48227800  0.96851000  0.52516500  1
  Zn  Zn9  1  0.51772200  0.03149000  0.02516500  1
  Zn  Zn10  1  0.01772200  0.96851000  0.02516500  1
  Zn  Zn11  1  0.98227800  0.03149000  0.52516500  1
  B  B12  1  0.99966400  0.49691300  0.76976500  1
  B  B13  1  0.00033600  0.50308700  0.26976500  1
  B  B14  1  0.50033600  0.49691300  0.26976500  1
  B  B15  1  0.49966400  0.50308700  0.76976500  1
  B  B16  1  0.75484600  0.75367100  0.51694400  1
  B  B17  1  0.24515400  0.24632900  0.01694400  1
  B  B18  1  0.74515400  0.75367100  0.01694400  1
  B  B19  1  0.25484600  0.24632900  0.51694400  1
  B  B20  1  0.50058300  0.00207300  0.27091700  1
  B  B21  1  0.49941700  0.99792700  0.77091700  1
  B  B22  1  0.99941700  0.00207300  0.77091700  1
  B  B23  1  0.00058300  0.99792700  0.27091700  1
  B  B24  1  0.95516600  0.75115400  0.37092400  1
  B  B25  1  0.04483400  0.24884600  0.87092400  1
  B  B26  1  0.54483400  0.75115400  0.87092400  1
  B  B27  1  0.45516600  0.24884600  0.37092400  1
  B  B28  1  0.74598300  0.59756300  0.18974500  1
  B  B29  1  0.25401700  0.40243700  0.68974500  1
  B  B30  1  0.75401700  0.59756300  0.68974500  1
  B  B31  1  0.24598300  0.40243700  0.18974500  1
  B  B32  1  0.40839100  0.25008800  0.84287400  1
  B  B33  1  0.59160900  0.74991200  0.34287400  1
  B  B34  1  0.09160900  0.25008800  0.34287400  1
  B  B35  1  0.90839100  0.74991200  0.84287400  1
  B  B36  1  0.25390100  0.09769300  0.69042600  1
  B  B37  1  0.74609900  0.90230700  0.19042600  1
  B  B38  1  0.24609900  0.09769300  0.19042600  1
  B  B39  1  0.75390100  0.90230700  0.69042600  1
  Br  Br40  1  0.27155800  0.74844900  0.53202300  1
  Br  Br41  1  0.72844200  0.25155100  0.03202300  1
  Br  Br42  1  0.22844200  0.74844900  0.03202300  1
  Br  Br43  1  0.77155800  0.25155100  0.53202300  1
  O  O44  1  0.72956500  0.74947000  0.25887700  1
  O  O45  1  0.27043500  0.25053000  0.75887700  1
  O  O46  1  0.77043500  0.74947000  0.75887700  1
  O  O47  1  0.22956500  0.25053000  0.25887700  1
  O  O48  1  0.04122200  0.66884900  0.29543000  1
  O  O49  1  0.95877800  0.33115100  0.79543000  1
  O  O50  1  0.45877800  0.66884900  0.79543000  1
  O  O51  1  0.54122200  0.33115100  0.29543000  1
  O  O52  1  0.87986800  0.67264500  0.45382000  1
  O  O53  1  0.12013200  0.32735500  0.95382000  1
  O  O54  1  0.62013200  0.67264500  0.95382000  1
  O  O55  1  0.37986800  0.32735500  0.45382000  1
  O  O56  1  0.46539300  0.83780500  0.29228100  1
  O  O57  1  0.53460700  0.16219500  0.79228100  1
  O  O58  1  0.03460700  0.83780500  0.79228100  1
  O  O59  1  0.96539300  0.16219500  0.29228100  1
  O  O60  1  0.67949000  0.63661100  0.58645500  1
  O  O61  1  0.32051000  0.36338900  0.08645500  1
  O  O62  1  0.82051000  0.63661100  0.08645500  1
  O  O63  1  0.17949000  0.36338900  0.58645500  1
  O  O64  1  0.66536500  0.02408400  0.24850700  1
  O  O65  1  0.33463500  0.97591600  0.74850700  1
  O  O66  1  0.83463500  0.02408400  0.74850700  1
  O  O67  1  0.16536500  0.97591600  0.24850700  1
  O  O68  1  0.63865300  0.82418600  0.44464800  1
  O  O69  1  0.36134700  0.17581400  0.94464800  1
  O  O70  1  0.86134700  0.82418600  0.94464800  1
  O  O71  1  0.13865300  0.17581400  0.44464800  1
  O  O72  1  0.83502900  0.48241300  0.24944800  1
  O  O73  1  0.16497100  0.51758700  0.74944800  1
  O  O74  1  0.66497100  0.48241300  0.74944800  1
  O  O75  1  0.33502900  0.51758700  0.24944800  1
  O  O76  1  0.82542000  0.87455900  0.58410200  1
  O  O77  1  0.17458000  0.12544100  0.08410200  1
  O  O78  1  0.67458000  0.87455900  0.08410200  1
  O  O79  1  0.32542000  0.12544100  0.58410200  1
  O  O80  1  0.04763200  0.40924700  0.36405200  1
  O  O81  1  0.95236800  0.59075300  0.86405200  1
  O  O82  1  0.45236800  0.40924700  0.86405200  1
  O  O83  1  0.54763200  0.59075300  0.36405200  1
  O  O84  1  0.46335900  0.08991600  0.37351900  1
  O  O85  1  0.53664100  0.91008400  0.87351900  1
  O  O86  1  0.03664100  0.08991600  0.87351900  1
  O  O87  1  0.96335900  0.91008400  0.37351900  1
  O  O88  1  0.08780100  0.45846800  0.17198700  1
  O  O89  1  0.91219900  0.54153200  0.67198700  1
  O  O90  1  0.41219900  0.45846800  0.67198700  1
  O  O91  1  0.58780100  0.54153200  0.17198700  1
  O  O92  1  0.40975800  0.05838000  0.17706300  1
  O  O93  1  0.59024200  0.94162000  0.67706300  1
  O  O94  1  0.09024200  0.05838000  0.67706300  1
  O  O95  1  0.90975800  0.94162000  0.17706300  1
