# generated using pymatgen
data_SrRuO3
_symmetry_space_group_name_H-M   'P 1'
_cell_length_a   5.19951900
_cell_length_b   5.21016600
_cell_length_c   14.28288800
_cell_angle_alpha   90.00000000
_cell_angle_beta   90.00000000
_cell_angle_gamma   90.00000000
_symmetry_Int_Tables_number   1
_chemical_formula_structural   SrRuO3
_chemical_formula_sum   'Sr4 Ru4 O12'
_cell_volume   386.92853648
_cell_formula_units_Z   4
loop_
 _symmetry_equiv_pos_site_id
 _symmetry_equiv_pos_as_xyz
  1  'x, y, z'
loop_
 _atom_site_type_symbol
 _atom_site_label
 _atom_site_symmetry_multiplicity
 _atom_site_fract_x
 _atom_site_fract_y
 _atom_site_fract_z
 _atom_site_occupancy
  Sr  Sr0  1  0.49964700  0.51948300  0.25000000  1
  Sr  Sr1  1  0.00035300  0.01948300  0.25000000  1
  Sr  Sr2  1  0.50035300  0.48051700  0.75000000  1
  Sr  Sr3  1  0.99964700  0.98051700  0.75000000  1
  Ru  Ru4  1  0.50000000  0.50000000  0.50000000  1
  Ru  Ru5  1  0.00000000  0.00000000  0.00000000  1
  Ru  Ru6  1  0.50000000  0.50000000  0.00000000  1
  Ru  Ru7  1  0.00000000  0.00000000  0.50000000  1
  O  O8  1  0.50212100  0.01872400  0.25000000  1
  O  O9  1  0.99787900  0.51872400  0.25000000  1
  O  O10  1  0.49787900  0.98127600  0.75000000  1
  O  O11  1  0.00212100  0.48127600  0.75000000  1
  O  O12  1  0.25080600  0.75025000  0.00874100  1
  O  O13  1  0.24919400  0.25025000  0.49125900  1
  O  O14  1  0.74919400  0.24975000  0.50874100  1
  O  O15  1  0.75080600  0.74975000  0.99125900  1
  O  O16  1  0.74919400  0.24975000  0.99125900  1
  O  O17  1  0.75080600  0.74975000  0.50874100  1
  O  O18  1  0.25080600  0.75025000  0.49125900  1
  O  O19  1  0.24919400  0.25025000  0.00874100  1
