# generated using pymatgen
data_YO2
_symmetry_space_group_name_H-M   'P 1'
_cell_length_a   4.28475878
_cell_length_b   4.28475878
_cell_length_c   6.11016680
_cell_angle_alpha   78.24524315
_cell_angle_beta   78.24524315
_cell_angle_gamma   101.01832460
_symmetry_Int_Tables_number   1
_chemical_formula_structural   YO2
_chemical_formula_sum   'Y2 O4'
_cell_volume   104.30708599
_cell_formula_units_Z   2
loop_
 _symmetry_equiv_pos_site_id
 _symmetry_equiv_pos_as_xyz
  1  'x, y, z'
loop_
 _atom_site_type_symbol
 _atom_site_label
 _atom_site_symmetry_multiplicity
 _atom_site_fract_x
 _atom_site_fract_y
 _atom_site_fract_z
 _atom_site_occupancy
  Y  Y0  1  0.13832800  0.86167200  0.75000000  1
  Y  Y1  1  0.86167200  0.13832800  0.25000000  1
  O  O2  1  0.00666300  0.30838000  0.84762200  1
  O  O3  1  0.69162000  0.99333700  0.65237800  1
  O  O4  1  0.99333700  0.69162000  0.15237800  1
  O  O5  1  0.30838000  0.00666300  0.34762200  1
