# generated using pymatgen
data_Nd(BrO6)3
_symmetry_space_group_name_H-M   'P 1'
_cell_length_a   10.74471548
_cell_length_b   10.74471548
_cell_length_c   7.66443500
_cell_angle_alpha   90.00000000
_cell_angle_beta   90.00000000
_cell_angle_gamma   120.07750332
_symmetry_Int_Tables_number   1
_chemical_formula_structural   Nd(BrO6)3
_chemical_formula_sum   'Nd2 Br6 O36'
_cell_volume   765.70399705
_cell_formula_units_Z   2
loop_
 _symmetry_equiv_pos_site_id
 _symmetry_equiv_pos_as_xyz
  1  'x, y, z'
loop_
 _atom_site_type_symbol
 _atom_site_label
 _atom_site_symmetry_multiplicity
 _atom_site_fract_x
 _atom_site_fract_y
 _atom_site_fract_z
 _atom_site_occupancy
  Nd  Nd0  1  0.33166100  0.66833900  0.27987100  1
  Nd  Nd1  1  0.66833900  0.33166100  0.77987100  1
  Br  Br2  1  0.14753000  0.85247000  0.28078700  1
  Br  Br3  1  0.15031800  0.29780600  0.29922800  1
  Br  Br4  1  0.70219400  0.84968200  0.29922800  1
  Br  Br5  1  0.85247000  0.14753000  0.78078700  1
  Br  Br6  1  0.84968200  0.70219400  0.79922800  1
  Br  Br7  1  0.29780600  0.15031800  0.79922800  1
  O  O8  1  0.40831000  0.59169000  0.85843100  1
  O  O9  1  0.40874000  0.80580300  0.83591600  1
  O  O10  1  0.19419700  0.59126000  0.83591600  1
  O  O11  1  0.59169000  0.40831000  0.35843100  1
  O  O12  1  0.59126000  0.19419700  0.33591600  1
  O  O13  1  0.80580300  0.40874000  0.33591600  1
  O  O14  1  0.42062800  0.57937200  0.50258100  1
  O  O15  1  0.41341500  0.84590300  0.50369200  1
  O  O16  1  0.15409700  0.58658500  0.50369200  1
  O  O17  1  0.57937200  0.42062800  0.00258100  1
  O  O18  1  0.58658500  0.15409700  0.00369200  1
  O  O19  1  0.84590300  0.41341500  0.00369200  1
  O  O20  1  0.26385800  0.73614200  0.90651800  1
  O  O21  1  0.26342700  0.52433400  0.92948500  1
  O  O22  1  0.47566600  0.73657300  0.92948500  1
  O  O23  1  0.73614200  0.26385800  0.40651800  1
  O  O24  1  0.73657300  0.47566600  0.42948500  1
  O  O25  1  0.52433400  0.26342700  0.42948500  1
  O  O26  1  0.58223800  0.91080600  0.28473100  1
  O  O27  1  0.08674600  0.67096400  0.26883700  1
  O  O28  1  0.33106500  0.41753400  0.27785800  1
  O  O29  1  0.58246600  0.66893500  0.27785800  1
  O  O30  1  0.08919400  0.41776200  0.28473100  1
  O  O31  1  0.32903600  0.91325400  0.26883700  1
  O  O32  1  0.41776200  0.08919400  0.78473100  1
  O  O33  1  0.91325400  0.32903600  0.76883700  1
  O  O34  1  0.66893500  0.58246600  0.77785800  1
  O  O35  1  0.41753400  0.33106500  0.77785800  1
  O  O36  1  0.91080600  0.58223800  0.78473100  1
  O  O37  1  0.67096400  0.08674600  0.76883700  1
  O  O38  1  0.11048000  0.88952000  0.47605600  1
  O  O39  1  0.11829900  0.22946100  0.49813200  1
  O  O40  1  0.77053900  0.88170100  0.49813200  1
  O  O41  1  0.88952000  0.11048000  0.97605600  1
  O  O42  1  0.88170100  0.77053900  0.99813200  1
  O  O43  1  0.22946100  0.11829900  0.99813200  1
