# generated using pymatgen
data_MgIn3
_symmetry_space_group_name_H-M   'P 1'
_cell_length_a   6.50683440
_cell_length_b   6.50683440
_cell_length_c   5.61058000
_cell_angle_alpha   90.00000000
_cell_angle_beta   90.00000000
_cell_angle_gamma   120.00000403
_symmetry_Int_Tables_number   1
_chemical_formula_structural   MgIn3
_chemical_formula_sum   'Mg2 In6'
_cell_volume   205.72064668
_cell_formula_units_Z   2
loop_
 _symmetry_equiv_pos_site_id
 _symmetry_equiv_pos_as_xyz
  1  'x, y, z'
loop_
 _atom_site_type_symbol
 _atom_site_label
 _atom_site_symmetry_multiplicity
 _atom_site_fract_x
 _atom_site_fract_y
 _atom_site_fract_z
 _atom_site_occupancy
  Mg  Mg0  1  0.66666700  0.33333300  0.25000000  1
  Mg  Mg1  1  0.33333300  0.66666700  0.75000000  1
  In  In2  1  0.16702600  0.33405200  0.25000000  1
  In  In3  1  0.16702600  0.83297400  0.25000000  1
  In  In4  1  0.66594800  0.83297400  0.25000000  1
  In  In5  1  0.33405200  0.16702600  0.75000000  1
  In  In6  1  0.83297400  0.16702600  0.75000000  1
  In  In7  1  0.83297400  0.66594800  0.75000000  1
