# generated using pymatgen
data_SrO10
_symmetry_space_group_name_H-M   'P 1'
_cell_length_a   6.88267700
_cell_length_b   6.88267700
_cell_length_c   11.78276600
_cell_angle_alpha   90.00000000
_cell_angle_beta   90.00000000
_cell_angle_gamma   90.00000000
_symmetry_Int_Tables_number   1
_chemical_formula_structural   SrO10
_chemical_formula_sum   'Sr4 O40'
_cell_volume   558.16426770
_cell_formula_units_Z   4
loop_
 _symmetry_equiv_pos_site_id
 _symmetry_equiv_pos_as_xyz
  1  'x, y, z'
loop_
 _atom_site_type_symbol
 _atom_site_label
 _atom_site_symmetry_multiplicity
 _atom_site_fract_x
 _atom_site_fract_y
 _atom_site_fract_z
 _atom_site_occupancy
  Sr  Sr0  1  0.50000000  0.50000000  0.75000000  1
  Sr  Sr1  1  0.50000000  0.50000000  0.25000000  1
  Sr  Sr2  1  0.00000000  0.00000000  0.25000000  1
  Sr  Sr3  1  0.00000000  0.00000000  0.75000000  1
  O  O4  1  0.00000000  0.50000000  0.61871200  1
  O  O5  1  0.00000000  0.50000000  0.11871200  1
  O  O6  1  0.50000000  0.00000000  0.38128800  1
  O  O7  1  0.50000000  0.00000000  0.88128800  1
  O  O8  1  0.00000000  0.50000000  0.86655500  1
  O  O9  1  0.00000000  0.50000000  0.36655500  1
  O  O10  1  0.50000000  0.00000000  0.13344500  1
  O  O11  1  0.50000000  0.00000000  0.63344500  1
  O  O12  1  0.74489500  0.65326200  0.60026800  1
  O  O13  1  0.74489500  0.34673800  0.10026800  1
  O  O14  1  0.75510500  0.84673800  0.39973200  1
  O  O15  1  0.24489500  0.84673800  0.89973200  1
  O  O16  1  0.25510500  0.34673800  0.60026800  1
  O  O17  1  0.25510500  0.65326200  0.10026800  1
  O  O18  1  0.24489500  0.15326200  0.39973200  1
  O  O19  1  0.75510500  0.15326200  0.89973200  1
  O  O20  1  0.65326200  0.25510500  0.39973200  1
  O  O21  1  0.34673800  0.25510500  0.89973200  1
  O  O22  1  0.15326200  0.75510500  0.60026800  1
  O  O23  1  0.84673800  0.75510500  0.10026800  1
  O  O24  1  0.34673800  0.74489500  0.39973200  1
  O  O25  1  0.65326200  0.74489500  0.89973200  1
  O  O26  1  0.84673800  0.24489500  0.60026800  1
  O  O27  1  0.15326200  0.24489500  0.10026800  1
  O  O28  1  0.74655400  0.66076200  0.39619700  1
  O  O29  1  0.74655400  0.33923800  0.89619700  1
  O  O30  1  0.75344600  0.83923800  0.60380300  1
  O  O31  1  0.24655400  0.83923800  0.10380300  1
  O  O32  1  0.25344600  0.33923800  0.39619700  1
  O  O33  1  0.25344600  0.66076200  0.89619700  1
  O  O34  1  0.24655400  0.16076200  0.60380300  1
  O  O35  1  0.75344600  0.16076200  0.10380300  1
  O  O36  1  0.66076200  0.25344600  0.60380300  1
  O  O37  1  0.33923800  0.25344600  0.10380300  1
  O  O38  1  0.16076200  0.75344600  0.39619700  1
  O  O39  1  0.83923800  0.75344600  0.89619700  1
  O  O40  1  0.33923800  0.74655400  0.60380300  1
  O  O41  1  0.66076200  0.74655400  0.10380300  1
  O  O42  1  0.83923800  0.24655400  0.39619700  1
  O  O43  1  0.16076200  0.24655400  0.89619700  1
