# generated using pymatgen
data_NaCu(IO2)2
_symmetry_space_group_name_H-M   'P 1'
_cell_length_a   8.18279165
_cell_length_b   8.18279165
_cell_length_c   5.43349158
_cell_angle_alpha   81.11826525
_cell_angle_beta   81.11826525
_cell_angle_gamma   90.77685139
_symmetry_Int_Tables_number   1
_chemical_formula_structural   NaCu(IO2)2
_chemical_formula_sum   'Na2 Cu2 I4 O8'
_cell_volume   354.88282709
_cell_formula_units_Z   2
loop_
 _symmetry_equiv_pos_site_id
 _symmetry_equiv_pos_as_xyz
  1  'x, y, z'
loop_
 _atom_site_type_symbol
 _atom_site_label
 _atom_site_symmetry_multiplicity
 _atom_site_fract_x
 _atom_site_fract_y
 _atom_site_fract_z
 _atom_site_occupancy
  Na  Na0  1  0.63392400  0.36607600  0.25000000  1
  Na  Na1  1  0.36607600  0.63392400  0.75000000  1
  Cu  Cu2  1  0.00591400  0.99408600  0.25000000  1
  Cu  Cu3  1  0.99408600  0.00591400  0.75000000  1
  I  I4  1  0.99956300  0.72613600  0.05732300  1
  I  I5  1  0.27386400  0.00043700  0.44267700  1
  I  I6  1  0.00043700  0.27386400  0.94267700  1
  I  I7  1  0.72613600  0.99956300  0.55732300  1
  O  O8  1  0.68914400  0.56896800  0.72265900  1
  O  O9  1  0.43103200  0.31085600  0.77734100  1
  O  O10  1  0.31085600  0.43103200  0.27734100  1
  O  O11  1  0.56896800  0.68914400  0.22265900  1
  O  O12  1  0.77852900  0.49472500  0.56479400  1
  O  O13  1  0.50527500  0.22147100  0.93520600  1
  O  O14  1  0.22147100  0.50527500  0.43520600  1
  O  O15  1  0.49472500  0.77852900  0.06479400  1
