# generated using pymatgen
data_KCN
_symmetry_space_group_name_H-M   'P 1'
_cell_length_a   4.92756314
_cell_length_b   6.04987800
_cell_length_c   6.04987809
_cell_angle_alpha   23.18011311
_cell_angle_beta   40.88512692
_cell_angle_gamma   40.88512649
_symmetry_Int_Tables_number   1
_chemical_formula_structural   KCN
_chemical_formula_sum   'K1 C1 N1'
_cell_volume   45.14446478
_cell_formula_units_Z   1
loop_
 _symmetry_equiv_pos_site_id
 _symmetry_equiv_pos_as_xyz
  1  'x, y, z'
loop_
 _atom_site_type_symbol
 _atom_site_label
 _atom_site_symmetry_multiplicity
 _atom_site_fract_x
 _atom_site_fract_y
 _atom_site_fract_z
 _atom_site_occupancy
  K  K0  1  0.03187300  0.00229100  0.00229100  1
  C  C1  1  0.99138200  0.74128200  0.74128200  1
  N  N2  1  0.11274400  0.25742700  0.25742700  1
