# generated using pymatgen
data_RbIn3F10
_symmetry_space_group_name_H-M   'P 1'
_cell_length_a   6.93513100
_cell_length_b   7.91671600
_cell_length_c   8.41973100
_cell_angle_alpha   90.00000000
_cell_angle_beta   90.00000000
_cell_angle_gamma   90.00000000
_symmetry_Int_Tables_number   1
_chemical_formula_structural   RbIn3F10
_chemical_formula_sum   'Rb2 In6 F20'
_cell_volume   462.27238564
_cell_formula_units_Z   2
loop_
 _symmetry_equiv_pos_site_id
 _symmetry_equiv_pos_as_xyz
  1  'x, y, z'
loop_
 _atom_site_type_symbol
 _atom_site_label
 _atom_site_symmetry_multiplicity
 _atom_site_fract_x
 _atom_site_fract_y
 _atom_site_fract_z
 _atom_site_occupancy
  Rb  Rb0  1  0.99205300  0.50000000  0.25000000  1
  Rb  Rb1  1  0.00794700  0.50000000  0.75000000  1
  In  In2  1  0.50000000  0.26891500  0.50000000  1
  In  In3  1  0.50000000  0.73108500  0.00000000  1
  In  In4  1  0.00000000  0.00000000  0.50000000  1
  In  In5  1  0.00000000  0.00000000  0.00000000  1
  In  In6  1  0.50000000  0.26891500  0.00000000  1
  In  In7  1  0.50000000  0.73108500  0.50000000  1
  F  F8  1  0.19435400  0.20341500  0.98052100  1
  F  F9  1  0.19435400  0.79658500  0.51947900  1
  F  F10  1  0.80564600  0.20341500  0.01947900  1
  F  F11  1  0.80564600  0.79658500  0.48052100  1
  F  F12  1  0.19435400  0.20341500  0.51947900  1
  F  F13  1  0.19435400  0.79658500  0.98052100  1
  F  F14  1  0.80564600  0.20341500  0.48052100  1
  F  F15  1  0.80564600  0.79658500  0.01947900  1
  F  F16  1  0.50000000  0.00000000  0.00000000  1
  F  F17  1  0.50000000  0.00000000  0.50000000  1
  F  F18  1  0.03735500  0.00000000  0.25000000  1
  F  F19  1  0.96264500  0.00000000  0.75000000  1
  F  F20  1  0.67958000  0.50000000  0.99499500  1
  F  F21  1  0.67958000  0.50000000  0.50500500  1
  F  F22  1  0.32042000  0.50000000  0.00500500  1
  F  F23  1  0.32042000  0.50000000  0.49499500  1
  F  F24  1  0.48726300  0.72186400  0.25000000  1
  F  F25  1  0.48726300  0.27813600  0.25000000  1
  F  F26  1  0.51273700  0.72186400  0.75000000  1
  F  F27  1  0.51273700  0.27813600  0.75000000  1
