# generated using pymatgen
data_MgTe(IO)6
_symmetry_space_group_name_H-M   'P 1'
_cell_length_a   11.25134200
_cell_length_b   11.25134200
_cell_length_c   11.25134200
_cell_angle_alpha   90.00000000
_cell_angle_beta   90.00000000
_cell_angle_gamma   90.00000000
_symmetry_Int_Tables_number   1
_chemical_formula_structural   MgTe(IO)6
_chemical_formula_sum   'Mg4 Te4 I24 O24'
_cell_volume   1424.33772641
_cell_formula_units_Z   4
loop_
 _symmetry_equiv_pos_site_id
 _symmetry_equiv_pos_as_xyz
  1  'x, y, z'
loop_
 _atom_site_type_symbol
 _atom_site_label
 _atom_site_symmetry_multiplicity
 _atom_site_fract_x
 _atom_site_fract_y
 _atom_site_fract_z
 _atom_site_occupancy
  Mg  Mg0  1  0.50000000  0.50000000  0.00000000  1
  Mg  Mg1  1  0.50000000  0.00000000  0.50000000  1
  Mg  Mg2  1  0.00000000  0.50000000  0.50000000  1
  Mg  Mg3  1  0.00000000  0.00000000  0.00000000  1
  Te  Te4  1  0.00000000  0.00000000  0.50000000  1
  Te  Te5  1  0.00000000  0.50000000  0.00000000  1
  Te  Te6  1  0.50000000  0.00000000  0.00000000  1
  Te  Te7  1  0.50000000  0.50000000  0.50000000  1
  I  I8  1  0.02106300  0.23010400  0.68489400  1
  I  I9  1  0.97893700  0.73010400  0.81510600  1
  I  I10  1  0.47893700  0.76989600  0.18489400  1
  I  I11  1  0.52106300  0.26989600  0.31510600  1
  I  I12  1  0.68489400  0.02106300  0.23010400  1
  I  I13  1  0.81510600  0.97893700  0.73010400  1
  I  I14  1  0.18489400  0.47893700  0.76989600  1
  I  I15  1  0.31510600  0.52106300  0.26989600  1
  I  I16  1  0.23010400  0.68489400  0.02106300  1
  I  I17  1  0.73010400  0.81510600  0.97893700  1
  I  I18  1  0.76989600  0.18489400  0.47893700  1
  I  I19  1  0.26989600  0.31510600  0.52106300  1
  I  I20  1  0.97893700  0.76989600  0.31510600  1
  I  I21  1  0.02106300  0.26989600  0.18489400  1
  I  I22  1  0.52106300  0.23010400  0.81510600  1
  I  I23  1  0.47893700  0.73010400  0.68489400  1
  I  I24  1  0.31510600  0.97893700  0.76989600  1
  I  I25  1  0.18489400  0.02106300  0.26989600  1
  I  I26  1  0.81510600  0.52106300  0.23010400  1
  I  I27  1  0.68489400  0.47893700  0.73010400  1
  I  I28  1  0.76989600  0.31510600  0.97893700  1
  I  I29  1  0.26989600  0.18489400  0.02106300  1
  I  I30  1  0.23010400  0.81510600  0.52106300  1
  I  I31  1  0.73010400  0.68489400  0.47893700  1
  O  O32  1  0.93768300  0.14122000  0.10891200  1
  O  O33  1  0.06231700  0.64122000  0.39108800  1
  O  O34  1  0.56231700  0.85878000  0.60891200  1
  O  O35  1  0.43768300  0.35878000  0.89108800  1
  O  O36  1  0.10891200  0.93768300  0.14122000  1
  O  O37  1  0.39108800  0.06231700  0.64122000  1
  O  O38  1  0.60891200  0.56231700  0.85878000  1
  O  O39  1  0.89108800  0.43768300  0.35878000  1
  O  O40  1  0.14122000  0.10891200  0.93768300  1
  O  O41  1  0.64122000  0.39108800  0.06231700  1
  O  O42  1  0.85878000  0.60891200  0.56231700  1
  O  O43  1  0.35878000  0.89108800  0.43768300  1
  O  O44  1  0.06231700  0.85878000  0.89108800  1
  O  O45  1  0.93768300  0.35878000  0.60891200  1
  O  O46  1  0.43768300  0.14122000  0.39108800  1
  O  O47  1  0.56231700  0.64122000  0.10891200  1
  O  O48  1  0.89108800  0.06231700  0.85878000  1
  O  O49  1  0.60891200  0.93768300  0.35878000  1
  O  O50  1  0.39108800  0.43768300  0.14122000  1
  O  O51  1  0.10891200  0.56231700  0.64122000  1
  O  O52  1  0.85878000  0.89108800  0.06231700  1
  O  O53  1  0.35878000  0.60891200  0.93768300  1
  O  O54  1  0.14122000  0.39108800  0.43768300  1
  O  O55  1  0.64122000  0.10891200  0.56231700  1
