# generated using pymatgen
data_Na5(AsO9)2
_symmetry_space_group_name_H-M   'P 1'
_cell_length_a   7.43901300
_cell_length_b   7.28050900
_cell_length_c   15.29065220
_cell_angle_alpha   75.46203810
_cell_angle_beta   90.00000000
_cell_angle_gamma   90.00000000
_symmetry_Int_Tables_number   1
_chemical_formula_structural   Na5(AsO9)2
_chemical_formula_sum   'Na10 As4 O36'
_cell_volume   801.62295307
_cell_formula_units_Z   2
loop_
 _symmetry_equiv_pos_site_id
 _symmetry_equiv_pos_as_xyz
  1  'x, y, z'
loop_
 _atom_site_type_symbol
 _atom_site_label
 _atom_site_symmetry_multiplicity
 _atom_site_fract_x
 _atom_site_fract_y
 _atom_site_fract_z
 _atom_site_occupancy
  Na  Na0  1  0.00000000  0.50000000  0.00000000  1
  Na  Na1  1  0.00000000  0.50000000  0.50000000  1
  Na  Na2  1  0.03408400  0.30400400  0.72596900  1
  Na  Na3  1  0.96591600  0.69599600  0.27403100  1
  Na  Na4  1  0.03408400  0.69599600  0.77403100  1
  Na  Na5  1  0.96591600  0.30400400  0.22596900  1
  Na  Na6  1  0.65554000  0.14852400  0.90918900  1
  Na  Na7  1  0.34446000  0.85147600  0.09081100  1
  Na  Na8  1  0.65554000  0.85147600  0.59081100  1
  Na  Na9  1  0.34446000  0.14852400  0.40918900  1
  As  As10  1  0.32800200  0.91249600  0.86076600  1
  As  As11  1  0.67199800  0.08750400  0.13923400  1
  As  As12  1  0.32800200  0.08750400  0.63923400  1
  As  As13  1  0.67199800  0.91249600  0.36076600  1
  O  O14  1  0.56364200  0.50217900  0.97425500  1
  O  O15  1  0.43635800  0.49782100  0.02574500  1
  O  O16  1  0.56364200  0.49782100  0.52574500  1
  O  O17  1  0.43635800  0.50217900  0.47425500  1
  O  O18  1  0.98768800  0.07066800  0.96840900  1
  O  O19  1  0.01231200  0.92933200  0.03159100  1
  O  O20  1  0.98768800  0.92933200  0.53159100  1
  O  O21  1  0.01231200  0.07066800  0.46840900  1
  O  O22  1  0.89870700  0.39765100  0.84953000  1
  O  O23  1  0.10129300  0.60234900  0.15047000  1
  O  O24  1  0.89870700  0.60234900  0.65047000  1
  O  O25  1  0.10129300  0.39765100  0.34953000  1
  O  O26  1  0.21886900  0.00000000  0.75000000  1
  O  O27  1  0.78113100  0.00000000  0.25000000  1
  O  O28  1  0.82494800  0.98772500  0.71123500  1
  O  O29  1  0.17505200  0.01227500  0.28876500  1
  O  O30  1  0.82494800  0.01227500  0.78876500  1
  O  O31  1  0.17505200  0.98772500  0.21123500  1
  O  O32  1  0.37248700  0.50000000  0.75000000  1
  O  O33  1  0.62751300  0.50000000  0.25000000  1
  O  O34  1  0.54280000  0.46200100  0.79857300  1
  O  O35  1  0.45720000  0.53799900  0.20142700  1
  O  O36  1  0.54280000  0.53799900  0.70142700  1
  O  O37  1  0.45720000  0.46200100  0.29857300  1
  O  O38  1  0.17948900  0.73548600  0.90605100  1
  O  O39  1  0.82051100  0.26451400  0.09394900  1
  O  O40  1  0.17948900  0.26451400  0.59394900  1
  O  O41  1  0.82051100  0.73548600  0.40605100  1
  O  O42  1  0.54104000  0.83770100  0.84753300  1
  O  O43  1  0.45896000  0.16229900  0.15246700  1
  O  O44  1  0.54104000  0.16229900  0.65246700  1
  O  O45  1  0.45896000  0.83770100  0.34753300  1
  O  O46  1  0.33955100  0.09400400  0.91231000  1
  O  O47  1  0.66044900  0.90599600  0.08769000  1
  O  O48  1  0.33955100  0.90599600  0.58769000  1
  O  O49  1  0.66044900  0.09400400  0.41231000  1
