# generated using pymatgen
data_Ti3O7
_symmetry_space_group_name_H-M   'P 1'
_cell_length_a   17.49623271
_cell_length_b   17.49623271
_cell_length_c   9.49702401
_cell_angle_alpha   81.81629375
_cell_angle_beta   81.81629375
_cell_angle_gamma   12.16271992
_symmetry_Int_Tables_number   1
_chemical_formula_structural   Ti3O7
_chemical_formula_sum   'Ti6 O14'
_cell_volume   606.20828375
_cell_formula_units_Z   2
loop_
 _symmetry_equiv_pos_site_id
 _symmetry_equiv_pos_as_xyz
  1  'x, y, z'
loop_
 _atom_site_type_symbol
 _atom_site_label
 _atom_site_symmetry_multiplicity
 _atom_site_fract_x
 _atom_site_fract_y
 _atom_site_fract_z
 _atom_site_occupancy
  Ti  Ti0  1  0.23307000  0.23307000  0.77748100  1
  Ti  Ti1  1  0.76693000  0.76693000  0.22251900  1
  Ti  Ti2  1  0.21383900  0.21383900  0.47056300  1
  Ti  Ti3  1  0.78616100  0.78616100  0.52943700  1
  Ti  Ti4  1  0.19374000  0.19374000  0.15902700  1
  Ti  Ti5  1  0.80626000  0.80626000  0.84097300  1
  O  O6  1  0.20623600  0.20623600  0.95735300  1
  O  O7  1  0.79376400  0.79376400  0.04264700  1
  O  O8  1  0.19535000  0.19535000  0.65951300  1
  O  O9  1  0.80465000  0.80465000  0.34048700  1
  O  O10  1  0.17509000  0.17509000  0.35878600  1
  O  O11  1  0.82491000  0.82491000  0.64121400  1
  O  O12  1  0.14013400  0.14013400  0.13347400  1
  O  O13  1  0.85986600  0.85986600  0.86652600  1
  O  O14  1  0.29033600  0.29033600  0.84014400  1
  O  O15  1  0.70966400  0.70966400  0.15985600  1
  O  O16  1  0.26995400  0.26995400  0.55382600  1
  O  O17  1  0.73004600  0.73004600  0.44617400  1
  O  O18  1  0.25098000  0.25098000  0.24396500  1
  O  O19  1  0.74902000  0.74902000  0.75603500  1
