# generated using pymatgen
data_Na2GeO9
_symmetry_space_group_name_H-M   'P 1'
_cell_length_a   11.37767891
_cell_length_b   4.78734800
_cell_length_c   6.95706891
_cell_angle_alpha   90.00000000
_cell_angle_beta   90.81252434
_cell_angle_gamma   90.00000000
_symmetry_Int_Tables_number   1
_chemical_formula_structural   Na2GeO9
_chemical_formula_sum   'Na4 Ge2 O18'
_cell_volume   378.90584549
_cell_formula_units_Z   2
loop_
 _symmetry_equiv_pos_site_id
 _symmetry_equiv_pos_as_xyz
  1  'x, y, z'
loop_
 _atom_site_type_symbol
 _atom_site_label
 _atom_site_symmetry_multiplicity
 _atom_site_fract_x
 _atom_site_fract_y
 _atom_site_fract_z
 _atom_site_occupancy
  Na  Na0  1  0.57325600  0.09280700  0.81419500  1
  Na  Na1  1  0.42674400  0.59280700  0.18580500  1
  Na  Na2  1  0.95374600  0.32698100  0.33352200  1
  Na  Na3  1  0.04625400  0.82698100  0.66647800  1
  Ge  Ge4  1  0.82365100  0.38544700  0.76243400  1
  Ge  Ge5  1  0.17634900  0.88544700  0.23756600  1
  O  O6  1  0.69167800  0.37303500  0.64282500  1
  O  O7  1  0.30832200  0.87303500  0.35717500  1
  O  O8  1  0.81621100  0.45422200  0.05668100  1
  O  O9  1  0.18378900  0.95422200  0.94331900  1
  O  O10  1  0.96155300  0.33163400  0.67457900  1
  O  O11  1  0.03844700  0.83163400  0.32542100  1
  O  O12  1  0.85885300  0.79090300  0.79926300  1
  O  O13  1  0.14114700  0.29090300  0.20073700  1
  O  O14  1  0.71875000  0.60885800  0.11598000  1
  O  O15  1  0.28125000  0.10885800  0.88402000  1
  O  O16  1  0.48236300  0.68310300  0.62749400  1
  O  O17  1  0.51763700  0.18310300  0.37250600  1
  O  O18  1  0.58709400  0.01584000  0.30047800  1
  O  O19  1  0.41290600  0.51584000  0.69952200  1
  O  O20  1  0.61699000  0.52530000  0.03641900  1
  O  O21  1  0.38301000  0.02530000  0.96358100  1
  O  O22  1  0.77691400  0.97317000  0.85966100  1
  O  O23  1  0.22308600  0.47317000  0.14033900  1
