# generated using pymatgen
data_ScF3
_symmetry_space_group_name_H-M   'P 1'
_cell_length_a   3.86962965
_cell_length_b   3.86962965
_cell_length_c   4.07309602
_cell_angle_alpha   75.50272744
_cell_angle_beta   75.50272744
_cell_angle_gamma   106.72655832
_symmetry_Int_Tables_number   1
_chemical_formula_structural   ScF3
_chemical_formula_sum   'Sc1 F3'
_cell_volume   53.02200969
_cell_formula_units_Z   1
loop_
 _symmetry_equiv_pos_site_id
 _symmetry_equiv_pos_as_xyz
  1  'x, y, z'
loop_
 _atom_site_type_symbol
 _atom_site_label
 _atom_site_symmetry_multiplicity
 _atom_site_fract_x
 _atom_site_fract_y
 _atom_site_fract_z
 _atom_site_occupancy
  Sc  Sc0  1  0.98885900  0.01114100  0.00000000  1
  F  F1  1  0.90322200  0.45903800  0.14823400  1
  F  F2  1  0.54096200  0.09677800  0.85176600  1
  F  F3  1  0.06695900  0.93304100  0.50000000  1
