# generated using pymatgen
data_Ca3MnS2O17
_symmetry_space_group_name_H-M   'P 1'
_cell_length_a   8.93353286
_cell_length_b   8.93353286
_cell_length_c   10.09362500
_cell_angle_alpha   90.00000000
_cell_angle_beta   90.00000000
_cell_angle_gamma   118.96792532
_symmetry_Int_Tables_number   1
_chemical_formula_structural   Ca3MnS2O17
_chemical_formula_sum   'Ca6 Mn2 S4 O34'
_cell_volume   704.77027511
_cell_formula_units_Z   2
loop_
 _symmetry_equiv_pos_site_id
 _symmetry_equiv_pos_as_xyz
  1  'x, y, z'
loop_
 _atom_site_type_symbol
 _atom_site_label
 _atom_site_symmetry_multiplicity
 _atom_site_fract_x
 _atom_site_fract_y
 _atom_site_fract_z
 _atom_site_occupancy
  Ca  Ca0  1  0.84628300  0.70007000  0.75000000  1
  Ca  Ca1  1  0.85239300  0.15158000  0.75000000  1
  Ca  Ca2  1  0.31540100  0.13575000  0.75000000  1
  Ca  Ca3  1  0.70007000  0.84628300  0.25000000  1
  Ca  Ca4  1  0.15158000  0.85239300  0.25000000  1
  Ca  Ca5  1  0.13575000  0.31540100  0.25000000  1
  Mn  Mn6  1  0.95744600  0.95744600  0.00000000  1
  Mn  Mn7  1  0.95744600  0.95744600  0.50000000  1
  S  S8  1  0.67347800  0.33773800  0.97246200  1
  S  S9  1  0.67347800  0.33773800  0.52753800  1
  S  S10  1  0.33773800  0.67347800  0.47246200  1
  S  S11  1  0.33773800  0.67347800  0.02753800  1
  O  O12  1  0.67896400  0.34649900  0.11656500  1
  O  O13  1  0.67896400  0.34649900  0.38343500  1
  O  O14  1  0.34649900  0.67896400  0.61656500  1
  O  O15  1  0.34649900  0.67896400  0.88343500  1
  O  O16  1  0.50413500  0.48093500  0.75000000  1
  O  O17  1  0.97697100  0.49309300  0.75000000  1
  O  O18  1  0.53782300  0.03533700  0.75000000  1
  O  O19  1  0.48093500  0.50413500  0.25000000  1
  O  O20  1  0.49309300  0.97697100  0.25000000  1
  O  O21  1  0.03533700  0.53782300  0.25000000  1
  O  O22  1  0.09109000  0.90839900  0.88561100  1
  O  O23  1  0.79546400  0.90546700  0.88669000  1
  O  O24  1  0.10604900  0.16100000  0.89720200  1
  O  O25  1  0.09109000  0.90839900  0.61438900  1
  O  O26  1  0.79546400  0.90546700  0.61331000  1
  O  O27  1  0.10604900  0.16100000  0.60279800  1
  O  O28  1  0.90839900  0.09109000  0.38561100  1
  O  O29  1  0.90546700  0.79546400  0.38669000  1
  O  O30  1  0.16100000  0.10604900  0.39720200  1
  O  O31  1  0.90839900  0.09109000  0.11438900  1
  O  O32  1  0.90546700  0.79546400  0.11331000  1
  O  O33  1  0.16100000  0.10604900  0.10279800  1
  O  O34  1  0.80505800  0.50591200  0.91592000  1
  O  O35  1  0.71122600  0.20045200  0.92425600  1
  O  O36  1  0.50161000  0.29924300  0.92099200  1
  O  O37  1  0.80505800  0.50591200  0.58408000  1
  O  O38  1  0.71122600  0.20045200  0.57574400  1
  O  O39  1  0.50161000  0.29924300  0.57900800  1
  O  O40  1  0.50591200  0.80505800  0.41592000  1
  O  O41  1  0.20045200  0.71122600  0.42425600  1
  O  O42  1  0.29924300  0.50161000  0.42099200  1
  O  O43  1  0.50591200  0.80505800  0.08408000  1
  O  O44  1  0.20045200  0.71122600  0.07574400  1
  O  O45  1  0.29924300  0.50161000  0.07900800  1
