# generated using pymatgen
data_CrF3
_symmetry_space_group_name_H-M   'P 1'
_cell_length_a   12.21045397
_cell_length_b   5.44076387
_cell_length_c   7.75321834
_cell_angle_alpha   131.12427401
_cell_angle_beta   141.94732328
_cell_angle_gamma   33.36056017
_symmetry_Int_Tables_number   1
_chemical_formula_structural   CrF3
_chemical_formula_sum   'Cr2 F6'
_cell_volume   174.58811089
_cell_formula_units_Z   2
loop_
 _symmetry_equiv_pos_site_id
 _symmetry_equiv_pos_as_xyz
  1  'x, y, z'
loop_
 _atom_site_type_symbol
 _atom_site_label
 _atom_site_symmetry_multiplicity
 _atom_site_fract_x
 _atom_site_fract_y
 _atom_site_fract_z
 _atom_site_occupancy
  Cr  Cr0  1  0.00000000  0.50000000  0.00000000  1
  Cr  Cr1  1  0.00000000  0.00000000  0.00000000  1
  F  F2  1  0.74031700  0.09593900  0.84840600  1
  F  F3  1  0.85140900  0.25000000  0.70281900  1
  F  F4  1  0.10808900  0.40406100  0.84840600  1
  F  F5  1  0.25968300  0.90406100  0.15159400  1
  F  F6  1  0.14859100  0.75000000  0.29718100  1
  F  F7  1  0.89191100  0.59593900  0.15159400  1
