# generated using pymatgen
data_Ge2Br7N3
_symmetry_space_group_name_H-M   'P 1'
_cell_length_a   12.22116700
_cell_length_b   11.24002800
_cell_length_c   14.98861724
_cell_angle_alpha   79.12744029
_cell_angle_beta   90.00000000
_cell_angle_gamma   90.00000000
_symmetry_Int_Tables_number   1
_chemical_formula_structural   Ge2Br7N3
_chemical_formula_sum   'Ge8 Br28 N12'
_cell_volume   2021.97075797
_cell_formula_units_Z   4
loop_
 _symmetry_equiv_pos_site_id
 _symmetry_equiv_pos_as_xyz
  1  'x, y, z'
loop_
 _atom_site_type_symbol
 _atom_site_label
 _atom_site_symmetry_multiplicity
 _atom_site_fract_x
 _atom_site_fract_y
 _atom_site_fract_z
 _atom_site_occupancy
  Ge  Ge0  1  0.52421700  0.31286600  0.94542700  1
  Ge  Ge1  1  0.02421700  0.68713400  0.55457300  1
  Ge  Ge2  1  0.47578300  0.68713400  0.05457300  1
  Ge  Ge3  1  0.97578300  0.31286600  0.44542700  1
  Ge  Ge4  1  0.51671800  0.75991900  0.62060600  1
  Ge  Ge5  1  0.01671800  0.24008100  0.87939400  1
  Ge  Ge6  1  0.48328200  0.24008100  0.37939400  1
  Ge  Ge7  1  0.98328200  0.75991900  0.12060600  1
  Br  Br8  1  0.43496600  0.81262900  0.91466100  1
  Br  Br9  1  0.93496600  0.18737100  0.58533900  1
  Br  Br10  1  0.56503400  0.18737100  0.08533900  1
  Br  Br11  1  0.06503400  0.81262900  0.41466100  1
  Br  Br12  1  0.49445200  0.19087900  0.83540500  1
  Br  Br13  1  0.99445200  0.80912100  0.66459500  1
  Br  Br14  1  0.50554800  0.80912100  0.16459500  1
  Br  Br15  1  0.00554800  0.19087900  0.33540500  1
  Br  Br16  1  0.36382600  0.42630300  0.95640500  1
  Br  Br17  1  0.86382600  0.57369700  0.54359500  1
  Br  Br18  1  0.63617400  0.57369700  0.04359500  1
  Br  Br19  1  0.13617400  0.42630300  0.45640500  1
  Br  Br20  1  0.58102200  0.57096000  0.68665800  1
  Br  Br21  1  0.08102200  0.42904000  0.81334200  1
  Br  Br22  1  0.41897800  0.42904000  0.31334200  1
  Br  Br23  1  0.91897800  0.57096000  0.18665800  1
  Br  Br24  1  0.56180600  0.80408400  0.46868600  1
  Br  Br25  1  0.06180600  0.19591600  0.03131400  1
  Br  Br26  1  0.43819400  0.19591600  0.53131400  1
  Br  Br27  1  0.93819400  0.80408400  0.96868600  1
  Br  Br28  1  0.59697600  0.90180400  0.69228300  1
  Br  Br29  1  0.09697600  0.09819600  0.80771700  1
  Br  Br30  1  0.40302400  0.09819600  0.30771700  1
  Br  Br31  1  0.90302400  0.90180400  0.19228300  1
  Br  Br32  1  0.82856200  0.23790800  0.86481400  1
  Br  Br33  1  0.32856200  0.76209200  0.63518600  1
  Br  Br34  1  0.17143800  0.76209200  0.13518600  1
  Br  Br35  1  0.67143800  0.23790800  0.36481400  1
  N  N36  1  0.68050500  0.95795800  0.96203000  1
  N  N37  1  0.18050500  0.04204200  0.53797000  1
  N  N38  1  0.31949500  0.04204200  0.03797000  1
  N  N39  1  0.81949500  0.95795800  0.46203000  1
  N  N40  1  0.81906500  0.29524800  0.13742500  1
  N  N41  1  0.31906500  0.70475200  0.36257500  1
  N  N42  1  0.18093500  0.70475200  0.86257500  1
  N  N43  1  0.68093500  0.29524800  0.63742500  1
  N  N44  1  0.69003900  0.60900000  0.32671600  1
  N  N45  1  0.19003900  0.39100000  0.17328400  1
  N  N46  1  0.30996100  0.39100000  0.67328400  1
  N  N47  1  0.80996100  0.60900000  0.82671600  1
