# generated using pymatgen
data_FeP3O11
_symmetry_space_group_name_H-M   'P 1'
_cell_length_a   7.30231801
_cell_length_b   7.30231801
_cell_length_c   9.42879738
_cell_angle_alpha   73.64514045
_cell_angle_beta   73.64514045
_cell_angle_gamma   66.11997115
_symmetry_Int_Tables_number   1
_chemical_formula_structural   FeP3O11
_chemical_formula_sum   'Fe2 P6 O22'
_cell_volume   433.01415436
_cell_formula_units_Z   2
loop_
 _symmetry_equiv_pos_site_id
 _symmetry_equiv_pos_as_xyz
  1  'x, y, z'
loop_
 _atom_site_type_symbol
 _atom_site_label
 _atom_site_symmetry_multiplicity
 _atom_site_fract_x
 _atom_site_fract_y
 _atom_site_fract_z
 _atom_site_occupancy
  Fe  Fe0  1  0.00000000  0.50000000  0.50000000  1
  Fe  Fe1  1  0.50000000  0.00000000  0.00000000  1
  P  P2  1  0.24625200  0.08932200  0.71553300  1
  P  P3  1  0.91067800  0.75374800  0.78446700  1
  P  P4  1  0.75374800  0.91067800  0.28446700  1
  P  P5  1  0.08932200  0.24625200  0.21553300  1
  P  P6  1  0.81830400  0.18169600  0.75000000  1
  P  P7  1  0.18169600  0.81830400  0.25000000  1
  O  O8  1  0.01920900  0.13129100  0.81709500  1
  O  O9  1  0.86870900  0.98079100  0.68290500  1
  O  O10  1  0.98079100  0.86870900  0.18290500  1
  O  O11  1  0.13129100  0.01920900  0.31709500  1
  O  O12  1  0.24014600  0.25737600  0.57877000  1
  O  O13  1  0.74262400  0.75985400  0.92123000  1
  O  O14  1  0.75985400  0.74262400  0.42123000  1
  O  O15  1  0.25737600  0.24014600  0.07877000  1
  O  O16  1  0.28705200  0.89344200  0.64296100  1
  O  O17  1  0.10655800  0.71294800  0.85703900  1
  O  O18  1  0.71294800  0.10655800  0.35703900  1
  O  O19  1  0.89344200  0.28705200  0.14296100  1
  O  O20  1  0.38810400  0.04103100  0.81822400  1
  O  O21  1  0.95896900  0.61189600  0.68177600  1
  O  O22  1  0.61189600  0.95896900  0.18177600  1
  O  O23  1  0.04103100  0.38810400  0.31822400  1
  O  O24  1  0.80411900  0.35542600  0.61776000  1
  O  O25  1  0.64457400  0.19588100  0.88224000  1
  O  O26  1  0.19588100  0.64457400  0.38224000  1
  O  O27  1  0.35542600  0.80411900  0.11776000  1
  O  O28  1  0.30073200  0.69926800  0.75000000  1
  O  O29  1  0.69926800  0.30073200  0.25000000  1
