# generated using pymatgen
data_Fe3O4
_symmetry_space_group_name_H-M   'P 1'
_cell_length_a   6.07783100
_cell_length_b   6.09004728
_cell_length_c   17.20899670
_cell_angle_alpha   90.14116468
_cell_angle_beta   90.01316115
_cell_angle_gamma   90.06793591
_symmetry_Int_Tables_number   1
_chemical_formula_structural   Fe3O4
_chemical_formula_sum   'Fe24 O32'
_cell_volume   636.97619222
_cell_formula_units_Z   8
loop_
 _symmetry_equiv_pos_site_id
 _symmetry_equiv_pos_as_xyz
  1  'x, y, z'
loop_
 _atom_site_type_symbol
 _atom_site_label
 _atom_site_symmetry_multiplicity
 _atom_site_fract_x
 _atom_site_fract_y
 _atom_site_fract_z
 _atom_site_occupancy
  Fe  Fe0  1  0.49260900  0.99486600  0.81416900  1
  Fe  Fe1  1  0.74926500  0.50014500  0.37694500  1
  Fe  Fe2  1  0.24748600  0.00189000  0.62491400  1
  Fe  Fe3  1  0.50179600  0.99879200  0.31533300  1
  Fe  Fe4  1  0.99607300  0.49938500  0.06257300  1
  Fe  Fe5  1  0.49820800  0.50793700  0.68676600  1
  Fe  Fe6  1  0.99957000  0.49304900  0.56329500  1
  Fe  Fe7  1  0.50003800  0.24602700  0.50248900  1
  Fe  Fe8  1  0.50680500  0.50523300  0.18655900  1
  Fe  Fe9  1  0.00012400  0.00459900  0.43742500  1
  Fe  Fe10  1  0.99461200  0.75421600  0.74680000  1
  Fe  Fe11  1  0.50009000  0.75110100  0.50115600  1
  Fe  Fe12  1  0.25502700  0.50053700  0.37677600  1
  Fe  Fe13  1  0.24947400  0.00064800  0.12432600  1
  Fe  Fe14  1  0.74941400  0.49882200  0.87329700  1
  Fe  Fe15  1  0.74802300  0.00119500  0.62560200  1
  Fe  Fe16  1  0.24665300  0.49912400  0.87314300  1
  Fe  Fe17  1  0.00558500  0.99859800  0.93487100  1
  Fe  Fe18  1  0.50085700  0.24840400  0.99952900  1
  Fe  Fe19  1  0.50041200  0.74983600  0.00009500  1
  Fe  Fe20  1  0.00395400  0.24988000  0.24999800  1
  Fe  Fe21  1  0.00507500  0.75106300  0.25087100  1
  Fe  Fe22  1  0.74865400  0.00001900  0.12488300  1
  Fe  Fe23  1  0.99483400  0.24927900  0.74993000  1
  O  O24  1  0.00078200  0.26555300  0.36972900  1
  O  O25  1  0.99879600  0.74663300  0.63034400  1
  O  O26  1  0.50278000  0.71903000  0.37718800  1
  O  O27  1  0.99360300  0.75748200  0.12765800  1
  O  O28  1  0.22314400  0.00180900  0.24720200  1
  O  O29  1  0.22912200  0.49976400  0.25725100  1
  O  O30  1  0.49785600  0.76298300  0.62265300  1
  O  O31  1  0.75780300  0.51019000  0.75239300  1
  O  O32  1  0.51159900  0.22949900  0.11544200  1
  O  O33  1  0.26882100  0.99753700  0.99990400  1
  O  O34  1  0.49774100  0.25572700  0.61951300  1
  O  O35  1  0.73865300  0.99876200  0.00159500  1
  O  O36  1  0.77883900  0.50107200  0.25880600  1
  O  O37  1  0.00181900  0.73648600  0.37157600  1
  O  O38  1  0.73878400  0.01086500  0.49776200  1
  O  O39  1  0.24059000  0.50945900  0.75669100  1
  O  O40  1  0.23348700  0.99132400  0.75177700  1
  O  O41  1  0.77707000  0.99909800  0.24185000  1
  O  O42  1  0.73156000  0.49925100  0.99862700  1
  O  O43  1  0.50087700  0.27811700  0.38030400  1
  O  O44  1  0.26152000  0.01045100  0.49762700  1
  O  O45  1  0.00925000  0.26405800  0.87729000  1
  O  O46  1  0.25552600  0.48933800  0.49449100  1
  O  O47  1  0.51313300  0.76593000  0.11563600  1
  O  O48  1  0.74378900  0.48961800  0.49480000  1
  O  O49  1  0.99057400  0.24456200  0.12794600  1
  O  O50  1  0.99750500  0.23887400  0.62714200  1
  O  O51  1  0.48764300  0.25857400  0.88115400  1
  O  O52  1  0.48886200  0.73695600  0.88267700  1
  O  O53  1  0.26662600  0.49946700  0.99807400  1
  O  O54  1  0.01006600  0.73694700  0.87247500  1
  O  O55  1  0.75714000  0.98994100  0.75427600  1
