# generated using pymatgen
data_Nd6I8O45
_symmetry_space_group_name_H-M   'P 1'
_cell_length_a   10.19273300
_cell_length_b   12.69078600
_cell_length_c   16.78396300
_cell_angle_alpha   90.00000000
_cell_angle_beta   90.00000000
_cell_angle_gamma   90.00000000
_symmetry_Int_Tables_number   1
_chemical_formula_structural   Nd6I8O45
_chemical_formula_sum   'Nd12 I16 O90'
_cell_volume   2171.06927995
_cell_formula_units_Z   2
loop_
 _symmetry_equiv_pos_site_id
 _symmetry_equiv_pos_as_xyz
  1  'x, y, z'
loop_
 _atom_site_type_symbol
 _atom_site_label
 _atom_site_symmetry_multiplicity
 _atom_site_fract_x
 _atom_site_fract_y
 _atom_site_fract_z
 _atom_site_occupancy
  Nd  Nd0  1  0.00000000  0.00000000  0.83826400  1
  Nd  Nd1  1  0.50000000  0.50000000  0.66173600  1
  Nd  Nd2  1  0.00000000  0.00000000  0.16173600  1
  Nd  Nd3  1  0.50000000  0.50000000  0.33826400  1
  Nd  Nd4  1  0.92050400  0.79861900  0.00000000  1
  Nd  Nd5  1  0.07949600  0.20138100  0.00000000  1
  Nd  Nd6  1  0.42050400  0.70138100  0.50000000  1
  Nd  Nd7  1  0.57949600  0.29861900  0.50000000  1
  Nd  Nd8  1  0.27385900  0.96763300  0.00000000  1
  Nd  Nd9  1  0.72614100  0.03236700  0.00000000  1
  Nd  Nd10  1  0.77385900  0.53236700  0.50000000  1
  Nd  Nd11  1  0.22614100  0.46763300  0.50000000  1
  I  I12  1  0.00000000  0.50000000  0.09664200  1
  I  I13  1  0.50000000  0.00000000  0.40335800  1
  I  I14  1  0.00000000  0.50000000  0.90335800  1
  I  I15  1  0.50000000  0.00000000  0.59664200  1
  I  I16  1  0.84879200  0.23801700  0.19649300  1
  I  I17  1  0.15120800  0.76198300  0.19649300  1
  I  I18  1  0.34879200  0.26198300  0.30350700  1
  I  I19  1  0.65120800  0.73801700  0.30350700  1
  I  I20  1  0.15120800  0.76198300  0.80350700  1
  I  I21  1  0.84879200  0.23801700  0.80350700  1
  I  I22  1  0.65120800  0.73801700  0.69649300  1
  I  I23  1  0.34879200  0.26198300  0.69649300  1
  I  I24  1  0.96482700  0.25844800  0.50000000  1
  I  I25  1  0.03517300  0.74155200  0.50000000  1
  I  I26  1  0.46482700  0.24155200  0.00000000  1
  I  I27  1  0.53517300  0.75844800  0.00000000  1
  O  O28  1  0.00000000  0.00000000  0.00000000  1
  O  O29  1  0.50000000  0.50000000  0.50000000  1
  O  O30  1  0.15948500  0.07664000  0.90940700  1
  O  O31  1  0.84051500  0.92336000  0.90940700  1
  O  O32  1  0.65948500  0.42336000  0.59059300  1
  O  O33  1  0.34051500  0.57664000  0.59059300  1
  O  O34  1  0.84051500  0.92336000  0.09059300  1
  O  O35  1  0.15948500  0.07664000  0.09059300  1
  O  O36  1  0.34051500  0.57664000  0.40940700  1
  O  O37  1  0.65948500  0.42336000  0.40940700  1
  O  O38  1  0.10446300  0.82849200  0.09966700  1
  O  O39  1  0.89553700  0.17150800  0.09966700  1
  O  O40  1  0.60446300  0.67150800  0.40033300  1
  O  O41  1  0.39553700  0.32849200  0.40033300  1
  O  O42  1  0.89553700  0.17150800  0.90033300  1
  O  O43  1  0.10446300  0.82849200  0.90033300  1
  O  O44  1  0.39553700  0.32849200  0.59966700  1
  O  O45  1  0.60446300  0.67150800  0.59966700  1
  O  O46  1  0.85830700  0.10657200  0.75196000  1
  O  O47  1  0.14169300  0.89342800  0.75196000  1
  O  O48  1  0.35830700  0.39342800  0.74804000  1
  O  O49  1  0.64169300  0.60657200  0.74804000  1
  O  O50  1  0.14169300  0.89342800  0.24804000  1
  O  O51  1  0.85830700  0.10657200  0.24804000  1
  O  O52  1  0.64169300  0.60657200  0.25196000  1
  O  O53  1  0.35830700  0.39342800  0.25196000  1
  O  O54  1  0.97904100  0.19474900  0.59602500  1
  O  O55  1  0.02095900  0.80525100  0.59602500  1
  O  O56  1  0.47904100  0.30525100  0.90397500  1
  O  O57  1  0.52095900  0.69474900  0.90397500  1
  O  O58  1  0.02095900  0.80525100  0.40397500  1
  O  O59  1  0.97904100  0.19474900  0.40397500  1
  O  O60  1  0.52095900  0.69474900  0.09602500  1
  O  O61  1  0.47904100  0.30525100  0.09602500  1
  O  O62  1  0.03413500  0.63298200  0.16504200  1
  O  O63  1  0.96586500  0.36701800  0.16504200  1
  O  O64  1  0.53413500  0.86701800  0.33495800  1
  O  O65  1  0.46586500  0.13298200  0.33495800  1
  O  O66  1  0.96586500  0.36701800  0.83495800  1
  O  O67  1  0.03413500  0.63298200  0.83495800  1
  O  O68  1  0.46586500  0.13298200  0.66504200  1
  O  O69  1  0.53413500  0.86701800  0.66504200  1
  O  O70  1  0.01438200  0.60067100  0.00000000  1
  O  O71  1  0.98561800  0.39932900  0.00000000  1
  O  O72  1  0.51438200  0.89932900  0.50000000  1
  O  O73  1  0.48561800  0.10067100  0.50000000  1
  O  O74  1  0.71996300  0.73392200  0.00000000  1
  O  O75  1  0.28003700  0.26607800  0.00000000  1
  O  O76  1  0.21996300  0.76607800  0.50000000  1
  O  O77  1  0.78003700  0.23392200  0.50000000  1
  O  O78  1  0.43370000  0.09479300  0.00000000  1
  O  O79  1  0.56630000  0.90520700  0.00000000  1
  O  O80  1  0.93370000  0.40520700  0.50000000  1
  O  O81  1  0.06630000  0.59479300  0.50000000  1
  O  O82  1  0.35506400  0.79720500  0.00000000  1
  O  O83  1  0.64493600  0.20279500  0.00000000  1
  O  O84  1  0.85506400  0.70279500  0.50000000  1
  O  O85  1  0.14493600  0.29720500  0.50000000  1
  O  O86  1  0.40273900  0.94234900  0.16125000  1
  O  O87  1  0.59726100  0.05765100  0.16125000  1
  O  O88  1  0.90273900  0.55765100  0.33875000  1
  O  O89  1  0.09726100  0.44234900  0.33875000  1
  O  O90  1  0.59726100  0.05765100  0.83875000  1
  O  O91  1  0.40273900  0.94234900  0.83875000  1
  O  O92  1  0.09726100  0.44234900  0.66125000  1
  O  O93  1  0.90273900  0.55765100  0.66125000  1
  O  O94  1  0.51434400  0.90344900  0.16279400  1
  O  O95  1  0.48565600  0.09655100  0.16279400  1
  O  O96  1  0.01434400  0.59655100  0.33720600  1
  O  O97  1  0.98565600  0.40344900  0.33720600  1
  O  O98  1  0.48565600  0.09655100  0.83720600  1
  O  O99  1  0.51434400  0.90344900  0.83720600  1
  O  O100  1  0.98565600  0.40344900  0.66279400  1
  O  O101  1  0.01434400  0.59655100  0.66279400  1
  O  O102  1  0.74012900  0.01996500  0.57094600  1
  O  O103  1  0.25987100  0.98003500  0.57094600  1
  O  O104  1  0.24012900  0.48003500  0.92905400  1
  O  O105  1  0.75987100  0.51996500  0.92905400  1
  O  O106  1  0.25987100  0.98003500  0.42905400  1
  O  O107  1  0.74012900  0.01996500  0.42905400  1
  O  O108  1  0.75987100  0.51996500  0.07094600  1
  O  O109  1  0.24012900  0.48003500  0.07094600  1
  O  O110  1  0.79361300  0.93313100  0.55584800  1
  O  O111  1  0.20638700  0.06686900  0.55584800  1
  O  O112  1  0.29361300  0.56686900  0.94415200  1
  O  O113  1  0.70638700  0.43313100  0.94415200  1
  O  O114  1  0.20638700  0.06686900  0.44415200  1
  O  O115  1  0.79361300  0.93313100  0.44415200  1
  O  O116  1  0.70638700  0.43313100  0.05584800  1
  O  O117  1  0.29361300  0.56686900  0.05584800  1
