# generated using pymatgen
data_Fe2Mo4O7
_symmetry_space_group_name_H-M   'P 1'
_cell_length_a   9.62835964
_cell_length_b   9.62835964
_cell_length_c   6.24735365
_cell_angle_alpha   71.28936377
_cell_angle_beta   71.28936377
_cell_angle_gamma   38.64002151
_symmetry_Int_Tables_number   1
_chemical_formula_structural   Fe2Mo4O7
_chemical_formula_sum   'Fe4 Mo8 O14'
_cell_volume   340.10807932
_cell_formula_units_Z   2
loop_
 _symmetry_equiv_pos_site_id
 _symmetry_equiv_pos_as_xyz
  1  'x, y, z'
loop_
 _atom_site_type_symbol
 _atom_site_label
 _atom_site_symmetry_multiplicity
 _atom_site_fract_x
 _atom_site_fract_y
 _atom_site_fract_z
 _atom_site_occupancy
  Fe  Fe0  1  0.55408300  0.55408300  0.70120200  1
  Fe  Fe1  1  0.44572700  0.44572700  0.30930500  1
  Fe  Fe2  1  0.00160500  0.00160500  0.00186300  1
  Fe  Fe3  1  0.00090900  0.00090900  0.50808500  1
  Mo  Mo4  1  0.38452100  0.88074200  0.12061600  1
  Mo  Mo5  1  0.88074200  0.38452100  0.12061600  1
  Mo  Mo6  1  0.61952600  0.12058500  0.88466900  1
  Mo  Mo7  1  0.12058500  0.61952600  0.88466900  1
  Mo  Mo8  1  0.24957600  0.24957600  0.73040800  1
  Mo  Mo9  1  0.75149200  0.75149200  0.24655800  1
  Mo  Mo10  1  0.75200400  0.75200400  0.72052700  1
  Mo  Mo11  1  0.25092800  0.25092800  0.24794100  1
  O  O12  1  0.22384100  0.76142200  0.76486300  1
  O  O13  1  0.24671900  0.76679700  0.25228900  1
  O  O14  1  0.76679700  0.24671900  0.25228900  1
  O  O15  1  0.76142200  0.22384100  0.76486300  1
  O  O16  1  0.12784900  0.12784900  0.34939300  1
  O  O17  1  0.87315800  0.87315800  0.65674300  1
  O  O18  1  0.87499700  0.87499700  0.10304300  1
  O  O19  1  0.13043900  0.13043900  0.89878400  1
  O  O20  1  0.37762200  0.37762200  0.12369400  1
  O  O21  1  0.62902600  0.62902600  0.89104100  1
  O  O22  1  0.62686700  0.62686700  0.36309300  1
  O  O23  1  0.37546600  0.37546600  0.63048800  1
  O  O24  1  0.49953500  0.00813000  0.48239000  1
  O  O25  1  0.00813000  0.49953500  0.48239000  1
