# generated using pymatgen
data_K(IO3)2
_symmetry_space_group_name_H-M   'P 1'
_cell_length_a   7.75324800
_cell_length_b   7.20533600
_cell_length_c   22.91294046
_cell_angle_alpha   80.37030441
_cell_angle_beta   90.00000000
_cell_angle_gamma   90.00000000
_symmetry_Int_Tables_number   1
_chemical_formula_structural   K(IO3)2
_chemical_formula_sum   'K8 I16 O48'
_cell_volume   1261.98960758
_cell_formula_units_Z   8
loop_
 _symmetry_equiv_pos_site_id
 _symmetry_equiv_pos_as_xyz
  1  'x, y, z'
loop_
 _atom_site_type_symbol
 _atom_site_label
 _atom_site_symmetry_multiplicity
 _atom_site_fract_x
 _atom_site_fract_y
 _atom_site_fract_z
 _atom_site_occupancy
  K  K0  1  0.38229900  0.73859600  0.00786100  1
  K  K1  1  0.88229900  0.26140400  0.49213900  1
  K  K2  1  0.61770100  0.26140400  0.99213900  1
  K  K3  1  0.11770100  0.73859600  0.50786100  1
  K  K4  1  0.13030900  0.82854100  0.18104800  1
  K  K5  1  0.63030900  0.17145900  0.31895200  1
  K  K6  1  0.86969100  0.17145900  0.81895200  1
  K  K7  1  0.36969100  0.82854100  0.68104800  1
  I  I8  1  0.64055700  0.85964600  0.14461300  1
  I  I9  1  0.14055700  0.14035400  0.35538700  1
  I  I10  1  0.35944300  0.14035400  0.85538700  1
  I  I11  1  0.85944300  0.85964600  0.64461300  1
  I  I12  1  0.89129900  0.77700500  0.99147800  1
  I  I13  1  0.39129900  0.22299500  0.50852200  1
  I  I14  1  0.10870100  0.22299500  0.00852200  1
  I  I15  1  0.60870100  0.77700500  0.49147800  1
  I  I16  1  0.86605800  0.33825300  0.14650600  1
  I  I17  1  0.36605800  0.66174700  0.35349400  1
  I  I18  1  0.13394200  0.66174700  0.85349400  1
  I  I19  1  0.63394200  0.33825300  0.64650600  1
  I  I20  1  0.38324000  0.34698000  0.15018600  1
  I  I21  1  0.88324000  0.65302000  0.34981400  1
  I  I22  1  0.61676000  0.65302000  0.84981400  1
  I  I23  1  0.11676000  0.34698000  0.65018600  1
  O  O24  1  0.82154400  0.02117800  0.15837400  1
  O  O25  1  0.32154400  0.97882200  0.34162600  1
  O  O26  1  0.17845600  0.97882200  0.84162600  1
  O  O27  1  0.67845600  0.02117800  0.65837400  1
  O  O28  1  0.45290200  0.98985900  0.16201800  1
  O  O29  1  0.95290200  0.01014100  0.33798200  1
  O  O30  1  0.54709800  0.01014100  0.83798200  1
  O  O31  1  0.04709800  0.98985900  0.66201800  1
  O  O32  1  0.63917600  0.90399500  0.06378600  1
  O  O33  1  0.13917600  0.09600500  0.43621400  1
  O  O34  1  0.36082400  0.09600500  0.93621400  1
  O  O35  1  0.86082400  0.90399500  0.56378600  1
  O  O36  1  0.86270300  0.01495400  0.95126100  1
  O  O37  1  0.36270300  0.98504600  0.54873900  1
  O  O38  1  0.13729700  0.98504600  0.04873900  1
  O  O39  1  0.63729700  0.01495400  0.45126100  1
  O  O40  1  0.07806900  0.68894100  0.94907900  1
  O  O41  1  0.57806900  0.31105900  0.55092100  1
  O  O42  1  0.92193100  0.31105900  0.05092100  1
  O  O43  1  0.42193100  0.68894100  0.44907900  1
  O  O44  1  0.70936900  0.65320900  0.96573400  1
  O  O45  1  0.20936900  0.34679100  0.53426600  1
  O  O46  1  0.29063100  0.34679100  0.03426600  1
  O  O47  1  0.79063100  0.65320900  0.46573400  1
  O  O48  1  0.90910600  0.58833400  0.12259900  1
  O  O49  1  0.40910600  0.41166600  0.37740100  1
  O  O50  1  0.09089400  0.41166600  0.87740100  1
  O  O51  1  0.59089400  0.58833400  0.62259900  1
  O  O52  1  0.79142700  0.32890100  0.22039300  1
  O  O53  1  0.29142700  0.67109900  0.27960700  1
  O  O54  1  0.20857300  0.67109900  0.77960700  1
  O  O55  1  0.70857300  0.32890100  0.72039300  1
  O  O56  1  0.09129700  0.25070400  0.16278300  1
  O  O57  1  0.59129700  0.74929600  0.33721700  1
  O  O58  1  0.90870300  0.74929600  0.83721700  1
  O  O59  1  0.40870300  0.25070400  0.66278300  1
  O  O60  1  0.37046600  0.60345100  0.13140200  1
  O  O61  1  0.87046600  0.39654900  0.36859800  1
  O  O62  1  0.62953400  0.39654900  0.86859800  1
  O  O63  1  0.12953400  0.60345100  0.63140200  1
  O  O64  1  0.40547900  0.31731600  0.22872900  1
  O  O65  1  0.90547900  0.68268400  0.27127100  1
  O  O66  1  0.59452100  0.68268400  0.77127100  1
  O  O67  1  0.09452100  0.31731600  0.72872900  1
  O  O68  1  0.63468100  0.35311200  0.11089200  1
  O  O69  1  0.13468100  0.64688800  0.38910800  1
  O  O70  1  0.36531900  0.64688800  0.88910800  1
  O  O71  1  0.86531900  0.35311200  0.61089200  1
