# generated using pymatgen
data_Mg2PHO5
_symmetry_space_group_name_H-M   'P 1'
_cell_length_a   11.56233179
_cell_length_b   11.56233179
_cell_length_c   4.66620000
_cell_angle_alpha   90.00000000
_cell_angle_beta   90.00000000
_cell_angle_gamma   119.99999882
_symmetry_Int_Tables_number   1
_chemical_formula_structural   Mg2PHO5
_chemical_formula_sum   'Mg12 P6 H6 O30'
_cell_volume   540.23764272
_cell_formula_units_Z   6
loop_
 _symmetry_equiv_pos_site_id
 _symmetry_equiv_pos_as_xyz
  1  'x, y, z'
loop_
 _atom_site_type_symbol
 _atom_site_label
 _atom_site_symmetry_multiplicity
 _atom_site_fract_x
 _atom_site_fract_y
 _atom_site_fract_z
 _atom_site_occupancy
  Mg  Mg0  1  0.51692500  0.85430200  0.91868500  1
  Mg  Mg1  1  0.33737700  0.48307500  0.91868500  1
  Mg  Mg2  1  0.14569800  0.66262300  0.91868500  1
  Mg  Mg3  1  0.48307500  0.33737700  0.91868500  1
  Mg  Mg4  1  0.85430200  0.51692500  0.91868500  1
  Mg  Mg5  1  0.66262300  0.14569800  0.91868500  1
  Mg  Mg6  1  0.67805200  0.85560900  0.45465600  1
  Mg  Mg7  1  0.17755600  0.32194800  0.45465600  1
  Mg  Mg8  1  0.14439100  0.82244400  0.45465600  1
  Mg  Mg9  1  0.32194800  0.17755600  0.45465600  1
  Mg  Mg10  1  0.85560900  0.67805200  0.45465600  1
  Mg  Mg11  1  0.82244400  0.14439100  0.45465600  1
  P  P12  1  0.33333300  0.66666700  0.41161500  1
  P  P13  1  0.66666700  0.33333300  0.41161500  1
  P  P14  1  0.00000000  0.34948600  0.98090200  1
  P  P15  1  0.34948600  0.00000000  0.98090200  1
  P  P16  1  0.65051400  0.65051400  0.98090200  1
  P  P17  1  0.00000000  0.00000000  0.07739600  1
  H  H18  1  0.00000000  0.53621500  0.44326200  1
  H  H19  1  0.53621500  0.00000000  0.44326200  1
  H  H20  1  0.46378500  0.46378500  0.44326200  1
  H  H21  1  0.00000000  0.11071000  0.96274500  1
  H  H22  1  0.11071000  0.00000000  0.96274500  1
  H  H23  1  0.88929000  0.88929000  0.96274500  1
  O  O24  1  0.00000000  0.79710900  0.77250000  1
  O  O25  1  0.79710900  0.00000000  0.77250000  1
  O  O26  1  0.20289100  0.20289100  0.77250000  1
  O  O27  1  0.47745900  0.75749800  0.30220900  1
  O  O28  1  0.28003900  0.52254100  0.30220900  1
  O  O29  1  0.24250200  0.71996100  0.30220900  1
  O  O30  1  0.52254100  0.28003900  0.30220900  1
  O  O31  1  0.75749800  0.47745900  0.30220900  1
  O  O32  1  0.71996100  0.24250200  0.30220900  1
  O  O33  1  0.00000000  0.26984100  0.25150400  1
  O  O34  1  0.26984100  0.00000000  0.25150400  1
  O  O35  1  0.73015900  0.73015900  0.25150400  1
  O  O36  1  0.60605900  0.73439800  0.80321400  1
  O  O37  1  0.12833900  0.39394100  0.80321400  1
  O  O38  1  0.26560200  0.87166100  0.80321400  1
  O  O39  1  0.39394100  0.12833900  0.80321400  1
  O  O40  1  0.73439800  0.60605900  0.80321400  1
  O  O41  1  0.87166100  0.26560200  0.80321400  1
  O  O42  1  0.00000000  0.47822400  0.07970700  1
  O  O43  1  0.47822400  0.00000000  0.07970700  1
  O  O44  1  0.52177600  0.52177600  0.07970700  1
  O  O45  1  0.33333300  0.66666700  0.74824800  1
  O  O46  1  0.66666700  0.33333300  0.74824800  1
  O  O47  1  0.00000000  0.72307000  0.05016800  1
  O  O48  1  0.72307000  0.00000000  0.05016800  1
  O  O49  1  0.27693000  0.27693000  0.05016800  1
  O  O50  1  0.00000000  0.59988000  0.58324600  1
  O  O51  1  0.59988000  0.00000000  0.58324600  1
  O  O52  1  0.40012000  0.40012000  0.58324600  1
  O  O53  1  0.00000000  0.00000000  0.40895500  1
