# generated using pymatgen
data_K2Pt(I2O)2
_symmetry_space_group_name_H-M   'P 1'
_cell_length_a   11.47072100
_cell_length_b   7.74995390
_cell_length_c   13.87177628
_cell_angle_alpha   90.06725882
_cell_angle_beta   90.24132673
_cell_angle_gamma   90.55828005
_symmetry_Int_Tables_number   1
_chemical_formula_structural   K2Pt(I2O)2
_chemical_formula_sum   'K8 Pt4 I16 O8'
_cell_volume   1233.09666190
_cell_formula_units_Z   4
loop_
 _symmetry_equiv_pos_site_id
 _symmetry_equiv_pos_as_xyz
  1  'x, y, z'
loop_
 _atom_site_type_symbol
 _atom_site_label
 _atom_site_symmetry_multiplicity
 _atom_site_fract_x
 _atom_site_fract_y
 _atom_site_fract_z
 _atom_site_occupancy
  K  K0  1  0.63156800  0.30893100  0.66768800  1
  K  K1  1  0.13737900  0.19537000  0.33128000  1
  K  K2  1  0.36502400  0.80313900  0.82947800  1
  K  K3  1  0.87157000  0.68788100  0.16699500  1
  K  K4  1  0.36964600  0.69203000  0.33111200  1
  K  K5  1  0.86215800  0.79923800  0.67275200  1
  K  K6  1  0.63523800  0.19605200  0.17058000  1
  K  K7  1  0.12655800  0.31706200  0.83515800  1
  Pt  Pt8  1  0.49994000  0.99966500  0.49935100  1
  Pt  Pt9  1  0.99999200  0.50093600  0.49951200  1
  Pt  Pt10  1  0.49905800  0.49764700  0.99880900  1
  Pt  Pt11  1  0.00181000  0.00052300  0.00106100  1
  I  I12  1  0.43949200  0.22635400  0.36790900  1
  I  I13  1  0.93454600  0.27770000  0.63197400  1
  I  I14  1  0.56840100  0.71693100  0.13255500  1
  I  I15  1  0.06381900  0.78065100  0.86814800  1
  I  I16  1  0.56097700  0.77611300  0.63158300  1
  I  I17  1  0.06722000  0.72226700  0.36713800  1
  I  I18  1  0.43045300  0.27782300  0.86537300  1
  I  I19  1  0.93819900  0.22213500  0.13432400  1
  I  I20  1  0.67621800  0.86075300  0.40753700  1
  I  I21  1  0.17510500  0.64380400  0.59440100  1
  I  I22  1  0.32405300  0.35692300  0.09326700  1
  I  I23  1  0.82424600  0.13833200  0.90854300  1
  I  I24  1  0.32314700  0.13673900  0.59122500  1
  I  I25  1  0.82332300  0.35926900  0.40642800  1
  I  I26  1  0.67516400  0.64080000  0.90626400  1
  I  I27  1  0.17913600  0.86333200  0.09334500  1
  O  O28  1  0.79256800  0.45021000  0.28119100  1
  O  O29  1  0.29123800  0.03854600  0.71365100  1
  O  O30  1  0.21143600  0.95478200  0.21717500  1
  O  O31  1  0.70419800  0.55472100  0.78044000  1
  O  O32  1  0.20276800  0.55493800  0.72021400  1
  O  O33  1  0.70535800  0.95099200  0.28244400  1
  O  O34  1  0.79409400  0.04774000  0.78382800  1
  O  O35  1  0.29490100  0.44967400  0.21727000  1
