# generated using pymatgen
data_NiB12(H3O)12
_symmetry_space_group_name_H-M   'P 1'
_cell_length_a   13.62731663
_cell_length_b   13.62731663
_cell_length_c   13.62731663
_cell_angle_alpha   60.00000000
_cell_angle_beta   60.00000000
_cell_angle_gamma   60.00000000
_symmetry_Int_Tables_number   1
_chemical_formula_structural   NiB12(H3O)12
_chemical_formula_sum   'Ni2 B24 H72 O24'
_cell_volume   1789.43547529
_cell_formula_units_Z   2
loop_
 _symmetry_equiv_pos_site_id
 _symmetry_equiv_pos_as_xyz
  1  'x, y, z'
loop_
 _atom_site_type_symbol
 _atom_site_label
 _atom_site_symmetry_multiplicity
 _atom_site_fract_x
 _atom_site_fract_y
 _atom_site_fract_z
 _atom_site_occupancy
  Ni  Ni0  1  0.25000000  0.25000000  0.25000000  1
  Ni  Ni1  1  0.00000000  0.00000000  0.00000000  1
  B  B2  1  0.87061700  0.77893100  0.62907900  1
  B  B3  1  0.72137300  0.87061700  0.62907900  1
  B  B4  1  0.77893100  0.72137300  0.62907900  1
  B  B5  1  0.47106900  0.37938300  0.62092100  1
  B  B6  1  0.52862700  0.47106900  0.62092100  1
  B  B7  1  0.37938300  0.52862700  0.62092100  1
  B  B8  1  0.62907900  0.72137300  0.87061700  1
  B  B9  1  0.62907900  0.77893100  0.72137300  1
  B  B10  1  0.62907900  0.87061700  0.77893100  1
  B  B11  1  0.62092100  0.52862700  0.47106900  1
  B  B12  1  0.62092100  0.37938300  0.52862700  1
  B  B13  1  0.62092100  0.47106900  0.37938300  1
  B  B14  1  0.72137300  0.62907900  0.77893100  1
  B  B15  1  0.77893100  0.62907900  0.87061700  1
  B  B16  1  0.87061700  0.62907900  0.72137300  1
  B  B17  1  0.52862700  0.62092100  0.37938300  1
  B  B18  1  0.37938300  0.62092100  0.47106900  1
  B  B19  1  0.47106900  0.62092100  0.52862700  1
  B  B20  1  0.77893100  0.87061700  0.72137300  1
  B  B21  1  0.87061700  0.72137300  0.77893100  1
  B  B22  1  0.72137300  0.77893100  0.87061700  1
  B  B23  1  0.37938300  0.47106900  0.52862700  1
  B  B24  1  0.47106900  0.52862700  0.37938300  1
  B  B25  1  0.52862700  0.37938300  0.47106900  1
  H  H26  1  0.06157500  0.15396800  0.42599000  1
  H  H27  1  0.35846800  0.06157500  0.42599000  1
  H  H28  1  0.15396800  0.35846800  0.42599000  1
  H  H29  1  0.09603200  0.18842500  0.82401000  1
  H  H30  1  0.89153200  0.09603200  0.82401000  1
  H  H31  1  0.18842500  0.89153200  0.82401000  1
  H  H32  1  0.42599000  0.35846800  0.06157500  1
  H  H33  1  0.42599000  0.15396800  0.35846800  1
  H  H34  1  0.42599000  0.06157500  0.15396800  1
  H  H35  1  0.82401000  0.89153200  0.09603200  1
  H  H36  1  0.82401000  0.18842500  0.89153200  1
  H  H37  1  0.82401000  0.09603200  0.18842500  1
  H  H38  1  0.35846800  0.42599000  0.15396800  1
  H  H39  1  0.15396800  0.42599000  0.06157500  1
  H  H40  1  0.06157500  0.42599000  0.35846800  1
  H  H41  1  0.89153200  0.82401000  0.18842500  1
  H  H42  1  0.18842500  0.82401000  0.09603200  1
  H  H43  1  0.09603200  0.82401000  0.89153200  1
  H  H44  1  0.15396800  0.06157500  0.35846800  1
  H  H45  1  0.06157500  0.35846800  0.15396800  1
  H  H46  1  0.35846800  0.15396800  0.06157500  1
  H  H47  1  0.18842500  0.09603200  0.89153200  1
  H  H48  1  0.09603200  0.89153200  0.18842500  1
  H  H49  1  0.89153200  0.18842500  0.09603200  1
  H  H50  1  0.15906500  0.35424200  0.61461400  1
  H  H51  1  0.87207800  0.15906500  0.61461400  1
  H  H52  1  0.35424200  0.87207800  0.61461400  1
  H  H53  1  0.89575800  0.09093500  0.63538600  1
  H  H54  1  0.37792200  0.89575800  0.63538600  1
  H  H55  1  0.09093500  0.37792200  0.63538600  1
  H  H56  1  0.61461400  0.87207800  0.15906500  1
  H  H57  1  0.61461400  0.35424200  0.87207800  1
  H  H58  1  0.61461400  0.15906500  0.35424200  1
  H  H59  1  0.63538600  0.37792200  0.89575800  1
  H  H60  1  0.63538600  0.09093500  0.37792200  1
  H  H61  1  0.63538600  0.89575800  0.09093500  1
  H  H62  1  0.87207800  0.61461400  0.35424200  1
  H  H63  1  0.35424200  0.61461400  0.15906500  1
  H  H64  1  0.15906500  0.61461400  0.87207800  1
  H  H65  1  0.37792200  0.63538600  0.09093500  1
  H  H66  1  0.09093500  0.63538600  0.89575800  1
  H  H67  1  0.89575800  0.63538600  0.37792200  1
  H  H68  1  0.35424200  0.15906500  0.87207800  1
  H  H69  1  0.15906500  0.87207800  0.35424200  1
  H  H70  1  0.87207800  0.35424200  0.15906500  1
  H  H71  1  0.09093500  0.89575800  0.37792200  1
  H  H72  1  0.89575800  0.37792200  0.09093500  1
  H  H73  1  0.37792200  0.09093500  0.89575800  1
  H  H74  1  0.95447300  0.80214100  0.54140600  1
  H  H75  1  0.70198000  0.95447300  0.54140600  1
  H  H76  1  0.80214100  0.70198000  0.54140600  1
  H  H77  1  0.44785900  0.29552700  0.70859400  1
  H  H78  1  0.54802000  0.44785900  0.70859400  1
  H  H79  1  0.29552700  0.54802000  0.70859400  1
  H  H80  1  0.54140600  0.70198000  0.95447300  1
  H  H81  1  0.54140600  0.80214100  0.70198000  1
  H  H82  1  0.54140600  0.95447300  0.80214100  1
  H  H83  1  0.70859400  0.54802000  0.44785900  1
  H  H84  1  0.70859400  0.29552700  0.54802000  1
  H  H85  1  0.70859400  0.44785900  0.29552700  1
  H  H86  1  0.70198000  0.54140600  0.80214100  1
  H  H87  1  0.80214100  0.54140600  0.95447300  1
  H  H88  1  0.95447300  0.54140600  0.70198000  1
  H  H89  1  0.54802000  0.70859400  0.29552700  1
  H  H90  1  0.29552700  0.70859400  0.44785900  1
  H  H91  1  0.44785900  0.70859400  0.54802000  1
  H  H92  1  0.80214100  0.95447300  0.70198000  1
  H  H93  1  0.95447300  0.70198000  0.80214100  1
  H  H94  1  0.70198000  0.80214100  0.95447300  1
  H  H95  1  0.29552700  0.44785900  0.54802000  1
  H  H96  1  0.44785900  0.54802000  0.29552700  1
  H  H97  1  0.54802000  0.29552700  0.44785900  1
  O  O98  1  0.13817000  0.13817000  0.36183000  1
  O  O99  1  0.36183000  0.13817000  0.36183000  1
  O  O100  1  0.13817000  0.36183000  0.36183000  1
  O  O101  1  0.11183000  0.11183000  0.88817000  1
  O  O102  1  0.88817000  0.11183000  0.88817000  1
  O  O103  1  0.11183000  0.88817000  0.88817000  1
  O  O104  1  0.36183000  0.36183000  0.13817000  1
  O  O105  1  0.36183000  0.13817000  0.13817000  1
  O  O106  1  0.88817000  0.88817000  0.11183000  1
  O  O107  1  0.88817000  0.11183000  0.11183000  1
  O  O108  1  0.13817000  0.36183000  0.13817000  1
  O  O109  1  0.11183000  0.88817000  0.11183000  1
  O  O110  1  0.68623400  0.56376600  0.62500000  1
  O  O111  1  0.12500000  0.68623400  0.62500000  1
  O  O112  1  0.56376600  0.12500000  0.62500000  1
  O  O113  1  0.62500000  0.12500000  0.68623400  1
  O  O114  1  0.62500000  0.56376600  0.12500000  1
  O  O115  1  0.62500000  0.68623400  0.56376600  1
  O  O116  1  0.12500000  0.62500000  0.56376600  1
  O  O117  1  0.56376600  0.62500000  0.68623400  1
  O  O118  1  0.68623400  0.62500000  0.12500000  1
  O  O119  1  0.56376600  0.68623400  0.12500000  1
  O  O120  1  0.68623400  0.12500000  0.56376600  1
  O  O121  1  0.12500000  0.56376600  0.68623400  1
