# generated using pymatgen
data_K2HgCl4O
_symmetry_space_group_name_H-M   'P 1'
_cell_length_a   8.01859500
_cell_length_b   8.43482100
_cell_length_c   12.45772700
_cell_angle_alpha   90.00000000
_cell_angle_beta   90.00000000
_cell_angle_gamma   90.00000000
_symmetry_Int_Tables_number   1
_chemical_formula_structural   K2HgCl4O
_chemical_formula_sum   'K8 Hg4 Cl16 O4'
_cell_volume   842.58351687
_cell_formula_units_Z   4
loop_
 _symmetry_equiv_pos_site_id
 _symmetry_equiv_pos_as_xyz
  1  'x, y, z'
loop_
 _atom_site_type_symbol
 _atom_site_label
 _atom_site_symmetry_multiplicity
 _atom_site_fract_x
 _atom_site_fract_y
 _atom_site_fract_z
 _atom_site_occupancy
  K  K0  1  0.59071600  0.00000000  0.16554800  1
  K  K1  1  0.40928400  0.00000000  0.83445200  1
  K  K2  1  0.09071600  0.00000000  0.33445200  1
  K  K3  1  0.90928400  0.00000000  0.66554800  1
  K  K4  1  0.59326100  0.50000000  0.17261800  1
  K  K5  1  0.40673900  0.50000000  0.82738200  1
  K  K6  1  0.09326100  0.50000000  0.32738200  1
  K  K7  1  0.90673900  0.50000000  0.67261800  1
  Hg  Hg8  1  0.50000000  0.24536700  0.50000000  1
  Hg  Hg9  1  0.00000000  0.75463300  0.00000000  1
  Hg  Hg10  1  0.50000000  0.75463300  0.50000000  1
  Hg  Hg11  1  0.00000000  0.24536700  0.00000000  1
  Cl  Cl12  1  0.73354400  0.00000000  0.44000900  1
  Cl  Cl13  1  0.26645600  0.00000000  0.55999100  1
  Cl  Cl14  1  0.23354400  0.00000000  0.05999100  1
  Cl  Cl15  1  0.76645600  0.00000000  0.94000900  1
  Cl  Cl16  1  0.74741300  0.50000000  0.44530300  1
  Cl  Cl17  1  0.25258700  0.50000000  0.55469700  1
  Cl  Cl18  1  0.24741300  0.50000000  0.05469700  1
  Cl  Cl19  1  0.75258700  0.50000000  0.94530300  1
  Cl  Cl20  1  0.39411600  0.25056400  0.31517700  1
  Cl  Cl21  1  0.60588400  0.25056400  0.68482300  1
  Cl  Cl22  1  0.89411600  0.74943600  0.18482300  1
  Cl  Cl23  1  0.10588400  0.74943600  0.81517700  1
  Cl  Cl24  1  0.60588400  0.74943600  0.68482300  1
  Cl  Cl25  1  0.39411600  0.74943600  0.31517700  1
  Cl  Cl26  1  0.10588400  0.25056400  0.81517700  1
  Cl  Cl27  1  0.89411600  0.25056400  0.18482300  1
  O  O28  1  0.50000000  0.26803500  0.00000000  1
  O  O29  1  0.00000000  0.73196500  0.50000000  1
  O  O30  1  0.50000000  0.73196500  0.00000000  1
  O  O31  1  0.00000000  0.26803500  0.50000000  1
