# generated using pymatgen
data_Co2Br3(N2O)3
_symmetry_space_group_name_H-M   'P 1'
_cell_length_a   7.74504324
_cell_length_b   10.82331500
_cell_length_c   7.99217549
_cell_angle_alpha   90.00000000
_cell_angle_beta   96.13519120
_cell_angle_gamma   90.00000000
_symmetry_Int_Tables_number   1
_chemical_formula_structural   Co2Br3(N2O)3
_chemical_formula_sum   'Co4 Br6 N12 O6'
_cell_volume   666.12322974
_cell_formula_units_Z   2
loop_
 _symmetry_equiv_pos_site_id
 _symmetry_equiv_pos_as_xyz
  1  'x, y, z'
loop_
 _atom_site_type_symbol
 _atom_site_label
 _atom_site_symmetry_multiplicity
 _atom_site_fract_x
 _atom_site_fract_y
 _atom_site_fract_z
 _atom_site_occupancy
  Co  Co0  1  0.80041900  0.20253700  0.11396100  1
  Co  Co1  1  0.19958100  0.70253700  0.88603900  1
  Co  Co2  1  0.86211500  0.36631700  0.43037000  1
  Co  Co3  1  0.13788500  0.86631700  0.56963000  1
  Br  Br4  1  0.82866400  0.40044300  0.81119100  1
  Br  Br5  1  0.17133600  0.90044300  0.18880900  1
  Br  Br6  1  0.84336700  0.98329500  0.75680200  1
  Br  Br7  1  0.15663300  0.48329500  0.24319800  1
  Br  Br8  1  0.69896200  0.75564800  0.29106400  1
  Br  Br9  1  0.30103800  0.25564800  0.70893600  1
  N  N10  1  0.75048200  0.06479300  0.06004100  1
  N  N11  1  0.24951800  0.56479300  0.93995900  1
  N  N12  1  0.91077100  0.28214900  0.97421600  1
  N  N13  1  0.08922900  0.78214900  0.02578400  1
  N  N14  1  0.58890400  0.27808900  0.12151600  1
  N  N15  1  0.41109600  0.77808900  0.87848400  1
  N  N16  1  0.01954500  0.47897900  0.41261900  1
  N  N17  1  0.98045500  0.97897900  0.58738100  1
  N  N18  1  0.57664200  0.62716400  0.45059100  1
  N  N19  1  0.42335800  0.12716400  0.54940900  1
  N  N20  1  0.73236300  0.38348000  0.59294800  1
  N  N21  1  0.26763700  0.88348000  0.40705200  1
  O  O22  1  0.59449400  0.37850800  0.18173100  1
  O  O23  1  0.40550600  0.87850800  0.81826900  1
  O  O24  1  0.88473100  0.22816700  0.32647800  1
  O  O25  1  0.11526900  0.72816700  0.67352200  1
  O  O26  1  0.46357300  0.16843100  0.42603900  1
  O  O27  1  0.53642700  0.66843100  0.57396100  1
