# generated using pymatgen
data_CaPBrO8
_symmetry_space_group_name_H-M   'P 1'
_cell_length_a   10.39441562
_cell_length_b   10.39441562
_cell_length_c   7.06412495
_cell_angle_alpha   79.55665243
_cell_angle_beta   79.55665243
_cell_angle_gamma   34.46884086
_symmetry_Int_Tables_number   1
_chemical_formula_structural   CaPBrO8
_chemical_formula_sum   'Ca2 P2 Br2 O16'
_cell_volume   424.10865904
_cell_formula_units_Z   2
loop_
 _symmetry_equiv_pos_site_id
 _symmetry_equiv_pos_as_xyz
  1  'x, y, z'
loop_
 _atom_site_type_symbol
 _atom_site_label
 _atom_site_symmetry_multiplicity
 _atom_site_fract_x
 _atom_site_fract_y
 _atom_site_fract_z
 _atom_site_occupancy
  Ca  Ca0  1  0.65937200  0.34062800  0.25000000  1
  Ca  Ca1  1  0.34062800  0.65937200  0.75000000  1
  P  P2  1  0.14769600  0.85230400  0.25000000  1
  P  P3  1  0.85230400  0.14769600  0.75000000  1
  Br  Br4  1  0.00000000  0.50000000  0.00000000  1
  Br  Br5  1  0.50000000  0.00000000  0.50000000  1
  O  O6  1  0.93332100  0.93977800  0.28119500  1
  O  O7  1  0.06022200  0.06667900  0.21880500  1
  O  O8  1  0.06667900  0.06022200  0.71880500  1
  O  O9  1  0.93977800  0.93332100  0.78119500  1
  O  O10  1  0.30345700  0.69624300  0.07738200  1
  O  O11  1  0.30375700  0.69654300  0.42261800  1
  O  O12  1  0.69654300  0.30375700  0.92261800  1
  O  O13  1  0.69624300  0.30345700  0.57738200  1
  O  O14  1  0.50130900  0.16265500  0.19617200  1
  O  O15  1  0.83734500  0.49869100  0.30382800  1
  O  O16  1  0.49869100  0.83734500  0.80382800  1
  O  O17  1  0.16265500  0.50130900  0.69617200  1
  O  O18  1  0.38885400  0.94756700  0.94829800  1
  O  O19  1  0.05243300  0.61114600  0.55170200  1
  O  O20  1  0.61114600  0.05243300  0.05170200  1
  O  O21  1  0.94756700  0.38885400  0.44829800  1
