# generated using pymatgen
data_Cd4Se4O15
_symmetry_space_group_name_H-M   'P 1'
_cell_length_a   8.73282600
_cell_length_b   9.69349700
_cell_length_c   10.26210508
_cell_angle_alpha   61.26699739
_cell_angle_beta   90.00000000
_cell_angle_gamma   90.00000000
_symmetry_Int_Tables_number   1
_chemical_formula_structural   Cd4Se4O15
_chemical_formula_sum   'Cd8 Se8 O30'
_cell_volume   761.73982720
_cell_formula_units_Z   2
loop_
 _symmetry_equiv_pos_site_id
 _symmetry_equiv_pos_as_xyz
  1  'x, y, z'
loop_
 _atom_site_type_symbol
 _atom_site_label
 _atom_site_symmetry_multiplicity
 _atom_site_fract_x
 _atom_site_fract_y
 _atom_site_fract_z
 _atom_site_occupancy
  Cd  Cd0  1  0.17181700  0.32215700  0.98317900  1
  Cd  Cd1  1  0.67181700  0.67784300  0.01682100  1
  Cd  Cd2  1  0.18298900  0.04740500  0.65716500  1
  Cd  Cd3  1  0.68298900  0.95259500  0.34283500  1
  Cd  Cd4  1  0.75908400  0.31919800  0.98950600  1
  Cd  Cd5  1  0.25908400  0.68080200  0.01049400  1
  Cd  Cd6  1  0.25676600  0.97504600  0.34420600  1
  Cd  Cd7  1  0.75676600  0.02495400  0.65579400  1
  Se  Se8  1  0.95114400  0.37888200  0.64909500  1
  Se  Se9  1  0.45114400  0.62111800  0.35090500  1
  Se  Se10  1  0.96669300  0.25118300  0.32403300  1
  Se  Se11  1  0.46669300  0.74881700  0.67596700  1
  Se  Se12  1  0.97071200  0.67616000  0.76671400  1
  Se  Se13  1  0.47071200  0.32384000  0.23328600  1
  Se  Se14  1  0.33963900  0.04163300  0.98422700  1
  Se  Se15  1  0.83963900  0.95836700  0.01577300  1
  O  O16  1  0.95957900  0.32097200  0.83364100  1
  O  O17  1  0.45957900  0.67902800  0.16635900  1
  O  O18  1  0.95316200  0.20887000  0.63640400  1
  O  O19  1  0.45316200  0.79113000  0.36359600  1
  O  O20  1  0.72135000  0.44030700  0.62858500  1
  O  O21  1  0.22135000  0.55969300  0.37141500  1
  O  O22  1  0.97515500  0.25485400  0.15494800  1
  O  O23  1  0.47515500  0.74514600  0.84505200  1
  O  O24  1  0.13524000  0.14746800  0.40688400  1
  O  O25  1  0.63524000  0.85253200  0.59311600  1
  O  O26  1  0.82474700  0.10972000  0.41203200  1
  O  O27  1  0.32474700  0.89028000  0.58796800  1
  O  O28  1  0.97748400  0.86317400  0.74771800  1
  O  O29  1  0.47748400  0.13682600  0.25228200  1
  O  O30  1  0.13876200  0.59514200  0.86647700  1
  O  O31  1  0.63876200  0.40485800  0.13352300  1
  O  O32  1  0.83193600  0.58692200  0.90102000  1
  O  O33  1  0.33193600  0.41307800  0.09898000  1
  O  O34  1  0.20186600  0.03915000  0.11061900  1
  O  O35  1  0.70186600  0.96085000  0.88938100  1
  O  O36  1  0.32553700  0.23599000  0.85931700  1
  O  O37  1  0.82553700  0.76401000  0.14068300  1
  O  O38  1  0.23356000  0.95068800  0.89852900  1
  O  O39  1  0.73356000  0.04931200  0.10147100  1
  O  O40  1  0.41221400  0.24801300  0.58480900  1
  O  O41  1  0.91221400  0.75198700  0.41519100  1
  O  O42  1  0.05384200  0.77037400  0.43815500  1
  O  O43  1  0.55384200  0.22962600  0.56184500  1
  O  O44  1  0.64565600  0.39836500  0.75512500  1
  O  O45  1  0.14565600  0.60163500  0.24487500  1
