# generated using pymatgen
data_BaAl2O6
_symmetry_space_group_name_H-M   'P 1'
_cell_length_a   5.67300800
_cell_length_b   9.64291700
_cell_length_c   11.09699900
_cell_angle_alpha   90.00000000
_cell_angle_beta   90.00000000
_cell_angle_gamma   90.00000000
_symmetry_Int_Tables_number   1
_chemical_formula_structural   BaAl2O6
_chemical_formula_sum   'Ba4 Al8 O24'
_cell_volume   607.05406492
_cell_formula_units_Z   4
loop_
 _symmetry_equiv_pos_site_id
 _symmetry_equiv_pos_as_xyz
  1  'x, y, z'
loop_
 _atom_site_type_symbol
 _atom_site_label
 _atom_site_symmetry_multiplicity
 _atom_site_fract_x
 _atom_site_fract_y
 _atom_site_fract_z
 _atom_site_occupancy
  Ba  Ba0  1  0.64171300  0.95939500  0.32977300  1
  Ba  Ba1  1  0.35828700  0.04060500  0.82977300  1
  Ba  Ba2  1  0.85828700  0.45939500  0.82977300  1
  Ba  Ba3  1  0.14171300  0.54060500  0.32977300  1
  Al  Al4  1  0.61798000  0.65671700  0.14511000  1
  Al  Al5  1  0.38202000  0.34328300  0.64511000  1
  Al  Al6  1  0.88202000  0.15671700  0.64511000  1
  Al  Al7  1  0.11798000  0.84328300  0.14511000  1
  Al  Al8  1  0.66117300  0.32292800  0.21675000  1
  Al  Al9  1  0.33882700  0.67707200  0.71675000  1
  Al  Al10  1  0.83882700  0.82292800  0.71675000  1
  Al  Al11  1  0.16117300  0.17707200  0.21675000  1
  O  O12  1  0.59321100  0.49721500  0.22318000  1
  O  O13  1  0.40678900  0.50278500  0.72318000  1
  O  O14  1  0.90678900  0.99721500  0.72318000  1
  O  O15  1  0.09321100  0.00278500  0.22318000  1
  O  O16  1  0.63027500  0.59253000  0.99601900  1
  O  O17  1  0.36972500  0.40747000  0.49601900  1
  O  O18  1  0.86972500  0.09253000  0.49601900  1
  O  O19  1  0.13027500  0.90747000  0.99601900  1
  O  O20  1  0.37128000  0.75330500  0.19484400  1
  O  O21  1  0.62872000  0.24669500  0.69484400  1
  O  O22  1  0.12872000  0.25330500  0.69484400  1
  O  O23  1  0.87128000  0.74669500  0.19484400  1
  O  O24  1  0.66678300  0.14313500  0.02510500  1
  O  O25  1  0.33321700  0.85686500  0.52510500  1
  O  O26  1  0.83321700  0.64313500  0.52510500  1
  O  O27  1  0.16678300  0.35686500  0.02510500  1
  O  O28  1  0.44654500  0.20848100  0.26619500  1
  O  O29  1  0.55345500  0.79151900  0.76619500  1
  O  O30  1  0.05345500  0.70848100  0.76619500  1
  O  O31  1  0.94654500  0.29151900  0.26619500  1
  O  O32  1  0.82599000  0.77886800  0.54502300  1
  O  O33  1  0.17401000  0.22113200  0.04502300  1
  O  O34  1  0.67401000  0.27886800  0.04502300  1
  O  O35  1  0.32599000  0.72113200  0.54502300  1
