# generated using pymatgen
data_LaV3TeO15
_symmetry_space_group_name_H-M   'P 1'
_cell_length_a   9.79703804
_cell_length_b   9.79703804
_cell_length_c   9.79703797
_cell_angle_alpha   58.31907229
_cell_angle_beta   58.31907229
_cell_angle_gamma   58.31907557
_symmetry_Int_Tables_number   1
_chemical_formula_structural   LaV3TeO15
_chemical_formula_sum   'La2 V6 Te2 O30'
_cell_volume   639.32626319
_cell_formula_units_Z   2
loop_
 _symmetry_equiv_pos_site_id
 _symmetry_equiv_pos_as_xyz
  1  'x, y, z'
loop_
 _atom_site_type_symbol
 _atom_site_label
 _atom_site_symmetry_multiplicity
 _atom_site_fract_x
 _atom_site_fract_y
 _atom_site_fract_z
 _atom_site_occupancy
  La  La0  1  0.23111700  0.23111700  0.23111700  1
  La  La1  1  0.73111700  0.73111700  0.73111700  1
  V  V2  1  0.12716600  0.65832900  0.28419200  1
  V  V3  1  0.28419200  0.12716600  0.65832900  1
  V  V4  1  0.65832900  0.28419200  0.12716600  1
  V  V5  1  0.78419200  0.15832900  0.62716600  1
  V  V6  1  0.62716600  0.78419200  0.15832900  1
  V  V7  1  0.15832900  0.62716600  0.78419200  1
  Te  Te8  1  0.95548200  0.95548200  0.95548200  1
  Te  Te9  1  0.45548200  0.45548200  0.45548200  1
  O  O10  1  0.33093100  0.60301300  0.29642900  1
  O  O11  1  0.29642900  0.33093100  0.60301300  1
  O  O12  1  0.60301300  0.29642900  0.33093100  1
  O  O13  1  0.79642900  0.10301300  0.83093100  1
  O  O14  1  0.83093100  0.79642900  0.10301300  1
  O  O15  1  0.10301300  0.83093100  0.79642900  1
  O  O16  1  0.81642900  0.07776600  0.11511800  1
  O  O17  1  0.11511800  0.81642900  0.07776600  1
  O  O18  1  0.07776600  0.11511800  0.81642900  1
  O  O19  1  0.61511800  0.57776600  0.31642900  1
  O  O20  1  0.31642900  0.61511800  0.57776600  1
  O  O21  1  0.57776600  0.31642900  0.61511800  1
  O  O22  1  0.95631000  0.72492500  0.44661100  1
  O  O23  1  0.44661100  0.95631000  0.72492500  1
  O  O24  1  0.72492500  0.44661100  0.95631000  1
  O  O25  1  0.94661100  0.22492500  0.45631000  1
  O  O26  1  0.45631000  0.94661100  0.22492500  1
  O  O27  1  0.22492500  0.45631000  0.94661100  1
  O  O28  1  0.11546600  0.48648200  0.30176100  1
  O  O29  1  0.30176100  0.11546600  0.48648200  1
  O  O30  1  0.48648200  0.30176100  0.11546600  1
  O  O31  1  0.80176100  0.98648200  0.61546600  1
  O  O32  1  0.61546600  0.80176100  0.98648200  1
  O  O33  1  0.98648200  0.61546600  0.80176100  1
  O  O34  1  0.29758200  0.16094200  0.98478200  1
  O  O35  1  0.98478200  0.29758200  0.16094200  1
  O  O36  1  0.16094200  0.98478200  0.29758200  1
  O  O37  1  0.48478200  0.66094200  0.79758200  1
  O  O38  1  0.79758200  0.48478200  0.66094200  1
  O  O39  1  0.66094200  0.79758200  0.48478200  1
