# generated using pymatgen
data_CeAgAs2
_symmetry_space_group_name_H-M   'P 1'
_cell_length_a   5.76705400
_cell_length_b   5.81748100
_cell_length_c   20.25584600
_cell_angle_alpha   90.00000000
_cell_angle_beta   90.00000000
_cell_angle_gamma   90.00000000
_symmetry_Int_Tables_number   1
_chemical_formula_structural   CeAgAs2
_chemical_formula_sum   'Ce8 Ag8 As16'
_cell_volume   679.57810489
_cell_formula_units_Z   8
loop_
 _symmetry_equiv_pos_site_id
 _symmetry_equiv_pos_as_xyz
  1  'x, y, z'
loop_
 _atom_site_type_symbol
 _atom_site_label
 _atom_site_symmetry_multiplicity
 _atom_site_fract_x
 _atom_site_fract_y
 _atom_site_fract_z
 _atom_site_occupancy
  Ce  Ce0  1  0.00975200  0.75000000  0.88714000  1
  Ce  Ce1  1  0.99024800  0.75000000  0.38714000  1
  Ce  Ce2  1  0.50902500  0.75000000  0.60944600  1
  Ce  Ce3  1  0.49097500  0.75000000  0.10944600  1
  Ce  Ce4  1  0.50902500  0.25000000  0.89055400  1
  Ce  Ce5  1  0.99024800  0.25000000  0.11286000  1
  Ce  Ce6  1  0.49097500  0.25000000  0.39055400  1
  Ce  Ce7  1  0.00975200  0.25000000  0.61286000  1
  Ag  Ag8  1  0.76196500  0.00000000  0.75000000  1
  Ag  Ag9  1  0.23803500  0.50000000  0.25000000  1
  Ag  Ag10  1  0.26381800  0.00000000  0.75000000  1
  Ag  Ag11  1  0.23803500  0.00000000  0.25000000  1
  Ag  Ag12  1  0.76196500  0.50000000  0.75000000  1
  Ag  Ag13  1  0.73618200  0.50000000  0.25000000  1
  Ag  Ag14  1  0.26381800  0.50000000  0.75000000  1
  Ag  Ag15  1  0.73618200  0.00000000  0.25000000  1
  As  As16  1  0.51098500  0.25000000  0.65626100  1
  As  As17  1  0.48901500  0.75000000  0.34373900  1
  As  As18  1  0.98962500  0.75000000  0.15686200  1
  As  As19  1  0.76656100  0.50473500  0.99980600  1
  As  As20  1  0.76656100  0.49526500  0.50019400  1
  As  As21  1  0.98962500  0.25000000  0.34313800  1
  As  As22  1  0.23343900  0.50473500  0.49980600  1
  As  As23  1  0.76656100  0.99526500  0.99980600  1
  As  As24  1  0.23343900  0.99526500  0.49980600  1
  As  As25  1  0.76656100  0.00473500  0.50019400  1
  As  As26  1  0.23343900  0.49526500  0.00019400  1
  As  As27  1  0.48901500  0.25000000  0.15626100  1
  As  As28  1  0.01037500  0.25000000  0.84313800  1
  As  As29  1  0.01037500  0.75000000  0.65686200  1
  As  As30  1  0.51098500  0.75000000  0.84373900  1
  As  As31  1  0.23343900  0.00473500  0.00019400  1
