# generated using pymatgen
data_CeMo12(NO27)2
_symmetry_space_group_name_H-M   'P 1'
_cell_length_a   10.39613843
_cell_length_b   10.39613843
_cell_length_c   10.39613875
_cell_angle_alpha   77.83449461
_cell_angle_beta   77.83449461
_cell_angle_gamma   77.83449366
_symmetry_Int_Tables_number   1
_chemical_formula_structural   CeMo12(NO27)2
_chemical_formula_sum   'Ce1 Mo12 N2 O54'
_cell_volume   1057.32267516
_cell_formula_units_Z   1
loop_
 _symmetry_equiv_pos_site_id
 _symmetry_equiv_pos_as_xyz
  1  'x, y, z'
loop_
 _atom_site_type_symbol
 _atom_site_label
 _atom_site_symmetry_multiplicity
 _atom_site_fract_x
 _atom_site_fract_y
 _atom_site_fract_z
 _atom_site_occupancy
  Ce  Ce0  1  0.00000000  0.00000000  0.00000000  1
  Mo  Mo1  1  0.06393000  0.15457400  0.65534300  1
  Mo  Mo2  1  0.65534300  0.06393000  0.15457400  1
  Mo  Mo3  1  0.15457400  0.65534300  0.06393000  1
  Mo  Mo4  1  0.93607000  0.84542600  0.34465700  1
  Mo  Mo5  1  0.34465700  0.93607000  0.84542600  1
  Mo  Mo6  1  0.84542600  0.34465700  0.93607000  1
  Mo  Mo7  1  0.06203700  0.83286400  0.71857800  1
  Mo  Mo8  1  0.71857800  0.06203700  0.83286400  1
  Mo  Mo9  1  0.83286400  0.71857800  0.06203700  1
  Mo  Mo10  1  0.93796300  0.16713600  0.28142200  1
  Mo  Mo11  1  0.28142200  0.93796300  0.16713600  1
  Mo  Mo12  1  0.16713600  0.28142200  0.93796300  1
  N  N13  1  0.69006200  0.69006200  0.69006200  1
  N  N14  1  0.30993800  0.30993800  0.30993800  1
  O  O15  1  0.20839100  0.21465400  0.58029000  1
  O  O16  1  0.58029000  0.20839100  0.21465400  1
  O  O17  1  0.21465400  0.58029000  0.20839100  1
  O  O18  1  0.79160900  0.78534600  0.41971000  1
  O  O19  1  0.41971000  0.79160900  0.78534600  1
  O  O20  1  0.78534600  0.41971000  0.79160900  1
  O  O21  1  0.17049400  0.97468800  0.78509500  1
  O  O22  1  0.78509500  0.17049400  0.97468800  1
  O  O23  1  0.97468800  0.78509500  0.17049400  1
  O  O24  1  0.82950600  0.02531200  0.21490500  1
  O  O25  1  0.21490500  0.82950600  0.02531200  1
  O  O26  1  0.02531200  0.21490500  0.82950600  1
  O  O27  1  0.93686800  0.26369600  0.57787100  1
  O  O28  1  0.57787100  0.93686800  0.26369600  1
  O  O29  1  0.26369600  0.57787100  0.93686800  1
  O  O30  1  0.06313200  0.73630400  0.42212900  1
  O  O31  1  0.42212900  0.06313200  0.73630400  1
  O  O32  1  0.73630400  0.42212900  0.06313200  1
  O  O33  1  0.91342100  0.02565600  0.78783100  1
  O  O34  1  0.78783100  0.91342100  0.02565600  1
  O  O35  1  0.02565600  0.78783100  0.91342100  1
  O  O36  1  0.08657900  0.97434400  0.21216900  1
  O  O37  1  0.21216900  0.08657900  0.97434400  1
  O  O38  1  0.97434400  0.21216900  0.08657900  1
  O  O39  1  0.08350500  0.99296800  0.57424000  1
  O  O40  1  0.57424000  0.08350500  0.99296800  1
  O  O41  1  0.99296800  0.57424000  0.08350500  1
  O  O42  1  0.91649500  0.00703200  0.42576000  1
  O  O43  1  0.42576000  0.91649500  0.00703200  1
  O  O44  1  0.00703200  0.42576000  0.91649500  1
  O  O45  1  0.20497400  0.72174800  0.67049800  1
  O  O46  1  0.67049800  0.20497400  0.72174800  1
  O  O47  1  0.72174800  0.67049800  0.20497400  1
  O  O48  1  0.79502600  0.27825200  0.32950200  1
  O  O49  1  0.32950200  0.79502600  0.27825200  1
  O  O50  1  0.27825200  0.32950200  0.79502600  1
  O  O51  1  0.93400600  0.77721600  0.67536100  1
  O  O52  1  0.67536100  0.93400600  0.77721600  1
  O  O53  1  0.77721600  0.67536100  0.93400600  1
  O  O54  1  0.06599400  0.22278400  0.32463900  1
  O  O55  1  0.32463900  0.06599400  0.22278400  1
  O  O56  1  0.22278400  0.32463900  0.06599400  1
  O  O57  1  0.44140000  0.95228800  0.44798000  1
  O  O58  1  0.44798000  0.44140000  0.95228800  1
  O  O59  1  0.95228800  0.44798000  0.44140000  1
  O  O60  1  0.55860000  0.04771200  0.55202000  1
  O  O61  1  0.55202000  0.55860000  0.04771200  1
  O  O62  1  0.04771200  0.55202000  0.55860000  1
  O  O63  1  0.44646700  0.50862100  0.75298100  1
  O  O64  1  0.75298100  0.44646700  0.50862100  1
  O  O65  1  0.50862100  0.75298100  0.44646700  1
  O  O66  1  0.55353300  0.49137900  0.24701900  1
  O  O67  1  0.24701900  0.55353300  0.49137900  1
  O  O68  1  0.49137900  0.24701900  0.55353300  1
