# generated using pymatgen
data_CuH7C3SN3O4
_symmetry_space_group_name_H-M   'P 1'
_cell_length_a   15.08045800
_cell_length_b   7.50567900
_cell_length_c   9.81749348
_cell_angle_alpha   84.45465934
_cell_angle_beta   90.00000000
_cell_angle_gamma   90.00000000
_symmetry_Int_Tables_number   1
_chemical_formula_structural   CuH7C3SN3O4
_chemical_formula_sum   'Cu4 H28 C12 S4 N12 O16'
_cell_volume   1106.03249821
_cell_formula_units_Z   4
loop_
 _symmetry_equiv_pos_site_id
 _symmetry_equiv_pos_as_xyz
  1  'x, y, z'
loop_
 _atom_site_type_symbol
 _atom_site_label
 _atom_site_symmetry_multiplicity
 _atom_site_fract_x
 _atom_site_fract_y
 _atom_site_fract_z
 _atom_site_occupancy
  Cu  Cu0  1  0.24412500  0.25539800  0.80226700  1
  Cu  Cu1  1  0.74412500  0.74460200  0.69773300  1
  Cu  Cu2  1  0.75587500  0.74460200  0.19773300  1
  Cu  Cu3  1  0.25587500  0.25539800  0.30226700  1
  H  H4  1  0.34822700  0.49687600  0.09320800  1
  H  H5  1  0.84822700  0.50312400  0.40679200  1
  H  H6  1  0.65177300  0.50312400  0.90679200  1
  H  H7  1  0.15177300  0.49687600  0.59320800  1
  H  H8  1  0.05144000  0.26834000  0.05089400  1
  H  H9  1  0.55144000  0.73166000  0.44910600  1
  H  H10  1  0.94856000  0.73166000  0.94910600  1
  H  H11  1  0.44856000  0.26834000  0.55089400  1
  H  H12  1  0.12886000  0.78299000  0.18532800  1
  H  H13  1  0.62886000  0.21701000  0.31467200  1
  H  H14  1  0.87114000  0.21701000  0.81467200  1
  H  H15  1  0.37114000  0.78299000  0.68532800  1
  H  H16  1  0.07726600  0.76932600  0.02513800  1
  H  H17  1  0.57726600  0.23067400  0.47486200  1
  H  H18  1  0.92273400  0.23067400  0.97486200  1
  H  H19  1  0.42273400  0.76932600  0.52513800  1
  H  H20  1  0.47157200  0.32544700  0.59957000  1
  H  H21  1  0.97157200  0.67455300  0.90043000  1
  H  H22  1  0.52842800  0.67455300  0.40043000  1
  H  H23  1  0.02842800  0.32544700  0.09957000  1
  H  H24  1  0.06829000  0.40795300  0.85254300  1
  H  H25  1  0.56829000  0.59204700  0.64745700  1
  H  H26  1  0.93171000  0.59204700  0.14745700  1
  H  H27  1  0.43171000  0.40795300  0.35254300  1
  H  H28  1  0.00382400  0.42064000  0.72920700  1
  H  H29  1  0.50382400  0.57936000  0.77079300  1
  H  H30  1  0.99617600  0.57936000  0.27079300  1
  H  H31  1  0.49617600  0.42064000  0.22920700  1
  C  C32  1  0.16554800  0.96917800  0.02107200  1
  C  C33  1  0.66554800  0.03082200  0.47892800  1
  C  C34  1  0.83445200  0.03082200  0.97892800  1
  C  C35  1  0.33445200  0.96917800  0.52107200  1
  C  C36  1  0.32611800  0.44667700  0.99799100  1
  C  C37  1  0.82611800  0.55332300  0.50200900  1
  C  C38  1  0.67388200  0.55332300  0.00200900  1
  C  C39  1  0.17388200  0.44667700  0.49799100  1
  C  C40  1  0.34400000  0.54221700  0.86278300  1
  C  C41  1  0.84400000  0.45778300  0.63721700  1
  C  C42  1  0.65600000  0.45778300  0.13721700  1
  C  C43  1  0.15600000  0.54221700  0.36278300  1
  S  S44  1  0.13751900  0.05842300  0.86140900  1
  S  S45  1  0.63751900  0.94157700  0.63859100  1
  S  S46  1  0.86248100  0.94157700  0.13859100  1
  S  S47  1  0.36248100  0.05842300  0.36140900  1
  N  N48  1  0.28297100  0.29390600  0.99634500  1
  N  N49  1  0.78297100  0.70609400  0.50365500  1
  N  N50  1  0.71702900  0.70609400  0.00365500  1
  N  N51  1  0.21702900  0.29390600  0.49634500  1
  N  N52  1  0.24776800  0.21208600  0.10598200  1
  N  N53  1  0.74776800  0.78791400  0.39401800  1
  N  N54  1  0.75223200  0.78791400  0.89401800  1
  N  N55  1  0.25223200  0.21208600  0.60598200  1
  N  N56  1  0.12234100  0.83092800  0.08172000  1
  N  N57  1  0.62234100  0.16907200  0.41828000  1
  N  N58  1  0.87765900  0.16907200  0.91828000  1
  N  N59  1  0.37765900  0.83092800  0.58172000  1
  O  O60  1  0.30934800  0.47621900  0.75753500  1
  O  O61  1  0.80934800  0.52378100  0.74246500  1
  O  O62  1  0.69065200  0.52378100  0.24246500  1
  O  O63  1  0.19065200  0.47621900  0.25753500  1
  O  O64  1  0.39213500  0.68060700  0.85065100  1
  O  O65  1  0.89213500  0.31939300  0.64934900  1
  O  O66  1  0.60786500  0.31939300  0.14934900  1
  O  O67  1  0.10786500  0.68060700  0.35065100  1
  O  O68  1  0.76422500  0.98071700  0.90527900  1
  O  O69  1  0.26422500  0.01928300  0.59472100  1
  O  O70  1  0.23577500  0.01928300  0.09472100  1
  O  O71  1  0.73577500  0.98071700  0.40527900  1
  O  O72  1  0.05158400  0.48548100  0.77141100  1
  O  O73  1  0.55158400  0.51451900  0.72858900  1
  O  O74  1  0.94841600  0.51451900  0.22858900  1
  O  O75  1  0.44841600  0.48548100  0.27141100  1
