# generated using pymatgen
data_KCa4Si8O28F
_symmetry_space_group_name_H-M   'P 1'
_cell_length_a   9.42753200
_cell_length_b   9.42753200
_cell_length_c   15.59483000
_cell_angle_alpha   90.00000000
_cell_angle_beta   90.00000000
_cell_angle_gamma   90.00000000
_symmetry_Int_Tables_number   1
_chemical_formula_structural   KCa4Si8O28F
_chemical_formula_sum   'K2 Ca8 Si16 O56 F2'
_cell_volume   1386.04290881
_cell_formula_units_Z   2
loop_
 _symmetry_equiv_pos_site_id
 _symmetry_equiv_pos_as_xyz
  1  'x, y, z'
loop_
 _atom_site_type_symbol
 _atom_site_label
 _atom_site_symmetry_multiplicity
 _atom_site_fract_x
 _atom_site_fract_y
 _atom_site_fract_z
 _atom_site_occupancy
  K  K0  1  0.50000000  0.50000000  0.00000000  1
  K  K1  1  0.00000000  0.00000000  0.50000000  1
  Ca  Ca2  1  0.72432700  0.59361800  0.50000000  1
  Ca  Ca3  1  0.27567300  0.40638200  0.50000000  1
  Ca  Ca4  1  0.77567300  0.09361800  0.00000000  1
  Ca  Ca5  1  0.22432700  0.90638200  0.00000000  1
  Ca  Ca6  1  0.59361800  0.27567300  0.50000000  1
  Ca  Ca7  1  0.40638200  0.72432700  0.50000000  1
  Ca  Ca8  1  0.09361800  0.22432700  0.00000000  1
  Ca  Ca9  1  0.90638200  0.77567300  0.00000000  1
  Si  Si10  1  0.59210000  0.71459800  0.30559100  1
  Si  Si11  1  0.40790000  0.28540200  0.30559100  1
  Si  Si12  1  0.90790000  0.21459800  0.80559100  1
  Si  Si13  1  0.09210000  0.78540200  0.80559100  1
  Si  Si14  1  0.71459800  0.40790000  0.30559100  1
  Si  Si15  1  0.28540200  0.59210000  0.30559100  1
  Si  Si16  1  0.21459800  0.09210000  0.80559100  1
  Si  Si17  1  0.78540200  0.90790000  0.80559100  1
  Si  Si18  1  0.40790000  0.28540200  0.69440900  1
  Si  Si19  1  0.59210000  0.71459800  0.69440900  1
  Si  Si20  1  0.09210000  0.78540200  0.19440900  1
  Si  Si21  1  0.90790000  0.21459800  0.19440900  1
  Si  Si22  1  0.28540200  0.59210000  0.69440900  1
  Si  Si23  1  0.71459800  0.40790000  0.69440900  1
  Si  Si24  1  0.78540200  0.90790000  0.19440900  1
  Si  Si25  1  0.21459800  0.09210000  0.19440900  1
  O  O26  1  0.65072500  0.84927500  0.25000000  1
  O  O27  1  0.34927500  0.15072500  0.25000000  1
  O  O28  1  0.84927500  0.34927500  0.75000000  1
  O  O29  1  0.15072500  0.65072500  0.75000000  1
  O  O30  1  0.84927500  0.34927500  0.25000000  1
  O  O31  1  0.15072500  0.65072500  0.25000000  1
  O  O32  1  0.34927500  0.15072500  0.75000000  1
  O  O33  1  0.65072500  0.84927500  0.75000000  1
  O  O34  1  0.68682200  0.57434100  0.27795500  1
  O  O35  1  0.31317800  0.42565900  0.27795500  1
  O  O36  1  0.81317800  0.07434100  0.77795500  1
  O  O37  1  0.18682200  0.92565900  0.77795500  1
  O  O38  1  0.57434100  0.31317800  0.27795500  1
  O  O39  1  0.42565900  0.68682200  0.27795500  1
  O  O40  1  0.07434100  0.18682200  0.77795500  1
  O  O41  1  0.92565900  0.81317800  0.77795500  1
  O  O42  1  0.31317800  0.42565900  0.72204500  1
  O  O43  1  0.68682200  0.57434100  0.72204500  1
  O  O44  1  0.18682200  0.92565900  0.22204500  1
  O  O45  1  0.81317800  0.07434100  0.22204500  1
  O  O46  1  0.42565900  0.68682200  0.72204500  1
  O  O47  1  0.57434100  0.31317800  0.72204500  1
  O  O48  1  0.92565900  0.81317800  0.22204500  1
  O  O49  1  0.07434100  0.18682200  0.22204500  1
  O  O50  1  0.60147100  0.74342800  0.40795900  1
  O  O51  1  0.39852900  0.25657200  0.40795900  1
  O  O52  1  0.89852900  0.24342800  0.90795900  1
  O  O53  1  0.10147100  0.75657200  0.90795900  1
  O  O54  1  0.74342800  0.39852900  0.40795900  1
  O  O55  1  0.25657200  0.60147100  0.40795900  1
  O  O56  1  0.24342800  0.10147100  0.90795900  1
  O  O57  1  0.75657200  0.89852900  0.90795900  1
  O  O58  1  0.39852900  0.25657200  0.59204100  1
  O  O59  1  0.60147100  0.74342800  0.59204100  1
  O  O60  1  0.10147100  0.75657200  0.09204100  1
  O  O61  1  0.89852900  0.24342800  0.09204100  1
  O  O62  1  0.25657200  0.60147100  0.59204100  1
  O  O63  1  0.74342800  0.39852900  0.59204100  1
  O  O64  1  0.75657200  0.89852900  0.09204100  1
  O  O65  1  0.24342800  0.10147100  0.09204100  1
  O  O66  1  0.98817500  0.69910400  0.45943100  1
  O  O67  1  0.01182500  0.30089600  0.45943100  1
  O  O68  1  0.51182500  0.19910400  0.95943100  1
  O  O69  1  0.48817500  0.80089600  0.95943100  1
  O  O70  1  0.69910400  0.01182500  0.45943100  1
  O  O71  1  0.30089600  0.98817500  0.45943100  1
  O  O72  1  0.19910400  0.48817500  0.95943100  1
  O  O73  1  0.80089600  0.51182500  0.95943100  1
  O  O74  1  0.01182500  0.30089600  0.54056900  1
  O  O75  1  0.98817500  0.69910400  0.54056900  1
  O  O76  1  0.48817500  0.80089600  0.04056900  1
  O  O77  1  0.51182500  0.19910400  0.04056900  1
  O  O78  1  0.30089600  0.98817500  0.54056900  1
  O  O79  1  0.69910400  0.01182500  0.54056900  1
  O  O80  1  0.80089600  0.51182500  0.04056900  1
  O  O81  1  0.19910400  0.48817500  0.04056900  1
  F  F82  1  0.50000000  0.50000000  0.50000000  1
  F  F83  1  0.00000000  0.00000000  0.00000000  1
