# generated using pymatgen
data_K3NaMo5Se2O23
_symmetry_space_group_name_H-M   'P 1'
_cell_length_a   24.03072000
_cell_length_b   9.98725500
_cell_length_c   11.16373372
_cell_angle_alpha   58.64221786
_cell_angle_beta   90.00000000
_cell_angle_gamma   90.00000000
_symmetry_Int_Tables_number   1
_chemical_formula_structural   K3NaMo5Se2O23
_chemical_formula_sum   'K12 Na4 Mo20 Se8 O92'
_cell_volume   2287.95213123
_cell_formula_units_Z   4
loop_
 _symmetry_equiv_pos_site_id
 _symmetry_equiv_pos_as_xyz
  1  'x, y, z'
loop_
 _atom_site_type_symbol
 _atom_site_label
 _atom_site_symmetry_multiplicity
 _atom_site_fract_x
 _atom_site_fract_y
 _atom_site_fract_z
 _atom_site_occupancy
  K  K0  1  0.61699500  0.61864900  0.97245700  1
  K  K1  1  0.88300500  0.61864900  0.47245700  1
  K  K2  1  0.38300500  0.38135100  0.02754300  1
  K  K3  1  0.11699500  0.38135100  0.52754300  1
  K  K4  1  0.57630900  0.85380700  0.21239500  1
  K  K5  1  0.92369100  0.85380700  0.71239500  1
  K  K6  1  0.42369100  0.14619300  0.78760500  1
  K  K7  1  0.07630900  0.14619300  0.28760500  1
  K  K8  1  0.74159400  0.91062800  0.01709800  1
  K  K9  1  0.75840600  0.91062800  0.51709800  1
  K  K10  1  0.25840600  0.08937200  0.98290200  1
  K  K11  1  0.24159400  0.08937200  0.48290200  1
  Na  Na12  1  0.52255500  0.13905400  0.30057600  1
  Na  Na13  1  0.97744500  0.13905400  0.80057600  1
  Na  Na14  1  0.47744500  0.86094600  0.69942400  1
  Na  Na15  1  0.02255500  0.86094600  0.19942400  1
  Mo  Mo16  1  0.91607500  0.06348400  0.32644900  1
  Mo  Mo17  1  0.58392500  0.06348400  0.82644900  1
  Mo  Mo18  1  0.08392500  0.93651600  0.67355100  1
  Mo  Mo19  1  0.41607500  0.93651600  0.17355100  1
  Mo  Mo20  1  0.96099200  0.35782500  0.37870600  1
  Mo  Mo21  1  0.53900800  0.35782500  0.87870600  1
  Mo  Mo22  1  0.03900800  0.64217500  0.62129400  1
  Mo  Mo23  1  0.46099200  0.64217500  0.12129400  1
  Mo  Mo24  1  0.80460200  0.18874600  0.10106800  1
  Mo  Mo25  1  0.69539800  0.18874600  0.60106800  1
  Mo  Mo26  1  0.19539800  0.81125400  0.89893200  1
  Mo  Mo27  1  0.30460200  0.81125400  0.39893200  1
  Mo  Mo28  1  0.89532400  0.71939000  0.08146400  1
  Mo  Mo29  1  0.60467600  0.71939000  0.58146400  1
  Mo  Mo30  1  0.10467600  0.28061000  0.91853600  1
  Mo  Mo31  1  0.39532400  0.28061000  0.41853600  1
  Mo  Mo32  1  0.79107600  0.58897400  0.95464400  1
  Mo  Mo33  1  0.70892400  0.58897400  0.45464400  1
  Mo  Mo34  1  0.20892400  0.41102600  0.04535600  1
  Mo  Mo35  1  0.29107600  0.41102600  0.54535600  1
  Se  Se36  1  0.81434700  0.35462900  0.32310800  1
  Se  Se37  1  0.68565300  0.35462900  0.82310800  1
  Se  Se38  1  0.18565300  0.64537100  0.67689200  1
  Se  Se39  1  0.31434700  0.64537100  0.17689200  1
  Se  Se40  1  0.93305600  0.41591600  0.00955600  1
  Se  Se41  1  0.56694400  0.41591600  0.50955600  1
  Se  Se42  1  0.06694400  0.58408400  0.99044400  1
  Se  Se43  1  0.43305600  0.58408400  0.49044400  1
  O  O44  1  0.88116500  0.89958500  0.46355600  1
  O  O45  1  0.61883500  0.89958500  0.96355600  1
  O  O46  1  0.11883500  0.10041500  0.53644400  1
  O  O47  1  0.38116500  0.10041500  0.03644400  1
  O  O48  1  0.97677000  0.98483500  0.29785200  1
  O  O49  1  0.52323000  0.98483500  0.79785200  1
  O  O50  1  0.02323000  0.01516500  0.70214800  1
  O  O51  1  0.47677000  0.01516500  0.20214800  1
  O  O52  1  0.03132700  0.36907200  0.33137400  1
  O  O53  1  0.46867300  0.36907200  0.83137400  1
  O  O54  1  0.96867300  0.63092800  0.66862600  1
  O  O55  1  0.53132700  0.63092800  0.16862600  1
  O  O56  1  0.96628300  0.34996900  0.53898000  1
  O  O57  1  0.53371700  0.34996900  0.03898000  1
  O  O58  1  0.03371700  0.65003100  0.46102000  1
  O  O59  1  0.46628300  0.65003100  0.96102000  1
  O  O60  1  0.79807300  0.18008700  0.94987900  1
  O  O61  1  0.70192700  0.18008700  0.44987900  1
  O  O62  1  0.20192700  0.81991300  0.05012100  1
  O  O63  1  0.29807300  0.81991300  0.55012100  1
  O  O64  1  0.75945800  0.03942900  0.21491900  1
  O  O65  1  0.74054200  0.03942900  0.71491900  1
  O  O66  1  0.24054200  0.96057100  0.78508100  1
  O  O67  1  0.25945800  0.96057100  0.28508100  1
  O  O68  1  0.94167300  0.87877000  0.98259100  1
  O  O69  1  0.55832700  0.87877000  0.48259100  1
  O  O70  1  0.05832700  0.12123000  0.01740900  1
  O  O71  1  0.44167300  0.12123000  0.51740900  1
  O  O72  1  0.85452000  0.78591000  0.16868800  1
  O  O73  1  0.64548000  0.78591000  0.66868800  1
  O  O74  1  0.14548000  0.21409000  0.83131200  1
  O  O75  1  0.35452000  0.21409000  0.33131200  1
  O  O76  1  0.78955200  0.64519300  0.77847500  1
  O  O77  1  0.71044800  0.64519300  0.27847500  1
  O  O78  1  0.21044800  0.35480700  0.22152500  1
  O  O79  1  0.28955200  0.35480700  0.72152500  1
  O  O80  1  0.72976000  0.66591500  0.97885600  1
  O  O81  1  0.77024000  0.66591500  0.47885600  1
  O  O82  1  0.27024000  0.33408500  0.02114400  1
  O  O83  1  0.22976000  0.33408500  0.52114400  1
  O  O84  1  0.94370700  0.59926500  0.97866400  1
  O  O85  1  0.55629300  0.59926500  0.47866400  1
  O  O86  1  0.05629300  0.40073500  0.02133600  1
  O  O87  1  0.44370700  0.40073500  0.52133600  1
  O  O88  1  0.84543600  0.75270600  0.93014200  1
  O  O89  1  0.65456400  0.75270600  0.43014200  1
  O  O90  1  0.15456400  0.24729400  0.06985800  1
  O  O91  1  0.34543600  0.24729400  0.56985800  1
  O  O92  1  0.83096000  0.19566500  0.30553300  1
  O  O93  1  0.66904000  0.19566500  0.80553300  1
  O  O94  1  0.16904000  0.80433500  0.69446700  1
  O  O95  1  0.33096000  0.80433500  0.19446700  1
  O  O96  1  0.76139700  0.37290400  0.05495300  1
  O  O97  1  0.73860300  0.37290400  0.55495300  1
  O  O98  1  0.23860300  0.62709600  0.94504700  1
  O  O99  1  0.26139700  0.62709600  0.44504700  1
  O  O100  1  0.94484000  0.13759100  0.44783700  1
  O  O101  1  0.55516000  0.13759100  0.94783700  1
  O  O102  1  0.05516000  0.86240900  0.55216300  1
  O  O103  1  0.44484000  0.86240900  0.05216300  1
  O  O104  1  0.94186300  0.57626800  0.24162400  1
  O  O105  1  0.55813700  0.57626800  0.74162400  1
  O  O106  1  0.05813700  0.42373200  0.75837600  1
  O  O107  1  0.44186300  0.42373200  0.25837600  1
  O  O108  1  0.83309000  0.51597300  0.15718200  1
  O  O109  1  0.66691000  0.51597300  0.65718200  1
  O  O110  1  0.16691000  0.48402700  0.84281800  1
  O  O111  1  0.33309000  0.48402700  0.34281800  1
  O  O112  1  0.86203700  0.41417500  0.98057100  1
  O  O113  1  0.63796300  0.41417500  0.48057100  1
  O  O114  1  0.13796300  0.58582500  0.01942900  1
  O  O115  1  0.36203700  0.58582500  0.51942900  1
  O  O116  1  0.87854300  0.09389600  0.16203400  1
  O  O117  1  0.62145700  0.09389600  0.66203400  1
  O  O118  1  0.12145700  0.90610400  0.83796600  1
  O  O119  1  0.37854300  0.90610400  0.33796600  1
  O  O120  1  0.86778900  0.35898900  0.41989200  1
  O  O121  1  0.63221100  0.35898900  0.91989200  1
  O  O122  1  0.13221100  0.64101100  0.58010800  1
  O  O123  1  0.36778900  0.64101100  0.08010800  1
  O  O124  1  0.93831200  0.31049300  0.19551100  1
  O  O125  1  0.56168800  0.31049300  0.69551100  1
  O  O126  1  0.06168800  0.68950700  0.80448900  1
  O  O127  1  0.43831200  0.68950700  0.30448900  1
  O  O128  1  0.63847400  0.18351200  0.21822700  1
  O  O129  1  0.86152600  0.18351200  0.71822700  1
  O  O130  1  0.36152600  0.81648800  0.78177300  1
  O  O131  1  0.13847400  0.81648800  0.28177300  1
  O  O132  1  0.62769200  0.29317100  0.23520900  1
  O  O133  1  0.87230800  0.29317100  0.73520900  1
  O  O134  1  0.37230800  0.70682900  0.76479100  1
  O  O135  1  0.12769200  0.70682900  0.26479100  1
