# generated using pymatgen
data_Mg16Al12N
_symmetry_space_group_name_H-M   'P 1'
_cell_length_a   9.18432116
_cell_length_b   9.17845258
_cell_length_c   9.04769392
_cell_angle_alpha   110.47055008
_cell_angle_beta   110.49655645
_cell_angle_gamma   108.07817416
_symmetry_Int_Tables_number   1
_chemical_formula_structural   Mg16Al12N
_chemical_formula_sum   'Mg16 Al12 N1'
_cell_volume   582.25170271
_cell_formula_units_Z   1
loop_
 _symmetry_equiv_pos_site_id
 _symmetry_equiv_pos_as_xyz
  1  'x, y, z'
loop_
 _atom_site_type_symbol
 _atom_site_label
 _atom_site_symmetry_multiplicity
 _atom_site_fract_x
 _atom_site_fract_y
 _atom_site_fract_z
 _atom_site_occupancy
  Mg  Mg0  1  0.29972200  0.59798300  0.00000000  1
  Mg  Mg1  1  0.00415000  0.99411800  0.00000000  1
  Mg  Mg2  1  0.98492900  0.32063900  0.99999900  1
  Mg  Mg3  1  0.37535200  0.03631400  0.00000000  1
  Mg  Mg4  1  0.66180000  0.66928600  0.27452100  1
  Mg  Mg5  1  0.96821100  0.57338800  0.28537300  1
  Mg  Mg6  1  0.58896100  0.99728100  0.32079000  1
  Mg  Mg7  1  0.98913700  0.98898700  0.34670800  1
  Mg  Mg8  1  0.70730500  0.39403600  0.39797300  1
  Mg  Mg9  1  0.38495000  0.70844100  0.39846600  1
  Mg  Mg10  1  0.98648400  0.30997600  0.60153400  1
  Mg  Mg11  1  0.30933200  0.99606300  0.60202700  1
  Mg  Mg12  1  0.64242800  0.64227800  0.65329000  1
  Mg  Mg13  1  0.26817000  0.67649100  0.67920900  1
  Mg  Mg14  1  0.68283700  0.28801400  0.71462600  1
  Mg  Mg15  1  0.38727900  0.39476600  0.72548000  1
  Al  Al16  1  0.61849800  0.79035200  0.00000000  1
  Al  Al17  1  0.83058500  0.64911700  0.00000000  1
  Al  Al18  1  0.80281900  0.16132700  0.18594800  1
  Al  Al19  1  0.35544400  0.36577700  0.18696500  1
  Al  Al20  1  0.19669200  0.84240900  0.19283500  1
  Al  Al21  1  0.16471100  0.35438100  0.36693100  1
  Al  Al22  1  0.37568800  0.19640200  0.38602700  1
  Al  Al23  1  0.98966100  0.81037500  0.61397300  1
  Al  Al24  1  0.79778100  0.98744900  0.63306900  1
  Al  Al25  1  0.00385700  0.64957500  0.80716500  1
  Al  Al26  1  0.16847700  0.17880900  0.81303400  1
  Al  Al27  1  0.61687200  0.97538000  0.81405100  1
  N  N28  1  0.83786900  0.45058200  0.00000000  1
