# generated using pymatgen
data_CrP2H16N3O10
_symmetry_space_group_name_H-M   'P 1'
_cell_length_a   10.20462000
_cell_length_b   7.99164900
_cell_length_c   15.40447925
_cell_angle_alpha   75.51987108
_cell_angle_beta   90.00000000
_cell_angle_gamma   90.00000000
_symmetry_Int_Tables_number   1
_chemical_formula_structural   CrP2H16N3O10
_chemical_formula_sum   'Cr4 P8 H64 N12 O40'
_cell_volume   1216.35620838
_cell_formula_units_Z   4
loop_
 _symmetry_equiv_pos_site_id
 _symmetry_equiv_pos_as_xyz
  1  'x, y, z'
loop_
 _atom_site_type_symbol
 _atom_site_label
 _atom_site_symmetry_multiplicity
 _atom_site_fract_x
 _atom_site_fract_y
 _atom_site_fract_z
 _atom_site_occupancy
  Cr  Cr0  1  0.68964400  0.65561800  0.56800000  1
  Cr  Cr1  1  0.18964400  0.34438200  0.93200000  1
  Cr  Cr2  1  0.31035600  0.34438200  0.43200000  1
  Cr  Cr3  1  0.81035600  0.65561800  0.06800000  1
  P  P4  1  0.77731900  0.30863800  0.50409400  1
  P  P5  1  0.27731900  0.69136200  0.99590600  1
  P  P6  1  0.22268100  0.69136200  0.49590600  1
  P  P7  1  0.72268100  0.30863800  0.00409400  1
  P  P8  1  0.88733300  0.35131900  0.67442000  1
  P  P9  1  0.38733300  0.64868100  0.82558000  1
  P  P10  1  0.11266700  0.64868100  0.32558000  1
  P  P11  1  0.61266700  0.35131900  0.17442000  1
  H  H12  1  0.06339900  0.49105100  0.60889000  1
  H  H13  1  0.56339900  0.50894900  0.89111000  1
  H  H14  1  0.93660100  0.50894900  0.39111000  1
  H  H15  1  0.43660100  0.49105100  0.10889000  1
  H  H16  1  0.46100500  0.81190800  0.49416300  1
  H  H17  1  0.96100500  0.18809200  0.00583700  1
  H  H18  1  0.53899500  0.18809200  0.50583700  1
  H  H19  1  0.03899500  0.81190800  0.99416300  1
  H  H20  1  0.57320700  0.82898500  0.41397900  1
  H  H21  1  0.07320700  0.17101500  0.08602100  1
  H  H22  1  0.42679300  0.17101500  0.58602100  1
  H  H23  1  0.92679300  0.82898500  0.91397900  1
  H  H24  1  0.73251300  0.80583200  0.70311900  1
  H  H25  1  0.23251300  0.19416800  0.79688100  1
  H  H26  1  0.26748700  0.19416800  0.29688100  1
  H  H27  1  0.76748700  0.80583200  0.20311900  1
  H  H28  1  0.58018200  0.84700400  0.66804300  1
  H  H29  1  0.08018200  0.15299600  0.83195700  1
  H  H30  1  0.41981800  0.15299600  0.33195700  1
  H  H31  1  0.91981800  0.84700400  0.16804300  1
  H  H32  1  0.70011100  0.95890000  0.60924800  1
  H  H33  1  0.20011100  0.04110000  0.89075200  1
  H  H34  1  0.29988900  0.04110000  0.39075200  1
  H  H35  1  0.79988900  0.95890000  0.10924800  1
  H  H36  1  0.47043300  0.60221800  0.66332700  1
  H  H37  1  0.97043300  0.39778200  0.83667300  1
  H  H38  1  0.52956700  0.39778200  0.33667300  1
  H  H39  1  0.02956700  0.60221800  0.16332700  1
  H  H40  1  0.47384400  0.47479800  0.59435900  1
  H  H41  1  0.97384400  0.52520200  0.90564100  1
  H  H42  1  0.52615600  0.52520200  0.40564100  1
  H  H43  1  0.02615600  0.47479800  0.09435900  1
  H  H44  1  0.55697300  0.42046600  0.69150400  1
  H  H45  1  0.05697300  0.57953400  0.80849600  1
  H  H46  1  0.44302700  0.57953400  0.30849600  1
  H  H47  1  0.94302700  0.42046600  0.19150400  1
  H  H48  1  0.92786800  0.78157800  0.51439800  1
  H  H49  1  0.42786800  0.21842200  0.98560200  1
  H  H50  1  0.07213200  0.21842200  0.48560200  1
  H  H51  1  0.57213200  0.78157800  0.01439800  1
  H  H52  1  0.83672900  0.77937800  0.42709500  1
  H  H53  1  0.33672900  0.22062200  0.07290500  1
  H  H54  1  0.16327100  0.22062200  0.57290500  1
  H  H55  1  0.66327100  0.77937800  0.92709500  1
  H  H56  1  0.81270200  0.93663500  0.47884000  1
  H  H57  1  0.31270200  0.06336500  0.02116000  1
  H  H58  1  0.18729800  0.06336500  0.52116000  1
  H  H59  1  0.68729800  0.93663500  0.97884000  1
  H  H60  1  0.52650500  0.86782800  0.26665800  1
  H  H61  1  0.02650500  0.13217200  0.23334200  1
  H  H62  1  0.47349500  0.13217200  0.73334200  1
  H  H63  1  0.97349500  0.86782800  0.76665800  1
  H  H64  1  0.61481000  0.01488000  0.29042800  1
  H  H65  1  0.11481000  0.98512000  0.20957200  1
  H  H66  1  0.38519000  0.98512000  0.70957200  1
  H  H67  1  0.88519000  0.01488000  0.79042800  1
  H  H68  1  0.69782000  0.20206500  0.78700000  1
  H  H69  1  0.19782000  0.79793500  0.71300000  1
  H  H70  1  0.30218000  0.79793500  0.21300000  1
  H  H71  1  0.80218000  0.20206500  0.28700000  1
  H  H72  1  0.59066900  0.23874400  0.85133800  1
  H  H73  1  0.09066900  0.76125600  0.64866200  1
  H  H74  1  0.40933100  0.76125600  0.14866200  1
  H  H75  1  0.90933100  0.23874400  0.35133800  1
  N  N76  1  0.67462100  0.83734700  0.64701400  1
  N  N77  1  0.17462100  0.16265300  0.85298600  1
  N  N78  1  0.32537900  0.16265300  0.35298600  1
  N  N79  1  0.82537900  0.83734700  0.14701400  1
  N  N80  1  0.53008900  0.52139100  0.63842700  1
  N  N81  1  0.03008900  0.47860900  0.86157300  1
  N  N82  1  0.46991100  0.47860900  0.36157300  1
  N  N83  1  0.96991100  0.52139100  0.13842700  1
  N  N84  1  0.83472700  0.80776700  0.48838600  1
  N  N85  1  0.33472700  0.19223300  0.01161400  1
  N  N86  1  0.16527300  0.19223300  0.51161400  1
  N  N87  1  0.66527300  0.80776700  0.98838600  1
  O  O88  1  0.70211200  0.47932400  0.49539400  1
  O  O89  1  0.20211200  0.52067600  0.00460600  1
  O  O90  1  0.29788800  0.52067600  0.50460600  1
  O  O91  1  0.79788800  0.47932400  0.99539400  1
  O  O92  1  0.69170400  0.16095900  0.49180000  1
  O  O93  1  0.19170400  0.83904100  0.00820000  1
  O  O94  1  0.30829600  0.83904100  0.50820000  1
  O  O95  1  0.80829600  0.16095900  0.99180000  1
  O  O96  1  0.90316800  0.33466000  0.44745700  1
  O  O97  1  0.40316800  0.66534000  0.05254300  1
  O  O98  1  0.09683200  0.66534000  0.55254300  1
  O  O99  1  0.59683200  0.33466000  0.94745700  1
  O  O100  1  0.82330200  0.24242300  0.61015800  1
  O  O101  1  0.32330200  0.75757700  0.88984200  1
  O  O102  1  0.17669800  0.75757700  0.38984200  1
  O  O103  1  0.67669800  0.24242300  0.11015800  1
  O  O104  1  0.82304400  0.52968100  0.65534000  1
  O  O105  1  0.32304400  0.47031900  0.84466000  1
  O  O106  1  0.17695600  0.47031900  0.34466000  1
  O  O107  1  0.67695600  0.52968100  0.15534000  1
  O  O108  1  0.87111500  0.24007600  0.76905800  1
  O  O109  1  0.37111500  0.75992400  0.73094200  1
  O  O110  1  0.12888500  0.75992400  0.23094200  1
  O  O111  1  0.62888500  0.24007600  0.26905800  1
  O  O112  1  0.03775900  0.37152500  0.65138700  1
  O  O113  1  0.53775900  0.62847500  0.84861300  1
  O  O114  1  0.96224100  0.62847500  0.34861300  1
  O  O115  1  0.46224100  0.37152500  0.15138700  1
  O  O116  1  0.55723700  0.79373500  0.48109700  1
  O  O117  1  0.05723700  0.20626500  0.01890300  1
  O  O118  1  0.44276300  0.20626500  0.51890300  1
  O  O119  1  0.94276300  0.79373500  0.98109700  1
  O  O120  1  0.59794200  0.88833200  0.30674300  1
  O  O121  1  0.09794200  0.11166800  0.19325700  1
  O  O122  1  0.40205800  0.11166800  0.69325700  1
  O  O123  1  0.90205800  0.88833200  0.80674300  1
  O  O124  1  0.60141400  0.19874100  0.79594800  1
  O  O125  1  0.10141400  0.80125900  0.70405200  1
  O  O126  1  0.39858600  0.80125900  0.20405200  1
  O  O127  1  0.89858600  0.19874100  0.29594800  1
