# generated using pymatgen
data_Ca(Mo3S4)2
_symmetry_space_group_name_H-M   'P 1'
_cell_length_a   11.89819041
_cell_length_b   6.27636404
_cell_length_c   12.84103341
_cell_angle_alpha   37.98170144
_cell_angle_beta   150.90246058
_cell_angle_gamma   131.77213378
_symmetry_Int_Tables_number   1
_chemical_formula_structural   Ca(Mo3S4)2
_chemical_formula_sum   'Ca1 Mo6 S8'
_cell_volume   286.16614534
_cell_formula_units_Z   1
loop_
 _symmetry_equiv_pos_site_id
 _symmetry_equiv_pos_as_xyz
  1  'x, y, z'
loop_
 _atom_site_type_symbol
 _atom_site_label
 _atom_site_symmetry_multiplicity
 _atom_site_fract_x
 _atom_site_fract_y
 _atom_site_fract_z
 _atom_site_occupancy
  Ca  Ca0  1  0.00000000  0.00000000  0.00000000  1
  Mo  Mo1  1  0.21124400  0.07465900  0.79859300  1
  Mo  Mo2  1  0.33579600  0.59981300  0.24989200  1
  Mo  Mo3  1  0.35700100  0.37476100  0.98486300  1
  Mo  Mo4  1  0.78875600  0.92534100  0.20140700  1
  Mo  Mo5  1  0.66420400  0.40018700  0.75010800  1
  Mo  Mo6  1  0.64299900  0.62523900  0.01513700  1
  S  S7  1  0.00313100  0.38564900  0.14911400  1
  S  S8  1  0.46774300  0.95407100  0.36252900  1
  S  S9  1  0.03055400  0.63116800  0.37604400  1
  S  S10  1  0.99686900  0.61435100  0.85088600  1
  S  S11  1  0.53225700  0.04592900  0.63747100  1
  S  S12  1  0.96944600  0.36883200  0.62395600  1
  S  S13  1  0.40106400  0.01776500  0.79655300  1
  S  S14  1  0.59893600  0.98223500  0.20344700  1
