# generated using pymatgen
data_BaSnHgS4
_symmetry_space_group_name_H-M   'P 1'
_cell_length_a   6.73526500
_cell_length_b   11.02901600
_cell_length_c   11.13522000
_cell_angle_alpha   90.00000000
_cell_angle_beta   90.00000000
_cell_angle_gamma   90.00000000
_symmetry_Int_Tables_number   1
_chemical_formula_structural   BaSnHgS4
_chemical_formula_sum   'Ba4 Sn4 Hg4 S16'
_cell_volume   827.16139391
_cell_formula_units_Z   4
loop_
 _symmetry_equiv_pos_site_id
 _symmetry_equiv_pos_as_xyz
  1  'x, y, z'
loop_
 _atom_site_type_symbol
 _atom_site_label
 _atom_site_symmetry_multiplicity
 _atom_site_fract_x
 _atom_site_fract_y
 _atom_site_fract_z
 _atom_site_occupancy
  Ba  Ba0  1  0.04809300  0.00000000  0.50000000  1
  Ba  Ba1  1  0.54809300  0.50000000  0.00000000  1
  Ba  Ba2  1  0.05504900  0.00000000  0.00000000  1
  Ba  Ba3  1  0.55504900  0.50000000  0.50000000  1
  Sn  Sn4  1  0.03535000  0.28900100  0.24818500  1
  Sn  Sn5  1  0.03535000  0.71099900  0.75181500  1
  Sn  Sn6  1  0.53535000  0.21099900  0.74818500  1
  Sn  Sn7  1  0.53535000  0.78900100  0.25181500  1
  Hg  Hg8  1  0.49995300  0.17510900  0.25605400  1
  Hg  Hg9  1  0.49995300  0.82489100  0.74394600  1
  Hg  Hg10  1  0.99995300  0.32489100  0.75605400  1
  Hg  Hg11  1  0.99995300  0.67510900  0.24394600  1
  S  S12  1  0.26674700  0.26583700  0.08184600  1
  S  S13  1  0.26674700  0.73416300  0.91815400  1
  S  S14  1  0.76674700  0.23416300  0.58184600  1
  S  S15  1  0.76674700  0.76583700  0.41815400  1
  S  S16  1  0.26355200  0.26738100  0.41750300  1
  S  S17  1  0.26355200  0.73261900  0.58249700  1
  S  S18  1  0.76355200  0.23261900  0.91750300  1
  S  S19  1  0.76355200  0.76738100  0.08249700  1
  S  S20  1  0.84442500  0.09885500  0.24821500  1
  S  S21  1  0.84442500  0.90114500  0.75178500  1
  S  S22  1  0.34442500  0.40114500  0.74821500  1
  S  S23  1  0.34442500  0.59885500  0.25178500  1
  S  S24  1  0.79800300  0.44812500  0.24834900  1
  S  S25  1  0.79800300  0.55187500  0.75165100  1
  S  S26  1  0.29800300  0.05187500  0.74834900  1
  S  S27  1  0.29800300  0.94812500  0.25165100  1
