# generated using pymatgen
data_Ca2Cd3(Cl5O9)2
_symmetry_space_group_name_H-M   'P 1'
_cell_length_a   7.61142500
_cell_length_b   9.79577674
_cell_length_c   10.67546039
_cell_angle_alpha   111.18112387
_cell_angle_beta   90.25293937
_cell_angle_gamma   102.88243547
_symmetry_Int_Tables_number   1
_chemical_formula_structural   Ca2Cd3(Cl5O9)2
_chemical_formula_sum   'Ca2 Cd3 Cl10 O18'
_cell_volume   720.33832992
_cell_formula_units_Z   1
loop_
 _symmetry_equiv_pos_site_id
 _symmetry_equiv_pos_as_xyz
  1  'x, y, z'
loop_
 _atom_site_type_symbol
 _atom_site_label
 _atom_site_symmetry_multiplicity
 _atom_site_fract_x
 _atom_site_fract_y
 _atom_site_fract_z
 _atom_site_occupancy
  Ca  Ca0  1  0.59926400  0.59672100  0.38732700  1
  Ca  Ca1  1  0.40073600  0.40327900  0.61267300  1
  Cd  Cd2  1  0.00000000  0.00000000  0.00000000  1
  Cd  Cd3  1  0.41462800  0.93709600  0.79829400  1
  Cd  Cd4  1  0.58537200  0.06290400  0.20170600  1
  Cl  Cl5  1  0.20557200  0.67660400  0.62342300  1
  Cl  Cl6  1  0.79442800  0.32339600  0.37657700  1
  Cl  Cl7  1  0.67488300  0.76736800  0.74441400  1
  Cl  Cl8  1  0.32511700  0.23263200  0.25558600  1
  Cl  Cl9  1  0.29007100  0.88799200  0.01672900  1
  Cl  Cl10  1  0.70992900  0.11200800  0.98327100  1
  Cl  Cl11  1  0.84944900  0.92799500  0.17809800  1
  Cl  Cl12  1  0.15055100  0.07200500  0.82190200  1
  Cl  Cl13  1  0.39561500  0.88324200  0.32647600  1
  Cl  Cl14  1  0.60438500  0.11675800  0.67352400  1
  O  O15  1  0.90003300  0.80556600  0.48331200  1
  O  O16  1  0.09996700  0.19443400  0.51668800  1
  O  O17  1  0.51887000  0.80331000  0.38842900  1
  O  O18  1  0.48113000  0.19669000  0.61157100  1
  O  O19  1  0.48305800  0.60411900  0.10407600  1
  O  O20  1  0.51694200  0.39588100  0.89592400  1
  O  O21  1  0.37719800  0.39241300  0.38952700  1
  O  O22  1  0.62280200  0.60758700  0.61047300  1
  O  O23  1  0.79434100  0.44989100  0.30904200  1
  O  O24  1  0.20565900  0.55010900  0.69095800  1
  O  O25  1  0.53331700  0.52550900  0.89651900  1
  O  O26  1  0.46668300  0.47449100  0.10348100  1
  O  O27  1  0.88132900  0.92592300  0.47556400  1
  O  O28  1  0.11867100  0.07407700  0.52443600  1
  O  O29  1  0.94090800  0.57259200  0.10426700  1
  O  O30  1  0.05909200  0.42740800  0.89573300  1
  O  O31  1  0.93526700  0.60565000  0.00350400  1
  O  O32  1  0.06473300  0.39435000  0.99649600  1
