# generated using pymatgen
data_BaMo4O15
_symmetry_space_group_name_H-M   'P 1'
_cell_length_a   7.79828400
_cell_length_b   16.04671000
_cell_length_c   20.56359600
_cell_angle_alpha   90.00000000
_cell_angle_beta   90.00000000
_cell_angle_gamma   90.00000000
_symmetry_Int_Tables_number   1
_chemical_formula_structural   BaMo4O15
_chemical_formula_sum   'Ba8 Mo32 O120'
_cell_volume   2573.26263789
_cell_formula_units_Z   8
loop_
 _symmetry_equiv_pos_site_id
 _symmetry_equiv_pos_as_xyz
  1  'x, y, z'
loop_
 _atom_site_type_symbol
 _atom_site_label
 _atom_site_symmetry_multiplicity
 _atom_site_fract_x
 _atom_site_fract_y
 _atom_site_fract_z
 _atom_site_occupancy
  Ba  Ba0  1  0.82888500  0.39462100  0.05367800  1
  Ba  Ba1  1  0.67111500  0.89462100  0.44632200  1
  Ba  Ba2  1  0.67111500  0.60537900  0.55367800  1
  Ba  Ba3  1  0.82888500  0.10537900  0.94632200  1
  Ba  Ba4  1  0.17111500  0.60537900  0.94632200  1
  Ba  Ba5  1  0.32888500  0.10537900  0.55367800  1
  Ba  Ba6  1  0.32888500  0.39462100  0.44632200  1
  Ba  Ba7  1  0.17111500  0.89462100  0.05367800  1
  Mo  Mo8  1  0.64801400  0.97889100  0.11812600  1
  Mo  Mo9  1  0.85198600  0.47889100  0.38187400  1
  Mo  Mo10  1  0.85198600  0.02110900  0.61812600  1
  Mo  Mo11  1  0.64801400  0.52110900  0.88187400  1
  Mo  Mo12  1  0.35198600  0.02110900  0.88187400  1
  Mo  Mo13  1  0.14801400  0.52110900  0.61812600  1
  Mo  Mo14  1  0.14801400  0.97889100  0.38187400  1
  Mo  Mo15  1  0.35198600  0.47889100  0.11812600  1
  Mo  Mo16  1  0.66111100  0.81962200  0.25136500  1
  Mo  Mo17  1  0.83888900  0.31962200  0.24863500  1
  Mo  Mo18  1  0.83888900  0.18037800  0.75136500  1
  Mo  Mo19  1  0.66111100  0.68037800  0.74863500  1
  Mo  Mo20  1  0.33888900  0.18037800  0.74863500  1
  Mo  Mo21  1  0.16111100  0.68037800  0.75136500  1
  Mo  Mo22  1  0.16111100  0.81962200  0.24863500  1
  Mo  Mo23  1  0.33888900  0.31962200  0.25136500  1
  Mo  Mo24  1  0.34960100  0.11349700  0.24496400  1
  Mo  Mo25  1  0.15039900  0.61349700  0.25503600  1
  Mo  Mo26  1  0.15039900  0.88650300  0.74496400  1
  Mo  Mo27  1  0.34960100  0.38650300  0.75503600  1
  Mo  Mo28  1  0.65039900  0.88650300  0.75503600  1
  Mo  Mo29  1  0.84960100  0.38650300  0.74496400  1
  Mo  Mo30  1  0.84960100  0.11349700  0.25503600  1
  Mo  Mo31  1  0.65039900  0.61349700  0.24496400  1
  Mo  Mo32  1  0.52128000  0.17735300  0.10607600  1
  Mo  Mo33  1  0.97872000  0.67735300  0.39392400  1
  Mo  Mo34  1  0.97872000  0.82264700  0.60607600  1
  Mo  Mo35  1  0.52128000  0.32264700  0.89392400  1
  Mo  Mo36  1  0.47872000  0.82264700  0.89392400  1
  Mo  Mo37  1  0.02128000  0.32264700  0.60607600  1
  Mo  Mo38  1  0.02128000  0.17735300  0.39392400  1
  Mo  Mo39  1  0.47872000  0.67735300  0.10607600  1
  O  O40  1  0.68084300  0.08960400  0.07780400  1
  O  O41  1  0.81915700  0.58960400  0.42219600  1
  O  O42  1  0.81915700  0.91039600  0.57780400  1
  O  O43  1  0.68084300  0.41039600  0.92219600  1
  O  O44  1  0.31915700  0.91039600  0.92219600  1
  O  O45  1  0.18084300  0.41039600  0.57780400  1
  O  O46  1  0.18084300  0.08960400  0.42219600  1
  O  O47  1  0.31915700  0.58960400  0.07780400  1
  O  O48  1  0.82730400  0.93490500  0.07866100  1
  O  O49  1  0.67269600  0.43490500  0.42133900  1
  O  O50  1  0.67269600  0.06509500  0.57866100  1
  O  O51  1  0.82730400  0.56509500  0.92133900  1
  O  O52  1  0.17269600  0.06509500  0.92133900  1
  O  O53  1  0.32730400  0.56509500  0.57866100  1
  O  O54  1  0.32730400  0.93490500  0.42133900  1
  O  O55  1  0.17269600  0.43490500  0.07866100  1
  O  O56  1  0.47734500  0.94880600  0.06786100  1
  O  O57  1  0.02265500  0.44880600  0.43213900  1
  O  O58  1  0.02265500  0.05119400  0.56786100  1
  O  O59  1  0.47734500  0.55119400  0.93213900  1
  O  O60  1  0.52265500  0.05119400  0.93213900  1
  O  O61  1  0.97734500  0.55119400  0.56786100  1
  O  O62  1  0.97734500  0.94880600  0.43213900  1
  O  O63  1  0.52265500  0.44880600  0.06786100  1
  O  O64  1  0.82399900  0.03428800  0.19514100  1
  O  O65  1  0.67600100  0.53428800  0.30485900  1
  O  O66  1  0.67600100  0.96571200  0.69514100  1
  O  O67  1  0.82399900  0.46571200  0.80485900  1
  O  O68  1  0.17600100  0.96571200  0.80485900  1
  O  O69  1  0.32399900  0.46571200  0.69514100  1
  O  O70  1  0.32399900  0.03428800  0.30485900  1
  O  O71  1  0.17600100  0.53428800  0.19514100  1
  O  O72  1  0.46836300  0.06895500  0.16980300  1
  O  O73  1  0.03163700  0.56895500  0.33019700  1
  O  O74  1  0.03163700  0.93104500  0.66980300  1
  O  O75  1  0.46836300  0.43104500  0.83019700  1
  O  O76  1  0.53163700  0.93104500  0.83019700  1
  O  O77  1  0.96836300  0.43104500  0.66980300  1
  O  O78  1  0.96836300  0.06895500  0.33019700  1
  O  O79  1  0.53163700  0.56895500  0.16980300  1
  O  O80  1  0.60004300  0.90048700  0.18666400  1
  O  O81  1  0.89995700  0.40048700  0.31333600  1
  O  O82  1  0.89995700  0.09951300  0.68666400  1
  O  O83  1  0.60004300  0.59951300  0.81333600  1
  O  O84  1  0.39995700  0.09951300  0.81333600  1
  O  O85  1  0.10004300  0.59951300  0.68666400  1
  O  O86  1  0.10004300  0.90048700  0.31333600  1
  O  O87  1  0.39995700  0.40048700  0.18666400  1
  O  O88  1  0.66436500  0.71041900  0.29939500  1
  O  O89  1  0.83563500  0.21041900  0.20060500  1
  O  O90  1  0.83563500  0.28958100  0.79939500  1
  O  O91  1  0.66436500  0.78958100  0.70060500  1
  O  O92  1  0.33563500  0.28958100  0.70060500  1
  O  O93  1  0.16436500  0.78958100  0.79939500  1
  O  O94  1  0.16436500  0.71041900  0.20060500  1
  O  O95  1  0.33563500  0.21041900  0.29939500  1
  O  O96  1  0.66945000  0.88303900  0.32055800  1
  O  O97  1  0.83055000  0.38303900  0.17944200  1
  O  O98  1  0.83055000  0.11696100  0.82055800  1
  O  O99  1  0.66945000  0.61696100  0.67944200  1
  O  O100  1  0.33055000  0.11696100  0.67944200  1
  O  O101  1  0.16945000  0.61696100  0.82055800  1
  O  O102  1  0.16945000  0.88303900  0.17944200  1
  O  O103  1  0.33055000  0.38303900  0.32055800  1
  O  O104  1  0.42139700  0.22404700  0.18287600  1
  O  O105  1  0.07860300  0.72404700  0.31712400  1
  O  O106  1  0.07860300  0.77595300  0.68287600  1
  O  O107  1  0.42139700  0.27595300  0.81712400  1
  O  O108  1  0.57860300  0.77595300  0.81712400  1
  O  O109  1  0.92139700  0.27595300  0.68287600  1
  O  O110  1  0.92139700  0.22404700  0.31712400  1
  O  O111  1  0.57860300  0.72404700  0.18287600  1
  O  O112  1  0.88110100  0.81338600  0.23009100  1
  O  O113  1  0.61889900  0.31338600  0.26990900  1
  O  O114  1  0.61889900  0.18661400  0.73009100  1
  O  O115  1  0.88110100  0.68661400  0.76990900  1
  O  O116  1  0.11889900  0.18661400  0.76990900  1
  O  O117  1  0.38110100  0.68661400  0.73009100  1
  O  O118  1  0.38110100  0.81338600  0.26990900  1
  O  O119  1  0.11889900  0.31338600  0.23009100  1
  O  O120  1  0.13594600  0.11683000  0.21663600  1
  O  O121  1  0.36405400  0.61683000  0.28336400  1
  O  O122  1  0.36405400  0.88317000  0.71663600  1
  O  O123  1  0.13594600  0.38317000  0.78336400  1
  O  O124  1  0.86405400  0.88317000  0.78336400  1
  O  O125  1  0.63594600  0.38317000  0.71663600  1
  O  O126  1  0.63594600  0.11683000  0.28336400  1
  O  O127  1  0.86405400  0.61683000  0.21663600  1
  O  O128  1  0.65056300  0.25927800  0.07631400  1
  O  O129  1  0.84943700  0.75927800  0.42368600  1
  O  O130  1  0.84943700  0.74072200  0.57631400  1
  O  O131  1  0.65056300  0.24072200  0.92368600  1
  O  O132  1  0.34943700  0.74072200  0.92368600  1
  O  O133  1  0.15056300  0.24072200  0.57631400  1
  O  O134  1  0.15056300  0.25927800  0.42368600  1
  O  O135  1  0.34943700  0.75927800  0.07631400  1
  O  O136  1  0.35718600  0.17052400  0.05057400  1
  O  O137  1  0.14281400  0.67052400  0.44942600  1
  O  O138  1  0.14281400  0.82947600  0.55057400  1
  O  O139  1  0.35718600  0.32947600  0.94942600  1
  O  O140  1  0.64281400  0.82947600  0.94942600  1
  O  O141  1  0.85718600  0.32947600  0.55057400  1
  O  O142  1  0.85718600  0.17052400  0.44942600  1
  O  O143  1  0.64281400  0.67052400  0.05057400  1
  O  O144  1  0.04171800  0.38433200  0.92418200  1
  O  O145  1  0.45828200  0.88433200  0.57581800  1
  O  O146  1  0.45828200  0.61566800  0.42418200  1
  O  O147  1  0.04171800  0.11566800  0.07581800  1
  O  O148  1  0.95828200  0.61566800  0.07581800  1
  O  O149  1  0.54171800  0.11566800  0.42418200  1
  O  O150  1  0.54171800  0.38433200  0.57581800  1
  O  O151  1  0.95828200  0.88433200  0.92418200  1
  O  O152  1  0.01121000  0.18853600  0.06020300  1
  O  O153  1  0.48879000  0.68853600  0.43979700  1
  O  O154  1  0.48879000  0.81146400  0.56020300  1
  O  O155  1  0.01121000  0.31146400  0.93979700  1
  O  O156  1  0.98879000  0.81146400  0.93979700  1
  O  O157  1  0.51121000  0.31146400  0.56020300  1
  O  O158  1  0.51121000  0.18853600  0.43979700  1
  O  O159  1  0.98879000  0.68853600  0.06020300  1
