# generated using pymatgen
data_Ca6As4PO35
_symmetry_space_group_name_H-M   'P 1'
_cell_length_a   11.22881846
_cell_length_b   11.22881846
_cell_length_c   11.22881809
_cell_angle_alpha   81.27725759
_cell_angle_beta   81.27725759
_cell_angle_gamma   81.27725868
_symmetry_Int_Tables_number   1
_chemical_formula_structural   Ca6As4PO35
_chemical_formula_sum   'Ca12 As8 P2 O70'
_cell_volume   1371.19387092
_cell_formula_units_Z   2
loop_
 _symmetry_equiv_pos_site_id
 _symmetry_equiv_pos_as_xyz
  1  'x, y, z'
loop_
 _atom_site_type_symbol
 _atom_site_label
 _atom_site_symmetry_multiplicity
 _atom_site_fract_x
 _atom_site_fract_y
 _atom_site_fract_z
 _atom_site_occupancy
  Ca  Ca0  1  0.13592200  0.39432300  0.96843400  1
  Ca  Ca1  1  0.39432300  0.96843400  0.13592200  1
  Ca  Ca2  1  0.96843400  0.13592200  0.39432300  1
  Ca  Ca3  1  0.46843400  0.89432300  0.63592200  1
  Ca  Ca4  1  0.89432300  0.63592200  0.46843400  1
  Ca  Ca5  1  0.63592200  0.46843400  0.89432300  1
  Ca  Ca6  1  0.39219100  0.47533800  0.16277800  1
  Ca  Ca7  1  0.47533800  0.16277800  0.39219100  1
  Ca  Ca8  1  0.16277800  0.39219100  0.47533800  1
  Ca  Ca9  1  0.66277800  0.97533800  0.89219100  1
  Ca  Ca10  1  0.97533800  0.89219100  0.66277800  1
  Ca  Ca11  1  0.89219100  0.66277800  0.97533800  1
  As  As12  1  0.59715700  0.20581400  0.07456400  1
  As  As13  1  0.20581400  0.07456400  0.59715700  1
  As  As14  1  0.07456400  0.59715700  0.20581400  1
  As  As15  1  0.57456400  0.70581400  0.09715700  1
  As  As16  1  0.70581400  0.09715700  0.57456400  1
  As  As17  1  0.09715700  0.57456400  0.70581400  1
  As  As18  1  0.47076900  0.47076900  0.47076900  1
  As  As19  1  0.97076900  0.97076900  0.97076900  1
  P  P20  1  0.25210100  0.25210100  0.25210100  1
  P  P21  1  0.75210100  0.75210100  0.75210100  1
  O  O22  1  0.51325200  0.34449000  0.03218400  1
  O  O23  1  0.34449000  0.03218400  0.51325200  1
  O  O24  1  0.03218400  0.51325200  0.34449000  1
  O  O25  1  0.53218400  0.84449000  0.01325200  1
  O  O26  1  0.84449000  0.01325200  0.53218400  1
  O  O27  1  0.01325200  0.53218400  0.84449000  1
  O  O28  1  0.54156800  0.08708900  0.03341400  1
  O  O29  1  0.08708900  0.03341400  0.54156800  1
  O  O30  1  0.03341400  0.54156800  0.08708900  1
  O  O31  1  0.53341400  0.58708900  0.04156800  1
  O  O32  1  0.58708900  0.04156800  0.53341400  1
  O  O33  1  0.04156800  0.53341400  0.58708900  1
  O  O34  1  0.72878100  0.23814400  0.97549300  1
  O  O35  1  0.23814400  0.97549300  0.72878100  1
  O  O36  1  0.97549300  0.72878100  0.23814400  1
  O  O37  1  0.47549300  0.73814400  0.22878100  1
  O  O38  1  0.73814400  0.22878100  0.47549300  1
  O  O39  1  0.22878100  0.47549300  0.73814400  1
  O  O40  1  0.61326500  0.18901600  0.22422500  1
  O  O41  1  0.18901600  0.22422500  0.61326500  1
  O  O42  1  0.22422500  0.61326500  0.18901600  1
  O  O43  1  0.72422500  0.68901600  0.11326500  1
  O  O44  1  0.68901600  0.11326500  0.72422500  1
  O  O45  1  0.11326500  0.72422500  0.68901600  1
  O  O46  1  0.55101900  0.55101900  0.55101900  1
  O  O47  1  0.05101900  0.05101900  0.05101900  1
  O  O48  1  0.49259100  0.52399100  0.31783600  1
  O  O49  1  0.52399100  0.31783600  0.49259100  1
  O  O50  1  0.31783600  0.49259100  0.52399100  1
  O  O51  1  0.81783600  0.02399100  0.99259100  1
  O  O52  1  0.02399100  0.99259100  0.81783600  1
  O  O53  1  0.99259100  0.81783600  0.02399100  1
  O  O54  1  0.32366300  0.32366300  0.32366300  1
  O  O55  1  0.82366300  0.82366300  0.82366300  1
  O  O56  1  0.24336200  0.32888300  0.12598700  1
  O  O57  1  0.32888300  0.12598700  0.24336200  1
  O  O58  1  0.12598700  0.24336200  0.32888300  1
  O  O59  1  0.62598700  0.82888300  0.74336200  1
  O  O60  1  0.82888300  0.74336200  0.62598700  1
  O  O61  1  0.74336200  0.62598700  0.82888300  1
  O  O62  1  0.36714700  0.24709900  0.86836000  1
  O  O63  1  0.24709900  0.86836000  0.36714700  1
  O  O64  1  0.86836000  0.36714700  0.24709900  1
  O  O65  1  0.36836000  0.74709900  0.86714700  1
  O  O66  1  0.74709900  0.86714700  0.36836000  1
  O  O67  1  0.86714700  0.36836000  0.74709900  1
  O  O68  1  0.12076200  0.21458900  0.87417500  1
  O  O69  1  0.21458900  0.87417500  0.12076200  1
  O  O70  1  0.87417500  0.12076200  0.21458900  1
  O  O71  1  0.37417500  0.71458900  0.62076200  1
  O  O72  1  0.71458900  0.62076200  0.37417500  1
  O  O73  1  0.62076200  0.37417500  0.71458900  1
  O  O74  1  0.27822200  0.58662500  0.94162400  1
  O  O75  1  0.58662500  0.94162400  0.27822200  1
  O  O76  1  0.94162400  0.27822200  0.58662500  1
  O  O77  1  0.44162400  0.08662500  0.77822200  1
  O  O78  1  0.08662500  0.77822200  0.44162400  1
  O  O79  1  0.77822200  0.44162400  0.08662500  1
  O  O80  1  0.95600600  0.23174700  0.09056500  1
  O  O81  1  0.23174700  0.09056500  0.95600600  1
  O  O82  1  0.09056500  0.95600600  0.23174700  1
  O  O83  1  0.59056500  0.73174700  0.45600600  1
  O  O84  1  0.73174700  0.45600600  0.59056500  1
  O  O85  1  0.45600600  0.59056500  0.73174700  1
  O  O86  1  0.89559900  0.26825200  0.70062900  1
  O  O87  1  0.26825200  0.70062900  0.89559900  1
  O  O88  1  0.70062900  0.89559900  0.26825200  1
  O  O89  1  0.20062900  0.76825200  0.39559900  1
  O  O90  1  0.76825200  0.39559900  0.20062900  1
  O  O91  1  0.39559900  0.20062900  0.76825200  1
