# generated using pymatgen
data_CdSn2H12(OF)6
_symmetry_space_group_name_H-M   'P 1'
_cell_length_a   6.71054200
_cell_length_b   7.03809627
_cell_length_c   7.06424729
_cell_angle_alpha   78.00704895
_cell_angle_beta   79.17735820
_cell_angle_gamma   70.34404026
_symmetry_Int_Tables_number   1
_chemical_formula_structural   CdSn2H12(OF)6
_chemical_formula_sum   'Cd1 Sn2 H12 O6 F6'
_cell_volume   304.81445424
_cell_formula_units_Z   1
loop_
 _symmetry_equiv_pos_site_id
 _symmetry_equiv_pos_as_xyz
  1  'x, y, z'
loop_
 _atom_site_type_symbol
 _atom_site_label
 _atom_site_symmetry_multiplicity
 _atom_site_fract_x
 _atom_site_fract_y
 _atom_site_fract_z
 _atom_site_occupancy
  Cd  Cd0  1  0.00000000  0.00000000  0.00000000  1
  Sn  Sn1  1  0.65531500  0.66546400  0.62204400  1
  Sn  Sn2  1  0.34468500  0.33453600  0.37795600  1
  H  H3  1  0.63680800  0.89833300  0.19652400  1
  H  H4  1  0.27032500  0.89940800  0.29695200  1
  H  H5  1  0.09421400  0.78514700  0.38183400  1
  H  H6  1  0.73805900  0.73151400  0.05350300  1
  H  H7  1  0.13126400  0.70851000  0.73242000  1
  H  H8  1  0.26352200  0.61501600  0.91520200  1
  H  H9  1  0.73647800  0.38498400  0.08479800  1
  H  H10  1  0.86873600  0.29149000  0.26758000  1
  H  H11  1  0.26194100  0.26848600  0.94649700  1
  H  H12  1  0.90578600  0.21485300  0.61816600  1
  H  H13  1  0.72967500  0.10059200  0.70304800  1
  H  H14  1  0.36319200  0.10166700  0.80347600  1
  O  O15  1  0.18844000  0.81962900  0.26267800  1
  O  O16  1  0.77346500  0.80850400  0.13884000  1
  O  O17  1  0.22271300  0.73771600  0.81226000  1
  O  O18  1  0.77728700  0.26228400  0.18774000  1
  O  O19  1  0.22653500  0.19149600  0.86116000  1
  O  O20  1  0.81156000  0.18037100  0.73732200  1
  F  F21  1  0.57657700  0.97327800  0.67763700  1
  F  F22  1  0.97646300  0.68586700  0.58600700  1
  F  F23  1  0.68422900  0.59094000  0.92440900  1
  F  F24  1  0.31577100  0.40906000  0.07559100  1
  F  F25  1  0.02353700  0.31413300  0.41399300  1
  F  F26  1  0.42342300  0.02672200  0.32236300  1
