# generated using pymatgen
data_CaSi(HO2)2
_symmetry_space_group_name_H-M   'P 1'
_cell_length_a   11.82664840
_cell_length_b   9.86852666
_cell_length_c   15.19174507
_cell_angle_alpha   51.09540739
_cell_angle_beta   40.49250019
_cell_angle_gamma   88.41209242
_symmetry_Int_Tables_number   1
_chemical_formula_structural   CaSi(HO2)2
_chemical_formula_sum   'Ca4 Si4 H8 O16'
_cell_volume   407.95363560
_cell_formula_units_Z   4
loop_
 _symmetry_equiv_pos_site_id
 _symmetry_equiv_pos_as_xyz
  1  'x, y, z'
loop_
 _atom_site_type_symbol
 _atom_site_label
 _atom_site_symmetry_multiplicity
 _atom_site_fract_x
 _atom_site_fract_y
 _atom_site_fract_z
 _atom_site_occupancy
  Ca  Ca0  1  0.46084000  0.16781200  0.12376100  1
  Ca  Ca1  1  0.16781200  0.46084000  0.24758800  1
  Ca  Ca2  1  0.12623900  0.00241200  0.78916000  1
  Ca  Ca3  1  0.00241200  0.12623900  0.08218800  1
  Si  Si4  1  0.18828100  0.54173600  0.51892400  1
  Si  Si5  1  0.54173600  0.18828100  0.75105900  1
  Si  Si6  1  0.73107600  0.49894100  0.06171900  1
  Si  Si7  1  0.49894100  0.73107600  0.70826400  1
  H  H8  1  0.71094100  0.37079700  0.40499800  1
  H  H9  1  0.37079700  0.71094100  0.51326500  1
  H  H10  1  0.84500200  0.73673500  0.53905900  1
  H  H11  1  0.73673500  0.84500200  0.87920300  1
  H  H12  1  0.31160600  0.77353900  0.60722200  1
  H  H13  1  0.77353900  0.31160600  0.30763200  1
  H  H14  1  0.64277800  0.94236800  0.93839400  1
  H  H15  1  0.94236800  0.64277800  0.47646100  1
  O  O16  1  0.87095800  0.87095800  0.12904200  1
  O  O17  1  0.12095800  0.12095800  0.37904200  1
  O  O18  1  0.04878900  0.56807000  0.65869900  1
  O  O19  1  0.56807000  0.04878900  0.72444100  1
  O  O20  1  0.59130100  0.52555900  0.20121100  1
  O  O21  1  0.52555900  0.59130100  0.68193000  1
  O  O22  1  0.56095400  0.95149100  0.07602700  1
  O  O23  1  0.95149100  0.56095400  0.41152700  1
  O  O24  1  0.17397300  0.83847300  0.68904600  1
  O  O25  1  0.83847300  0.17397300  0.29850900  1
  O  O26  1  0.39958100  0.73084400  0.55214400  1
  O  O27  1  0.73084400  0.39958100  0.31743100  1
  O  O28  1  0.69785600  0.93256900  0.85041900  1
  O  O29  1  0.93256900  0.69785600  0.51915600  1
  O  O30  1  0.25716000  0.25716000  0.74284000  1
  O  O31  1  0.50716000  0.50716000  0.99284000  1
