# generated using pymatgen
data_K3Tb
_symmetry_space_group_name_H-M   'P 1'
_cell_length_a   7.83556008
_cell_length_b   7.83556008
_cell_length_c   7.83556008
_cell_angle_alpha   136.47085468
_cell_angle_beta   136.47085468
_cell_angle_gamma   63.25322050
_symmetry_Int_Tables_number   1
_chemical_formula_structural   K3Tb
_chemical_formula_sum   'K3 Tb1'
_cell_volume   225.27393978
_cell_formula_units_Z   1
loop_
 _symmetry_equiv_pos_site_id
 _symmetry_equiv_pos_as_xyz
  1  'x, y, z'
loop_
 _atom_site_type_symbol
 _atom_site_label
 _atom_site_symmetry_multiplicity
 _atom_site_fract_x
 _atom_site_fract_y
 _atom_site_fract_z
 _atom_site_occupancy
  K  K0  1  0.75000000  0.25000000  0.50000000  1
  K  K1  1  0.25000000  0.75000000  0.50000000  1
  K  K2  1  0.50000000  0.50000000  0.00000000  1
  Tb  Tb3  1  0.00000000  0.00000000  0.00000000  1
