# generated using pymatgen
data_MgAu5
_symmetry_space_group_name_H-M   'P 1'
_cell_length_a   5.64451327
_cell_length_b   5.64451327
_cell_length_c   5.64451372
_cell_angle_alpha   53.51278761
_cell_angle_beta   53.51278761
_cell_angle_gamma   53.51278566
_symmetry_Int_Tables_number   1
_chemical_formula_structural   MgAu5
_chemical_formula_sum   'Mg1 Au5'
_cell_volume   107.86191660
_cell_formula_units_Z   1
loop_
 _symmetry_equiv_pos_site_id
 _symmetry_equiv_pos_as_xyz
  1  'x, y, z'
loop_
 _atom_site_type_symbol
 _atom_site_label
 _atom_site_symmetry_multiplicity
 _atom_site_fract_x
 _atom_site_fract_y
 _atom_site_fract_z
 _atom_site_occupancy
  Mg  Mg0  1  0.50000000  0.50000000  0.50000000  1
  Au  Au1  1  0.00000000  0.66615100  0.33384900  1
  Au  Au2  1  0.66615100  0.33384900  0.00000000  1
  Au  Au3  1  0.33384900  0.00000000  0.66615100  1
  Au  Au4  1  0.83277900  0.83277900  0.83277900  1
  Au  Au5  1  0.16722100  0.16722100  0.16722100  1
