# generated using pymatgen
data_Mg16Al12Sn
_symmetry_space_group_name_H-M   'P 1'
_cell_length_a   9.09362198
_cell_length_b   9.09362198
_cell_length_c   9.10126185
_cell_angle_alpha   70.90784505
_cell_angle_beta   70.90784505
_cell_angle_gamma   109.29524759
_symmetry_Int_Tables_number   1
_chemical_formula_structural   Mg16Al12Sn
_chemical_formula_sum   'Mg16 Al12 Sn1'
_cell_volume   585.94864600
_cell_formula_units_Z   1
loop_
 _symmetry_equiv_pos_site_id
 _symmetry_equiv_pos_as_xyz
  1  'x, y, z'
loop_
 _atom_site_type_symbol
 _atom_site_label
 _atom_site_symmetry_multiplicity
 _atom_site_fract_x
 _atom_site_fract_y
 _atom_site_fract_z
 _atom_site_occupancy
  Mg  Mg0  1  0.34060400  0.34060400  0.66550100  1
  Mg  Mg1  1  0.99983300  0.99983300  0.00096800  1
  Mg  Mg2  1  0.99853600  0.99853600  0.34540800  1
  Mg  Mg3  1  0.31270400  0.31270400  0.28928500  1
  Mg  Mg4  1  0.39719600  0.67837600  0.00263700  1
  Mg  Mg5  1  0.28619700  0.59773900  0.40020600  1
  Mg  Mg6  1  0.68626100  0.00456900  0.60023400  1
  Mg  Mg7  1  0.65309600  0.00363100  0.99458200  1
  Mg  Mg8  1  0.31953700  0.71198500  0.68323600  1
  Mg  Mg9  1  0.99851700  0.40097400  0.31727900  1
  Mg  Mg10  1  0.40097400  0.99851700  0.31727900  1
  Mg  Mg11  1  0.71198500  0.31953700  0.68323600  1
  Mg  Mg12  1  0.00363100  0.65309600  0.99458200  1
  Mg  Mg13  1  0.00456900  0.68626100  0.60023400  1
  Mg  Mg14  1  0.59773900  0.28619700  0.40020600  1
  Mg  Mg15  1  0.67837600  0.39719600  0.00263700  1
  Al  Al16  1  0.63250600  0.63250600  0.17633400  1
  Al  Al17  1  0.82353400  0.82353400  0.81949900  1
  Al  Al18  1  0.17706700  0.36039400  0.00814300  1
  Al  Al19  1  0.00167700  0.18686900  0.63345400  1
  Al  Al20  1  0.63441900  0.82360300  0.35478500  1
  Al  Al21  1  0.81005700  0.18019400  0.18798100  1
  Al  Al22  1  0.99711600  0.36624700  0.81829700  1
  Al  Al23  1  0.36624700  0.99711600  0.81829700  1
  Al  Al24  1  0.18019400  0.81005700  0.18798100  1
  Al  Al25  1  0.82360300  0.63441900  0.35478500  1
  Al  Al26  1  0.18686900  0.00167700  0.63345400  1
  Al  Al27  1  0.36039400  0.17706700  0.00814300  1
  Sn  Sn28  1  0.61656500  0.61656500  0.70133000  1
