# generated using pymatgen
data_NpTe3
_symmetry_space_group_name_H-M   'P 1'
_cell_length_a   6.60376813
_cell_length_b   6.60376813
_cell_length_c   5.97765100
_cell_angle_alpha   90.00000000
_cell_angle_beta   90.00000000
_cell_angle_gamma   120.00000131
_symmetry_Int_Tables_number   1
_chemical_formula_structural   NpTe3
_chemical_formula_sum   'Np2 Te6'
_cell_volume   225.75886533
_cell_formula_units_Z   2
loop_
 _symmetry_equiv_pos_site_id
 _symmetry_equiv_pos_as_xyz
  1  'x, y, z'
loop_
 _atom_site_type_symbol
 _atom_site_label
 _atom_site_symmetry_multiplicity
 _atom_site_fract_x
 _atom_site_fract_y
 _atom_site_fract_z
 _atom_site_occupancy
  Np  Np0  1  0.33333300  0.66666700  0.75000000  1
  Np  Np1  1  0.66666700  0.33333300  0.25000000  1
  Te  Te2  1  0.17368200  0.34736300  0.25000000  1
  Te  Te3  1  0.65263700  0.82631800  0.25000000  1
  Te  Te4  1  0.17368200  0.82631800  0.25000000  1
  Te  Te5  1  0.82631800  0.65263700  0.75000000  1
  Te  Te6  1  0.34736300  0.17368200  0.75000000  1
  Te  Te7  1  0.82631800  0.17368200  0.75000000  1
