# generated using pymatgen
data_MgIn2
_symmetry_space_group_name_H-M   'P 1'
_cell_length_a   5.93373116
_cell_length_b   5.93373116
_cell_length_c   5.02262500
_cell_angle_alpha   90.00000000
_cell_angle_beta   90.00000000
_cell_angle_gamma   119.83724937
_symmetry_Int_Tables_number   1
_chemical_formula_structural   MgIn2
_chemical_formula_sum   'Mg2 In4'
_cell_volume   153.40058626
_cell_formula_units_Z   2
loop_
 _symmetry_equiv_pos_site_id
 _symmetry_equiv_pos_as_xyz
  1  'x, y, z'
loop_
 _atom_site_type_symbol
 _atom_site_label
 _atom_site_symmetry_multiplicity
 _atom_site_fract_x
 _atom_site_fract_y
 _atom_site_fract_z
 _atom_site_occupancy
  Mg  Mg0  1  0.33061100  0.33061100  0.25000000  1
  Mg  Mg1  1  0.66938900  0.66938900  0.75000000  1
  In  In2  1  0.01886400  0.34270200  0.75000000  1
  In  In3  1  0.65729800  0.98113600  0.25000000  1
  In  In4  1  0.34270200  0.01886400  0.75000000  1
  In  In5  1  0.98113600  0.65729800  0.25000000  1
