# generated using pymatgen
data_MgS2
_symmetry_space_group_name_H-M   'P 1'
_cell_length_a   3.97593112
_cell_length_b   3.97593112
_cell_length_c   9.13380900
_cell_angle_alpha   90.00000000
_cell_angle_beta   90.00000000
_cell_angle_gamma   120.02407861
_symmetry_Int_Tables_number   1
_chemical_formula_structural   MgS2
_chemical_formula_sum   'Mg2 S4'
_cell_volume   125.01290189
_cell_formula_units_Z   2
loop_
 _symmetry_equiv_pos_site_id
 _symmetry_equiv_pos_as_xyz
  1  'x, y, z'
loop_
 _atom_site_type_symbol
 _atom_site_label
 _atom_site_symmetry_multiplicity
 _atom_site_fract_x
 _atom_site_fract_y
 _atom_site_fract_z
 _atom_site_occupancy
  Mg  Mg0  1  0.52476700  0.47523300  0.27763400  1
  Mg  Mg1  1  0.47523300  0.52476700  0.77763400  1
  S  S2  1  0.85297800  0.14702200  0.14168400  1
  S  S3  1  0.18552400  0.81447600  0.41393900  1
  S  S4  1  0.14702200  0.85297800  0.64168400  1
  S  S5  1  0.81447600  0.18552400  0.91393900  1
