# generated using pymatgen
data_Mg16TiAl12
_symmetry_space_group_name_H-M   'P 1'
_cell_length_a   9.12587520
_cell_length_b   9.12587520
_cell_length_c   9.12587494
_cell_angle_alpha   110.13510678
_cell_angle_beta   110.13510678
_cell_angle_gamma   110.13511497
_symmetry_Int_Tables_number   1
_chemical_formula_structural   Mg16TiAl12
_chemical_formula_sum   'Mg16 Ti1 Al12'
_cell_volume   570.22809308
_cell_formula_units_Z   1
loop_
 _symmetry_equiv_pos_site_id
 _symmetry_equiv_pos_as_xyz
  1  'x, y, z'
loop_
 _atom_site_type_symbol
 _atom_site_label
 _atom_site_symmetry_multiplicity
 _atom_site_fract_x
 _atom_site_fract_y
 _atom_site_fract_z
 _atom_site_occupancy
  Mg  Mg0  1  0.65633800  0.99602900  0.99602900  1
  Mg  Mg1  1  0.28023500  0.59940100  0.59940100  1
  Mg  Mg2  1  0.72079800  0.31555600  0.31555600  1
  Mg  Mg3  1  0.00535000  0.00535000  0.00535000  1
  Mg  Mg4  1  0.00109500  0.68770600  0.39583700  1
  Mg  Mg5  1  0.39583700  0.00109500  0.68770600  1
  Mg  Mg6  1  0.59940100  0.59940100  0.28023500  1
  Mg  Mg7  1  0.99602900  0.99602900  0.65633800  1
  Mg  Mg8  1  0.68770600  0.39583700  0.00109500  1
  Mg  Mg9  1  0.31555600  0.72079800  0.31555600  1
  Mg  Mg10  1  0.31555600  0.31555600  0.72079800  1
  Mg  Mg11  1  0.68770600  0.00109500  0.39583700  1
  Mg  Mg12  1  0.99602900  0.65633800  0.99602900  1
  Mg  Mg13  1  0.59940100  0.28023500  0.59940100  1
  Mg  Mg14  1  0.39583700  0.68770600  0.00109500  1
  Mg  Mg15  1  0.00109500  0.39583700  0.68770600  1
  Ti  Ti16  1  0.36136500  0.36136500  0.36136500  1
  Al  Al17  1  0.17738400  0.80965100  0.80965100  1
  Al  Al18  1  0.80772900  0.62569100  0.62569100  1
  Al  Al19  1  0.00870100  0.36654200  0.18919500  1
  Al  Al20  1  0.36654200  0.18919500  0.00870100  1
  Al  Al21  1  0.62569100  0.80772900  0.62569100  1
  Al  Al22  1  0.18919500  0.36654200  0.00870100  1
  Al  Al23  1  0.80965100  0.17738400  0.80965100  1
  Al  Al24  1  0.80965100  0.80965100  0.17738400  1
  Al  Al25  1  0.18919500  0.00870100  0.36654200  1
  Al  Al26  1  0.62569100  0.62569100  0.80772900  1
  Al  Al27  1  0.36654200  0.00870100  0.18919500  1
  Al  Al28  1  0.00870100  0.18919500  0.36654200  1
