# generated using pymatgen
data_MgHg2
_symmetry_space_group_name_H-M   'P 1'
_cell_length_a   5.31998972
_cell_length_b   5.31998972
_cell_length_c   7.00045648
_cell_angle_alpha   59.45356481
_cell_angle_beta   59.45356481
_cell_angle_gamma   59.27213507
_symmetry_Int_Tables_number   1
_chemical_formula_structural   MgHg2
_chemical_formula_sum   'Mg2 Hg4'
_cell_volume   138.16238812
_cell_formula_units_Z   2
loop_
 _symmetry_equiv_pos_site_id
 _symmetry_equiv_pos_as_xyz
  1  'x, y, z'
loop_
 _atom_site_type_symbol
 _atom_site_label
 _atom_site_symmetry_multiplicity
 _atom_site_fract_x
 _atom_site_fract_y
 _atom_site_fract_z
 _atom_site_occupancy
  Mg  Mg0  1  0.89548200  0.10451800  0.75000000  1
  Mg  Mg1  1  0.10451800  0.89548200  0.25000000  1
  Hg  Hg2  1  0.22755100  0.43735400  0.74726400  1
  Hg  Hg3  1  0.77244900  0.56264600  0.25273600  1
  Hg  Hg4  1  0.43735400  0.22755100  0.24726400  1
  Hg  Hg5  1  0.56264600  0.77244900  0.75273600  1
