# generated using pymatgen
data_Mg16ScAl12
_symmetry_space_group_name_H-M   'P 1'
_cell_length_a   9.16029477
_cell_length_b   9.16029477
_cell_length_c   9.01834046
_cell_angle_alpha   70.75163882
_cell_angle_beta   70.75163882
_cell_angle_gamma   109.59220650
_symmetry_Int_Tables_number   1
_chemical_formula_structural   Mg16ScAl12
_chemical_formula_sum   'Mg16 Sc1 Al12'
_cell_volume   584.85483172
_cell_formula_units_Z   1
loop_
 _symmetry_equiv_pos_site_id
 _symmetry_equiv_pos_as_xyz
  1  'x, y, z'
loop_
 _atom_site_type_symbol
 _atom_site_label
 _atom_site_symmetry_multiplicity
 _atom_site_fract_x
 _atom_site_fract_y
 _atom_site_fract_z
 _atom_site_occupancy
  Mg  Mg0  1  0.40108800  0.40108800  0.28036500  1
  Mg  Mg1  1  0.00566000  0.00566000  0.64904300  1
  Mg  Mg2  1  0.65506500  0.65506500  0.35051500  1
  Mg  Mg3  1  0.00072600  0.00072600  0.00228500  1
  Mg  Mg4  1  0.60435200  0.31362600  0.99755900  1
  Mg  Mg5  1  0.71533700  0.39885900  0.60284500  1
  Mg  Mg6  1  0.31813100  0.00003500  0.39516500  1
  Mg  Mg7  1  0.33769600  0.99674500  0.00679500  1
  Mg  Mg8  1  0.68379200  0.28857500  0.31566200  1
  Mg  Mg9  1  0.00155000  0.59820700  0.68533100  1
  Mg  Mg10  1  0.59820700  0.00155000  0.68533100  1
  Mg  Mg11  1  0.28857500  0.68379200  0.31566200  1
  Mg  Mg12  1  0.99674500  0.33769600  0.00679500  1
  Mg  Mg13  1  0.00003500  0.31813100  0.39516500  1
  Mg  Mg14  1  0.39885900  0.71533700  0.60284500  1
  Mg  Mg15  1  0.31362600  0.60435200  0.99755900  1
  Sc  Sc16  1  0.68484000  0.68484000  0.72150500  1
  Al  Al17  1  0.37190100  0.37190100  0.81480100  1
  Al  Al18  1  0.18470700  0.18470700  0.18004400  1
  Al  Al19  1  0.81346400  0.63363000  0.99793700  1
  Al  Al20  1  0.99627100  0.81167800  0.37137300  1
  Al  Al21  1  0.36442100  0.17943500  0.63383900  1
  Al  Al22  1  0.18416600  0.82166900  0.81208000  1
  Al  Al23  1  0.99996500  0.63428700  0.18212200  1
  Al  Al24  1  0.63428700  0.99996500  0.18212200  1
  Al  Al25  1  0.82166900  0.18416600  0.81208000  1
  Al  Al26  1  0.17943500  0.36442100  0.63383900  1
  Al  Al27  1  0.81167800  0.99627100  0.37137300  1
  Al  Al28  1  0.63363000  0.81346400  0.99793700  1
