# generated using pymatgen
data_Nd3Dy
_symmetry_space_group_name_H-M   'P 1'
_cell_length_a   7.33071885
_cell_length_b   7.33071885
_cell_length_c   5.98583100
_cell_angle_alpha   90.00000000
_cell_angle_beta   90.00000000
_cell_angle_gamma   120.00000769
_symmetry_Int_Tables_number   1
_chemical_formula_structural   Nd3Dy
_chemical_formula_sum   'Nd6 Dy2'
_cell_volume   278.57887271
_cell_formula_units_Z   2
loop_
 _symmetry_equiv_pos_site_id
 _symmetry_equiv_pos_as_xyz
  1  'x, y, z'
loop_
 _atom_site_type_symbol
 _atom_site_label
 _atom_site_symmetry_multiplicity
 _atom_site_fract_x
 _atom_site_fract_y
 _atom_site_fract_z
 _atom_site_occupancy
  Nd  Nd0  1  0.16736100  0.33472200  0.25000000  1
  Nd  Nd1  1  0.66527800  0.83263900  0.25000000  1
  Nd  Nd2  1  0.16736100  0.83263900  0.25000000  1
  Nd  Nd3  1  0.83263900  0.66527800  0.75000000  1
  Nd  Nd4  1  0.33472200  0.16736100  0.75000000  1
  Nd  Nd5  1  0.83263900  0.16736100  0.75000000  1
  Dy  Dy6  1  0.33333300  0.66666700  0.75000000  1
  Dy  Dy7  1  0.66666700  0.33333300  0.25000000  1
