# generated using pymatgen
data_MgPt2
_symmetry_space_group_name_H-M   'P 1'
_cell_length_a   4.91892474
_cell_length_b   4.91892474
_cell_length_c   4.53728100
_cell_angle_alpha   90.00000000
_cell_angle_beta   90.00000000
_cell_angle_gamma   120.00000998
_symmetry_Int_Tables_number   1
_chemical_formula_structural   MgPt2
_chemical_formula_sum   'Mg2 Pt4'
_cell_volume   95.07506273
_cell_formula_units_Z   2
loop_
 _symmetry_equiv_pos_site_id
 _symmetry_equiv_pos_as_xyz
  1  'x, y, z'
loop_
 _atom_site_type_symbol
 _atom_site_label
 _atom_site_symmetry_multiplicity
 _atom_site_fract_x
 _atom_site_fract_y
 _atom_site_fract_z
 _atom_site_occupancy
  Mg  Mg0  1  0.33333300  0.66666700  0.50000000  1
  Mg  Mg1  1  0.66666700  0.33333300  0.50000000  1
  Pt  Pt2  1  0.00000000  0.00000000  0.50000000  1
  Pt  Pt3  1  0.00000000  0.33339800  0.00000000  1
  Pt  Pt4  1  0.33339800  0.00000000  0.00000000  1
  Pt  Pt5  1  0.66660200  0.66660200  0.00000000  1
