# generated using pymatgen
data_MgPb
_symmetry_space_group_name_H-M   'P 1'
_cell_length_a   6.08662440
_cell_length_b   6.08662440
_cell_length_c   5.51728576
_cell_angle_alpha   73.89103283
_cell_angle_beta   73.89103283
_cell_angle_gamma   33.09740909
_symmetry_Int_Tables_number   1
_chemical_formula_structural   MgPb
_chemical_formula_sum   'Mg2 Pb2'
_cell_volume   106.83683290
_cell_formula_units_Z   2
loop_
 _symmetry_equiv_pos_site_id
 _symmetry_equiv_pos_as_xyz
  1  'x, y, z'
loop_
 _atom_site_type_symbol
 _atom_site_label
 _atom_site_symmetry_multiplicity
 _atom_site_fract_x
 _atom_site_fract_y
 _atom_site_fract_z
 _atom_site_occupancy
  Mg  Mg0  1  0.12824800  0.12824800  0.69951300  1
  Mg  Mg1  1  0.87175200  0.87175200  0.30048700  1
  Pb  Pb2  1  0.38162900  0.38162900  0.78868000  1
  Pb  Pb3  1  0.61837100  0.61837100  0.21132000  1
