# generated using pymatgen
data_MgIn2
_symmetry_space_group_name_H-M   'P 1'
_cell_length_a   6.02453470
_cell_length_b   6.02453470
_cell_length_c   7.93524964
_cell_angle_alpha   74.09969109
_cell_angle_beta   74.09969109
_cell_angle_gamma   33.57758685
_symmetry_Int_Tables_number   1
_chemical_formula_structural   MgIn2
_chemical_formula_sum   'Mg2 In4'
_cell_volume   152.62723148
_cell_formula_units_Z   2
loop_
 _symmetry_equiv_pos_site_id
 _symmetry_equiv_pos_as_xyz
  1  'x, y, z'
loop_
 _atom_site_type_symbol
 _atom_site_label
 _atom_site_symmetry_multiplicity
 _atom_site_fract_x
 _atom_site_fract_y
 _atom_site_fract_z
 _atom_site_occupancy
  Mg  Mg0  1  0.93984900  0.93984900  0.61425300  1
  Mg  Mg1  1  0.61605100  0.61605100  0.27457300  1
  In  In2  1  0.00177400  0.00177400  0.00492700  1
  In  In3  1  0.28088900  0.28088900  0.94003500  1
  In  In4  1  0.65798600  0.65798600  0.65992200  1
  In  In5  1  0.33678400  0.33678400  0.33962400  1
