# generated using pymatgen
data_ThCl
_symmetry_space_group_name_H-M   'P 1'
_cell_length_a   3.56704647
_cell_length_b   3.56704647
_cell_length_c   10.15078200
_cell_angle_alpha   90.00000000
_cell_angle_beta   90.00000000
_cell_angle_gamma   120.00000879
_symmetry_Int_Tables_number   1
_chemical_formula_structural   ThCl
_chemical_formula_sum   'Th2 Cl2'
_cell_volume   111.85299812
_cell_formula_units_Z   2
loop_
 _symmetry_equiv_pos_site_id
 _symmetry_equiv_pos_as_xyz
  1  'x, y, z'
loop_
 _atom_site_type_symbol
 _atom_site_label
 _atom_site_symmetry_multiplicity
 _atom_site_fract_x
 _atom_site_fract_y
 _atom_site_fract_z
 _atom_site_occupancy
  Th  Th0  1  0.66666700  0.33333300  0.83007000  1
  Th  Th1  1  0.33333300  0.66666700  0.33007000  1
  Cl  Cl2  1  0.66666700  0.33333300  0.54492900  1
  Cl  Cl3  1  0.33333300  0.66666700  0.04492900  1
