# generated using pymatgen
data_Mg2As
_symmetry_space_group_name_H-M   'P 1'
_cell_length_a   6.85568988
_cell_length_b   6.85568988
_cell_length_c   6.85568988
_cell_angle_alpha   147.52015965
_cell_angle_beta   131.70430782
_cell_angle_gamma   59.41161385
_symmetry_Int_Tables_number   1
_chemical_formula_structural   Mg2As
_chemical_formula_sum   'Mg4 As2'
_cell_volume   128.07846301
_cell_formula_units_Z   2
loop_
 _symmetry_equiv_pos_site_id
 _symmetry_equiv_pos_as_xyz
  1  'x, y, z'
loop_
 _atom_site_type_symbol
 _atom_site_label
 _atom_site_symmetry_multiplicity
 _atom_site_fract_x
 _atom_site_fract_y
 _atom_site_fract_z
 _atom_site_occupancy
  Mg  Mg0  1  0.80276800  0.80276800  0.00000000  1
  Mg  Mg1  1  0.74495900  0.50000000  0.24495900  1
  Mg  Mg2  1  0.25504100  0.50000000  0.75504100  1
  Mg  Mg3  1  0.19723200  0.19723200  0.00000000  1
  As  As4  1  0.64400500  0.14400500  0.50000000  1
  As  As5  1  0.35599500  0.85599500  0.50000000  1
