# generated using pymatgen
data_SiPb3
_symmetry_space_group_name_H-M   'P 1'
_cell_length_a   6.88271249
_cell_length_b   6.88271249
_cell_length_c   5.49297400
_cell_angle_alpha   90.00000000
_cell_angle_beta   90.00000000
_cell_angle_gamma   120.00000467
_symmetry_Int_Tables_number   1
_chemical_formula_structural   SiPb3
_chemical_formula_sum   'Si2 Pb6'
_cell_volume   225.34992123
_cell_formula_units_Z   2
loop_
 _symmetry_equiv_pos_site_id
 _symmetry_equiv_pos_as_xyz
  1  'x, y, z'
loop_
 _atom_site_type_symbol
 _atom_site_label
 _atom_site_symmetry_multiplicity
 _atom_site_fract_x
 _atom_site_fract_y
 _atom_site_fract_z
 _atom_site_occupancy
  Si  Si0  1  0.33333300  0.66666700  0.75000000  1
  Si  Si1  1  0.66666700  0.33333300  0.25000000  1
  Pb  Pb2  1  0.17278700  0.34557500  0.25000000  1
  Pb  Pb3  1  0.65442500  0.82721300  0.25000000  1
  Pb  Pb4  1  0.17278700  0.82721300  0.25000000  1
  Pb  Pb5  1  0.82721300  0.65442500  0.75000000  1
  Pb  Pb6  1  0.34557500  0.17278700  0.75000000  1
  Pb  Pb7  1  0.82721300  0.17278700  0.75000000  1
