# generated using pymatgen
data_Pm3Nd
_symmetry_space_group_name_H-M   'P 1'
_cell_length_a   7.33844543
_cell_length_b   7.33844543
_cell_length_c   6.02021800
_cell_angle_alpha   90.00000000
_cell_angle_beta   90.00000000
_cell_angle_gamma   119.99999484
_symmetry_Int_Tables_number   1
_chemical_formula_structural   Pm3Nd
_chemical_formula_sum   'Pm6 Nd2'
_cell_volume   280.77019921
_cell_formula_units_Z   2
loop_
 _symmetry_equiv_pos_site_id
 _symmetry_equiv_pos_as_xyz
  1  'x, y, z'
loop_
 _atom_site_type_symbol
 _atom_site_label
 _atom_site_symmetry_multiplicity
 _atom_site_fract_x
 _atom_site_fract_y
 _atom_site_fract_z
 _atom_site_occupancy
  Pm  Pm0  1  0.83360100  0.16639900  0.75000000  1
  Pm  Pm1  1  0.33279800  0.16639900  0.75000000  1
  Pm  Pm2  1  0.83360100  0.66720200  0.75000000  1
  Pm  Pm3  1  0.16639900  0.83360100  0.25000000  1
  Pm  Pm4  1  0.66720200  0.83360100  0.25000000  1
  Pm  Pm5  1  0.16639900  0.33279800  0.25000000  1
  Nd  Nd6  1  0.66666700  0.33333300  0.25000000  1
  Nd  Nd7  1  0.33333300  0.66666700  0.75000000  1
