# generated using pymatgen
data_Mg2Ag
_symmetry_space_group_name_H-M   'P 1'
_cell_length_a   5.62550211
_cell_length_b   5.62550211
_cell_length_c   4.83693700
_cell_angle_alpha   90.00000000
_cell_angle_beta   90.00000000
_cell_angle_gamma   128.71813600
_symmetry_Int_Tables_number   1
_chemical_formula_structural   Mg2Ag
_chemical_formula_sum   'Mg4 Ag2'
_cell_volume   119.43098890
_cell_formula_units_Z   2
loop_
 _symmetry_equiv_pos_site_id
 _symmetry_equiv_pos_as_xyz
  1  'x, y, z'
loop_
 _atom_site_type_symbol
 _atom_site_label
 _atom_site_symmetry_multiplicity
 _atom_site_fract_x
 _atom_site_fract_y
 _atom_site_fract_z
 _atom_site_occupancy
  Mg  Mg0  1  0.57304700  0.88192100  0.25000000  1
  Mg  Mg1  1  0.11807900  0.42695300  0.75000000  1
  Mg  Mg2  1  0.88192100  0.57304700  0.25000000  1
  Mg  Mg3  1  0.42695300  0.11807900  0.75000000  1
  Ag  Ag4  1  0.77893800  0.77893800  0.75000000  1
  Ag  Ag5  1  0.22106200  0.22106200  0.25000000  1
