# generated using pymatgen
data_MnV2O7
_symmetry_space_group_name_H-M   'P 1'
_cell_length_a   5.84470984
_cell_length_b   6.99985857
_cell_length_c   7.91020070
_cell_angle_alpha   79.92399159
_cell_angle_beta   82.01299474
_cell_angle_gamma   74.96264321
_symmetry_Int_Tables_number   1
_chemical_formula_structural   MnV2O7
_chemical_formula_sum   'Mn2 V4 O14'
_cell_volume   306.22777849
_cell_formula_units_Z   2
loop_
 _symmetry_equiv_pos_site_id
 _symmetry_equiv_pos_as_xyz
  1  'x, y, z'
loop_
 _atom_site_type_symbol
 _atom_site_label
 _atom_site_symmetry_multiplicity
 _atom_site_fract_x
 _atom_site_fract_y
 _atom_site_fract_z
 _atom_site_occupancy
  Mn  Mn0  1  0.91241600  0.65739100  0.65276500  1
  Mn  Mn1  1  0.08758400  0.34260900  0.34723500  1
  V  V2  1  0.90105000  0.14955800  0.76140800  1
  V  V3  1  0.09895000  0.85044200  0.23859200  1
  V  V4  1  0.30242200  0.32474100  0.90810900  1
  V  V5  1  0.69757800  0.67525900  0.09189100  1
  O  O6  1  0.60752100  0.18608200  0.87013400  1
  O  O7  1  0.39247900  0.81391800  0.12986600  1
  O  O8  1  0.11418100  0.16065900  0.90434900  1
  O  O9  1  0.88581900  0.83934100  0.09565100  1
  O  O10  1  0.91678800  0.34277500  0.59288500  1
  O  O11  1  0.08321200  0.65722500  0.40711500  1
  O  O12  1  0.97511800  0.93026700  0.68779100  1
  O  O13  1  0.02488200  0.06973300  0.31220900  1
  O  O14  1  0.22483100  0.51910000  0.74953100  1
  O  O15  1  0.77516900  0.48090000  0.25046900  1
  O  O16  1  0.24726200  0.40355800  0.10502200  1
  O  O17  1  0.75273800  0.59644200  0.89497800  1
  O  O18  1  0.63497400  0.76181900  0.57194400  1
  O  O19  1  0.36502600  0.23818100  0.42805600  1
