# generated using pymatgen
data_Cs5Te3
_symmetry_space_group_name_H-M   'P 1'
_cell_length_a   11.27240061
_cell_length_b   11.27240061
_cell_length_c   11.27240061
_cell_angle_alpha   95.79686837
_cell_angle_beta   95.79686837
_cell_angle_gamma   142.93917362
_symmetry_Int_Tables_number   1
_chemical_formula_structural   Cs5Te3
_chemical_formula_sum   'Cs10 Te6'
_cell_volume   818.47009999
_cell_formula_units_Z   2
loop_
 _symmetry_equiv_pos_site_id
 _symmetry_equiv_pos_as_xyz
  1  'x, y, z'
loop_
 _atom_site_type_symbol
 _atom_site_label
 _atom_site_symmetry_multiplicity
 _atom_site_fract_x
 _atom_site_fract_y
 _atom_site_fract_z
 _atom_site_occupancy
  Cs  Cs0  1  0.27571100  0.59044800  0.86615900  1
  Cs  Cs1  1  0.72428900  0.40955200  0.13384100  1
  Cs  Cs2  1  0.40955200  0.27571100  0.68526300  1
  Cs  Cs3  1  0.59044800  0.72428900  0.31473700  1
  Cs  Cs4  1  0.08771700  0.78122200  0.86893900  1
  Cs  Cs5  1  0.91228300  0.21877800  0.13106100  1
  Cs  Cs6  1  0.21877800  0.08771700  0.30649500  1
  Cs  Cs7  1  0.78122200  0.91228300  0.69350500  1
  Cs  Cs8  1  0.25000000  0.75000000  0.50000000  1
  Cs  Cs9  1  0.75000000  0.25000000  0.50000000  1
  Te  Te10  1  0.69757100  0.69757100  0.00000000  1
  Te  Te11  1  0.30242900  0.30242900  0.00000000  1
  Te  Te12  1  0.34298800  0.84538500  0.18837300  1
  Te  Te13  1  0.65701200  0.15461500  0.81162700  1
  Te  Te14  1  0.15461500  0.34298800  0.49760400  1
  Te  Te15  1  0.84538500  0.65701200  0.50239600  1
