# generated using pymatgen
data_Gd(Tl3Te2)3
_symmetry_space_group_name_H-M   'P 1'
_cell_length_a   8.85831200
_cell_length_b   8.85831200
_cell_length_c   9.05035566
_cell_angle_alpha   119.30051365
_cell_angle_beta   119.30051365
_cell_angle_gamma   90.00000000
_symmetry_Int_Tables_number   1
_chemical_formula_structural   Gd(Tl3Te2)3
_chemical_formula_sum   'Gd1 Tl9 Te6'
_cell_volume   512.60647691
_cell_formula_units_Z   1
loop_
 _symmetry_equiv_pos_site_id
 _symmetry_equiv_pos_as_xyz
  1  'x, y, z'
loop_
 _atom_site_type_symbol
 _atom_site_label
 _atom_site_symmetry_multiplicity
 _atom_site_fract_x
 _atom_site_fract_y
 _atom_site_fract_z
 _atom_site_occupancy
  Gd  Gd0  1  0.00000000  0.00000000  0.00000000  1
  Tl  Tl1  1  0.50000000  0.50000000  0.00000000  1
  Tl  Tl2  1  0.79958400  0.31335400  0.31878000  1
  Tl  Tl3  1  0.51919600  0.00542600  0.31878000  1
  Tl  Tl4  1  0.00542600  0.79958400  0.31878000  1
  Tl  Tl5  1  0.31335400  0.51919600  0.31878000  1
  Tl  Tl6  1  0.20041600  0.68664600  0.68122000  1
  Tl  Tl7  1  0.48080400  0.99457400  0.68122000  1
  Tl  Tl8  1  0.99457400  0.20041600  0.68122000  1
  Tl  Tl9  1  0.68664600  0.48080400  0.68122000  1
  Te  Te10  1  0.23585700  0.23585700  0.47171400  1
  Te  Te11  1  0.76414300  0.76414300  0.52828600  1
  Te  Te12  1  0.84937900  0.32239200  0.00000000  1
  Te  Te13  1  0.15062100  0.67760800  0.00000000  1
  Te  Te14  1  0.67760800  0.84937900  0.00000000  1
  Te  Te15  1  0.32239200  0.15062100  0.00000000  1
