# generated using pymatgen
data_NaHoBO5
_symmetry_space_group_name_H-M   'P 1'
_cell_length_a   4.61369380
_cell_length_b   6.32361830
_cell_length_c   6.83108200
_cell_angle_alpha   90.00000000
_cell_angle_beta   90.00000000
_cell_angle_gamma   109.88741163
_symmetry_Int_Tables_number   1
_chemical_formula_structural   NaHoBO5
_chemical_formula_sum   'Na2 Ho2 B2 O10'
_cell_volume   187.41286313
_cell_formula_units_Z   2
loop_
 _symmetry_equiv_pos_site_id
 _symmetry_equiv_pos_as_xyz
  1  'x, y, z'
loop_
 _atom_site_type_symbol
 _atom_site_label
 _atom_site_symmetry_multiplicity
 _atom_site_fract_x
 _atom_site_fract_y
 _atom_site_fract_z
 _atom_site_occupancy
  Na  Na0  1  0.50000000  0.50000000  0.50000000  1
  Na  Na1  1  0.50000000  0.50000000  0.00000000  1
  Ho  Ho2  1  0.14624100  0.91595000  0.25000000  1
  Ho  Ho3  1  0.85375900  0.08405000  0.75000000  1
  B  B4  1  0.09484800  0.70499800  0.75000000  1
  B  B5  1  0.90515200  0.29500200  0.25000000  1
  O  O6  1  0.00990400  0.80515300  0.92567600  1
  O  O7  1  0.99009600  0.19484700  0.42567600  1
  O  O8  1  0.99009600  0.19484700  0.07432400  1
  O  O9  1  0.00990400  0.80515300  0.57432400  1
  O  O10  1  0.93102500  0.46298700  0.75000000  1
  O  O11  1  0.06897500  0.53701300  0.25000000  1
  O  O12  1  0.42472700  0.75772100  0.75000000  1
  O  O13  1  0.57527300  0.24227900  0.25000000  1
  O  O14  1  0.39653700  0.16211100  0.75000000  1
  O  O15  1  0.60346300  0.83788900  0.25000000  1
