# generated using pymatgen
data_Mg3Cr
_symmetry_space_group_name_H-M   'P 1'
_cell_length_a   6.18700208
_cell_length_b   6.18700208
_cell_length_c   4.98218400
_cell_angle_alpha   90.00000000
_cell_angle_beta   90.00000000
_cell_angle_gamma   120.00000088
_symmetry_Int_Tables_number   1
_chemical_formula_structural   Mg3Cr
_chemical_formula_sum   'Mg6 Cr2'
_cell_volume   165.16229725
_cell_formula_units_Z   2
loop_
 _symmetry_equiv_pos_site_id
 _symmetry_equiv_pos_as_xyz
  1  'x, y, z'
loop_
 _atom_site_type_symbol
 _atom_site_label
 _atom_site_symmetry_multiplicity
 _atom_site_fract_x
 _atom_site_fract_y
 _atom_site_fract_z
 _atom_site_occupancy
  Mg  Mg0  1  0.17080000  0.34159900  0.25000000  1
  Mg  Mg1  1  0.17080000  0.82920000  0.25000000  1
  Mg  Mg2  1  0.65840100  0.82920000  0.25000000  1
  Mg  Mg3  1  0.34159900  0.17080000  0.75000000  1
  Mg  Mg4  1  0.82920000  0.17080000  0.75000000  1
  Mg  Mg5  1  0.82920000  0.65840100  0.75000000  1
  Cr  Cr6  1  0.66666700  0.33333300  0.25000000  1
  Cr  Cr7  1  0.33333300  0.66666700  0.75000000  1
