# generated using pymatgen
data_Tl3Ge
_symmetry_space_group_name_H-M   'P 1'
_cell_length_a   5.46998324
_cell_length_b   5.46998324
_cell_length_c   5.46998324
_cell_angle_alpha   121.51385368
_cell_angle_beta   121.51385368
_cell_angle_gamma   87.39733676
_symmetry_Int_Tables_number   1
_chemical_formula_structural   Tl3Ge
_chemical_formula_sum   'Tl3 Ge1'
_cell_volume   112.95444790
_cell_formula_units_Z   1
loop_
 _symmetry_equiv_pos_site_id
 _symmetry_equiv_pos_as_xyz
  1  'x, y, z'
loop_
 _atom_site_type_symbol
 _atom_site_label
 _atom_site_symmetry_multiplicity
 _atom_site_fract_x
 _atom_site_fract_y
 _atom_site_fract_z
 _atom_site_occupancy
  Tl  Tl0  1  0.75000000  0.25000000  0.50000000  1
  Tl  Tl1  1  0.25000000  0.75000000  0.50000000  1
  Tl  Tl2  1  0.50000000  0.50000000  0.00000000  1
  Ge  Ge3  1  0.00000000  0.00000000  0.00000000  1
