# generated using pymatgen
data_YbZn3
_symmetry_space_group_name_H-M   'P 1'
_cell_length_a   6.21712149
_cell_length_b   6.21712149
_cell_length_c   4.64722200
_cell_angle_alpha   90.00000000
_cell_angle_beta   90.00000000
_cell_angle_gamma   119.99999456
_symmetry_Int_Tables_number   1
_chemical_formula_structural   YbZn3
_chemical_formula_sum   'Yb2 Zn6'
_cell_volume   155.56173668
_cell_formula_units_Z   2
loop_
 _symmetry_equiv_pos_site_id
 _symmetry_equiv_pos_as_xyz
  1  'x, y, z'
loop_
 _atom_site_type_symbol
 _atom_site_label
 _atom_site_symmetry_multiplicity
 _atom_site_fract_x
 _atom_site_fract_y
 _atom_site_fract_z
 _atom_site_occupancy
  Yb  Yb0  1  0.33333300  0.66666700  0.75000000  1
  Yb  Yb1  1  0.66666700  0.33333300  0.25000000  1
  Zn  Zn2  1  0.15036100  0.30072200  0.25000000  1
  Zn  Zn3  1  0.69927800  0.84963900  0.25000000  1
  Zn  Zn4  1  0.15036100  0.84963900  0.25000000  1
  Zn  Zn5  1  0.84963900  0.69927800  0.75000000  1
  Zn  Zn6  1  0.30072200  0.15036100  0.75000000  1
  Zn  Zn7  1  0.84963900  0.15036100  0.75000000  1
