# generated using pymatgen
data_YSeF
_symmetry_space_group_name_H-M   'P 1'
_cell_length_a   4.12511100
_cell_length_b   5.63954800
_cell_length_c   11.60169600
_cell_angle_alpha   90.00000000
_cell_angle_beta   90.00000000
_cell_angle_gamma   90.00000000
_symmetry_Int_Tables_number   1
_chemical_formula_structural   YSeF
_chemical_formula_sum   'Y4 Se4 F4'
_cell_volume   269.89908862
_cell_formula_units_Z   4
loop_
 _symmetry_equiv_pos_site_id
 _symmetry_equiv_pos_as_xyz
  1  'x, y, z'
loop_
 _atom_site_type_symbol
 _atom_site_label
 _atom_site_symmetry_multiplicity
 _atom_site_fract_x
 _atom_site_fract_y
 _atom_site_fract_z
 _atom_site_occupancy
  Y  Y0  1  0.75000000  0.98597100  0.35360300  1
  Y  Y1  1  0.75000000  0.51402900  0.85360300  1
  Y  Y2  1  0.25000000  0.48597100  0.14639700  1
  Y  Y3  1  0.25000000  0.01402900  0.64639700  1
  Se  Se4  1  0.75000000  0.48642700  0.33042400  1
  Se  Se5  1  0.75000000  0.01357300  0.83042400  1
  Se  Se6  1  0.25000000  0.98642700  0.16957600  1
  Se  Se7  1  0.25000000  0.51357300  0.66957600  1
  F  F8  1  0.75000000  0.47935300  0.05745500  1
  F  F9  1  0.75000000  0.02064700  0.55745500  1
  F  F10  1  0.25000000  0.52064700  0.94254500  1
  F  F11  1  0.25000000  0.97935300  0.44254500  1
