# generated using pymatgen
data_NaNd2RuO6
_symmetry_space_group_name_H-M   'P 1'
_cell_length_a   5.98083900
_cell_length_b   5.55287100
_cell_length_c   9.67637886
_cell_angle_alpha   55.96721349
_cell_angle_beta   90.00000000
_cell_angle_gamma   90.00000000
_symmetry_Int_Tables_number   1
_chemical_formula_structural   NaNd2RuO6
_chemical_formula_sum   'Na2 Nd4 Ru2 O12'
_cell_volume   266.31709386
_cell_formula_units_Z   2
loop_
 _symmetry_equiv_pos_site_id
 _symmetry_equiv_pos_as_xyz
  1  'x, y, z'
loop_
 _atom_site_type_symbol
 _atom_site_label
 _atom_site_symmetry_multiplicity
 _atom_site_fract_x
 _atom_site_fract_y
 _atom_site_fract_z
 _atom_site_occupancy
  Na  Na0  1  0.00000000  0.00000000  0.00000000  1
  Na  Na1  1  0.50000000  0.00000000  0.50000000  1
  Nd  Nd2  1  0.42743400  0.77592300  0.24587200  1
  Nd  Nd3  1  0.92743400  0.22407700  0.25412800  1
  Nd  Nd4  1  0.57256600  0.22407700  0.75412800  1
  Nd  Nd5  1  0.07256600  0.77592300  0.74587200  1
  Ru  Ru6  1  0.50000000  0.50000000  0.00000000  1
  Ru  Ru7  1  0.00000000  0.50000000  0.50000000  1
  O  O8  1  0.71937000  0.73586400  0.42826100  1
  O  O9  1  0.21937000  0.26413600  0.07173900  1
  O  O10  1  0.28063000  0.26413600  0.57173900  1
  O  O11  1  0.78063000  0.73586400  0.92826100  1
  O  O12  1  0.05290800  0.60679800  0.27001600  1
  O  O13  1  0.55290800  0.39320200  0.22998400  1
  O  O14  1  0.94709200  0.39320200  0.72998400  1
  O  O15  1  0.44709200  0.60679800  0.77001600  1
  O  O16  1  0.32684700  0.84476200  0.94751800  1
  O  O17  1  0.82684700  0.15523800  0.55248200  1
  O  O18  1  0.67315300  0.15523800  0.05248200  1
  O  O19  1  0.17315300  0.84476200  0.44751800  1
