# generated using pymatgen
data_H5SeNO3
_symmetry_space_group_name_H-M   'P 1'
_cell_length_a   5.16189851
_cell_length_b   6.04725071
_cell_length_c   6.96552044
_cell_angle_alpha   72.26886982
_cell_angle_beta   71.78730105
_cell_angle_gamma   88.05944445
_symmetry_Int_Tables_number   1
_chemical_formula_structural   H5SeNO3
_chemical_formula_sum   'H10 Se2 N2 O6'
_cell_volume   196.27436923
_cell_formula_units_Z   2
loop_
 _symmetry_equiv_pos_site_id
 _symmetry_equiv_pos_as_xyz
  1  'x, y, z'
loop_
 _atom_site_type_symbol
 _atom_site_label
 _atom_site_symmetry_multiplicity
 _atom_site_fract_x
 _atom_site_fract_y
 _atom_site_fract_z
 _atom_site_occupancy
  H  H0  1  0.80717600  0.96391400  0.73064700  1
  H  H1  1  0.19282400  0.03608600  0.26935300  1
  H  H2  1  0.61264700  0.71008800  0.82079500  1
  H  H3  1  0.38735300  0.28991200  0.17920500  1
  H  H4  1  0.71606300  0.85917000  0.55993100  1
  H  H5  1  0.28393700  0.14083000  0.44006900  1
  H  H6  1  0.47405900  0.96683200  0.73229200  1
  H  H7  1  0.52594100  0.03316800  0.26770800  1
  H  H8  1  0.74500300  0.40851100  0.54053200  1
  H  H9  1  0.25499700  0.59148900  0.45946800  1
  Se  Se10  1  0.94940900  0.66661400  0.18598100  1
  Se  Se11  1  0.05059100  0.33338600  0.81401900  1
  N  N12  1  0.65110400  0.87536000  0.71381300  1
  N  N13  1  0.34889600  0.12464000  0.28618700  1
  O  O14  1  0.84557000  0.89170400  0.28745100  1
  O  O15  1  0.15443000  0.10829600  0.71254900  1
  O  O16  1  0.76343300  0.40879700  0.39129600  1
  O  O17  1  0.23656700  0.59120300  0.60870400  1
  O  O18  1  0.27349300  0.63544500  0.19822900  1
  O  O19  1  0.72650700  0.36455500  0.80177100  1
