# generated using pymatgen
data_Mg5Ag
_symmetry_space_group_name_H-M   'P 1'
_cell_length_a   5.86761327
_cell_length_b   5.86761327
_cell_length_c   7.26668769
_cell_angle_alpha   75.89257581
_cell_angle_beta   75.89257581
_cell_angle_gamma   31.84531128
_symmetry_Int_Tables_number   1
_chemical_formula_structural   Mg5Ag
_chemical_formula_sum   'Mg5 Ag1'
_cell_volume   127.69333607
_cell_formula_units_Z   1
loop_
 _symmetry_equiv_pos_site_id
 _symmetry_equiv_pos_as_xyz
  1  'x, y, z'
loop_
 _atom_site_type_symbol
 _atom_site_label
 _atom_site_symmetry_multiplicity
 _atom_site_fract_x
 _atom_site_fract_y
 _atom_site_fract_z
 _atom_site_occupancy
  Mg  Mg0  1  0.00442500  0.00442500  0.01776600  1
  Mg  Mg1  1  0.28145700  0.28145700  0.94377200  1
  Mg  Mg2  1  0.66533800  0.66533800  0.67096200  1
  Mg  Mg3  1  0.95334000  0.95334000  0.58753000  1
  Mg  Mg4  1  0.31886800  0.31886800  0.33482500  1
  Ag  Ag5  1  0.60990200  0.60990200  0.27847500  1
