# generated using pymatgen
data_BaSO4
_symmetry_space_group_name_H-M   'P 1'
_cell_length_a   6.28510600
_cell_length_b   7.07575900
_cell_length_c   8.00693400
_cell_angle_alpha   90.00000000
_cell_angle_beta   90.00000000
_cell_angle_gamma   90.00000000
_symmetry_Int_Tables_number   1
_chemical_formula_structural   BaSO4
_chemical_formula_sum   'Ba4 S4 O16'
_cell_volume   356.08353089
_cell_formula_units_Z   4
loop_
 _symmetry_equiv_pos_site_id
 _symmetry_equiv_pos_as_xyz
  1  'x, y, z'
loop_
 _atom_site_type_symbol
 _atom_site_label
 _atom_site_symmetry_multiplicity
 _atom_site_fract_x
 _atom_site_fract_y
 _atom_site_fract_z
 _atom_site_occupancy
  Ba  Ba0  1  0.78129400  0.91662800  0.36526300  1
  Ba  Ba1  1  0.21870600  0.41662800  0.13473700  1
  Ba  Ba2  1  0.71870600  0.08337200  0.86526300  1
  Ba  Ba3  1  0.28129400  0.58337200  0.63473700  1
  S  S4  1  0.74378200  0.41418200  0.37700900  1
  S  S5  1  0.25621800  0.91418200  0.12299100  1
  S  S6  1  0.75621800  0.58581800  0.87700900  1
  S  S7  1  0.24378200  0.08581800  0.62299100  1
  O  O8  1  0.70143000  0.28829500  0.52058300  1
  O  O9  1  0.29857000  0.78829500  0.97941700  1
  O  O10  1  0.79857000  0.71170500  0.02058300  1
  O  O11  1  0.20143000  0.21170500  0.47941700  1
  O  O12  1  0.78966800  0.29848000  0.22516300  1
  O  O13  1  0.21033200  0.79848000  0.27483700  1
  O  O14  1  0.71033200  0.70152000  0.72516300  1
  O  O15  1  0.28966800  0.20152000  0.77483700  1
  O  O16  1  0.43086900  0.95831700  0.59370000  1
  O  O17  1  0.56913100  0.45831700  0.90630000  1
  O  O18  1  0.06913100  0.04168300  0.09370000  1
  O  O19  1  0.93086900  0.54168300  0.40630000  1
  O  O20  1  0.55331700  0.53937600  0.34750100  1
  O  O21  1  0.44668300  0.03937600  0.15249900  1
  O  O22  1  0.94668300  0.46062400  0.84750100  1
  O  O23  1  0.05331700  0.96062400  0.65249900  1
