# generated using pymatgen
data_UTlB5O11F
_symmetry_space_group_name_H-M   'P 1'
_cell_length_a   6.43576100
_cell_length_b   6.43998584
_cell_length_c   7.52378701
_cell_angle_alpha   88.02326011
_cell_angle_beta   73.18009350
_cell_angle_gamma   60.76535435
_symmetry_Int_Tables_number   1
_chemical_formula_structural   UTlB5O11F
_chemical_formula_sum   'U1 Tl1 B5 O11 F1'
_cell_volume   258.33312166
_cell_formula_units_Z   1
loop_
 _symmetry_equiv_pos_site_id
 _symmetry_equiv_pos_as_xyz
  1  'x, y, z'
loop_
 _atom_site_type_symbol
 _atom_site_label
 _atom_site_symmetry_multiplicity
 _atom_site_fract_x
 _atom_site_fract_y
 _atom_site_fract_z
 _atom_site_occupancy
  U  U0  1  0.37458000  0.42703900  0.88216500  1
  Tl  Tl1  1  0.03037300  0.84168600  0.41511300  1
  B  B2  1  0.48514800  0.89816800  0.27052600  1
  B  B3  1  0.03054500  0.10476900  0.88989200  1
  B  B4  1  0.82166500  0.85257800  0.99086500  1
  B  B5  1  0.81729800  0.52708400  0.80300900  1
  B  B6  1  0.43572000  0.92949800  0.95253700  1
  O  O7  1  0.23570400  0.12038800  0.88898800  1
  O  O8  1  0.83329200  0.29219200  0.84766500  1
  O  O9  1  0.03230600  0.89601000  0.93762000  1
  O  O10  1  0.28607200  0.47757000  0.13518300  1
  O  O11  1  0.54474400  0.68950700  0.85197700  1
  O  O12  1  0.93575000  0.59808000  0.90987300  1
  O  O13  1  0.46362800  0.37458100  0.63205000  1
  O  O14  1  0.38748100  0.87795900  0.45334000  1
  O  O15  1  0.71774100  0.88246300  0.19917600  1
  O  O16  1  0.34343300  0.92695700  0.15377400  1
  O  O17  1  0.62481200  0.00605000  0.90963800  1
  F  F18  1  0.93359900  0.50743100  0.60726000  1
