# generated using pymatgen
data_UNiS3
_symmetry_space_group_name_H-M   'P 1'
_cell_length_a   5.94591100
_cell_length_b   7.06100600
_cell_length_c   8.32895700
_cell_angle_alpha   90.00000000
_cell_angle_beta   90.00000000
_cell_angle_gamma   90.00000000
_symmetry_Int_Tables_number   1
_chemical_formula_structural   UNiS3
_chemical_formula_sum   'U4 Ni4 S12'
_cell_volume   349.68387391
_cell_formula_units_Z   4
loop_
 _symmetry_equiv_pos_site_id
 _symmetry_equiv_pos_as_xyz
  1  'x, y, z'
loop_
 _atom_site_type_symbol
 _atom_site_label
 _atom_site_symmetry_multiplicity
 _atom_site_fract_x
 _atom_site_fract_y
 _atom_site_fract_z
 _atom_site_occupancy
  U  U0  1  0.43630000  0.86740100  0.25000000  1
  U  U1  1  0.06370000  0.36740100  0.25000000  1
  U  U2  1  0.56370000  0.13259900  0.75000000  1
  U  U3  1  0.93630000  0.63259900  0.75000000  1
  Ni  Ni4  1  0.50000000  0.50000000  0.00000000  1
  Ni  Ni5  1  0.00000000  0.00000000  0.50000000  1
  Ni  Ni6  1  0.50000000  0.50000000  0.50000000  1
  Ni  Ni7  1  0.00000000  0.00000000  0.00000000  1
  S  S8  1  0.17189700  0.66665300  0.05236500  1
  S  S9  1  0.32810300  0.16665300  0.44763500  1
  S  S10  1  0.82810300  0.33334700  0.55236500  1
  S  S11  1  0.67189700  0.83334700  0.94763500  1
  S  S12  1  0.82810300  0.33334700  0.94763500  1
  S  S13  1  0.67189700  0.83334700  0.55236500  1
  S  S14  1  0.17189700  0.66665300  0.44763500  1
  S  S15  1  0.32810300  0.16665300  0.05236500  1
  S  S16  1  0.85240700  0.03746600  0.25000000  1
  S  S17  1  0.64759300  0.53746600  0.25000000  1
  S  S18  1  0.14759300  0.96253400  0.75000000  1
  S  S19  1  0.35240700  0.46253400  0.75000000  1
