# generated using pymatgen
data_Ce2Fe2S5
_symmetry_space_group_name_H-M   'P 1'
_cell_length_a   3.94286200
_cell_length_b   8.38718987
_cell_length_c   11.04639500
_cell_angle_alpha   90.00000000
_cell_angle_beta   90.00000000
_cell_angle_gamma   103.59472489
_symmetry_Int_Tables_number   1
_chemical_formula_structural   Ce2Fe2S5
_chemical_formula_sum   'Ce4 Fe4 S10'
_cell_volume   355.06440069
_cell_formula_units_Z   2
loop_
 _symmetry_equiv_pos_site_id
 _symmetry_equiv_pos_as_xyz
  1  'x, y, z'
loop_
 _atom_site_type_symbol
 _atom_site_label
 _atom_site_symmetry_multiplicity
 _atom_site_fract_x
 _atom_site_fract_y
 _atom_site_fract_z
 _atom_site_occupancy
  Ce  Ce0  1  0.61456600  0.22913200  0.56141200  1
  Ce  Ce1  1  0.38543400  0.77086800  0.06141200  1
  Ce  Ce2  1  0.61660400  0.23320800  0.94827800  1
  Ce  Ce3  1  0.38339600  0.76679200  0.44827800  1
  Fe  Fe4  1  0.73465600  0.46931200  0.75776700  1
  Fe  Fe5  1  0.26534400  0.53068800  0.25776700  1
  Fe  Fe6  1  0.90888500  0.81777100  0.73806300  1
  Fe  Fe7  1  0.09111500  0.18222900  0.23806300  1
  S  S8  1  0.80377600  0.60755200  0.58613900  1
  S  S9  1  0.19622400  0.39244800  0.08613900  1
  S  S10  1  0.81755400  0.63510900  0.91546600  1
  S  S11  1  0.18244600  0.36489100  0.41546600  1
  S  S12  1  0.16414700  0.32829500  0.75812100  1
  S  S13  1  0.83585300  0.67170500  0.25812100  1
  S  S14  1  0.99178000  0.98356000  0.54684400  1
  S  S15  1  0.00822000  0.01644000  0.04684400  1
  S  S16  1  0.47359000  0.94718000  0.80191200  1
  S  S17  1  0.52641000  0.05282000  0.30191200  1
