# generated using pymatgen
data_CN4Cl
_symmetry_space_group_name_H-M   'P 1'
_cell_length_a   13.62119900
_cell_length_b   6.33958500
_cell_length_c   8.30520903
_cell_angle_alpha   67.94232430
_cell_angle_beta   90.00000000
_cell_angle_gamma   90.00000000
_symmetry_Int_Tables_number   1
_chemical_formula_structural   CN4Cl
_chemical_formula_sum   'C4 N16 Cl4'
_cell_volume   664.68474087
_cell_formula_units_Z   4
loop_
 _symmetry_equiv_pos_site_id
 _symmetry_equiv_pos_as_xyz
  1  'x, y, z'
loop_
 _atom_site_type_symbol
 _atom_site_label
 _atom_site_symmetry_multiplicity
 _atom_site_fract_x
 _atom_site_fract_y
 _atom_site_fract_z
 _atom_site_occupancy
  C  C0  1  0.11497300  0.33932700  0.69469400  1
  C  C1  1  0.38502700  0.33932700  0.19469400  1
  C  C2  1  0.88502700  0.66067300  0.30530600  1
  C  C3  1  0.61497300  0.66067300  0.80530600  1
  N  N4  1  0.86512600  0.94695400  0.71983900  1
  N  N5  1  0.63487400  0.94695400  0.21983900  1
  N  N6  1  0.13487400  0.05304600  0.28016100  1
  N  N7  1  0.36512600  0.05304600  0.78016100  1
  N  N8  1  0.90175300  0.07082400  0.76631300  1
  N  N9  1  0.59824700  0.07082400  0.26631300  1
  N  N10  1  0.09824700  0.92917600  0.23368700  1
  N  N11  1  0.40175300  0.92917600  0.73368700  1
  N  N12  1  0.11089600  0.24528200  0.58900100  1
  N  N13  1  0.38910400  0.24528200  0.08900100  1
  N  N14  1  0.88910400  0.75471800  0.41099900  1
  N  N15  1  0.61089600  0.75471800  0.91099900  1
  N  N16  1  0.11934600  0.43562500  0.79883900  1
  N  N17  1  0.38065400  0.43562500  0.29883900  1
  N  N18  1  0.88065400  0.56437500  0.20116100  1
  N  N19  1  0.61934600  0.56437500  0.70116100  1
  Cl  Cl20  1  0.64379500  0.37319200  0.52334300  1
  Cl  Cl21  1  0.85620500  0.37319200  0.02334300  1
  Cl  Cl22  1  0.35620500  0.62680800  0.47665700  1
  Cl  Cl23  1  0.14379500  0.62680800  0.97665700  1
