# generated using pymatgen
data_ZnCu3H6(ClO3)2
_symmetry_space_group_name_H-M   'P 1'
_cell_length_a   6.15771648
_cell_length_b   6.15771648
_cell_length_c   6.15771611
_cell_angle_alpha   69.08901542
_cell_angle_beta   69.08901542
_cell_angle_gamma   69.08901429
_symmetry_Int_Tables_number   1
_chemical_formula_structural   ZnCu3H6(ClO3)2
_chemical_formula_sum   'Zn1 Cu3 H6 Cl2 O6'
_cell_volume   196.56690650
_cell_formula_units_Z   1
loop_
 _symmetry_equiv_pos_site_id
 _symmetry_equiv_pos_as_xyz
  1  'x, y, z'
loop_
 _atom_site_type_symbol
 _atom_site_label
 _atom_site_symmetry_multiplicity
 _atom_site_fract_x
 _atom_site_fract_y
 _atom_site_fract_z
 _atom_site_occupancy
  Zn  Zn0  1  0.50000000  0.50000000  0.50000000  1
  Cu  Cu1  1  0.50000000  0.50000000  0.00000000  1
  Cu  Cu2  1  0.50000000  0.00000000  0.50000000  1
  Cu  Cu3  1  0.00000000  0.50000000  0.50000000  1
  H  H4  1  0.17761100  0.77763300  0.77763300  1
  H  H5  1  0.77763300  0.77763300  0.17761100  1
  H  H6  1  0.77763300  0.17761100  0.77763300  1
  H  H7  1  0.82238900  0.22236700  0.22236700  1
  H  H8  1  0.22236700  0.22236700  0.82238900  1
  H  H9  1  0.22236700  0.82238900  0.22236700  1
  Cl  Cl10  1  0.81961300  0.81961300  0.81961300  1
  Cl  Cl11  1  0.18038700  0.18038700  0.18038700  1
  O  O12  1  0.35690500  0.73262300  0.73262300  1
  O  O13  1  0.73262300  0.73262300  0.35690500  1
  O  O14  1  0.73262300  0.35690500  0.73262300  1
  O  O15  1  0.64309500  0.26737700  0.26737700  1
  O  O16  1  0.26737700  0.26737700  0.64309500  1
  O  O17  1  0.26737700  0.64309500  0.26737700  1
