# generated using pymatgen
data_CsHo2Cu3Se5
_symmetry_space_group_name_H-M   'P 1'
_cell_length_a   7.62723441
_cell_length_b   7.62723441
_cell_length_c   17.35813700
_cell_angle_alpha   90.00000000
_cell_angle_beta   90.00000000
_cell_angle_gamma   148.39987928
_symmetry_Int_Tables_number   1
_chemical_formula_structural   CsHo2Cu3Se5
_chemical_formula_sum   'Cs2 Ho4 Cu6 Se10'
_cell_volume   529.12513485
_cell_formula_units_Z   2
loop_
 _symmetry_equiv_pos_site_id
 _symmetry_equiv_pos_as_xyz
  1  'x, y, z'
loop_
 _atom_site_type_symbol
 _atom_site_label
 _atom_site_symmetry_multiplicity
 _atom_site_fract_x
 _atom_site_fract_y
 _atom_site_fract_z
 _atom_site_occupancy
  Cs  Cs0  1  0.06110800  0.93889200  0.25000000  1
  Cs  Cs1  1  0.93889200  0.06110800  0.75000000  1
  Ho  Ho2  1  0.80730700  0.19269300  0.09104900  1
  Ho  Ho3  1  0.19269300  0.80730700  0.90895100  1
  Ho  Ho4  1  0.80730700  0.19269300  0.40895100  1
  Ho  Ho5  1  0.19269300  0.80730700  0.59104900  1
  Cu  Cu6  1  0.34323100  0.65676900  0.25000000  1
  Cu  Cu7  1  0.65676900  0.34323100  0.75000000  1
  Cu  Cu8  1  0.58287500  0.41712500  0.46747300  1
  Cu  Cu9  1  0.41712500  0.58287500  0.53252700  1
  Cu  Cu10  1  0.58287500  0.41712500  0.03252700  1
  Cu  Cu11  1  0.41712500  0.58287500  0.96747300  1
  Se  Se12  1  0.76282900  0.23717100  0.25000000  1
  Se  Se13  1  0.23717100  0.76282900  0.75000000  1
  Se  Se14  1  0.56195400  0.43804600  0.88854600  1
  Se  Se15  1  0.43804600  0.56195400  0.11145400  1
  Se  Se16  1  0.56195400  0.43804600  0.61145400  1
  Se  Se17  1  0.43804600  0.56195400  0.38854600  1
  Se  Se18  1  0.83069500  0.16930500  0.92967300  1
  Se  Se19  1  0.16930500  0.83069500  0.07032700  1
  Se  Se20  1  0.83069500  0.16930500  0.57032700  1
  Se  Se21  1  0.16930500  0.83069500  0.42967300  1
