# generated using pymatgen
data_Mg5Ge
_symmetry_space_group_name_H-M   'P 1'
_cell_length_a   5.84882734
_cell_length_b   5.84882734
_cell_length_c   7.45698322
_cell_angle_alpha   75.01667445
_cell_angle_beta   75.01667445
_cell_angle_gamma   32.09969359
_symmetry_Int_Tables_number   1
_chemical_formula_structural   Mg5Ge
_chemical_formula_sum   'Mg5 Ge1'
_cell_volume   130.55813036
_cell_formula_units_Z   1
loop_
 _symmetry_equiv_pos_site_id
 _symmetry_equiv_pos_as_xyz
  1  'x, y, z'
loop_
 _atom_site_type_symbol
 _atom_site_label
 _atom_site_symmetry_multiplicity
 _atom_site_fract_x
 _atom_site_fract_y
 _atom_site_fract_z
 _atom_site_occupancy
  Mg  Mg0  1  0.27929100  0.27929100  0.94684800  1
  Mg  Mg1  1  0.66755900  0.66755900  0.66937200  1
  Mg  Mg2  1  0.95260500  0.95260500  0.59124900  1
  Mg  Mg3  1  0.32188900  0.32188900  0.33344800  1
  Mg  Mg4  1  0.00272600  0.00272600  0.01291100  1
  Ge  Ge5  1  0.60926700  0.60926700  0.27950500  1
