# generated using pymatgen
data_K3(SeO4)2
_symmetry_space_group_name_H-M   'P 1'
_cell_length_a   8.17575357
_cell_length_b   8.17575357
_cell_length_c   10.27845892
_cell_angle_alpha   77.92407846
_cell_angle_beta   77.92407846
_cell_angle_gamma   42.98863105
_symmetry_Int_Tables_number   1
_chemical_formula_structural   K3(SeO4)2
_chemical_formula_sum   'K6 Se4 O16'
_cell_volume   456.46697751
_cell_formula_units_Z   2
loop_
 _symmetry_equiv_pos_site_id
 _symmetry_equiv_pos_as_xyz
  1  'x, y, z'
loop_
 _atom_site_type_symbol
 _atom_site_label
 _atom_site_symmetry_multiplicity
 _atom_site_fract_x
 _atom_site_fract_y
 _atom_site_fract_z
 _atom_site_occupancy
  K  K0  1  0.76288500  0.23711500  0.25000000  1
  K  K1  1  0.23711500  0.76288500  0.75000000  1
  K  K2  1  0.93035700  0.45901600  0.84844700  1
  K  K3  1  0.45901600  0.93035700  0.34844700  1
  K  K4  1  0.06964300  0.54098400  0.15155300  1
  K  K5  1  0.54098400  0.06964300  0.65155300  1
  Se  Se6  1  0.33875500  0.89026900  0.03773800  1
  Se  Se7  1  0.89026900  0.33875500  0.53773800  1
  Se  Se8  1  0.66124500  0.10973100  0.96226200  1
  Se  Se9  1  0.10973100  0.66124500  0.46226200  1
  O  O10  1  0.16595200  0.15137000  0.10122000  1
  O  O11  1  0.15137000  0.16595200  0.60122000  1
  O  O12  1  0.83404800  0.84863000  0.89878000  1
  O  O13  1  0.84863000  0.83404800  0.39878000  1
  O  O14  1  0.18376700  0.81643900  0.06588100  1
  O  O15  1  0.81643900  0.18376700  0.56588100  1
  O  O16  1  0.81623300  0.18356100  0.93411900  1
  O  O17  1  0.18356100  0.81623300  0.43411900  1
  O  O18  1  0.40361100  0.90604700  0.87378200  1
  O  O19  1  0.90604700  0.40361100  0.37378200  1
  O  O20  1  0.59638900  0.09395300  0.12621800  1
  O  O21  1  0.09395300  0.59638900  0.62621800  1
  O  O22  1  0.58819100  0.66629200  0.11765800  1
  O  O23  1  0.66629200  0.58819100  0.61765800  1
  O  O24  1  0.41180900  0.33370800  0.88234200  1
  O  O25  1  0.33370800  0.41180900  0.38234200  1
