# generated using pymatgen
data_P2PbO8
_symmetry_space_group_name_H-M   'P 1'
_cell_length_a   6.11157300
_cell_length_b   7.70146257
_cell_length_c   8.40300554
_cell_angle_alpha   110.10723940
_cell_angle_beta   109.44294671
_cell_angle_gamma   93.85557156
_symmetry_Int_Tables_number   1
_chemical_formula_structural   P2PbO8
_chemical_formula_sum   'P4 Pb2 O16'
_cell_volume   342.77652017
_cell_formula_units_Z   2
loop_
 _symmetry_equiv_pos_site_id
 _symmetry_equiv_pos_as_xyz
  1  'x, y, z'
loop_
 _atom_site_type_symbol
 _atom_site_label
 _atom_site_symmetry_multiplicity
 _atom_site_fract_x
 _atom_site_fract_y
 _atom_site_fract_z
 _atom_site_occupancy
  P  P0  1  0.00101200  0.75471100  0.64923000  1
  P  P1  1  0.99898800  0.24528900  0.35077000  1
  P  P2  1  0.66906500  0.22762000  0.81146100  1
  P  P3  1  0.33093500  0.77238000  0.18853900  1
  Pb  Pb4  1  0.32167700  0.21532600  0.08557300  1
  Pb  Pb5  1  0.67832300  0.78467400  0.91442700  1
  O  O6  1  0.78715100  0.60898700  0.61791300  1
  O  O7  1  0.21284900  0.39101300  0.38208700  1
  O  O8  1  0.93789800  0.79374100  0.47188600  1
  O  O9  1  0.06210200  0.20625900  0.52811400  1
  O  O10  1  0.02259000  0.92664700  0.81996800  1
  O  O11  1  0.97741000  0.07335300  0.18003200  1
  O  O12  1  0.23311300  0.68117100  0.67827400  1
  O  O13  1  0.76688700  0.31882900  0.32172600  1
  O  O14  1  0.93711900  0.30218600  0.92378200  1
  O  O15  1  0.06288100  0.69781400  0.07621800  1
  O  O16  1  0.54490000  0.39761200  0.83212300  1
  O  O17  1  0.45510000  0.60238800  0.16787700  1
  O  O18  1  0.64182200  0.14183500  0.60632200  1
  O  O19  1  0.35817800  0.85816500  0.39367800  1
  O  O20  1  0.55455600  0.08527400  0.86739900  1
  O  O21  1  0.44544400  0.91472600  0.13260100  1
