# generated using pymatgen
data_Cr2FeO4
_symmetry_space_group_name_H-M   'P 1'
_cell_length_a   3.03231500
_cell_length_b   9.26104700
_cell_length_c   10.80390900
_cell_angle_alpha   90.00020505
_cell_angle_beta   90.00006430
_cell_angle_gamma   90.00237858
_symmetry_Int_Tables_number   1
_chemical_formula_structural   Cr2FeO4
_chemical_formula_sum   'Cr8 Fe4 O16'
_cell_volume   303.39982074
_cell_formula_units_Z   4
loop_
 _symmetry_equiv_pos_site_id
 _symmetry_equiv_pos_as_xyz
  1  'x, y, z'
loop_
 _atom_site_type_symbol
 _atom_site_label
 _atom_site_symmetry_multiplicity
 _atom_site_fract_x
 _atom_site_fract_y
 _atom_site_fract_z
 _atom_site_occupancy
  Cr  Cr0  1  0.75004400  0.95005400  0.38302200  1
  Cr  Cr1  1  0.25003800  0.54994400  0.88302100  1
  Cr  Cr2  1  0.74999200  0.90722700  0.90419600  1
  Cr  Cr3  1  0.24998400  0.59277300  0.40419900  1
  Cr  Cr4  1  0.74995800  0.45005000  0.11697700  1
  Cr  Cr5  1  0.24998200  0.04995300  0.61698600  1
  Cr  Cr6  1  0.74998700  0.40720500  0.59580400  1
  Cr  Cr7  1  0.24999500  0.09279000  0.09580900  1
  Fe  Fe8  1  0.75000400  0.24600300  0.82903400  1
  Fe  Fe9  1  0.24997200  0.25399500  0.32902800  1
  Fe  Fe10  1  0.75005400  0.74598300  0.67096500  1
  Fe  Fe11  1  0.25002200  0.75402000  0.17096900  1
  O  O12  1  0.74999700  0.19145000  0.65387500  1
  O  O13  1  0.75006400  0.69146100  0.84611200  1
  O  O14  1  0.25003200  0.80854300  0.34611900  1
  O  O15  1  0.24994500  0.30854800  0.15387600  1
  O  O16  1  0.75000100  0.11265200  0.97124300  1
  O  O17  1  0.74997600  0.61261500  0.52875500  1
  O  O18  1  0.24999400  0.88737900  0.02874800  1
  O  O19  1  0.24997500  0.38734800  0.47124300  1
  O  O20  1  0.75000600  0.05184400  0.21574400  1
  O  O21  1  0.74998700  0.55182800  0.28426400  1
  O  O22  1  0.24997000  0.94817700  0.78426400  1
  O  O23  1  0.24999800  0.44814900  0.71573900  1
  O  O24  1  0.75000800  0.41785100  0.93267400  1
  O  O25  1  0.74996800  0.91786000  0.56732900  1
  O  O26  1  0.24996800  0.58214400  0.06732200  1
  O  O27  1  0.25008000  0.08215500  0.43268300  1
