# generated using pymatgen
data_Rb2As2Se6O
_symmetry_space_group_name_H-M   'P 1'
_cell_length_a   11.69505063
_cell_length_b   11.69505063
_cell_length_c   12.23817008
_cell_angle_alpha   59.86683484
_cell_angle_beta   59.86683484
_cell_angle_gamma   28.19607112
_symmetry_Int_Tables_number   1
_chemical_formula_structural   Rb2As2Se6O
_chemical_formula_sum   'Rb4 As4 Se12 O2'
_cell_volume   676.69894713
_cell_formula_units_Z   2
loop_
 _symmetry_equiv_pos_site_id
 _symmetry_equiv_pos_as_xyz
  1  'x, y, z'
loop_
 _atom_site_type_symbol
 _atom_site_label
 _atom_site_symmetry_multiplicity
 _atom_site_fract_x
 _atom_site_fract_y
 _atom_site_fract_z
 _atom_site_occupancy
  Rb  Rb0  1  0.56271300  0.59499100  0.55128500  1
  Rb  Rb1  1  0.40500900  0.43728700  0.94871500  1
  Rb  Rb2  1  0.43728700  0.40500900  0.44871500  1
  Rb  Rb3  1  0.59499100  0.56271300  0.05128500  1
  As  As4  1  0.14012100  0.22055400  0.21469300  1
  As  As5  1  0.77944600  0.85987900  0.28530700  1
  As  As6  1  0.85987900  0.77944600  0.78530700  1
  As  As7  1  0.22055400  0.14012100  0.71469300  1
  Se  Se8  1  0.71738900  0.65223600  0.18656600  1
  Se  Se9  1  0.34776400  0.28261100  0.31343400  1
  Se  Se10  1  0.28261100  0.34776400  0.81343400  1
  Se  Se11  1  0.65223600  0.71738900  0.68656600  1
  Se  Se12  1  0.17479900  0.21031200  0.40476200  1
  Se  Se13  1  0.78968800  0.82520100  0.09523800  1
  Se  Se14  1  0.82520100  0.78968800  0.59523800  1
  Se  Se15  1  0.21031200  0.17479900  0.90476200  1
  Se  Se16  1  0.03406300  0.07604100  0.32257200  1
  Se  Se17  1  0.92395900  0.96593700  0.17742800  1
  Se  Se18  1  0.96593700  0.92395900  0.67742800  1
  Se  Se19  1  0.07604100  0.03406300  0.82257200  1
  O  O20  1  0.87685200  0.12314800  0.75000000  1
  O  O21  1  0.12314800  0.87685200  0.25000000  1
