# generated using pymatgen
data_Mg5Ge
_symmetry_space_group_name_H-M   'P 1'
_cell_length_a   5.96410886
_cell_length_b   5.96410886
_cell_length_c   5.96410918
_cell_angle_alpha   53.98696388
_cell_angle_beta   53.98696388
_cell_angle_gamma   53.98695942
_symmetry_Int_Tables_number   1
_chemical_formula_structural   Mg5Ge
_chemical_formula_sum   'Mg5 Ge1'
_cell_volume   128.94056789
_cell_formula_units_Z   1
loop_
 _symmetry_equiv_pos_site_id
 _symmetry_equiv_pos_as_xyz
  1  'x, y, z'
loop_
 _atom_site_type_symbol
 _atom_site_label
 _atom_site_symmetry_multiplicity
 _atom_site_fract_x
 _atom_site_fract_y
 _atom_site_fract_z
 _atom_site_occupancy
  Mg  Mg0  1  0.16115500  0.83884500  0.50000000  1
  Mg  Mg1  1  0.50000000  0.16115500  0.83884500  1
  Mg  Mg2  1  0.83884500  0.50000000  0.16115500  1
  Mg  Mg3  1  0.33289200  0.33289200  0.33289200  1
  Mg  Mg4  1  0.66710800  0.66710800  0.66710800  1
  Ge  Ge5  1  0.00000000  0.00000000  0.00000000  1
