# generated using pymatgen
data_TaSe3
_symmetry_space_group_name_H-M   'P 1'
_cell_length_a   3.52123800
_cell_length_b   10.48923400
_cell_length_c   15.81748251
_cell_angle_alpha   70.73431052
_cell_angle_beta   90.00000000
_cell_angle_gamma   90.00000000
_symmetry_Int_Tables_number   1
_chemical_formula_structural   TaSe3
_chemical_formula_sum   'Ta6 Se18'
_cell_volume   551.50304578
_cell_formula_units_Z   6
loop_
 _symmetry_equiv_pos_site_id
 _symmetry_equiv_pos_as_xyz
  1  'x, y, z'
loop_
 _atom_site_type_symbol
 _atom_site_label
 _atom_site_symmetry_multiplicity
 _atom_site_fract_x
 _atom_site_fract_y
 _atom_site_fract_z
 _atom_site_occupancy
  Ta  Ta0  1  0.25000000  0.46819700  0.88371300  1
  Ta  Ta1  1  0.75000000  0.53180300  0.11628700  1
  Ta  Ta2  1  0.75000000  0.88306300  0.79259800  1
  Ta  Ta3  1  0.25000000  0.11693700  0.20740200  1
  Ta  Ta4  1  0.25000000  0.15973200  0.53953900  1
  Ta  Ta5  1  0.75000000  0.84026800  0.46046100  1
  Se  Se6  1  0.75000000  0.62150000  0.93224300  1
  Se  Se7  1  0.25000000  0.37850000  0.06775700  1
  Se  Se8  1  0.75000000  0.26428200  0.91858100  1
  Se  Se9  1  0.25000000  0.73571800  0.08141900  1
  Se  Se10  1  0.75000000  0.44406900  0.76458600  1
  Se  Se11  1  0.25000000  0.55593100  0.23541400  1
  Se  Se12  1  0.25000000  0.90989200  0.91093600  1
  Se  Se13  1  0.75000000  0.09010800  0.08906400  1
  Se  Se14  1  0.25000000  0.08306800  0.72378300  1
  Se  Se15  1  0.75000000  0.91693200  0.27621700  1
  Se  Se16  1  0.25000000  0.72220200  0.75196300  1
  Se  Se17  1  0.75000000  0.27779800  0.24803700  1
  Se  Se18  1  0.75000000  0.32655600  0.57558100  1
  Se  Se19  1  0.25000000  0.67344400  0.42441900  1
  Se  Se20  1  0.75000000  0.96096500  0.59354200  1
  Se  Se21  1  0.25000000  0.03903500  0.40645800  1
  Se  Se22  1  0.75000000  0.31642400  0.42430700  1
  Se  Se23  1  0.25000000  0.68357600  0.57569300  1
