# generated using pymatgen
data_U2CuSi2O17
_symmetry_space_group_name_H-M   'P 1'
_cell_length_a   6.79740300
_cell_length_b   7.04881175
_cell_length_c   7.85886743
_cell_angle_alpha   73.03481718
_cell_angle_beta   71.55379303
_cell_angle_gamma   86.39993119
_symmetry_Int_Tables_number   1
_chemical_formula_structural   U2CuSi2O17
_chemical_formula_sum   'U2 Cu1 Si2 O17'
_cell_volume   341.47459680
_cell_formula_units_Z   1
loop_
 _symmetry_equiv_pos_site_id
 _symmetry_equiv_pos_as_xyz
  1  'x, y, z'
loop_
 _atom_site_type_symbol
 _atom_site_label
 _atom_site_symmetry_multiplicity
 _atom_site_fract_x
 _atom_site_fract_y
 _atom_site_fract_z
 _atom_site_occupancy
  U  U0  1  0.63741300  0.24138500  0.00023500  1
  U  U1  1  0.36258700  0.75861500  0.99976500  1
  Cu  Cu2  1  0.00000000  0.50000000  0.50000000  1
  Si  Si3  1  0.85084200  0.74926400  0.93938100  1
  Si  Si4  1  0.14915800  0.25073600  0.06061900  1
  O  O5  1  0.69197200  0.33535100  0.74792300  1
  O  O6  1  0.30802800  0.66464900  0.25207700  1
  O  O7  1  0.43079500  0.86318200  0.73604900  1
  O  O8  1  0.56920500  0.13681800  0.26395100  1
  O  O9  1  0.68246900  0.56795700  0.99767200  1
  O  O10  1  0.31753100  0.43204300  0.00232800  1
  O  O11  1  0.69800900  0.93511500  0.94738200  1
  O  O12  1  0.30199100  0.06488500  0.05261800  1
  O  O13  1  0.01726500  0.74756700  0.71650100  1
  O  O14  1  0.98273500  0.25243300  0.28349900  1
  O  O15  1  0.03023000  0.74214000  0.03330200  1
  O  O16  1  0.96977000  0.25786000  0.96669800  1
  O  O17  1  0.17809800  0.40323800  0.62174400  1
  O  O18  1  0.82190200  0.59676200  0.37825600  1
  O  O19  1  0.07032700  0.26796200  0.41153300  1
  O  O20  1  0.92967300  0.73203800  0.58846700  1
  O  O21  1  0.50000000  0.00000000  0.50000000  1
