# generated using pymatgen
data_MgH12(NO)6
_symmetry_space_group_name_H-M   'P 1'
_cell_length_a   6.65071400
_cell_length_b   6.57347326
_cell_length_c   7.41105286
_cell_angle_alpha   76.88022826
_cell_angle_beta   63.33954005
_cell_angle_gamma   59.61053370
_symmetry_Int_Tables_number   1
_chemical_formula_structural   MgH12(NO)6
_chemical_formula_sum   'Mg1 H12 N6 O6'
_cell_volume   249.76900996
_cell_formula_units_Z   1
loop_
 _symmetry_equiv_pos_site_id
 _symmetry_equiv_pos_as_xyz
  1  'x, y, z'
loop_
 _atom_site_type_symbol
 _atom_site_label
 _atom_site_symmetry_multiplicity
 _atom_site_fract_x
 _atom_site_fract_y
 _atom_site_fract_z
 _atom_site_occupancy
  Mg  Mg0  1  0.50000000  0.00000000  0.00000000  1
  H  H1  1  0.66873600  0.54019000  0.12233800  1
  H  H2  1  0.33126400  0.45981000  0.87766200  1
  H  H3  1  0.79107400  0.54019000  0.87766200  1
  H  H4  1  0.20892600  0.45981000  0.12233800  1
  H  H5  1  0.00711400  0.86200400  0.72958200  1
  H  H6  1  0.59870000  0.13799600  0.27041800  1
  H  H7  1  0.13088100  0.86200400  0.27041800  1
  H  H8  1  0.26330400  0.13799600  0.72958200  1
  H  H9  1  0.99288600  0.13799600  0.27041800  1
  H  H10  1  0.40130000  0.86200400  0.72958200  1
  H  H11  1  0.86911900  0.13799600  0.72958200  1
  H  H12  1  0.73669600  0.86200400  0.27041800  1
  N  N13  1  0.36774800  0.61557200  0.64893200  1
  N  N14  1  0.63225200  0.38442800  0.35106800  1
  N  N15  1  0.01668000  0.61557200  0.35106800  1
  N  N16  1  0.98332000  0.38442800  0.64893200  1
  N  N17  1  0.50000000  0.50000000  0.50000000  1
  N  N18  1  0.00000000  0.50000000  0.50000000  1
  O  O19  1  0.67874000  0.64252100  0.00000000  1
  O  O20  1  0.32126000  0.35747900  0.00000000  1
  O  O21  1  0.39365400  0.00000000  0.76887100  1
  O  O22  1  0.16252500  0.00000000  0.23112900  1
  O  O23  1  0.60634600  0.00000000  0.23112900  1
  O  O24  1  0.83747500  0.00000000  0.76887100  1
