# generated using pymatgen
data_Mg5In
_symmetry_space_group_name_H-M   'P 1'
_cell_length_a   6.13750826
_cell_length_b   6.13750826
_cell_length_c   7.52103111
_cell_angle_alpha   75.38504163
_cell_angle_beta   75.38504163
_cell_angle_gamma   30.48325585
_symmetry_Int_Tables_number   1
_chemical_formula_structural   Mg5In
_chemical_formula_sum   'Mg5 In1'
_cell_volume   138.71749738
_cell_formula_units_Z   1
loop_
 _symmetry_equiv_pos_site_id
 _symmetry_equiv_pos_as_xyz
  1  'x, y, z'
loop_
 _atom_site_type_symbol
 _atom_site_label
 _atom_site_symmetry_multiplicity
 _atom_site_fract_x
 _atom_site_fract_y
 _atom_site_fract_z
 _atom_site_occupancy
  Mg  Mg0  1  0.99934200  0.99934200  0.99809100  1
  Mg  Mg1  1  0.27874700  0.27874700  0.94317700  1
  Mg  Mg2  1  0.66771700  0.66771700  0.66825700  1
  Mg  Mg3  1  0.94402000  0.94402000  0.61151300  1
  Mg  Mg4  1  0.33290800  0.33290800  0.33371200  1
  In  In5  1  0.61059600  0.61059600  0.27858300  1
