# generated using pymatgen
data_RbMg(BrO2)3
_symmetry_space_group_name_H-M   'P 1'
_cell_length_a   7.09440649
_cell_length_b   7.09440649
_cell_length_c   14.41197495
_cell_angle_alpha   53.21491253
_cell_angle_beta   53.21491253
_cell_angle_gamma   63.42303954
_symmetry_Int_Tables_number   1
_chemical_formula_structural   RbMg(BrO2)3
_chemical_formula_sum   'Rb2 Mg2 Br6 O12'
_cell_volume   460.78057962
_cell_formula_units_Z   2
loop_
 _symmetry_equiv_pos_site_id
 _symmetry_equiv_pos_as_xyz
  1  'x, y, z'
loop_
 _atom_site_type_symbol
 _atom_site_label
 _atom_site_symmetry_multiplicity
 _atom_site_fract_x
 _atom_site_fract_y
 _atom_site_fract_z
 _atom_site_occupancy
  Rb  Rb0  1  0.69036000  0.30964000  0.75000000  1
  Rb  Rb1  1  0.30964000  0.69036000  0.25000000  1
  Mg  Mg2  1  0.00000000  0.00000000  0.00000000  1
  Mg  Mg3  1  0.00000000  0.00000000  0.50000000  1
  Br  Br4  1  0.50000000  0.50000000  0.00000000  1
  Br  Br5  1  0.50000000  0.50000000  0.50000000  1
  Br  Br6  1  0.53702200  0.89196300  0.71777100  1
  Br  Br7  1  0.10803700  0.46297700  0.78222900  1
  Br  Br8  1  0.46297700  0.10803700  0.28222900  1
  Br  Br9  1  0.89196300  0.53702200  0.21777100  1
  O  O10  1  0.34982500  0.83117500  0.92855500  1
  O  O11  1  0.16882500  0.65017500  0.57144500  1
  O  O12  1  0.65017500  0.16882500  0.07144500  1
  O  O13  1  0.83117500  0.34982500  0.42855500  1
  O  O14  1  0.12406600  0.30532600  0.93115800  1
  O  O15  1  0.69467400  0.87593400  0.56884200  1
  O  O16  1  0.87593400  0.69467400  0.06884200  1
  O  O17  1  0.30532600  0.12406600  0.43115800  1
  O  O18  1  0.21963100  0.05663800  0.30109200  1
  O  O19  1  0.94336200  0.78036900  0.19890800  1
  O  O20  1  0.78036900  0.94336200  0.69890800  1
  O  O21  1  0.05663800  0.21963100  0.80109200  1
