# generated using pymatgen
data_Fe5HO8
_symmetry_space_group_name_H-M   'P 1'
_cell_length_a   5.96345365
_cell_length_b   5.96345365
_cell_length_c   9.26779700
_cell_angle_alpha   90.00000000
_cell_angle_beta   90.00000000
_cell_angle_gamma   120.00494408
_symmetry_Int_Tables_number   1
_chemical_formula_structural   Fe5HO8
_chemical_formula_sum   'Fe10 H2 O16'
_cell_volume   285.41789723
_cell_formula_units_Z   2
loop_
 _symmetry_equiv_pos_site_id
 _symmetry_equiv_pos_as_xyz
  1  'x, y, z'
loop_
 _atom_site_type_symbol
 _atom_site_label
 _atom_site_symmetry_multiplicity
 _atom_site_fract_x
 _atom_site_fract_y
 _atom_site_fract_z
 _atom_site_occupancy
  Fe  Fe0  1  0.16669000  0.83331000  0.12896000  1
  Fe  Fe1  1  0.16698500  0.33337100  0.13457400  1
  Fe  Fe2  1  0.66662900  0.83301500  0.13457400  1
  Fe  Fe3  1  0.83331000  0.16669000  0.62896000  1
  Fe  Fe4  1  0.83301500  0.66662900  0.63457400  1
  Fe  Fe5  1  0.33337100  0.16698500  0.63457400  1
  Fe  Fe6  1  0.33269000  0.66731000  0.84117300  1
  Fe  Fe7  1  0.66731000  0.33269000  0.34117300  1
  Fe  Fe8  1  0.33322100  0.66677900  0.45604500  1
  Fe  Fe9  1  0.66677900  0.33322100  0.95604500  1
  H  H10  1  0.00255200  0.99744800  0.90663200  1
  H  H11  1  0.99744800  0.00255200  0.40663200  1
  O  O12  1  0.99785900  0.00214100  0.51299600  1
  O  O13  1  0.00214100  0.99785900  0.01299600  1
  O  O14  1  0.33094600  0.66905400  0.24729700  1
  O  O15  1  0.66905400  0.33094600  0.74729700  1
  O  O16  1  0.16568800  0.83431200  0.73769400  1
  O  O17  1  0.15580900  0.32774300  0.73521100  1
  O  O18  1  0.67225700  0.84419100  0.73521100  1
  O  O19  1  0.83431200  0.16568800  0.23769400  1
  O  O20  1  0.84419100  0.67225700  0.23521100  1
  O  O21  1  0.32774300  0.15580900  0.23521100  1
  O  O22  1  0.51468600  0.48531400  0.49637800  1
  O  O23  1  0.52155700  0.03152300  0.50147700  1
  O  O24  1  0.96847700  0.47844300  0.50147700  1
  O  O25  1  0.48531400  0.51468600  0.99637800  1
  O  O26  1  0.47844300  0.96847700  0.00147700  1
  O  O27  1  0.03152300  0.52155700  0.00147700  1
