# generated using pymatgen
data_Sr2SnO4
_symmetry_space_group_name_H-M   'P 1'
_cell_length_a   5.81785700
_cell_length_b   5.88411800
_cell_length_c   12.63535100
_cell_angle_alpha   90.00000000
_cell_angle_beta   90.00000000
_cell_angle_gamma   90.00000000
_symmetry_Int_Tables_number   1
_chemical_formula_structural   Sr2SnO4
_chemical_formula_sum   'Sr8 Sn4 O16'
_cell_volume   432.54542866
_cell_formula_units_Z   4
loop_
 _symmetry_equiv_pos_site_id
 _symmetry_equiv_pos_as_xyz
  1  'x, y, z'
loop_
 _atom_site_type_symbol
 _atom_site_label
 _atom_site_symmetry_multiplicity
 _atom_site_fract_x
 _atom_site_fract_y
 _atom_site_fract_z
 _atom_site_occupancy
  Sr  Sr0  1  0.00802300  0.01155500  0.35289900  1
  Sr  Sr1  1  0.49197700  0.48844500  0.35289900  1
  Sr  Sr2  1  0.99197700  0.51155500  0.14710100  1
  Sr  Sr3  1  0.50802300  0.98844500  0.14710100  1
  Sr  Sr4  1  0.99197700  0.98844500  0.64710100  1
  Sr  Sr5  1  0.50802300  0.51155500  0.64710100  1
  Sr  Sr6  1  0.00802300  0.48844500  0.85289900  1
  Sr  Sr7  1  0.49197700  0.01155500  0.85289900  1
  Sn  Sn8  1  0.00000000  0.00000000  0.00000000  1
  Sn  Sn9  1  0.50000000  0.50000000  0.00000000  1
  Sn  Sn10  1  0.00000000  0.50000000  0.50000000  1
  Sn  Sn11  1  0.50000000  0.00000000  0.50000000  1
  O  O12  1  0.98760100  0.95090500  0.16341000  1
  O  O13  1  0.51239900  0.54909500  0.16341000  1
  O  O14  1  0.01239900  0.45090500  0.33659000  1
  O  O15  1  0.48760100  0.04909500  0.33659000  1
  O  O16  1  0.01239900  0.04909500  0.83659000  1
  O  O17  1  0.48760100  0.45090500  0.83659000  1
  O  O18  1  0.98760100  0.54909500  0.66341000  1
  O  O19  1  0.51239900  0.95090500  0.66341000  1
  O  O20  1  0.25000000  0.25000000  0.02182500  1
  O  O21  1  0.75000000  0.75000000  0.47817500  1
  O  O22  1  0.75000000  0.75000000  0.97817500  1
  O  O23  1  0.25000000  0.25000000  0.52182500  1
  O  O24  1  0.75000000  0.25000000  0.01439000  1
  O  O25  1  0.25000000  0.75000000  0.48561000  1
  O  O26  1  0.25000000  0.75000000  0.98561000  1
  O  O27  1  0.75000000  0.25000000  0.51439000  1
