# generated using pymatgen
data_Dy6Cu23
_symmetry_space_group_name_H-M   'P 1'
_cell_length_a   8.58300212
_cell_length_b   8.58300212
_cell_length_c   8.58300212
_cell_angle_alpha   60.00000000
_cell_angle_beta   60.00000000
_cell_angle_gamma   60.00000000
_symmetry_Int_Tables_number   1
_chemical_formula_structural   Dy6Cu23
_chemical_formula_sum   'Dy6 Cu23'
_cell_volume   447.09793203
_cell_formula_units_Z   1
loop_
 _symmetry_equiv_pos_site_id
 _symmetry_equiv_pos_as_xyz
  1  'x, y, z'
loop_
 _atom_site_type_symbol
 _atom_site_label
 _atom_site_symmetry_multiplicity
 _atom_site_fract_x
 _atom_site_fract_y
 _atom_site_fract_z
 _atom_site_occupancy
  Dy  Dy0  1  0.71377900  0.71377900  0.28622100  1
  Dy  Dy1  1  0.28622100  0.71377900  0.28622100  1
  Dy  Dy2  1  0.71377900  0.28622100  0.28622100  1
  Dy  Dy3  1  0.28622100  0.28622100  0.71377900  1
  Dy  Dy4  1  0.71377900  0.28622100  0.71377900  1
  Dy  Dy5  1  0.28622100  0.71377900  0.71377900  1
  Cu  Cu6  1  0.00000000  0.00000000  0.00000000  1
  Cu  Cu7  1  0.00000000  0.00000000  0.50000000  1
  Cu  Cu8  1  0.50000000  0.00000000  0.50000000  1
  Cu  Cu9  1  0.00000000  0.50000000  0.50000000  1
  Cu  Cu10  1  0.50000000  0.50000000  0.00000000  1
  Cu  Cu11  1  0.00000000  0.50000000  0.00000000  1
  Cu  Cu12  1  0.50000000  0.00000000  0.00000000  1
  Cu  Cu13  1  0.87832600  0.87832600  0.36502100  1
  Cu  Cu14  1  0.87832600  0.36502100  0.87832600  1
  Cu  Cu15  1  0.36502100  0.87832600  0.87832600  1
  Cu  Cu16  1  0.87832600  0.87832600  0.87832600  1
  Cu  Cu17  1  0.12167400  0.12167400  0.63497900  1
  Cu  Cu18  1  0.12167400  0.63497900  0.12167400  1
  Cu  Cu19  1  0.63497900  0.12167400  0.12167400  1
  Cu  Cu20  1  0.12167400  0.12167400  0.12167400  1
  Cu  Cu21  1  0.67283000  0.67283000  0.98151000  1
  Cu  Cu22  1  0.67283000  0.98151000  0.67283000  1
  Cu  Cu23  1  0.98151000  0.67283000  0.67283000  1
  Cu  Cu24  1  0.67283000  0.67283000  0.67283000  1
  Cu  Cu25  1  0.32717000  0.32717000  0.01849000  1
  Cu  Cu26  1  0.32717000  0.01849000  0.32717000  1
  Cu  Cu27  1  0.01849000  0.32717000  0.32717000  1
  Cu  Cu28  1  0.32717000  0.32717000  0.32717000  1
