# generated using pymatgen
data_KFe3H6(SO7)2
_symmetry_space_group_name_H-M   'P 1'
_cell_length_a   7.29195042
_cell_length_b   7.29195042
_cell_length_c   7.29195118
_cell_angle_alpha   61.12404566
_cell_angle_beta   61.12404566
_cell_angle_gamma   61.12405060
_symmetry_Int_Tables_number   1
_chemical_formula_structural   KFe3H6(SO7)2
_chemical_formula_sum   'K1 Fe3 H6 S2 O14'
_cell_volume   281.10343040
_cell_formula_units_Z   1
loop_
 _symmetry_equiv_pos_site_id
 _symmetry_equiv_pos_as_xyz
  1  'x, y, z'
loop_
 _atom_site_type_symbol
 _atom_site_label
 _atom_site_symmetry_multiplicity
 _atom_site_fract_x
 _atom_site_fract_y
 _atom_site_fract_z
 _atom_site_occupancy
  K  K0  1  0.00000000  0.00000000  0.00000000  1
  Fe  Fe1  1  0.00000000  0.00000000  0.50000000  1
  Fe  Fe2  1  0.50000000  0.00000000  0.00000000  1
  Fe  Fe3  1  0.00000000  0.50000000  0.00000000  1
  H  H4  1  0.69344300  0.28239800  0.69344300  1
  H  H5  1  0.69344300  0.69344300  0.28239800  1
  H  H6  1  0.28239800  0.69344300  0.69344300  1
  H  H7  1  0.30655700  0.71760200  0.30655700  1
  H  H8  1  0.30655700  0.30655700  0.71760200  1
  H  H9  1  0.71760200  0.30655700  0.30655700  1
  S  S10  1  0.69453200  0.69453200  0.69453200  1
  S  S11  1  0.30546800  0.30546800  0.30546800  1
  O  O12  1  0.38858300  0.38858300  0.38858300  1
  O  O13  1  0.61141700  0.61141700  0.61141700  1
  O  O14  1  0.83323800  0.50254100  0.83323800  1
  O  O15  1  0.83323800  0.83323800  0.50254100  1
  O  O16  1  0.50254100  0.83323800  0.83323800  1
  O  O17  1  0.16676200  0.49745900  0.16676200  1
  O  O18  1  0.16676200  0.16676200  0.49745900  1
  O  O19  1  0.49745900  0.16676200  0.16676200  1
  O  O20  1  0.73650100  0.12048100  0.73650100  1
  O  O21  1  0.73650100  0.73650100  0.12048100  1
  O  O22  1  0.12048100  0.73650100  0.73650100  1
  O  O23  1  0.26349900  0.87951900  0.26349900  1
  O  O24  1  0.26349900  0.26349900  0.87951900  1
  O  O25  1  0.87951900  0.26349900  0.26349900  1
