# generated using pymatgen
data_KCu2BiS3
_symmetry_space_group_name_H-M   'P 1'
_cell_length_a   6.54518200
_cell_length_b   9.32211731
_cell_length_c   10.73882808
_cell_angle_alpha   90.63703903
_cell_angle_beta   90.62633329
_cell_angle_gamma   90.76426204
_symmetry_Int_Tables_number   1
_chemical_formula_structural   KCu2BiS3
_chemical_formula_sum   'K4 Cu8 Bi4 S12'
_cell_volume   655.09009514
_cell_formula_units_Z   4
loop_
 _symmetry_equiv_pos_site_id
 _symmetry_equiv_pos_as_xyz
  1  'x, y, z'
loop_
 _atom_site_type_symbol
 _atom_site_label
 _atom_site_symmetry_multiplicity
 _atom_site_fract_x
 _atom_site_fract_y
 _atom_site_fract_z
 _atom_site_occupancy
  K  K0  1  0.20883300  0.93462500  0.87462400  1
  K  K1  1  0.79116700  0.06537500  0.12537600  1
  K  K2  1  0.70140500  0.92951900  0.62735100  1
  K  K3  1  0.29859500  0.07048100  0.37264900  1
  Cu  Cu4  1  0.49361700  0.62673100  0.82968500  1
  Cu  Cu5  1  0.50638300  0.37326900  0.17031500  1
  Cu  Cu6  1  0.01773500  0.23027300  0.64159800  1
  Cu  Cu7  1  0.98226500  0.76972700  0.35840200  1
  Cu  Cu8  1  0.07093300  0.35251100  0.96011700  1
  Cu  Cu9  1  0.92906700  0.64748900  0.03988300  1
  Cu  Cu10  1  0.57244700  0.34689800  0.54484100  1
  Cu  Cu11  1  0.42755300  0.65310200  0.45515900  1
  Bi  Bi12  1  0.53529300  0.32178700  0.84742800  1
  Bi  Bi13  1  0.46470700  0.67821300  0.15257200  1
  Bi  Bi14  1  0.02621700  0.54360200  0.65061000  1
  Bi  Bi15  1  0.97378300  0.45639800  0.34939000  1
  S  S16  1  0.88616800  0.18883300  0.83228200  1
  S  S17  1  0.11383200  0.81116700  0.16771800  1
  S  S18  1  0.36088100  0.19210900  0.65579400  1
  S  S19  1  0.63911900  0.80789100  0.34420600  1
  S  S20  1  0.34122800  0.21827100  0.04268900  1
  S  S21  1  0.65877200  0.78172900  0.95731100  1
  S  S22  1  0.62412800  0.57661700  0.63920200  1
  S  S23  1  0.37587200  0.42338300  0.36079800  1
  S  S24  1  0.15820000  0.57920300  0.87855100  1
  S  S25  1  0.84180000  0.42079700  0.12144900  1
  S  S26  1  0.15705500  0.78088500  0.54210400  1
  S  S27  1  0.84294500  0.21911500  0.45789600  1
