# generated using pymatgen
data_BiW2(Br4O)2
_symmetry_space_group_name_H-M   'P 1'
_cell_length_a   7.79877300
_cell_length_b   9.41464624
_cell_length_c   11.63909485
_cell_angle_alpha   89.41557788
_cell_angle_beta   80.29517501
_cell_angle_gamma   88.51540664
_symmetry_Int_Tables_number   1
_chemical_formula_structural   BiW2(Br4O)2
_chemical_formula_sum   'Bi2 W4 Br16 O4'
_cell_volume   842.04656958
_cell_formula_units_Z   2
loop_
 _symmetry_equiv_pos_site_id
 _symmetry_equiv_pos_as_xyz
  1  'x, y, z'
loop_
 _atom_site_type_symbol
 _atom_site_label
 _atom_site_symmetry_multiplicity
 _atom_site_fract_x
 _atom_site_fract_y
 _atom_site_fract_z
 _atom_site_occupancy
  Bi  Bi0  1  0.62642200  0.33457500  0.58572500  1
  Bi  Bi1  1  0.37357800  0.66542500  0.41427500  1
  W  W2  1  0.71639200  0.88510400  0.14601500  1
  W  W3  1  0.28360800  0.11489600  0.85398500  1
  W  W4  1  0.78369400  0.10485600  0.85476100  1
  W  W5  1  0.21630600  0.89514400  0.14523900  1
  Br  Br6  1  0.70884500  0.62125600  0.19244000  1
  Br  Br7  1  0.29115500  0.37874400  0.80756000  1
  Br  Br8  1  0.65333100  0.95120400  0.36020000  1
  Br  Br9  1  0.34666900  0.04879600  0.63980000  1
  Br  Br10  1  0.77885800  0.83048400  0.91743300  1
  Br  Br11  1  0.22114200  0.16951600  0.08256700  1
  Br  Br12  1  0.72686100  0.16546900  0.08006500  1
  Br  Br13  1  0.27313900  0.83453100  0.91993500  1
  Br  Br14  1  0.82700300  0.03705600  0.64154300  1
  Br  Br15  1  0.17299700  0.96294400  0.35845700  1
  Br  Br16  1  0.79027300  0.37547300  0.79493600  1
  Br  Br17  1  0.20972700  0.62452700  0.20506400  1
  Br  Br18  1  0.59752100  0.63057400  0.59546700  1
  Br  Br19  1  0.40247900  0.36942600  0.40453300  1
  Br  Br20  1  0.89847600  0.34101800  0.41808800  1
  Br  Br21  1  0.10152400  0.65898200  0.58191200  1
  O  O22  1  0.47640700  0.89347400  0.13780700  1
  O  O23  1  0.52359300  0.10652600  0.86219300  1
  O  O24  1  0.04037400  0.10765000  0.85794000  1
  O  O25  1  0.95962600  0.89235000  0.14206000  1
