# generated using pymatgen
data_Ho6Zn23
_symmetry_space_group_name_H-M   'P 1'
_cell_length_a   8.97452997
_cell_length_b   8.97452997
_cell_length_c   8.97452997
_cell_angle_alpha   60.00000000
_cell_angle_beta   60.00000000
_cell_angle_gamma   60.00000000
_symmetry_Int_Tables_number   1
_chemical_formula_structural   Ho6Zn23
_chemical_formula_sum   'Ho6 Zn23'
_cell_volume   511.11677968
_cell_formula_units_Z   1
loop_
 _symmetry_equiv_pos_site_id
 _symmetry_equiv_pos_as_xyz
  1  'x, y, z'
loop_
 _atom_site_type_symbol
 _atom_site_label
 _atom_site_symmetry_multiplicity
 _atom_site_fract_x
 _atom_site_fract_y
 _atom_site_fract_z
 _atom_site_occupancy
  Ho  Ho0  1  0.70699900  0.70699900  0.29300100  1
  Ho  Ho1  1  0.29300100  0.70699900  0.29300100  1
  Ho  Ho2  1  0.70699900  0.29300100  0.29300100  1
  Ho  Ho3  1  0.29300100  0.29300100  0.70699900  1
  Ho  Ho4  1  0.70699900  0.29300100  0.70699900  1
  Ho  Ho5  1  0.29300100  0.70699900  0.70699900  1
  Zn  Zn6  1  0.00000000  0.00000000  0.00000000  1
  Zn  Zn7  1  0.00000000  0.00000000  0.50000000  1
  Zn  Zn8  1  0.50000000  0.00000000  0.50000000  1
  Zn  Zn9  1  0.00000000  0.50000000  0.50000000  1
  Zn  Zn10  1  0.50000000  0.50000000  0.00000000  1
  Zn  Zn11  1  0.00000000  0.50000000  0.00000000  1
  Zn  Zn12  1  0.50000000  0.00000000  0.00000000  1
  Zn  Zn13  1  0.87783500  0.87783500  0.36649400  1
  Zn  Zn14  1  0.87783500  0.36649400  0.87783500  1
  Zn  Zn15  1  0.36649400  0.87783500  0.87783500  1
  Zn  Zn16  1  0.87783500  0.87783500  0.87783500  1
  Zn  Zn17  1  0.12216500  0.12216500  0.63350600  1
  Zn  Zn18  1  0.12216500  0.63350600  0.12216500  1
  Zn  Zn19  1  0.63350600  0.12216500  0.12216500  1
  Zn  Zn20  1  0.12216500  0.12216500  0.12216500  1
  Zn  Zn21  1  0.67157600  0.67157600  0.98527300  1
  Zn  Zn22  1  0.67157600  0.98527300  0.67157600  1
  Zn  Zn23  1  0.98527300  0.67157600  0.67157600  1
  Zn  Zn24  1  0.67157600  0.67157600  0.67157600  1
  Zn  Zn25  1  0.32842400  0.32842400  0.01472700  1
  Zn  Zn26  1  0.32842400  0.01472700  0.32842400  1
  Zn  Zn27  1  0.01472700  0.32842400  0.32842400  1
  Zn  Zn28  1  0.32842400  0.32842400  0.32842400  1
