# generated using pymatgen
data_ScH3(CO2)3
_symmetry_space_group_name_H-M   'P 1'
_cell_length_a   7.24803859
_cell_length_b   7.24803859
_cell_length_c   7.24803788
_cell_angle_alpha   103.80513496
_cell_angle_beta   103.80513496
_cell_angle_gamma   103.80513980
_symmetry_Int_Tables_number   1
_chemical_formula_structural   ScH3(CO2)3
_chemical_formula_sum   'Sc2 H6 C6 O12'
_cell_volume   340.99692481
_cell_formula_units_Z   2
loop_
 _symmetry_equiv_pos_site_id
 _symmetry_equiv_pos_as_xyz
  1  'x, y, z'
loop_
 _atom_site_type_symbol
 _atom_site_label
 _atom_site_symmetry_multiplicity
 _atom_site_fract_x
 _atom_site_fract_y
 _atom_site_fract_z
 _atom_site_occupancy
  Sc  Sc0  1  0.50000000  0.50000000  0.50000000  1
  Sc  Sc1  1  0.00000000  0.00000000  0.00000000  1
  H  H2  1  0.05145400  0.75000000  0.44854600  1
  H  H3  1  0.44854600  0.05145400  0.75000000  1
  H  H4  1  0.75000000  0.44854600  0.05145400  1
  H  H5  1  0.94854600  0.25000000  0.55145400  1
  H  H6  1  0.55145400  0.94854600  0.25000000  1
  H  H7  1  0.25000000  0.55145400  0.94854600  1
  C  C8  1  0.95439300  0.75000000  0.54560700  1
  C  C9  1  0.54560700  0.95439300  0.75000000  1
  C  C10  1  0.75000000  0.54560700  0.95439300  1
  C  C11  1  0.04560700  0.25000000  0.45439300  1
  C  C12  1  0.45439300  0.04560700  0.25000000  1
  C  C13  1  0.25000000  0.45439300  0.04560700  1
  O  O14  1  0.78668000  0.61457600  0.47820600  1
  O  O15  1  0.47820600  0.78668000  0.61457600  1
  O  O16  1  0.61457600  0.47820600  0.78668000  1
  O  O17  1  0.97820600  0.11457600  0.28668000  1
  O  O18  1  0.28668000  0.97820600  0.11457600  1
  O  O19  1  0.11457600  0.28668000  0.97820600  1
  O  O20  1  0.21332000  0.38542400  0.52179400  1
  O  O21  1  0.52179400  0.21332000  0.38542400  1
  O  O22  1  0.38542400  0.52179400  0.21332000  1
  O  O23  1  0.02179400  0.88542400  0.71332000  1
  O  O24  1  0.71332000  0.02179400  0.88542400  1
  O  O25  1  0.88542400  0.71332000  0.02179400  1
