# generated using pymatgen
data_NaFe2P2HO8
_symmetry_space_group_name_H-M   'P 1'
_cell_length_a   5.25544300
_cell_length_b   8.91454611
_cell_length_c   9.02907117
_cell_angle_alpha   94.87635050
_cell_angle_beta   100.37332849
_cell_angle_gamma   104.84616714
_symmetry_Int_Tables_number   1
_chemical_formula_structural   NaFe2P2HO8
_chemical_formula_sum   'Na2 Fe4 P4 H2 O16'
_cell_volume   398.36253916
_cell_formula_units_Z   2
loop_
 _symmetry_equiv_pos_site_id
 _symmetry_equiv_pos_as_xyz
  1  'x, y, z'
loop_
 _atom_site_type_symbol
 _atom_site_label
 _atom_site_symmetry_multiplicity
 _atom_site_fract_x
 _atom_site_fract_y
 _atom_site_fract_z
 _atom_site_occupancy
  Na  Na0  1  0.61167700  0.82912900  0.32168800  1
  Na  Na1  1  0.38832300  0.17087100  0.67831200  1
  Fe  Fe2  1  0.78195300  0.89269300  0.74621100  1
  Fe  Fe3  1  0.21804700  0.10730700  0.25378900  1
  Fe  Fe4  1  0.31260200  0.61535100  0.88717600  1
  Fe  Fe5  1  0.68739800  0.38464900  0.11282400  1
  P  P6  1  0.16887500  0.77043300  0.57989500  1
  P  P7  1  0.83112500  0.22956700  0.42010500  1
  P  P8  1  0.90471200  0.75082500  0.06534300  1
  P  P9  1  0.09528800  0.24917500  0.93465700  1
  H  H10  1  0.04817900  0.65076400  0.34422900  1
  H  H11  1  0.95182100  0.34923600  0.65577100  1
  O  O12  1  0.90620800  0.82054900  0.55887100  1
  O  O13  1  0.09379200  0.17945100  0.44112900  1
  O  O14  1  0.71389900  0.74383100  0.90703400  1
  O  O15  1  0.28610100  0.25616900  0.09296600  1
  O  O16  1  0.41674200  0.91050800  0.64715000  1
  O  O17  1  0.58325800  0.08949200  0.35285000  1
  O  O18  1  0.05998200  0.09148200  0.83822800  1
  O  O19  1  0.94001800  0.90851800  0.16177200  1
  O  O20  1  0.15973500  0.63179500  0.66907000  1
  O  O21  1  0.84026500  0.36820500  0.33093000  1
  O  O22  1  0.17635500  0.72671800  0.04384400  1
  O  O23  1  0.82364500  0.27328200  0.95615600  1
  O  O24  1  0.24973700  0.37992400  0.85236600  1
  O  O25  1  0.75026300  0.62007600  0.14763400  1
  O  O26  1  0.21073300  0.72209800  0.41118400  1
  O  O27  1  0.78926700  0.27790200  0.58881600  1
