# generated using pymatgen
data_NdCu6
_symmetry_space_group_name_H-M   'P 1'
_cell_length_a   5.11312400
_cell_length_b   8.06838600
_cell_length_c   10.14621900
_cell_angle_alpha   90.00000000
_cell_angle_beta   90.00000000
_cell_angle_gamma   90.00000000
_symmetry_Int_Tables_number   1
_chemical_formula_structural   NdCu6
_chemical_formula_sum   'Nd4 Cu24'
_cell_volume   418.57879583
_cell_formula_units_Z   4
loop_
 _symmetry_equiv_pos_site_id
 _symmetry_equiv_pos_as_xyz
  1  'x, y, z'
loop_
 _atom_site_type_symbol
 _atom_site_label
 _atom_site_symmetry_multiplicity
 _atom_site_fract_x
 _atom_site_fract_y
 _atom_site_fract_z
 _atom_site_occupancy
  Nd  Nd0  1  0.25000000  0.25940200  0.56394800  1
  Nd  Nd1  1  0.25000000  0.75940200  0.93605200  1
  Nd  Nd2  1  0.75000000  0.74059800  0.43605200  1
  Nd  Nd3  1  0.75000000  0.24059800  0.06394800  1
  Cu  Cu4  1  0.25000000  0.14664700  0.85691500  1
  Cu  Cu5  1  0.25000000  0.64664700  0.64308500  1
  Cu  Cu6  1  0.75000000  0.85335300  0.14308500  1
  Cu  Cu7  1  0.75000000  0.35335300  0.35691500  1
  Cu  Cu8  1  0.25000000  0.81885000  0.24756900  1
  Cu  Cu9  1  0.25000000  0.31885000  0.25243100  1
  Cu  Cu10  1  0.75000000  0.18115000  0.75243100  1
  Cu  Cu11  1  0.75000000  0.68115000  0.74756900  1
  Cu  Cu12  1  0.25000000  0.56148500  0.40332100  1
  Cu  Cu13  1  0.25000000  0.06148500  0.09667900  1
  Cu  Cu14  1  0.75000000  0.43851500  0.59667900  1
  Cu  Cu15  1  0.75000000  0.93851500  0.90332100  1
  Cu  Cu16  1  0.25000000  0.90149000  0.48509900  1
  Cu  Cu17  1  0.25000000  0.40149000  0.01490100  1
  Cu  Cu18  1  0.75000000  0.09851000  0.51490100  1
  Cu  Cu19  1  0.75000000  0.59851000  0.98509900  1
  Cu  Cu20  1  0.00448500  0.43225600  0.80818700  1
  Cu  Cu21  1  0.49551500  0.93225600  0.69181300  1
  Cu  Cu22  1  0.50448500  0.56774400  0.19181300  1
  Cu  Cu23  1  0.99551500  0.06774400  0.30818700  1
  Cu  Cu24  1  0.99551500  0.56774400  0.19181300  1
  Cu  Cu25  1  0.50448500  0.06774400  0.30818700  1
  Cu  Cu26  1  0.49551500  0.43225600  0.80818700  1
  Cu  Cu27  1  0.00448500  0.93225600  0.69181300  1
