# generated using pymatgen
data_CuSO9
_symmetry_space_group_name_H-M   'P 1'
_cell_length_a   4.59813233
_cell_length_b   5.93885911
_cell_length_c   12.12024408
_cell_angle_alpha   100.27170008
_cell_angle_beta   89.30530843
_cell_angle_gamma   85.31733067
_symmetry_Int_Tables_number   1
_chemical_formula_structural   CuSO9
_chemical_formula_sum   'Cu2 S2 O18'
_cell_volume   324.46383535
_cell_formula_units_Z   2
loop_
 _symmetry_equiv_pos_site_id
 _symmetry_equiv_pos_as_xyz
  1  'x, y, z'
loop_
 _atom_site_type_symbol
 _atom_site_label
 _atom_site_symmetry_multiplicity
 _atom_site_fract_x
 _atom_site_fract_y
 _atom_site_fract_z
 _atom_site_occupancy
  Cu  Cu0  1  0.00000000  0.00000000  0.00000000  1
  Cu  Cu1  1  0.00000000  0.50000000  0.50000000  1
  S  S2  1  0.33029500  0.03671100  0.27743900  1
  S  S3  1  0.66970500  0.96328900  0.72256100  1
  O  O4  1  0.23270700  0.90339100  0.17525900  1
  O  O5  1  0.76729300  0.09660900  0.82474100  1
  O  O6  1  0.14810900  0.24030000  0.32730900  1
  O  O7  1  0.85189100  0.75970000  0.67269100  1
  O  O8  1  0.27054100  0.81275100  0.39083600  1
  O  O9  1  0.72945900  0.18724900  0.60916400  1
  O  O10  1  0.63495400  0.02588800  0.30107100  1
  O  O11  1  0.36504600  0.97411200  0.69892900  1
  O  O12  1  0.68981200  0.76623600  0.01205300  1
  O  O13  1  0.31018800  0.23376400  0.98794700  1
  O  O14  1  0.74402700  0.23046600  0.08710900  1
  O  O15  1  0.25597300  0.76953400  0.91289100  1
  O  O16  1  0.59243500  0.51775100  0.46269500  1
  O  O17  1  0.40756500  0.48224900  0.53730500  1
  O  O18  1  0.01501300  0.75773300  0.41527100  1
  O  O19  1  0.98498700  0.24226700  0.58472900  1
  O  O20  1  0.45631300  0.31910300  0.07537400  1
  O  O21  1  0.54368700  0.68089700  0.92462600  1
