# generated using pymatgen
data_Na5Nd4Si4O17
_symmetry_space_group_name_H-M   'P 1'
_cell_length_a   8.93493140
_cell_length_b   8.93493140
_cell_length_c   8.93493140
_cell_angle_alpha   95.54887272
_cell_angle_beta   95.54887272
_cell_angle_gamma   143.76607186
_symmetry_Int_Tables_number   1
_chemical_formula_structural   Na5Nd4Si4O17
_chemical_formula_sum   'Na5 Nd4 Si4 O17'
_cell_volume   400.71878163
_cell_formula_units_Z   1
loop_
 _symmetry_equiv_pos_site_id
 _symmetry_equiv_pos_as_xyz
  1  'x, y, z'
loop_
 _atom_site_type_symbol
 _atom_site_label
 _atom_site_symmetry_multiplicity
 _atom_site_fract_x
 _atom_site_fract_y
 _atom_site_fract_z
 _atom_site_occupancy
  Na  Na0  1  0.40492700  0.09970000  0.48479200  1
  Na  Na1  1  0.61490800  0.92013500  0.51520800  1
  Na  Na2  1  0.90030000  0.38509200  0.30522700  1
  Na  Na3  1  0.07986500  0.59507300  0.69477300  1
  Na  Na4  1  0.50000000  0.50000000  0.00000000  1
  Nd  Nd5  1  0.86277700  0.79725300  0.70116200  1
  Nd  Nd6  1  0.09609100  0.16161500  0.29883800  1
  Nd  Nd7  1  0.20274700  0.90390900  0.06552500  1
  Nd  Nd8  1  0.83838500  0.13722300  0.93447500  1
  Si  Si9  1  0.26119600  0.40706600  0.64966300  1
  Si  Si10  1  0.75740300  0.61153300  0.35033700  1
  Si  Si11  1  0.59293400  0.24259700  0.85413000  1
  Si  Si12  1  0.38846700  0.73880400  0.14587000  1
  O  O13  1  0.00000000  0.00000000  0.00000000  1
  O  O14  1  0.54328000  0.71940500  0.75398900  1
  O  O15  1  0.96541600  0.78929000  0.24601100  1
  O  O16  1  0.28059500  0.03458400  0.82387400  1
  O  O17  1  0.21071000  0.45672000  0.17612600  1
  O  O18  1  0.86531000  0.58647000  0.49058500  1
  O  O19  1  0.09588500  0.37472500  0.50941500  1
  O  O20  1  0.41353000  0.90411500  0.27884000  1
  O  O21  1  0.62527500  0.13469000  0.72116000  1
  O  O22  1  0.35031100  0.32157400  0.56781700  1
  O  O23  1  0.75375700  0.78249400  0.43218300  1
  O  O24  1  0.67842600  0.24624300  0.02873700  1
  O  O25  1  0.21750600  0.64968900  0.97126300  1
  O  O26  1  0.46007300  0.31736300  0.23631500  1
  O  O27  1  0.08104800  0.22375800  0.76368500  1
  O  O28  1  0.68263700  0.91895200  0.14271000  1
  O  O29  1  0.77624200  0.53992700  0.85729000  1
