# generated using pymatgen
data_Be4Si2O9
_symmetry_space_group_name_H-M   'P 1'
_cell_length_a   8.34678826
_cell_length_b   8.34678826
_cell_length_c   4.66701500
_cell_angle_alpha   90.00000000
_cell_angle_beta   90.00000000
_cell_angle_gamma   119.71651195
_symmetry_Int_Tables_number   1
_chemical_formula_structural   Be4Si2O9
_chemical_formula_sum   'Be8 Si4 O18'
_cell_volume   282.38534743
_cell_formula_units_Z   2
loop_
 _symmetry_equiv_pos_site_id
 _symmetry_equiv_pos_as_xyz
  1  'x, y, z'
loop_
 _atom_site_type_symbol
 _atom_site_label
 _atom_site_symmetry_multiplicity
 _atom_site_fract_x
 _atom_site_fract_y
 _atom_site_fract_z
 _atom_site_occupancy
  Be  Be0  1  0.05572800  0.60825200  0.91741000  1
  Be  Be1  1  0.39174800  0.94427200  0.91741000  1
  Be  Be2  1  0.94427200  0.39174800  0.41741000  1
  Be  Be3  1  0.60825200  0.05572800  0.41741000  1
  Be  Be4  1  0.27374100  0.38893500  0.59864500  1
  Be  Be5  1  0.61106500  0.72625900  0.59864500  1
  Be  Be6  1  0.72625900  0.61106500  0.09864500  1
  Be  Be7  1  0.38893500  0.27374100  0.09864500  1
  Si  Si8  1  0.06132400  0.93867600  0.11571900  1
  Si  Si9  1  0.93867600  0.06132400  0.61571900  1
  Si  Si10  1  0.39009500  0.60990500  0.09259100  1
  Si  Si11  1  0.60990500  0.39009500  0.59259100  1
  O  O12  1  0.03952300  0.96047700  0.45638900  1
  O  O13  1  0.96047700  0.03952300  0.95638900  1
  O  O14  1  0.28194300  0.71805700  0.98406200  1
  O  O15  1  0.71805700  0.28194300  0.48406200  1
  O  O16  1  0.39679400  0.60320600  0.44827600  1
  O  O17  1  0.60320600  0.39679400  0.94827600  1
  O  O18  1  0.94853300  0.71919500  0.02469500  1
  O  O19  1  0.28080500  0.05146700  0.02469500  1
  O  O20  1  0.05146700  0.28080500  0.52469500  1
  O  O21  1  0.71919500  0.94853300  0.52469500  1
  O  O22  1  0.29420500  0.39708600  0.95875600  1
  O  O23  1  0.60291400  0.70579500  0.95875600  1
  O  O24  1  0.70579500  0.60291400  0.45875600  1
  O  O25  1  0.39708600  0.29420500  0.45875600  1
  O  O26  1  0.03581600  0.58838400  0.57697500  1
  O  O27  1  0.41161600  0.96418400  0.57697500  1
  O  O28  1  0.96418400  0.41161600  0.07697500  1
  O  O29  1  0.58838400  0.03581600  0.07697500  1
