# generated using pymatgen
data_YN3O10
_symmetry_space_group_name_H-M   'P 1'
_cell_length_a   7.41040400
_cell_length_b   7.96431218
_cell_length_c   8.21041056
_cell_angle_alpha   64.53031266
_cell_angle_beta   71.26991853
_cell_angle_gamma   62.91565926
_symmetry_Int_Tables_number   1
_chemical_formula_structural   YN3O10
_chemical_formula_sum   'Y2 N6 O20'
_cell_volume   384.73730447
_cell_formula_units_Z   2
loop_
 _symmetry_equiv_pos_site_id
 _symmetry_equiv_pos_as_xyz
  1  'x, y, z'
loop_
 _atom_site_type_symbol
 _atom_site_label
 _atom_site_symmetry_multiplicity
 _atom_site_fract_x
 _atom_site_fract_y
 _atom_site_fract_z
 _atom_site_occupancy
  Y  Y0  1  0.46735700  0.73046600  0.57184600  1
  Y  Y1  1  0.53264300  0.26953400  0.42815400  1
  N  N2  1  0.09723800  0.71307900  0.81067900  1
  N  N3  1  0.90276200  0.28692100  0.18932100  1
  N  N4  1  0.40632100  0.79542500  0.21492300  1
  N  N5  1  0.59367900  0.20457500  0.78507700  1
  N  N6  1  0.83539500  0.81310100  0.33911500  1
  N  N7  1  0.16460500  0.18689900  0.66088500  1
  O  O8  1  0.69793300  0.61057000  0.77894900  1
  O  O9  1  0.30206700  0.38943000  0.22105100  1
  O  O10  1  0.26307100  0.66561900  0.86922700  1
  O  O11  1  0.73692900  0.33438100  0.13077300  1
  O  O12  1  0.11412900  0.76537400  0.63596100  1
  O  O13  1  0.88587100  0.23462600  0.36403900  1
  O  O14  1  0.93768300  0.70951700  0.91398500  1
  O  O15  1  0.06231700  0.29048300  0.08601500  1
  O  O16  1  0.44066700  0.61998800  0.35095900  1
  O  O17  1  0.55933300  0.38001200  0.64904100  1
  O  O18  1  0.38596300  0.93528400  0.26401200  1
  O  O19  1  0.61403700  0.06471600  0.73598800  1
  O  O20  1  0.39704400  0.81263300  0.06396100  1
  O  O21  1  0.60295600  0.18736700  0.93603900  1
  O  O22  1  0.68317500  0.93211900  0.42607100  1
  O  O23  1  0.31682500  0.06788100  0.57392900  1
  O  O24  1  0.81267200  0.65186100  0.37263100  1
  O  O25  1  0.18732800  0.34813900  0.62736900  1
  O  O26  1  0.97837500  0.85985200  0.23934200  1
  O  O27  1  0.02162500  0.14014800  0.76065800  1
