# generated using pymatgen
data_ZnC2(Br2N3)2
_symmetry_space_group_name_H-M   'P 1'
_cell_length_a   7.01934300
_cell_length_b   7.94023457
_cell_length_c   12.67589966
_cell_angle_alpha   74.19860219
_cell_angle_beta   86.37910446
_cell_angle_gamma   85.93600824
_symmetry_Int_Tables_number   1
_chemical_formula_structural   ZnC2(Br2N3)2
_chemical_formula_sum   'Zn2 C4 Br8 N12'
_cell_volume   677.37912999
_cell_formula_units_Z   2
loop_
 _symmetry_equiv_pos_site_id
 _symmetry_equiv_pos_as_xyz
  1  'x, y, z'
loop_
 _atom_site_type_symbol
 _atom_site_label
 _atom_site_symmetry_multiplicity
 _atom_site_fract_x
 _atom_site_fract_y
 _atom_site_fract_z
 _atom_site_occupancy
  Zn  Zn0  1  0.01687900  0.62476500  0.73834000  1
  Zn  Zn1  1  0.98312100  0.37523500  0.26166000  1
  C  C2  1  0.65423800  0.33621700  0.61693000  1
  C  C3  1  0.34576200  0.66378300  0.38307000  1
  C  C4  1  0.75555500  0.27406300  0.96203300  1
  C  C5  1  0.24444500  0.72593700  0.03796700  1
  Br  Br6  1  0.70792200  0.62624400  0.87470700  1
  Br  Br7  1  0.29207800  0.37375600  0.12529300  1
  Br  Br8  1  0.76983500  0.66602800  0.55895700  1
  Br  Br9  1  0.23016500  0.33397200  0.44104300  1
  Br  Br10  1  0.10610900  0.33076200  0.76816300  1
  Br  Br11  1  0.89389100  0.66923800  0.23183700  1
  Br  Br12  1  0.11654700  0.90459100  0.69844800  1
  Br  Br13  1  0.88345300  0.09540900  0.30155200  1
  N  N14  1  0.77785300  0.21396300  0.58082800  1
  N  N15  1  0.22214700  0.78603700  0.41917200  1
  N  N16  1  0.59198300  0.48209700  0.62967800  1
  N  N17  1  0.40801700  0.51790300  0.37032200  1
  N  N18  1  0.62496400  0.15734500  0.63754600  1
  N  N19  1  0.37503600  0.84265500  0.36245400  1
  N  N20  1  0.74992500  0.16641400  0.89090900  1
  N  N21  1  0.25007500  0.83358600  0.10909100  1
  N  N22  1  0.74942500  0.41024200  0.99462800  1
  N  N23  1  0.25057500  0.58975800  0.00537200  1
  N  N24  1  0.77602200  0.09060400  0.99361500  1
  N  N25  1  0.22397800  0.90939600  0.00638500  1
