# generated using pymatgen
data_Ba(YbSe2)2
_symmetry_space_group_name_H-M   'P 1'
_cell_length_a   4.61648300
_cell_length_b   10.71304800
_cell_length_c   16.88086100
_cell_angle_alpha   90.00000000
_cell_angle_beta   90.00000000
_cell_angle_gamma   90.00000000
_symmetry_Int_Tables_number   1
_chemical_formula_structural   Ba(YbSe2)2
_chemical_formula_sum   'Ba4 Yb8 Se16'
_cell_volume   834.87005715
_cell_formula_units_Z   4
loop_
 _symmetry_equiv_pos_site_id
 _symmetry_equiv_pos_as_xyz
  1  'x, y, z'
loop_
 _atom_site_type_symbol
 _atom_site_label
 _atom_site_symmetry_multiplicity
 _atom_site_fract_x
 _atom_site_fract_y
 _atom_site_fract_z
 _atom_site_occupancy
  Ba  Ba0  1  0.75000000  0.72803800  0.17998600  1
  Ba  Ba1  1  0.75000000  0.22803800  0.32001400  1
  Ba  Ba2  1  0.25000000  0.27196200  0.82001400  1
  Ba  Ba3  1  0.25000000  0.77196200  0.67998600  1
  Yb  Yb4  1  0.75000000  0.11666200  0.07012100  1
  Yb  Yb5  1  0.75000000  0.61666200  0.42987900  1
  Yb  Yb6  1  0.25000000  0.88333800  0.92987900  1
  Yb  Yb7  1  0.25000000  0.38333800  0.57012100  1
  Yb  Yb8  1  0.75000000  0.09028800  0.58191100  1
  Yb  Yb9  1  0.75000000  0.59028800  0.91808900  1
  Yb  Yb10  1  0.25000000  0.90971200  0.41808900  1
  Yb  Yb11  1  0.25000000  0.40971200  0.08191100  1
  Se  Se12  1  0.75000000  0.34233800  0.66370500  1
  Se  Se13  1  0.75000000  0.84233800  0.83629500  1
  Se  Se14  1  0.25000000  0.65766200  0.33629500  1
  Se  Se15  1  0.25000000  0.15766200  0.16370500  1
  Se  Se16  1  0.75000000  0.32723700  0.96345300  1
  Se  Se17  1  0.75000000  0.82723700  0.53654700  1
  Se  Se18  1  0.25000000  0.67276300  0.03654700  1
  Se  Se19  1  0.25000000  0.17276300  0.46345300  1
  Se  Se20  1  0.75000000  0.43070500  0.17986500  1
  Se  Se21  1  0.75000000  0.93070500  0.32013500  1
  Se  Se22  1  0.25000000  0.56929500  0.82013500  1
  Se  Se23  1  0.25000000  0.06929500  0.67986500  1
  Se  Se24  1  0.75000000  0.06174800  0.89610700  1
  Se  Se25  1  0.75000000  0.56174800  0.60389300  1
  Se  Se26  1  0.25000000  0.93825200  0.10389300  1
  Se  Se27  1  0.25000000  0.43825200  0.39610700  1
