# generated using pymatgen
data_K2MnN4
_symmetry_space_group_name_H-M   'P 1'
_cell_length_a   6.26880400
_cell_length_b   7.72448500
_cell_length_c   12.84061757
_cell_angle_alpha   71.95802795
_cell_angle_beta   90.00000000
_cell_angle_gamma   90.00000000
_symmetry_Int_Tables_number   1
_chemical_formula_structural   K2MnN4
_chemical_formula_sum   'K8 Mn4 N16'
_cell_volume   591.21162248
_cell_formula_units_Z   4
loop_
 _symmetry_equiv_pos_site_id
 _symmetry_equiv_pos_as_xyz
  1  'x, y, z'
loop_
 _atom_site_type_symbol
 _atom_site_label
 _atom_site_symmetry_multiplicity
 _atom_site_fract_x
 _atom_site_fract_y
 _atom_site_fract_z
 _atom_site_occupancy
  K  K0  1  0.22206900  0.92663200  0.39578200  1
  K  K1  1  0.72206900  0.07336800  0.10421800  1
  K  K2  1  0.77793100  0.07336800  0.60421800  1
  K  K3  1  0.27793100  0.92663200  0.89578200  1
  K  K4  1  0.19342500  0.45268100  0.36112800  1
  K  K5  1  0.69342500  0.54731900  0.13887200  1
  K  K6  1  0.80657500  0.54731900  0.63887200  1
  K  K7  1  0.30657500  0.45268100  0.86112800  1
  Mn  Mn8  1  0.21385800  0.29607100  0.14108600  1
  Mn  Mn9  1  0.71385800  0.70392900  0.35891400  1
  Mn  Mn10  1  0.78614200  0.70392900  0.85891400  1
  Mn  Mn11  1  0.28614200  0.29607100  0.64108600  1
  N  N12  1  0.98168900  0.26168300  0.20869500  1
  N  N13  1  0.48168900  0.73831700  0.29130500  1
  N  N14  1  0.01831100  0.73831700  0.79130500  1
  N  N15  1  0.51831100  0.26168300  0.70869500  1
  N  N16  1  0.41059700  0.24551200  0.23381300  1
  N  N17  1  0.91059700  0.75448800  0.26618700  1
  N  N18  1  0.58940300  0.75448800  0.76618700  1
  N  N19  1  0.08940300  0.24551200  0.73381300  1
  N  N20  1  0.23792900  0.51725000  0.06608100  1
  N  N21  1  0.73792900  0.48275000  0.43391900  1
  N  N22  1  0.76207100  0.48275000  0.93391900  1
  N  N23  1  0.26207100  0.51725000  0.56608100  1
  N  N24  1  0.23590100  0.16527700  0.05799200  1
  N  N25  1  0.73590100  0.83472300  0.44200800  1
  N  N26  1  0.76409900  0.83472300  0.94200800  1
  N  N27  1  0.26409900  0.16527700  0.55799200  1
