# generated using pymatgen
data_CuHg(NO5)2
_symmetry_space_group_name_H-M   'P 1'
_cell_length_a   6.04229256
_cell_length_b   7.97701851
_cell_length_c   9.78822800
_cell_angle_alpha   90.00000000
_cell_angle_beta   90.00000000
_cell_angle_gamma   109.76363978
_symmetry_Int_Tables_number   1
_chemical_formula_structural   CuHg(NO5)2
_chemical_formula_sum   'Cu2 Hg2 N4 O20'
_cell_volume   443.99711034
_cell_formula_units_Z   2
loop_
 _symmetry_equiv_pos_site_id
 _symmetry_equiv_pos_as_xyz
  1  'x, y, z'
loop_
 _atom_site_type_symbol
 _atom_site_label
 _atom_site_symmetry_multiplicity
 _atom_site_fract_x
 _atom_site_fract_y
 _atom_site_fract_z
 _atom_site_occupancy
  Cu  Cu0  1  0.00000000  0.00000000  0.50000000  1
  Cu  Cu1  1  0.50000000  0.00000000  0.00000000  1
  Hg  Hg2  1  0.50000000  0.00000000  0.50000000  1
  Hg  Hg3  1  0.00000000  0.00000000  0.00000000  1
  N  N4  1  0.59533400  0.35099400  0.24140100  1
  N  N5  1  0.90466600  0.64900600  0.74140100  1
  N  N6  1  0.40466600  0.64900600  0.75859900  1
  N  N7  1  0.09533400  0.35099400  0.25859900  1
  O  O8  1  0.58382400  0.18959400  0.22951800  1
  O  O9  1  0.91617600  0.81040600  0.72951800  1
  O  O10  1  0.41617600  0.81040600  0.77048200  1
  O  O11  1  0.08382400  0.18959400  0.27048200  1
  O  O12  1  0.59752200  0.41375500  0.35887900  1
  O  O13  1  0.90247800  0.58624500  0.85887900  1
  O  O14  1  0.40247800  0.58624500  0.64112100  1
  O  O15  1  0.09752200  0.41375500  0.14112100  1
  O  O16  1  0.60351900  0.44417600  0.13856300  1
  O  O17  1  0.89648100  0.55582400  0.63856300  1
  O  O18  1  0.39648100  0.55582400  0.86143700  1
  O  O19  1  0.10351900  0.44417600  0.36143700  1
  O  O20  1  0.66806400  0.87053100  0.07469200  1
  O  O21  1  0.83193600  0.12946900  0.57469200  1
  O  O22  1  0.33193600  0.12946900  0.92530800  1
  O  O23  1  0.16806400  0.87053100  0.42530800  1
  O  O24  1  0.71671100  0.86816500  0.42674200  1
  O  O25  1  0.78328900  0.13183500  0.92674200  1
  O  O26  1  0.28328900  0.13183500  0.57325800  1
  O  O27  1  0.21671100  0.86816500  0.07325800  1
