# generated using pymatgen
data_MgAg2
_symmetry_space_group_name_H-M   'P 1'
_cell_length_a   5.06669183
_cell_length_b   5.06669183
_cell_length_c   6.11163573
_cell_angle_alpha   58.82770428
_cell_angle_beta   58.82770428
_cell_angle_gamma   61.18794033
_symmetry_Int_Tables_number   1
_chemical_formula_structural   MgAg2
_chemical_formula_sum   'Mg2 Ag4'
_cell_volume   109.84080463
_cell_formula_units_Z   2
loop_
 _symmetry_equiv_pos_site_id
 _symmetry_equiv_pos_as_xyz
  1  'x, y, z'
loop_
 _atom_site_type_symbol
 _atom_site_label
 _atom_site_symmetry_multiplicity
 _atom_site_fract_x
 _atom_site_fract_y
 _atom_site_fract_z
 _atom_site_occupancy
  Mg  Mg0  1  0.89408500  0.10591500  0.75000000  1
  Mg  Mg1  1  0.10591500  0.89408500  0.25000000  1
  Ag  Ag2  1  0.57147300  0.76533400  0.74568800  1
  Ag  Ag3  1  0.42852700  0.23466600  0.25431200  1
  Ag  Ag4  1  0.76533400  0.57147300  0.24568800  1
  Ag  Ag5  1  0.23466600  0.42852700  0.75431200  1
