# generated using pymatgen
data_CaCd2(ClO)6
_symmetry_space_group_name_H-M   'P 1'
_cell_length_a   8.13546600
_cell_length_b   9.16937872
_cell_length_c   9.65585040
_cell_angle_alpha   102.48668608
_cell_angle_beta   89.29853147
_cell_angle_gamma   101.41789970
_symmetry_Int_Tables_number   1
_chemical_formula_structural   CaCd2(ClO)6
_chemical_formula_sum   'Ca2 Cd4 Cl12 O12'
_cell_volume   688.99183155
_cell_formula_units_Z   2
loop_
 _symmetry_equiv_pos_site_id
 _symmetry_equiv_pos_as_xyz
  1  'x, y, z'
loop_
 _atom_site_type_symbol
 _atom_site_label
 _atom_site_symmetry_multiplicity
 _atom_site_fract_x
 _atom_site_fract_y
 _atom_site_fract_z
 _atom_site_occupancy
  Ca  Ca0  1  0.67444400  0.87844800  0.14126900  1
  Ca  Ca1  1  0.32555600  0.12155200  0.85873100  1
  Cd  Cd2  1  0.13441500  0.56795500  0.69234400  1
  Cd  Cd3  1  0.86558500  0.43204500  0.30765600  1
  Cd  Cd4  1  0.65197700  0.54569000  0.68400600  1
  Cd  Cd5  1  0.34802300  0.45431000  0.31599400  1
  Cl  Cl6  1  0.23297000  0.83136900  0.88022600  1
  Cl  Cl7  1  0.76703000  0.16863100  0.11977400  1
  Cl  Cl8  1  0.69023300  0.80152500  0.87012000  1
  Cl  Cl9  1  0.30976700  0.19847500  0.12988000  1
  Cl  Cl10  1  0.91527300  0.67062100  0.53823700  1
  Cl  Cl11  1  0.08472700  0.32937900  0.46176300  1
  Cl  Cl12  1  0.40582400  0.65977800  0.55494100  1
  Cl  Cl13  1  0.59417600  0.34022200  0.44505900  1
  Cl  Cl14  1  0.12195100  0.53578000  0.17914000  1
  Cl  Cl15  1  0.87804900  0.46422000  0.82086000  1
  Cl  Cl16  1  0.63139300  0.60167300  0.20908800  1
  Cl  Cl17  1  0.36860700  0.39832700  0.79091200  1
  O  O18  1  0.00098200  0.02592900  0.76422900  1
  O  O19  1  0.99901800  0.97407100  0.23577100  1
  O  O20  1  0.55912000  0.00121900  0.71735900  1
  O  O21  1  0.44088000  0.99878100  0.28264100  1
  O  O22  1  0.22702700  0.91537900  0.44994400  1
  O  O23  1  0.77297300  0.08462100  0.55005600  1
  O  O24  1  0.69024200  0.95390300  0.52469900  1
  O  O25  1  0.30975800  0.04609700  0.47530100  1
  O  O26  1  0.99491600  0.83914100  0.17346300  1
  O  O27  1  0.00508400  0.16085900  0.82653700  1
  O  O28  1  0.35753700  0.86484600  0.25313900  1
  O  O29  1  0.64246300  0.13515400  0.74686100  1
