# generated using pymatgen
data_MgGe3
_symmetry_space_group_name_H-M   'P 1'
_cell_length_a   5.91355643
_cell_length_b   5.91355643
_cell_length_c   5.91355643
_cell_angle_alpha   142.99213277
_cell_angle_beta   139.33424033
_cell_angle_gamma   56.14612320
_symmetry_Int_Tables_number   1
_chemical_formula_structural   MgGe3
_chemical_formula_sum   'Mg1 Ge3'
_cell_volume   80.48850651
_cell_formula_units_Z   1
loop_
 _symmetry_equiv_pos_site_id
 _symmetry_equiv_pos_as_xyz
  1  'x, y, z'
loop_
 _atom_site_type_symbol
 _atom_site_label
 _atom_site_symmetry_multiplicity
 _atom_site_fract_x
 _atom_site_fract_y
 _atom_site_fract_z
 _atom_site_occupancy
  Mg  Mg0  1  0.20942300  0.50000000  0.70942300  1
  Ge  Ge1  1  0.73605000  0.77408200  0.96196900  1
  Ge  Ge2  1  0.18788700  0.22591800  0.96196900  1
  Ge  Ge3  1  0.69997300  0.00000000  0.69997300  1
