# generated using pymatgen
data_CaPHO4
_symmetry_space_group_name_H-M   'P 1'
_cell_length_a   6.95880600
_cell_length_b   10.19408700
_cell_length_c   11.23908496
_cell_angle_alpha   59.72599889
_cell_angle_beta   90.00000000
_cell_angle_gamma   90.00000000
_symmetry_Int_Tables_number   1
_chemical_formula_structural   CaPHO4
_chemical_formula_sum   'Ca8 P8 H8 O32'
_cell_volume   688.55545437
_cell_formula_units_Z   8
loop_
 _symmetry_equiv_pos_site_id
 _symmetry_equiv_pos_as_xyz
  1  'x, y, z'
loop_
 _atom_site_type_symbol
 _atom_site_label
 _atom_site_symmetry_multiplicity
 _atom_site_fract_x
 _atom_site_fract_y
 _atom_site_fract_z
 _atom_site_occupancy
  Ca  Ca0  1  0.01251600  0.03978800  0.75270000  1
  Ca  Ca1  1  0.48748400  0.03978800  0.25270000  1
  Ca  Ca2  1  0.98748400  0.96021200  0.24730000  1
  Ca  Ca3  1  0.51251600  0.96021200  0.74730000  1
  Ca  Ca4  1  0.81048900  0.69770400  0.06574700  1
  Ca  Ca5  1  0.68951100  0.69770400  0.56574700  1
  Ca  Ca6  1  0.18951100  0.30229600  0.93425300  1
  Ca  Ca7  1  0.31048900  0.30229600  0.43425300  1
  P  P8  1  0.75034600  0.10408100  0.93900000  1
  P  P9  1  0.74965400  0.10408100  0.43900000  1
  P  P10  1  0.24965400  0.89591900  0.06100000  1
  P  P11  1  0.25034600  0.89591900  0.56100000  1
  P  P12  1  0.50872300  0.33042500  0.70086400  1
  P  P13  1  0.99127700  0.33042500  0.20086400  1
  P  P14  1  0.49127700  0.66957500  0.29913600  1
  P  P15  1  0.00872300  0.66957500  0.79913600  1
  H  H16  1  0.91952000  0.35449600  0.58337100  1
  H  H17  1  0.58048000  0.35449600  0.08337100  1
  H  H18  1  0.08048000  0.64550400  0.41662900  1
  H  H19  1  0.41952000  0.64550400  0.91662900  1
  H  H20  1  0.13401300  0.35797500  0.63071500  1
  H  H21  1  0.36598700  0.35797500  0.13071500  1
  H  H22  1  0.86598700  0.64202500  0.36928500  1
  H  H23  1  0.63401300  0.64202500  0.86928500  1
  O  O24  1  0.94321800  0.18296900  0.88020900  1
  O  O25  1  0.55678200  0.18296900  0.38020900  1
  O  O26  1  0.05678200  0.81703100  0.11979100  1
  O  O27  1  0.44321800  0.81703100  0.61979100  1
  O  O28  1  0.72987100  0.97752600  0.90072600  1
  O  O29  1  0.77012900  0.97752600  0.40072600  1
  O  O30  1  0.27012900  0.02247400  0.09927400  1
  O  O31  1  0.22987100  0.02247400  0.59927400  1
  O  O32  1  0.57614200  0.22357000  0.86462900  1
  O  O33  1  0.92385800  0.22357000  0.36462900  1
  O  O34  1  0.42385800  0.77643000  0.13537100  1
  O  O35  1  0.07614200  0.77643000  0.63537100  1
  O  O36  1  0.72337200  0.04529500  0.09281600  1
  O  O37  1  0.77662800  0.04529500  0.59281600  1
  O  O38  1  0.27662800  0.95470500  0.90718400  1
  O  O39  1  0.22337200  0.95470500  0.40718400  1
  O  O40  1  0.66716800  0.44537500  0.62517700  1
  O  O41  1  0.83283200  0.44537500  0.12517700  1
  O  O42  1  0.33283200  0.55462500  0.37482300  1
  O  O43  1  0.16716800  0.55462500  0.87482300  1
  O  O44  1  0.31752900  0.39409400  0.71702700  1
  O  O45  1  0.18247100  0.39409400  0.21702700  1
  O  O46  1  0.68247100  0.60590600  0.28297300  1
  O  O47  1  0.81752900  0.60590600  0.78297300  1
  O  O48  1  0.47655100  0.22244300  0.64438100  1
  O  O49  1  0.02344900  0.22244300  0.14438100  1
  O  O50  1  0.52344900  0.77755700  0.35561900  1
  O  O51  1  0.97655100  0.77755700  0.85561900  1
  O  O52  1  0.04926300  0.31346700  0.58707000  1
  O  O53  1  0.45073700  0.31346700  0.08707000  1
  O  O54  1  0.95073700  0.68653300  0.41293000  1
  O  O55  1  0.54926300  0.68653300  0.91293000  1
