# generated using pymatgen
data_Ba4Fe3Se10
_symmetry_space_group_name_H-M   'P 1'
_cell_length_a   8.80546500
_cell_length_b   8.86873300
_cell_length_c   12.89417870
_cell_angle_alpha   67.37105827
_cell_angle_beta   90.00000000
_cell_angle_gamma   90.00000000
_symmetry_Int_Tables_number   1
_chemical_formula_structural   Ba4Fe3Se10
_chemical_formula_sum   'Ba8 Fe6 Se20'
_cell_volume   929.43020156
_cell_formula_units_Z   2
loop_
 _symmetry_equiv_pos_site_id
 _symmetry_equiv_pos_as_xyz
  1  'x, y, z'
loop_
 _atom_site_type_symbol
 _atom_site_label
 _atom_site_symmetry_multiplicity
 _atom_site_fract_x
 _atom_site_fract_y
 _atom_site_fract_z
 _atom_site_occupancy
  Ba  Ba0  1  0.12217400  0.43959900  0.33390300  1
  Ba  Ba1  1  0.37782600  0.43959900  0.83390300  1
  Ba  Ba2  1  0.87782600  0.56040100  0.66609700  1
  Ba  Ba3  1  0.62217400  0.56040100  0.16609700  1
  Ba  Ba4  1  0.65340200  0.96946900  0.34606900  1
  Ba  Ba5  1  0.84659800  0.96946900  0.84606900  1
  Ba  Ba6  1  0.34659800  0.03053100  0.65393100  1
  Ba  Ba7  1  0.15340200  0.03053100  0.15393100  1
  Fe  Fe8  1  0.50000000  0.50000000  0.50000000  1
  Fe  Fe9  1  0.00000000  0.50000000  0.00000000  1
  Fe  Fe10  1  0.71044300  0.27746900  0.52700600  1
  Fe  Fe11  1  0.78955700  0.27746900  0.02700600  1
  Fe  Fe12  1  0.28955700  0.72253100  0.47299400  1
  Fe  Fe13  1  0.21044300  0.72253100  0.97299400  1
  Se  Se14  1  0.02233900  0.82341300  0.41211700  1
  Se  Se15  1  0.47766100  0.82341300  0.91211700  1
  Se  Se16  1  0.97766100  0.17658700  0.58788300  1
  Se  Se17  1  0.52233900  0.17658700  0.08788300  1
  Se  Se18  1  0.22282900  0.02439600  0.40825400  1
  Se  Se19  1  0.27717100  0.02439600  0.90825400  1
  Se  Se20  1  0.77717100  0.97560400  0.59174600  1
  Se  Se21  1  0.72282900  0.97560400  0.09174600  1
  Se  Se22  1  0.77730100  0.56222900  0.41302000  1
  Se  Se23  1  0.72269900  0.56222900  0.91302000  1
  Se  Se24  1  0.22269900  0.43777100  0.58698000  1
  Se  Se25  1  0.27730100  0.43777100  0.08698000  1
  Se  Se26  1  0.60714400  0.28338200  0.69758200  1
  Se  Se27  1  0.89285600  0.28338200  0.19758200  1
  Se  Se28  1  0.39285600  0.71661800  0.30241800  1
  Se  Se29  1  0.10714400  0.71661800  0.80241800  1
  Se  Se30  1  0.49074100  0.27450100  0.40939200  1
  Se  Se31  1  0.00925900  0.27450100  0.90939200  1
  Se  Se32  1  0.50925900  0.72549900  0.59060800  1
  Se  Se33  1  0.99074100  0.72549900  0.09060800  1
