# generated using pymatgen
data_NaCdP3(H4O5)2
_symmetry_space_group_name_H-M   'P 1'
_cell_length_a   9.49297550
_cell_length_b   15.19007984
_cell_length_c   15.53831985
_cell_angle_alpha   90.00000000
_cell_angle_beta   90.00000000
_cell_angle_gamma   90.00000000
_symmetry_Int_Tables_number   1
_chemical_formula_structural   NaCdP3(H4O5)2
_chemical_formula_sum   'Na8 Cd8 P24 H64 O80'
_cell_volume   2240.61105053
_cell_formula_units_Z   8
loop_
 _symmetry_equiv_pos_site_id
 _symmetry_equiv_pos_as_xyz
  1  'x, y, z'
loop_
 _atom_site_type_symbol
 _atom_site_label
 _atom_site_symmetry_multiplicity
 _atom_site_fract_x
 _atom_site_fract_y
 _atom_site_fract_z
 _atom_site_occupancy
  Na  Na0  1  0.94408455  0.94081262  0.34880466  1
  Na  Na1  1  0.44408455  0.05918738  0.15119534  1
  Na  Na2  1  0.05591545  0.55918738  0.84880466  1
  Na  Na3  1  0.55591545  0.44081262  0.65119534  1
  Na  Na4  1  0.05591545  0.05918738  0.65119534  1
  Na  Na5  1  0.55591545  0.94081262  0.84880466  1
  Na  Na6  1  0.94408455  0.44081262  0.15119534  1
  Na  Na7  1  0.44408455  0.55918738  0.34880466  1
  Cd  Cd8  1  0.05298836  0.04555737  0.15739687  1
  Cd  Cd9  1  0.55298836  0.95444263  0.34260313  1
  Cd  Cd10  1  0.94701164  0.45444263  0.65739687  1
  Cd  Cd11  1  0.44701164  0.54555737  0.84260313  1
  Cd  Cd12  1  0.94701164  0.95444263  0.84260313  1
  Cd  Cd13  1  0.44701164  0.04555737  0.65739687  1
  Cd  Cd14  1  0.05298836  0.54555737  0.34260313  1
  Cd  Cd15  1  0.55298836  0.45444263  0.15739687  1
  P  P16  1  0.26468397  0.01177021  0.46670292  1
  P  P17  1  0.76468397  0.98822979  0.03329708  1
  P  P18  1  0.73531603  0.48822979  0.96670292  1
  P  P19  1  0.23531603  0.51177021  0.53329708  1
  P  P20  1  0.73531603  0.98822979  0.53329708  1
  P  P21  1  0.23531603  0.01177021  0.96670292  1
  P  P22  1  0.26468397  0.51177021  0.03329708  1
  P  P23  1  0.76468397  0.48822979  0.46670292  1
  P  P24  1  0.75933494  0.12152372  0.27304851  1
  P  P25  1  0.25933494  0.87847628  0.22695149  1
  P  P26  1  0.24066506  0.37847628  0.77304851  1
  P  P27  1  0.74066506  0.62152372  0.72695149  1
  P  P28  1  0.24066506  0.87847628  0.72695149  1
  P  P29  1  0.74066506  0.12152372  0.77304851  1
  P  P30  1  0.75933494  0.62152372  0.22695149  1
  P  P31  1  0.25933494  0.37847628  0.27304851  1
  P  P32  1  0.03348973  0.74386438  0.46666216  1
  P  P33  1  0.53348973  0.25613562  0.03333784  1
  P  P34  1  0.96651027  0.75613562  0.96666216  1
  P  P35  1  0.46651027  0.24386438  0.53333784  1
  P  P36  1  0.96651027  0.25613562  0.53333784  1
  P  P37  1  0.46651027  0.74386438  0.96666216  1
  P  P38  1  0.03348973  0.24386438  0.03333784  1
  P  P39  1  0.53348973  0.75613562  0.46666216  1
  H  H40  1  0.24688257  0.92215917  0.44669870  1
  H  H41  1  0.74688257  0.07784083  0.05330130  1
  H  H42  1  0.75311743  0.57784083  0.94669870  1
  H  H43  1  0.25311743  0.42215917  0.55330130  1
  H  H44  1  0.75311743  0.07784083  0.55330130  1
  H  H45  1  0.25311743  0.92215917  0.94669870  1
  H  H46  1  0.24688257  0.42215917  0.05330130  1
  H  H47  1  0.74688257  0.57784083  0.44669870  1
  H  H48  1  0.75875853  0.16250204  0.35425099  1
  H  H49  1  0.25875853  0.83749796  0.14574901  1
  H  H50  1  0.24124147  0.33749796  0.85425099  1
  H  H51  1  0.74124147  0.66250204  0.64574901  1
  H  H52  1  0.24124147  0.83749796  0.64574901  1
  H  H53  1  0.74124147  0.16250204  0.85425099  1
  H  H54  1  0.75875853  0.66250204  0.14574901  1
  H  H55  1  0.25875853  0.33749796  0.35425099  1
  H  H56  1  0.18160973  0.74243991  0.45973490  1
  H  H57  1  0.68160973  0.25756009  0.04026510  1
  H  H58  1  0.81839027  0.75756009  0.95973490  1
  H  H59  1  0.31839027  0.24243991  0.54026510  1
  H  H60  1  0.81839027  0.25756009  0.54026510  1
  H  H61  1  0.31839027  0.74243991  0.95973490  1
  H  H62  1  0.18160973  0.24243991  0.04026510  1
  H  H63  1  0.68160973  0.75756009  0.45973490  1
  H  H64  1  0.08064679  0.10174377  0.46706904  1
  H  H65  1  0.58064679  0.89825623  0.03293096  1
  H  H66  1  0.91935321  0.39825623  0.96706904  1
  H  H67  1  0.41935321  0.60174377  0.53293096  1
  H  H68  1  0.91935321  0.89825623  0.53293096  1
  H  H69  1  0.41935321  0.10174377  0.96706904  1
  H  H70  1  0.08064679  0.60174377  0.03293096  1
  H  H71  1  0.58064679  0.39825623  0.46706904  1
  H  H72  1  0.85008094  0.19891913  0.16550061  1
  H  H73  1  0.35008094  0.80108087  0.33449939  1
  H  H74  1  0.14991906  0.30108087  0.66550061  1
  H  H75  1  0.64991906  0.69891913  0.83449939  1
  H  H76  1  0.14991906  0.80108087  0.83449939  1
  H  H77  1  0.64991906  0.19891913  0.66550061  1
  H  H78  1  0.85008094  0.69891913  0.33449939  1
  H  H79  1  0.35008094  0.30108087  0.16550061  1
  H  H80  1  0.03835409  0.64571577  0.57040931  1
  H  H81  1  0.53835409  0.35428423  0.92959069  1
  H  H82  1  0.96164591  0.85428423  0.07040931  1
  H  H83  1  0.46164591  0.14571577  0.42959069  1
  H  H84  1  0.96164591  0.35428423  0.42959069  1
  H  H85  1  0.46164591  0.64571577  0.07040931  1
  H  H86  1  0.03835409  0.14571577  0.92959069  1
  H  H87  1  0.53835409  0.85428423  0.57040931  1
  H  H88  1  0.73455044  0.81527164  0.26575643  1
  H  H89  1  0.23455044  0.18472836  0.23424357  1
  H  H90  1  0.26544956  0.68472836  0.76575643  1
  H  H91  1  0.76544956  0.31527164  0.73424357  1
  H  H92  1  0.26544956  0.18472836  0.73424357  1
  H  H93  1  0.76544956  0.81527164  0.76575643  1
  H  H94  1  0.73455044  0.31527164  0.23424357  1
  H  H95  1  0.23455044  0.68472836  0.26575643  1
  H  H96  1  0.73650300  0.89851297  0.20405296  1
  H  H97  1  0.23650300  0.10148703  0.29594704  1
  H  H98  1  0.26349700  0.60148703  0.70405296  1
  H  H99  1  0.76349700  0.39851297  0.79594704  1
  H  H100  1  0.26349700  0.10148703  0.79594704  1
  H  H101  1  0.76349700  0.89851297  0.70405296  1
  H  H102  1  0.73650300  0.39851297  0.29594704  1
  H  H103  1  0.23650300  0.60148703  0.20405296  1
  O  O104  1  0.12613800  0.05527992  0.42709211  1
  O  O105  1  0.62613800  0.94472008  0.07290789  1
  O  O106  1  0.87386200  0.44472008  0.92709211  1
  O  O107  1  0.37386200  0.55527992  0.57290789  1
  O  O108  1  0.87386200  0.94472008  0.57290789  1
  O  O109  1  0.37386200  0.05527992  0.92709211  1
  O  O110  1  0.12613800  0.55527992  0.07290789  1
  O  O111  1  0.62613800  0.44472008  0.42709211  1
  O  O112  1  0.39471873  0.04458600  0.41767386  1
  O  O113  1  0.89471873  0.95541400  0.08232614  1
  O  O114  1  0.60528127  0.45541400  0.91767386  1
  O  O115  1  0.10528127  0.54458600  0.58232614  1
  O  O116  1  0.60528127  0.95541400  0.58232614  1
  O  O117  1  0.10528127  0.04458600  0.91767386  1
  O  O118  1  0.39471873  0.54458600  0.08232614  1
  O  O119  1  0.89471873  0.45541400  0.41767386  1
  O  O120  1  0.26608585  0.02459164  0.56370690  1
  O  O121  1  0.76608585  0.97540836  0.93629310  1
  O  O122  1  0.73391415  0.47540836  0.06370690  1
  O  O123  1  0.23391415  0.52459164  0.43629310  1
  O  O124  1  0.73391415  0.97540836  0.43629310  1
  O  O125  1  0.23391415  0.02459164  0.06370690  1
  O  O126  1  0.26608585  0.52459164  0.93629310  1
  O  O127  1  0.76608585  0.47540836  0.56370690  1
  O  O128  1  0.76654543  0.20308841  0.20747198  1
  O  O129  1  0.26654543  0.79691159  0.29252802  1
  O  O130  1  0.23345457  0.29691159  0.70747198  1
  O  O131  1  0.73345457  0.70308841  0.79252802  1
  O  O132  1  0.23345457  0.79691159  0.79252802  1
  O  O133  1  0.73345457  0.20308841  0.70747198  1
  O  O134  1  0.76654543  0.70308841  0.29252802  1
  O  O135  1  0.26654543  0.29691159  0.20747198  1
  O  O136  1  0.89204938  0.06621656  0.26441426  1
  O  O137  1  0.39204938  0.93378344  0.23558574  1
  O  O138  1  0.10795062  0.43378344  0.76441426  1
  O  O139  1  0.60795062  0.56621656  0.73558574  1
  O  O140  1  0.10795062  0.93378344  0.73558574  1
  O  O141  1  0.60795062  0.06621656  0.76441426  1
  O  O142  1  0.89204938  0.56621656  0.23558574  1
  O  O143  1  0.39204938  0.43378344  0.26441426  1
  O  O144  1  0.61953791  0.07431982  0.26037410  1
  O  O145  1  0.11953791  0.92568018  0.23962590  1
  O  O146  1  0.38046209  0.42568018  0.76037410  1
  O  O147  1  0.88046209  0.57431982  0.73962590  1
  O  O148  1  0.38046209  0.92568018  0.73962590  1
  O  O149  1  0.88046209  0.07431982  0.76037410  1
  O  O150  1  0.61953791  0.57431982  0.23962590  1
  O  O151  1  0.11953791  0.42568018  0.26037410  1
  O  O152  1  0.00084402  0.70711786  0.56032697  1
  O  O153  1  0.50084402  0.29288214  0.93967303  1
  O  O154  1  0.99915598  0.79288214  0.06032697  1
  O  O155  1  0.49915598  0.20711786  0.43967303  1
  O  O156  1  0.99915598  0.29288214  0.43967303  1
  O  O157  1  0.49915598  0.70711786  0.06032697  1
  O  O158  1  0.00084402  0.20711786  0.93967303  1
  O  O159  1  0.50084402  0.79288214  0.56032697  1
  O  O160  1  0.98013150  0.83777242  0.46186191  1
  O  O161  1  0.48013150  0.16222758  0.03813809  1
  O  O162  1  0.01986850  0.66222758  0.96186191  1
  O  O163  1  0.51986850  0.33777242  0.53813809  1
  O  O164  1  0.01986850  0.16222758  0.53813809  1
  O  O165  1  0.51986850  0.83777242  0.96186191  1
  O  O166  1  0.98013150  0.33777242  0.03813809  1
  O  O167  1  0.48013150  0.66222758  0.46186191  1
  O  O168  1  0.97657991  0.68198172  0.39647544  1
  O  O169  1  0.47657991  0.31801828  0.10352456  1
  O  O170  1  0.02342009  0.81801828  0.89647544  1
  O  O171  1  0.52342009  0.18198172  0.60352456  1
  O  O172  1  0.02342009  0.31801828  0.60352456  1
  O  O173  1  0.52342009  0.68198172  0.89647544  1
  O  O174  1  0.97657991  0.18198172  0.10352456  1
  O  O175  1  0.47657991  0.81801828  0.39647544  1
  O  O176  1  0.73827155  0.88048201  0.26449581  1
  O  O177  1  0.23827155  0.11951799  0.23550419  1
  O  O178  1  0.26172845  0.61951799  0.76449581  1
  O  O179  1  0.76172845  0.38048201  0.73550419  1
  O  O180  1  0.26172845  0.11951799  0.73550419  1
  O  O181  1  0.76172845  0.88048201  0.76449581  1
  O  O182  1  0.73827155  0.38048201  0.23550419  1
  O  O183  1  0.23827155  0.61951799  0.26449581  1
