# generated using pymatgen
data_Na5ErH6WO10
_symmetry_space_group_name_H-M   'P 1'
_cell_length_a   11.14079593
_cell_length_b   11.14079593
_cell_length_c   11.55041351
_cell_angle_alpha   66.05926807
_cell_angle_beta   66.05926807
_cell_angle_gamma   95.27711788
_symmetry_Int_Tables_number   1
_chemical_formula_structural   Na5ErH6WO10
_chemical_formula_sum   'Na20 Er4 H24 W4 O40'
_cell_volume   1139.62058319
_cell_formula_units_Z   4
loop_
 _symmetry_equiv_pos_site_id
 _symmetry_equiv_pos_as_xyz
  1  'x, y, z'
loop_
 _atom_site_type_symbol
 _atom_site_label
 _atom_site_symmetry_multiplicity
 _atom_site_fract_x
 _atom_site_fract_y
 _atom_site_fract_z
 _atom_site_occupancy
  Na  Na0  1  0.68958100  0.80826500  0.49828900  1
  Na  Na1  1  0.19173500  0.31041900  0.00171100  1
  Na  Na2  1  0.31041900  0.19173500  0.50171100  1
  Na  Na3  1  0.80826500  0.68958100  0.99828900  1
  Na  Na4  1  0.90259500  0.59872700  0.49396100  1
  Na  Na5  1  0.40127300  0.09740500  0.00603900  1
  Na  Na6  1  0.09740500  0.40127300  0.50603900  1
  Na  Na7  1  0.59872700  0.90259500  0.99396100  1
  Na  Na8  1  0.67143800  0.58105900  0.37988400  1
  Na  Na9  1  0.41894100  0.32856200  0.12011600  1
  Na  Na10  1  0.32856200  0.41894100  0.62011600  1
  Na  Na11  1  0.58105900  0.67143800  0.87988400  1
  Na  Na12  1  0.07457500  0.18340600  0.37635800  1
  Na  Na13  1  0.81659400  0.92542500  0.12364200  1
  Na  Na14  1  0.92542500  0.81659400  0.62364200  1
  Na  Na15  1  0.18340600  0.07457500  0.87635800  1
  Na  Na16  1  0.74739500  0.25260500  0.75000000  1
  Na  Na17  1  0.25260500  0.74739500  0.25000000  1
  Na  Na18  1  0.80892200  0.19107800  0.25000000  1
  Na  Na19  1  0.19107800  0.80892200  0.75000000  1
  Er  Er20  1  0.54235500  0.45764500  0.75000000  1
  Er  Er21  1  0.45764500  0.54235500  0.25000000  1
  Er  Er22  1  0.95714700  0.04285300  0.75000000  1
  Er  Er23  1  0.04285300  0.95714700  0.25000000  1
  H  H24  1  0.76736000  0.57353700  0.74122400  1
  H  H25  1  0.42646300  0.23264000  0.75877600  1
  H  H26  1  0.23264000  0.42646300  0.25877600  1
  H  H27  1  0.57353700  0.76736000  0.24122400  1
  H  H28  1  0.44929500  0.66295900  0.57265800  1
  H  H29  1  0.33704100  0.55070500  0.92734200  1
  H  H30  1  0.55070500  0.33704100  0.42734200  1
  H  H31  1  0.66295900  0.44929500  0.07265800  1
  H  H32  1  0.69554000  0.35967100  0.54110000  1
  H  H33  1  0.64032900  0.30446000  0.95890000  1
  H  H34  1  0.30446000  0.64032900  0.45890000  1
  H  H35  1  0.35967100  0.69554000  0.04110000  1
  H  H36  1  0.09795200  0.26542100  0.74721100  1
  H  H37  1  0.73457900  0.90204800  0.75278900  1
  H  H38  1  0.90204800  0.73457900  0.25278900  1
  H  H39  1  0.26542100  0.09795200  0.24721100  1
  H  H40  1  0.85465400  0.20686000  0.54757200  1
  H  H41  1  0.79314000  0.14534600  0.95242800  1
  H  H42  1  0.14534600  0.79314000  0.45242800  1
  H  H43  1  0.20686000  0.85465400  0.04757200  1
  H  H44  1  0.17809500  0.98004100  0.52359300  1
  H  H45  1  0.01995900  0.82190500  0.97640700  1
  H  H46  1  0.82190500  0.01995900  0.47640700  1
  H  H47  1  0.98004100  0.17809500  0.02359300  1
  W  W48  1  0.03361900  0.53798500  0.16701800  1
  W  W49  1  0.46201500  0.96638100  0.33298200  1
  W  W50  1  0.96638100  0.46201500  0.83298200  1
  W  W51  1  0.53798500  0.03361900  0.66701800  1
  O  O52  1  0.72304600  0.62766200  0.69060900  1
  O  O53  1  0.37233800  0.27695400  0.80939100  1
  O  O54  1  0.27695400  0.37233800  0.30939100  1
  O  O55  1  0.62766200  0.72304600  0.19060900  1
  O  O56  1  0.51268300  0.60845600  0.57399100  1
  O  O57  1  0.39154400  0.48731700  0.92600900  1
  O  O58  1  0.48731700  0.39154400  0.42600900  1
  O  O59  1  0.60845600  0.51268300  0.07399100  1
  O  O60  1  0.70091800  0.42364800  0.57774700  1
  O  O61  1  0.57635200  0.29908200  0.92225300  1
  O  O62  1  0.29908200  0.57635200  0.42225300  1
  O  O63  1  0.42364800  0.70091800  0.07774700  1
  O  O64  1  0.13125400  0.21751600  0.69171300  1
  O  O65  1  0.78248400  0.86874600  0.80828700  1
  O  O66  1  0.86874600  0.78248400  0.30828700  1
  O  O67  1  0.21751600  0.13125400  0.19171300  1
  O  O68  1  0.92211200  0.20250000  0.58116300  1
  O  O69  1  0.79750000  0.07788800  0.91883700  1
  O  O70  1  0.07788800  0.79750000  0.41883700  1
  O  O71  1  0.20250000  0.92211200  0.08116300  1
  O  O72  1  0.10665100  0.00739700  0.58055100  1
  O  O73  1  0.99260300  0.89334900  0.91944900  1
  O  O74  1  0.89334900  0.99260300  0.41944900  1
  O  O75  1  0.00739700  0.10665100  0.08055100  1
  O  O76  1  0.02228600  0.36435000  0.18965300  1
  O  O77  1  0.63565000  0.97771400  0.31034700  1
  O  O78  1  0.97771400  0.63565000  0.81034700  1
  O  O79  1  0.36435000  0.02228600  0.68965300  1
  O  O80  1  0.06748700  0.55215700  0.30351200  1
  O  O81  1  0.44784300  0.93251300  0.19648800  1
  O  O82  1  0.93251300  0.44784300  0.69648800  1
  O  O83  1  0.55215700  0.06748700  0.80351200  1
  O  O84  1  0.87495800  0.57901700  0.18546800  1
  O  O85  1  0.42098300  0.12504200  0.31453200  1
  O  O86  1  0.12504200  0.42098300  0.81453200  1
  O  O87  1  0.57901700  0.87495800  0.68546800  1
  O  O88  1  0.17409200  0.66680000  0.98874000  1
  O  O89  1  0.33320000  0.82590800  0.51126000  1
  O  O90  1  0.82590800  0.33320000  0.01126000  1
  O  O91  1  0.66680000  0.17409200  0.48874000  1
