# generated using pymatgen
data_AlB7Pd15
_symmetry_space_group_name_H-M   'P 1'
_cell_length_a   14.40383813
_cell_length_b   14.40383813
_cell_length_c   14.40383813
_cell_angle_alpha   109.47122063
_cell_angle_beta   109.47122063
_cell_angle_gamma   109.47122063
_symmetry_Int_Tables_number   1
_chemical_formula_structural   AlB7Pd15
_chemical_formula_sum   'Al8 B56 Pd120'
_cell_volume   2300.45003718
_cell_formula_units_Z   8
loop_
 _symmetry_equiv_pos_site_id
 _symmetry_equiv_pos_as_xyz
  1  'x, y, z'
loop_
 _atom_site_type_symbol
 _atom_site_label
 _atom_site_symmetry_multiplicity
 _atom_site_fract_x
 _atom_site_fract_y
 _atom_site_fract_z
 _atom_site_occupancy
  Al  Al0  1  0.00000000  0.50000000  -0.00000000  1
  Al  Al1  1  0.50000000  0.00000000  -0.00000000  1
  Al  Al2  1  0.00000000  0.00000000  0.50000000  1
  Al  Al3  1  0.50000000  0.50000000  0.50000000  1
  Al  Al4  1  0.00000000  0.50000000  0.50000000  1
  Al  Al5  1  0.50000000  0.00000000  0.50000000  1
  Al  Al6  1  0.50000000  0.50000000  0.00000000  1
  Al  Al7  1  0.00000000  0.00000000  0.00000000  1
  B  B8  1  0.00000000  0.50000000  0.75000000  1
  B  B9  1  0.50000000  0.75000000  0.00000000  1
  B  B10  1  0.75000000  0.00000000  0.50000000  1
  B  B11  1  0.75000000  0.75000000  0.75000000  1
  B  B12  1  0.00000000  0.50000000  0.25000000  1
  B  B13  1  0.50000000  0.25000000  -0.00000000  1
  B  B14  1  0.25000000  0.00000000  0.50000000  1
  B  B15  1  0.25000000  0.25000000  0.25000000  1
  B  B16  1  0.25000000  0.48701754  0.73701754  1
  B  B17  1  0.75000000  0.01298246  0.76298246  1
  B  B18  1  0.73701754  0.25000000  0.48701754  1
  B  B19  1  0.76298246  0.75000000  0.01298246  1
  B  B20  1  0.48701754  0.73701754  0.25000000  1
  B  B21  1  0.01298246  0.76298246  0.75000000  1
  B  B22  1  0.75000000  0.51298246  0.26298246  1
  B  B23  1  0.25000000  0.98701754  0.23701754  1
  B  B24  1  0.26298246  0.75000000  0.51298246  1
  B  B25  1  0.23701754  0.25000000  0.98701754  1
  B  B26  1  0.51298246  0.26298246  0.75000000  1
  B  B27  1  0.98701754  0.23701754  0.25000000  1
  B  B28  1  0.98701754  0.75000000  0.23701754  1
  B  B29  1  0.51298246  0.25000000  0.26298246  1
  B  B30  1  0.75000000  0.23701754  0.98701754  1
  B  B31  1  0.25000000  0.26298246  0.51298246  1
  B  B32  1  0.23701754  0.98701754  0.75000000  1
  B  B33  1  0.26298246  0.51298246  0.25000000  1
  B  B34  1  0.01298246  0.25000000  0.76298246  1
  B  B35  1  0.48701754  0.75000000  0.73701754  1
  B  B36  1  0.25000000  0.76298246  0.01298246  1
  B  B37  1  0.75000000  0.73701754  0.48701754  1
  B  B38  1  0.76298246  0.01298246  0.25000000  1
  B  B39  1  0.73701754  0.48701754  0.75000000  1
  B  B40  1  0.01202211  0.00601106  0.25601106  1
  B  B41  1  0.48797789  0.24398894  0.49398894  1
  B  B42  1  0.75000000  0.49398894  0.00601106  1
  B  B43  1  0.75000000  0.25601106  0.24398894  1
  B  B44  1  0.25601106  0.01202211  0.00601106  1
  B  B45  1  0.49398894  0.48797789  0.24398894  1
  B  B46  1  0.00601106  0.75000000  0.49398894  1
  B  B47  1  0.24398894  0.75000000  0.25601106  1
  B  B48  1  0.00601106  0.25601106  0.01202211  1
  B  B49  1  0.24398894  0.49398894  0.48797789  1
  B  B50  1  0.49398894  0.00601106  0.75000000  1
  B  B51  1  0.25601106  0.24398894  0.75000000  1
  B  B52  1  0.98797789  0.99398894  0.74398894  1
  B  B53  1  0.51202211  0.75601106  0.50601106  1
  B  B54  1  0.25000000  0.50601106  0.99398894  1
  B  B55  1  0.25000000  0.74398894  0.75601106  1
  B  B56  1  0.74398894  0.98797789  0.99398894  1
  B  B57  1  0.50601106  0.51202211  0.75601106  1
  B  B58  1  0.99398894  0.25000000  0.50601106  1
  B  B59  1  0.75601106  0.25000000  0.74398894  1
  B  B60  1  0.99398894  0.74398894  0.98797789  1
  B  B61  1  0.75601106  0.50601106  0.51202211  1
  B  B62  1  0.50601106  0.99398894  0.25000000  1
  B  B63  1  0.74398894  0.75601106  0.25000000  1
  Pd  Pd64  1  0.76120128  0.38060064  0.63060064  1
  Pd  Pd65  1  0.73879872  0.86939936  0.11939936  1
  Pd  Pd66  1  0.75000000  0.11939936  0.38060064  1
  Pd  Pd67  1  0.75000000  0.63060064  0.86939936  1
  Pd  Pd68  1  0.63060064  0.76120128  0.38060064  1
  Pd  Pd69  1  0.11939936  0.73879872  0.86939936  1
  Pd  Pd70  1  0.38060064  0.75000000  0.11939936  1
  Pd  Pd71  1  0.86939936  0.75000000  0.63060064  1
  Pd  Pd72  1  0.38060064  0.63060064  0.76120128  1
  Pd  Pd73  1  0.86939936  0.11939936  0.73879872  1
  Pd  Pd74  1  0.11939936  0.38060064  0.75000000  1
  Pd  Pd75  1  0.63060064  0.86939936  0.75000000  1
  Pd  Pd76  1  0.23879872  0.61939936  0.36939936  1
  Pd  Pd77  1  0.26120128  0.13060064  0.88060064  1
  Pd  Pd78  1  0.25000000  0.88060064  0.61939936  1
  Pd  Pd79  1  0.25000000  0.36939936  0.13060064  1
  Pd  Pd80  1  0.36939936  0.23879872  0.61939936  1
  Pd  Pd81  1  0.88060064  0.26120128  0.13060064  1
  Pd  Pd82  1  0.61939936  0.25000000  0.88060064  1
  Pd  Pd83  1  0.13060064  0.25000000  0.36939936  1
  Pd  Pd84  1  0.61939936  0.36939936  0.23879872  1
  Pd  Pd85  1  0.13060064  0.88060064  0.26120128  1
  Pd  Pd86  1  0.88060064  0.61939936  0.25000000  1
  Pd  Pd87  1  0.36939936  0.13060064  0.25000000  1
  Pd  Pd88  1  0.93022135  0.57650474  0.85217261  1
  Pd  Pd89  1  0.56977865  0.92195126  0.14628339  1
  Pd  Pd90  1  0.77566787  0.92349526  0.35371661  1
  Pd  Pd91  1  0.72433213  0.57804874  0.64782739  1
  Pd  Pd92  1  0.85217261  0.93022135  0.57650474  1
  Pd  Pd93  1  0.14628339  0.56977865  0.92195126  1
  Pd  Pd94  1  0.35371661  0.77566787  0.92349526  1
  Pd  Pd95  1  0.64782739  0.72433213  0.57804874  1
  Pd  Pd96  1  0.57650474  0.85217261  0.93022135  1
  Pd  Pd97  1  0.92195126  0.14628339  0.56977865  1
  Pd  Pd98  1  0.92349526  0.35371661  0.77566787  1
  Pd  Pd99  1  0.57804874  0.64782739  0.72433213  1
  Pd  Pd100  1  0.06977865  0.42349526  0.14782739  1
  Pd  Pd101  1  0.43022135  0.07804874  0.85371661  1
  Pd  Pd102  1  0.22433213  0.07650474  0.64628339  1
  Pd  Pd103  1  0.27566787  0.42195126  0.35217261  1
  Pd  Pd104  1  0.14782739  0.06977865  0.42349526  1
  Pd  Pd105  1  0.85371661  0.43022135  0.07804874  1
  Pd  Pd106  1  0.64628339  0.22433213  0.07650474  1
  Pd  Pd107  1  0.35217261  0.27566787  0.42195126  1
  Pd  Pd108  1  0.42349526  0.14782739  0.06977865  1
  Pd  Pd109  1  0.07804874  0.85371661  0.43022135  1
  Pd  Pd110  1  0.07650474  0.64628339  0.22433213  1
  Pd  Pd111  1  0.42195126  0.35217261  0.27566787  1
  Pd  Pd112  1  0.07650474  0.43022135  0.35217261  1
  Pd  Pd113  1  0.42195126  0.06977865  0.64628339  1
  Pd  Pd114  1  0.42349526  0.27566787  0.85371661  1
  Pd  Pd115  1  0.07804874  0.22433213  0.14782739  1
  Pd  Pd116  1  0.43022135  0.35217261  0.07650474  1
  Pd  Pd117  1  0.06977865  0.64628339  0.42195126  1
  Pd  Pd118  1  0.27566787  0.85371661  0.42349526  1
  Pd  Pd119  1  0.22433213  0.14782739  0.07804874  1
  Pd  Pd120  1  0.35217261  0.07650474  0.43022135  1
  Pd  Pd121  1  0.64628339  0.42195126  0.06977865  1
  Pd  Pd122  1  0.85371661  0.42349526  0.27566787  1
  Pd  Pd123  1  0.14782739  0.07804874  0.22433213  1
  Pd  Pd124  1  0.92349526  0.56977865  0.64782739  1
  Pd  Pd125  1  0.57804874  0.93022135  0.35371661  1
  Pd  Pd126  1  0.57650474  0.72433213  0.14628339  1
  Pd  Pd127  1  0.92195126  0.77566787  0.85217261  1
  Pd  Pd128  1  0.56977865  0.64782739  0.92349526  1
  Pd  Pd129  1  0.93022135  0.35371661  0.57804874  1
  Pd  Pd130  1  0.72433213  0.14628339  0.57650474  1
  Pd  Pd131  1  0.77566787  0.85217261  0.92195126  1
  Pd  Pd132  1  0.64782739  0.92349526  0.56977865  1
  Pd  Pd133  1  0.35371661  0.57804874  0.93022135  1
  Pd  Pd134  1  0.14628339  0.57650474  0.72433213  1
  Pd  Pd135  1  0.85217261  0.92195126  0.77566787  1
  Pd  Pd136  1  0.09284510  0.73061171  0.64742388  1
  Pd  Pd137  1  0.40715490  0.55457877  0.13776660  1
  Pd  Pd138  1  0.41681217  0.76938829  0.36223340  1
  Pd  Pd139  1  0.08318783  0.94542123  0.85257612  1
  Pd  Pd140  1  0.64742388  0.09284510  0.73061171  1
  Pd  Pd141  1  0.13776660  0.40715490  0.55457877  1
  Pd  Pd142  1  0.36223340  0.41681217  0.76938829  1
  Pd  Pd143  1  0.85257612  0.08318783  0.94542123  1
  Pd  Pd144  1  0.73061171  0.64742388  0.09284510  1
  Pd  Pd145  1  0.55457877  0.13776660  0.40715490  1
  Pd  Pd146  1  0.76938829  0.36223340  0.41681217  1
  Pd  Pd147  1  0.94542123  0.85257612  0.08318783  1
  Pd  Pd148  1  0.90715490  0.26938829  0.35257612  1
  Pd  Pd149  1  0.59284510  0.44542123  0.86223340  1
  Pd  Pd150  1  0.58318783  0.23061171  0.63776660  1
  Pd  Pd151  1  0.91681217  0.05457877  0.14742388  1
  Pd  Pd152  1  0.35257612  0.90715490  0.26938829  1
  Pd  Pd153  1  0.86223340  0.59284510  0.44542123  1
  Pd  Pd154  1  0.63776660  0.58318783  0.23061171  1
  Pd  Pd155  1  0.14742388  0.91681217  0.05457877  1
  Pd  Pd156  1  0.26938829  0.35257612  0.90715490  1
  Pd  Pd157  1  0.44542123  0.86223340  0.59284510  1
  Pd  Pd158  1  0.23061171  0.63776660  0.58318783  1
  Pd  Pd159  1  0.05457877  0.14742388  0.91681217  1
  Pd  Pd160  1  0.23061171  0.59284510  0.14742388  1
  Pd  Pd161  1  0.05457877  0.90715490  0.63776660  1
  Pd  Pd162  1  0.26938829  0.91681217  0.86223340  1
  Pd  Pd163  1  0.44542123  0.58318783  0.35257612  1
  Pd  Pd164  1  0.59284510  0.14742388  0.23061171  1
  Pd  Pd165  1  0.90715490  0.63776660  0.05457877  1
  Pd  Pd166  1  0.91681217  0.86223340  0.26938829  1
  Pd  Pd167  1  0.58318783  0.35257612  0.44542123  1
  Pd  Pd168  1  0.14742388  0.23061171  0.59284510  1
  Pd  Pd169  1  0.63776660  0.05457877  0.90715490  1
  Pd  Pd170  1  0.86223340  0.26938829  0.91681217  1
  Pd  Pd171  1  0.35257612  0.44542123  0.58318783  1
  Pd  Pd172  1  0.76938829  0.40715490  0.85257612  1
  Pd  Pd173  1  0.94542123  0.09284510  0.36223340  1
  Pd  Pd174  1  0.73061171  0.08318783  0.13776660  1
  Pd  Pd175  1  0.55457877  0.41681217  0.64742388  1
  Pd  Pd176  1  0.40715490  0.85257612  0.76938829  1
  Pd  Pd177  1  0.09284510  0.36223340  0.94542123  1
  Pd  Pd178  1  0.08318783  0.13776660  0.73061171  1
  Pd  Pd179  1  0.41681217  0.64742388  0.55457877  1
  Pd  Pd180  1  0.85257612  0.76938829  0.40715490  1
  Pd  Pd181  1  0.36223340  0.94542123  0.09284510  1
  Pd  Pd182  1  0.13776660  0.73061171  0.08318783  1
  Pd  Pd183  1  0.64742388  0.55457877  0.41681217  1
