# generated using pymatgen
data_TiP2(HO4)2
_symmetry_space_group_name_H-M   'P 1'
_cell_length_a   6.40387600
_cell_length_b   5.25237800
_cell_length_c   18.73303863
_cell_angle_alpha   89.83612005
_cell_angle_beta   90.00000000
_cell_angle_gamma   90.00000000
_symmetry_Int_Tables_number   1
_chemical_formula_structural   TiP2(HO4)2
_chemical_formula_sum   'Ti4 P8 H8 O32'
_cell_volume   630.09399360
_cell_formula_units_Z   4
loop_
 _symmetry_equiv_pos_site_id
 _symmetry_equiv_pos_as_xyz
  1  'x, y, z'
loop_
 _atom_site_type_symbol
 _atom_site_label
 _atom_site_symmetry_multiplicity
 _atom_site_fract_x
 _atom_site_fract_y
 _atom_site_fract_z
 _atom_site_occupancy
  Ti  Ti0  1  0.74794100  0.76186000  0.66884900  1
  Ti  Ti1  1  0.75205900  0.76186000  0.16884900  1
  Ti  Ti2  1  0.25205900  0.23814000  0.33115100  1
  Ti  Ti3  1  0.24794100  0.23814000  0.83115100  1
  P  P4  1  0.83525900  0.24765600  0.56135700  1
  P  P5  1  0.66474100  0.24765600  0.06135700  1
  P  P6  1  0.16474100  0.75234400  0.43864300  1
  P  P7  1  0.33525900  0.75234400  0.93864300  1
  P  P8  1  0.25253500  0.73332600  0.71450900  1
  P  P9  1  0.24746500  0.73332600  0.21450900  1
  P  P10  1  0.74746500  0.26667400  0.28549100  1
  P  P11  1  0.75253500  0.26667400  0.78549100  1
  H  H12  1  0.84467700  0.60992600  0.44405200  1
  H  H13  1  0.65532300  0.60992600  0.94405200  1
  H  H14  1  0.15532300  0.39007400  0.55594800  1
  H  H15  1  0.34467700  0.39007400  0.05594800  1
  H  H16  1  0.82155200  0.17706000  0.44411700  1
  H  H17  1  0.67844800  0.17706000  0.94411700  1
  H  H18  1  0.17844800  0.82294000  0.55588300  1
  H  H19  1  0.32155200  0.82294000  0.05588300  1
  O  O20  1  0.44636900  0.76157700  0.66644200  1
  O  O21  1  0.05363100  0.76157700  0.16644200  1
  O  O22  1  0.55363100  0.23842300  0.33355800  1
  O  O23  1  0.94636900  0.23842300  0.83355800  1
  O  O24  1  0.24527000  0.47030000  0.25181900  1
  O  O25  1  0.25473000  0.47030000  0.75181900  1
  O  O26  1  0.75473000  0.52970000  0.74818100  1
  O  O27  1  0.74527000  0.52970000  0.24818100  1
  O  O28  1  0.44084900  0.75558000  0.16609800  1
  O  O29  1  0.05915100  0.75558000  0.66609800  1
  O  O30  1  0.55915100  0.24442000  0.83390200  1
  O  O31  1  0.94084900  0.24442000  0.33390200  1
  O  O32  1  0.25451200  0.94505400  0.77168700  1
  O  O33  1  0.24548800  0.94505400  0.27168700  1
  O  O34  1  0.74548800  0.05494600  0.22831300  1
  O  O35  1  0.75451200  0.05494600  0.72831300  1
  O  O36  1  0.24737100  0.01320200  0.41866700  1
  O  O37  1  0.25262900  0.01320200  0.91866700  1
  O  O38  1  0.75262900  0.98679800  0.58133300  1
  O  O39  1  0.74737100  0.98679800  0.08133300  1
  O  O40  1  0.24448400  0.52665200  0.89930600  1
  O  O41  1  0.25551600  0.52665200  0.39930600  1
  O  O42  1  0.75551600  0.47334800  0.10069400  1
  O  O43  1  0.74448400  0.47334800  0.60069400  1
  O  O44  1  0.41890800  0.23026400  0.06948100  1
  O  O45  1  0.08109200  0.23026400  0.56948100  1
  O  O46  1  0.58109200  0.76973600  0.93051900  1
  O  O47  1  0.91890800  0.76973600  0.43051900  1
  O  O48  1  0.28349800  0.69168900  0.02068500  1
  O  O49  1  0.21650200  0.69168900  0.52068500  1
  O  O50  1  0.71650200  0.30831100  0.97931500  1
  O  O51  1  0.78349800  0.30831100  0.47931500  1
