# generated using pymatgen
data_SrVCuHO5
_symmetry_space_group_name_H-M   'P 1'
_cell_length_a   5.94640200
_cell_length_b   7.62538800
_cell_length_c   9.86337100
_cell_angle_alpha   90.00000000
_cell_angle_beta   90.00000000
_cell_angle_gamma   90.00000000
_symmetry_Int_Tables_number   1
_chemical_formula_structural   SrVCuHO5
_chemical_formula_sum   'Sr4 V4 Cu4 H4 O20'
_cell_volume   447.24097075
_cell_formula_units_Z   4
loop_
 _symmetry_equiv_pos_site_id
 _symmetry_equiv_pos_as_xyz
  1  'x, y, z'
loop_
 _atom_site_type_symbol
 _atom_site_label
 _atom_site_symmetry_multiplicity
 _atom_site_fract_x
 _atom_site_fract_y
 _atom_site_fract_z
 _atom_site_occupancy
  Sr  Sr0  1  0.02139600  0.36479200  0.82668400  1
  Sr  Sr1  1  0.52139600  0.13520800  0.17331600  1
  Sr  Sr2  1  0.97860400  0.86479200  0.67331600  1
  Sr  Sr3  1  0.47860400  0.63520800  0.32668400  1
  V  V4  1  0.99007800  0.39059300  0.16604600  1
  V  V5  1  0.49007800  0.10940700  0.83395400  1
  V  V6  1  0.00992200  0.89059300  0.33395400  1
  V  V7  1  0.50992200  0.60940700  0.66604600  1
  Cu  Cu8  1  0.25103400  0.75253300  0.00045300  1
  Cu  Cu9  1  0.75103400  0.74746700  0.99954700  1
  Cu  Cu10  1  0.74896600  0.25253300  0.49954700  1
  Cu  Cu11  1  0.24896600  0.24746700  0.50045300  1
  H  H12  1  0.99220100  0.00265100  0.98594100  1
  H  H13  1  0.49220100  0.49734900  0.01405900  1
  H  H14  1  0.00779900  0.50265100  0.51405900  1
  H  H15  1  0.50779900  0.99734900  0.48594100  1
  O  O16  1  0.00342200  0.57511100  0.04913600  1
  O  O17  1  0.50342200  0.92488900  0.95086400  1
  O  O18  1  0.99657800  0.07511100  0.45086400  1
  O  O19  1  0.49657800  0.42488900  0.54913600  1
  O  O20  1  0.94801300  0.21025000  0.06184300  1
  O  O21  1  0.44801300  0.28975000  0.93815700  1
  O  O22  1  0.05198700  0.71025000  0.43815700  1
  O  O23  1  0.55198700  0.78975000  0.56184300  1
  O  O24  1  0.26255200  0.62974000  0.75637000  1
  O  O25  1  0.76255200  0.87026000  0.24363000  1
  O  O26  1  0.73744800  0.12974000  0.74363000  1
  O  O27  1  0.23744800  0.37026000  0.25637000  1
  O  O28  1  0.74138700  0.60441300  0.77214100  1
  O  O29  1  0.24138700  0.89558700  0.22785900  1
  O  O30  1  0.25861300  0.10441300  0.72785900  1
  O  O31  1  0.75861300  0.39558700  0.27214100  1
  O  O32  1  0.99920300  0.88939200  0.93629300  1
  O  O33  1  0.49920300  0.61060800  0.06370700  1
  O  O34  1  0.00079700  0.38939200  0.56370700  1
  O  O35  1  0.50079700  0.11060800  0.43629300  1
