# generated using pymatgen
data_HgH8C2S2(NCl)4
_symmetry_space_group_name_H-M   'P 1'
_cell_length_a   15.11668400
_cell_length_b   8.78188100
_cell_length_c   11.96424288
_cell_angle_alpha   59.31585203
_cell_angle_beta   90.00000000
_cell_angle_gamma   90.00000000
_symmetry_Int_Tables_number   1
_chemical_formula_structural   HgH8C2S2(NCl)4
_chemical_formula_sum   'Hg4 H32 C8 S8 N16 Cl16'
_cell_volume   1365.91749466
_cell_formula_units_Z   4
loop_
 _symmetry_equiv_pos_site_id
 _symmetry_equiv_pos_as_xyz
  1  'x, y, z'
loop_
 _atom_site_type_symbol
 _atom_site_label
 _atom_site_symmetry_multiplicity
 _atom_site_fract_x
 _atom_site_fract_y
 _atom_site_fract_z
 _atom_site_occupancy
  Hg  Hg0  1  0.97997000  0.28503500  0.82281400  1
  Hg  Hg1  1  0.52003000  0.28503500  0.32281400  1
  Hg  Hg2  1  0.02003000  0.71496500  0.17718600  1
  Hg  Hg3  1  0.47997000  0.71496500  0.67718600  1
  H  H4  1  0.90104800  0.75319600  0.90257400  1
  H  H5  1  0.59895200  0.75319600  0.40257400  1
  H  H6  1  0.09895200  0.24680400  0.09742600  1
  H  H7  1  0.40104800  0.24680400  0.59742600  1
  H  H8  1  0.83504800  0.89963000  0.92570600  1
  H  H9  1  0.66495200  0.89963000  0.42570600  1
  H  H10  1  0.16495200  0.10037000  0.07429400  1
  H  H11  1  0.33504800  0.10037000  0.57429400  1
  H  H12  1  0.86246100  0.44861500  0.00486600  1
  H  H13  1  0.63753900  0.44861500  0.50486600  1
  H  H14  1  0.13753900  0.55138500  0.99513400  1
  H  H15  1  0.36246100  0.55138500  0.49513400  1
  H  H16  1  0.76674100  0.37672600  0.10371500  1
  H  H17  1  0.73325900  0.37672600  0.60371500  1
  H  H18  1  0.23325900  0.62327400  0.89628500  1
  H  H19  1  0.26674100  0.62327400  0.39628500  1
  H  H20  1  0.58217900  0.27534200  0.87936400  1
  H  H21  1  0.91782100  0.27534200  0.37936400  1
  H  H22  1  0.41782100  0.72465800  0.12063600  1
  H  H23  1  0.08217900  0.72465800  0.62063600  1
  H  H24  1  0.64297600  0.20713200  0.02393900  1
  H  H25  1  0.85702400  0.20713200  0.52393900  1
  H  H26  1  0.35702400  0.79286800  0.97606100  1
  H  H27  1  0.14297600  0.79286800  0.47606100  1
  H  H28  1  0.56242400  0.07688800  0.80772300  1
  H  H29  1  0.93757600  0.07688800  0.30772300  1
  H  H30  1  0.43757600  0.92311200  0.19227700  1
  H  H31  1  0.06242400  0.92311200  0.69227700  1
  H  H32  1  0.61687700  0.87107000  0.88218200  1
  H  H33  1  0.88312300  0.87107000  0.38218200  1
  H  H34  1  0.38312300  0.12893000  0.11781800  1
  H  H35  1  0.11687700  0.12893000  0.61781800  1
  C  C36  1  0.79538400  0.63909100  0.02098800  1
  C  C37  1  0.70461600  0.63909100  0.52098800  1
  C  C38  1  0.20461600  0.36090900  0.97901200  1
  C  C39  1  0.29538400  0.36090900  0.47901200  1
  C  C40  1  0.64090700  0.03344600  0.95781200  1
  C  C41  1  0.85909300  0.03344600  0.45781200  1
  C  C42  1  0.35909300  0.96655400  0.04218800  1
  C  C43  1  0.14090700  0.96655400  0.54218800  1
  S  S44  1  0.69990200  0.65599500  0.10200100  1
  S  S45  1  0.80009800  0.65599500  0.60200100  1
  S  S46  1  0.30009800  0.34400500  0.89799900  1
  S  S47  1  0.19990200  0.34400500  0.39799900  1
  S  S48  1  0.71726100  0.89799000  0.08190200  1
  S  S49  1  0.78273900  0.89799000  0.58190200  1
  S  S50  1  0.28273900  0.10201000  0.91809800  1
  S  S51  1  0.21726100  0.10201000  0.41809800  1
  N  N52  1  0.84832800  0.77320100  0.94779600  1
  N  N53  1  0.65167200  0.77320100  0.44779600  1
  N  N54  1  0.15167200  0.22679900  0.05220400  1
  N  N55  1  0.34832800  0.22679900  0.55220400  1
  N  N56  1  0.80910900  0.47787400  0.04308600  1
  N  N57  1  0.69089100  0.47787400  0.54308600  1
  N  N58  1  0.19089100  0.52212600  0.95691400  1
  N  N59  1  0.30910900  0.52212600  0.45691400  1
  N  N60  1  0.62455500  0.18611800  0.95001900  1
  N  N61  1  0.87544500  0.18611800  0.45001900  1
  N  N62  1  0.37544500  0.81388200  0.04998100  1
  N  N63  1  0.12455500  0.81388200  0.54998100  1
  N  N64  1  0.60487700  0.98906800  0.87771100  1
  N  N65  1  0.89512300  0.98906800  0.37771100  1
  N  N66  1  0.39512300  0.01093200  0.12228900  1
  N  N67  1  0.10487700  0.01093200  0.62228900  1
  Cl  Cl68  1  0.84106800  0.20866900  0.71411600  1
  Cl  Cl69  1  0.65893200  0.20866900  0.21411600  1
  Cl  Cl70  1  0.15893200  0.79133100  0.28588400  1
  Cl  Cl71  1  0.34106800  0.79133100  0.78588400  1
  Cl  Cl72  1  0.92253500  0.13788300  0.04416500  1
  Cl  Cl73  1  0.57746500  0.13788300  0.54416500  1
  Cl  Cl74  1  0.07746500  0.86211700  0.95583500  1
  Cl  Cl75  1  0.42253500  0.86211700  0.45583500  1
  Cl  Cl76  1  0.10333300  0.34841600  0.67459900  1
  Cl  Cl77  1  0.39666700  0.34841600  0.17459900  1
  Cl  Cl78  1  0.89666700  0.65158400  0.32540100  1
  Cl  Cl79  1  0.60333300  0.65158400  0.82540100  1
  Cl  Cl80  1  0.97492600  0.63081200  0.78268000  1
  Cl  Cl81  1  0.52507400  0.63081200  0.28268000  1
  Cl  Cl82  1  0.02507400  0.36918800  0.21732000  1
  Cl  Cl83  1  0.47492600  0.36918800  0.71732000  1
