# generated using pymatgen
data_U(PO3)4
_symmetry_space_group_name_H-M   'P 1'
_cell_length_a   8.30392033
_cell_length_b   8.84160819
_cell_length_c   14.67501811
_cell_angle_alpha   78.64602334
_cell_angle_beta   74.38344948
_cell_angle_gamma   62.15357095
_symmetry_Int_Tables_number   1
_chemical_formula_structural   U(PO3)4
_chemical_formula_sum   'U4 P16 O48'
_cell_volume   914.30118716
_cell_formula_units_Z   4
loop_
 _symmetry_equiv_pos_site_id
 _symmetry_equiv_pos_as_xyz
  1  'x, y, z'
loop_
 _atom_site_type_symbol
 _atom_site_label
 _atom_site_symmetry_multiplicity
 _atom_site_fract_x
 _atom_site_fract_y
 _atom_site_fract_z
 _atom_site_occupancy
  U  U0  1  0.62577700  0.66994700  0.60913100  1
  U  U1  1  0.37422300  0.33005300  0.39086900  1
  U  U2  1  0.90521400  0.84056100  0.88870900  1
  U  U3  1  0.09478600  0.15943900  0.11129100  1
  P  P4  1  0.24681900  0.01233300  0.74279500  1
  P  P5  1  0.75318100  0.98766700  0.25720500  1
  P  P6  1  0.30263000  0.47120000  0.74647800  1
  P  P7  1  0.69737000  0.52880000  0.25352200  1
  P  P8  1  0.60244100  0.86612100  0.13181200  1
  P  P9  1  0.39755900  0.13387900  0.86818800  1
  P  P10  1  0.88751300  0.64587000  0.36132200  1
  P  P11  1  0.11248700  0.35413000  0.63867800  1
  P  P12  1  0.87611300  0.91966500  0.63283900  1
  P  P13  1  0.12388700  0.08033500  0.36716100  1
  P  P14  1  0.26104400  0.72714000  0.02070900  1
  P  P15  1  0.73895600  0.27286000  0.97929100  1
  P  P16  1  0.62881600  0.62287400  0.87515200  1
  P  P17  1  0.37118400  0.37712600  0.12484800  1
  P  P18  1  0.23863700  0.74485400  0.49396600  1
  P  P19  1  0.76136300  0.25514600  0.50603400  1
  O  O20  1  0.78371300  0.64584700  0.89522000  1
  O  O21  1  0.21628700  0.35415300  0.10478000  1
  O  O22  1  0.34168500  0.57305400  0.09980300  1
  O  O23  1  0.65831500  0.42694600  0.90019700  1
  O  O24  1  0.79162800  0.71242300  0.45759200  1
  O  O25  1  0.20837200  0.28757700  0.54240800  1
  O  O26  1  0.86202500  0.10168700  0.58065700  1
  O  O27  1  0.13797500  0.89831300  0.41934300  1
  O  O28  1  0.74207300  0.87363100  0.60887300  1
  O  O29  1  0.25792700  0.12636900  0.39112700  1
  O  O30  1  0.90737000  0.79861600  0.28544400  1
  O  O31  1  0.09263000  0.20138400  0.71455600  1
  O  O32  1  0.62010600  0.94521400  0.21615900  1
  O  O33  1  0.37989400  0.05478600  0.78384100  1
  O  O34  1  0.41136300  0.30567500  0.81299800  1
  O  O35  1  0.58863700  0.69432500  0.18700200  1
  O  O36  1  0.41761000  0.98287000  0.10677400  1
  O  O37  1  0.58239000  0.01713000  0.89322600  1
  O  O38  1  0.77324600  0.82070500  0.05401600  1
  O  O39  1  0.22675400  0.17929500  0.94598400  1
  O  O40  1  0.15192800  0.68680500  0.97070600  1
  O  O41  1  0.84807200  0.31319500  0.02929400  1
  O  O42  1  0.36327800  0.92251000  0.65412200  1
  O  O43  1  0.63672200  0.07749000  0.34587800  1
  O  O44  1  0.58727800  0.67486300  0.77782500  1
  O  O45  1  0.41272200  0.32513700  0.22217500  1
  O  O46  1  0.41236700  0.74379800  0.50554700  1
  O  O47  1  0.58763300  0.25620200  0.49445300  1
  O  O48  1  0.07698000  0.49738000  0.34959100  1
  O  O49  1  0.92302000  0.50262000  0.65040900  1
  O  O50  1  0.14706300  0.92720300  0.81734500  1
  O  O51  1  0.85293700  0.07279700  0.18265500  1
  O  O52  1  0.86620200  0.92727000  0.73590700  1
  O  O53  1  0.13379800  0.07273000  0.26409300  1
  O  O54  1  0.44638100  0.52889900  0.68848600  1
  O  O55  1  0.55361900  0.47110100  0.31151400  1
  O  O56  1  0.24676500  0.58677300  0.46585900  1
  O  O57  1  0.75323500  0.41322700  0.53414100  1
  O  O58  1  0.74365300  0.60983300  0.32581100  1
  O  O59  1  0.25634700  0.39016700  0.67418900  1
  O  O60  1  0.08891300  0.79453700  0.59233700  1
  O  O61  1  0.91108700  0.20546300  0.40766300  1
  O  O62  1  0.44762100  0.72596900  0.95231100  1
  O  O63  1  0.55237900  0.27403100  0.04768900  1
  O  O64  1  0.16661700  0.89153100  0.06752200  1
  O  O65  1  0.83338300  0.10846900  0.93247800  1
  O  O66  1  0.12991500  0.59725000  0.80315200  1
  O  O67  1  0.87008500  0.40275000  0.19684800  1
