# generated using pymatgen
data_MnH8C3(NO3)2
_symmetry_space_group_name_H-M   'P 1'
_cell_length_a   9.07927200
_cell_length_b   7.94853800
_cell_length_c   11.92284700
_cell_angle_alpha   90.00000000
_cell_angle_beta   90.00000000
_cell_angle_gamma   90.00000000
_symmetry_Int_Tables_number   1
_chemical_formula_structural   MnH8C3(NO3)2
_chemical_formula_sum   'Mn4 H32 C12 N8 O24'
_cell_volume   860.43536625
_cell_formula_units_Z   4
loop_
 _symmetry_equiv_pos_site_id
 _symmetry_equiv_pos_as_xyz
  1  'x, y, z'
loop_
 _atom_site_type_symbol
 _atom_site_label
 _atom_site_symmetry_multiplicity
 _atom_site_fract_x
 _atom_site_fract_y
 _atom_site_fract_z
 _atom_site_occupancy
  Mn  Mn0  1  0.03368800  0.00081100  0.61141100  1
  Mn  Mn1  1  0.96631200  0.99918900  0.11141100  1
  Mn  Mn2  1  0.46631200  0.50081100  0.11141100  1
  Mn  Mn3  1  0.53368800  0.49918900  0.61141100  1
  H  H4  1  0.83118300  0.31315700  0.60952900  1
  H  H5  1  0.16881700  0.68684300  0.10952900  1
  H  H6  1  0.66881700  0.81315700  0.10952900  1
  H  H7  1  0.33118300  0.18684300  0.60952900  1
  H  H8  1  0.76941300  0.76494700  0.65559100  1
  H  H9  1  0.23058700  0.23505300  0.15559100  1
  H  H10  1  0.73058700  0.26494700  0.15559100  1
  H  H11  1  0.26941300  0.73505300  0.65559100  1
  H  H12  1  0.03971300  0.06802700  0.85904500  1
  H  H13  1  0.96028700  0.93197300  0.35904500  1
  H  H14  1  0.46028700  0.56802700  0.35904500  1
  H  H15  1  0.53971300  0.43197300  0.85904500  1
  H  H16  1  0.57813300  0.87477900  0.80799700  1
  H  H17  1  0.42186700  0.12522100  0.30799700  1
  H  H18  1  0.92186700  0.37477900  0.30799700  1
  H  H19  1  0.07813300  0.62522100  0.80799700  1
  H  H20  1  0.58456300  0.08641400  0.78045100  1
  H  H21  1  0.41543700  0.91358600  0.28045100  1
  H  H22  1  0.91543700  0.58641400  0.28045100  1
  H  H23  1  0.08456300  0.41358600  0.78045100  1
  H  H24  1  0.64491500  0.01410300  0.90694700  1
  H  H25  1  0.35508500  0.98589700  0.40694700  1
  H  H26  1  0.85508500  0.51410300  0.40694700  1
  H  H27  1  0.14491500  0.48589700  0.90694700  1
  H  H28  1  0.40458000  0.90120000  0.93177300  1
  H  H29  1  0.59542000  0.09880000  0.43177300  1
  H  H30  1  0.09542000  0.40120000  0.43177300  1
  H  H31  1  0.90458000  0.59880000  0.93177300  1
  H  H32  1  0.42028500  0.10802900  0.93902700  1
  H  H33  1  0.57971500  0.89197100  0.43902700  1
  H  H34  1  0.07971500  0.60802900  0.43902700  1
  H  H35  1  0.92028500  0.39197100  0.93902700  1
  C  C36  1  0.76273100  0.22058900  0.65523800  1
  C  C37  1  0.23726900  0.77941100  0.15523800  1
  C  C38  1  0.73726900  0.72058900  0.15523800  1
  C  C39  1  0.26273100  0.27941100  0.65523800  1
  C  C40  1  0.81672900  0.70793100  0.57897800  1
  C  C41  1  0.18327100  0.29206900  0.07897800  1
  C  C42  1  0.68327100  0.20793100  0.07897800  1
  C  C43  1  0.31672900  0.79206900  0.57897800  1
  C  C44  1  0.03559500  0.92901200  0.86170100  1
  C  C45  1  0.96440500  0.07098800  0.36170100  1
  C  C46  1  0.46440500  0.42901200  0.36170100  1
  C  C47  1  0.53559500  0.57098800  0.86170100  1
  N  N48  1  0.56732200  0.99556900  0.84271100  1
  N  N49  1  0.43267800  0.00443100  0.34271100  1
  N  N50  1  0.93267800  0.49556900  0.34271100  1
  N  N51  1  0.06732200  0.50443100  0.84271100  1
  N  N52  1  0.41747400  0.00818600  0.88427200  1
  N  N53  1  0.58252600  0.99181400  0.38427200  1
  N  N54  1  0.08252600  0.50818600  0.38427200  1
  N  N55  1  0.91747400  0.49181400  0.88427200  1
  O  O56  1  0.81882500  0.07918100  0.67896000  1
  O  O57  1  0.18117500  0.92081900  0.17896000  1
  O  O58  1  0.68117500  0.57918100  0.17896000  1
  O  O59  1  0.31882500  0.42081900  0.67896000  1
  O  O60  1  0.63112300  0.26281100  0.68072100  1
  O  O61  1  0.36887700  0.73718900  0.18072100  1
  O  O62  1  0.86887700  0.76281100  0.18072100  1
  O  O63  1  0.13112300  0.23718900  0.68072100  1
  O  O64  1  0.93413400  0.77045300  0.53907100  1
  O  O65  1  0.06586600  0.22954700  0.03907100  1
  O  O66  1  0.56586600  0.27045300  0.03907100  1
  O  O67  1  0.43413400  0.72954700  0.53907100  1
  O  O68  1  0.74878900  0.58267700  0.53640100  1
  O  O69  1  0.25121100  0.41732300  0.03640100  1
  O  O70  1  0.75121100  0.08267700  0.03640100  1
  O  O71  1  0.24878900  0.91732300  0.53640100  1
  O  O72  1  0.05649100  0.84970300  0.77002300  1
  O  O73  1  0.94350900  0.15029700  0.27002300  1
  O  O74  1  0.44350900  0.34970300  0.27002300  1
  O  O75  1  0.55649100  0.65029700  0.77002300  1
  O  O76  1  0.01085900  0.85839100  0.95528300  1
  O  O77  1  0.98914100  0.14160900  0.45528300  1
  O  O78  1  0.48914100  0.35839100  0.45528300  1
  O  O79  1  0.51085900  0.64160900  0.95528300  1
