# generated using pymatgen
data_RbAg5(PS4)2
_symmetry_space_group_name_H-M   'P 1'
_cell_length_a   12.75944800
_cell_length_b   12.80101800
_cell_length_c   18.02697300
_cell_angle_alpha   90.00000000
_cell_angle_beta   90.00000000
_cell_angle_gamma   90.00000000
_symmetry_Int_Tables_number   1
_chemical_formula_structural   RbAg5(PS4)2
_chemical_formula_sum   'Rb8 Ag40 P16 S64'
_cell_volume   2944.41622924
_cell_formula_units_Z   8
loop_
 _symmetry_equiv_pos_site_id
 _symmetry_equiv_pos_as_xyz
  1  'x, y, z'
loop_
 _atom_site_type_symbol
 _atom_site_label
 _atom_site_symmetry_multiplicity
 _atom_site_fract_x
 _atom_site_fract_y
 _atom_site_fract_z
 _atom_site_occupancy
  Rb  Rb0  1  0.53723400  0.26450900  0.24913500  1
  Rb  Rb1  1  0.03723400  0.23549100  0.75086500  1
  Rb  Rb2  1  0.46276600  0.76450900  0.25086500  1
  Rb  Rb3  1  0.96276600  0.73549100  0.74913500  1
  Rb  Rb4  1  0.46276600  0.73549100  0.75086500  1
  Rb  Rb5  1  0.96276600  0.76450900  0.24913500  1
  Rb  Rb6  1  0.53723400  0.23549100  0.74913500  1
  Rb  Rb7  1  0.03723400  0.26450900  0.25086500  1
  Ag  Ag8  1  0.50491900  0.01921800  0.37041000  1
  Ag  Ag9  1  0.00491900  0.48078200  0.62959000  1
  Ag  Ag10  1  0.49508100  0.51921800  0.12959000  1
  Ag  Ag11  1  0.99508100  0.98078200  0.87041000  1
  Ag  Ag12  1  0.49508100  0.98078200  0.62959000  1
  Ag  Ag13  1  0.99508100  0.51921800  0.37041000  1
  Ag  Ag14  1  0.50491900  0.48078200  0.87041000  1
  Ag  Ag15  1  0.00491900  0.01921800  0.12959000  1
  Ag  Ag16  1  0.75841600  0.26353400  0.11832500  1
  Ag  Ag17  1  0.25841600  0.23646600  0.88167500  1
  Ag  Ag18  1  0.24158400  0.76353400  0.38167500  1
  Ag  Ag19  1  0.74158400  0.73646600  0.61832500  1
  Ag  Ag20  1  0.24158400  0.73646600  0.88167500  1
  Ag  Ag21  1  0.74158400  0.76353400  0.11832500  1
  Ag  Ag22  1  0.75841600  0.23646600  0.61832500  1
  Ag  Ag23  1  0.25841600  0.26353400  0.38167500  1
  Ag  Ag24  1  0.75873500  0.24725100  0.38163400  1
  Ag  Ag25  1  0.25873500  0.25274900  0.61836600  1
  Ag  Ag26  1  0.24126500  0.74725100  0.11836600  1
  Ag  Ag27  1  0.74126500  0.75274900  0.88163400  1
  Ag  Ag28  1  0.24126500  0.75274900  0.61836600  1
  Ag  Ag29  1  0.74126500  0.74725100  0.38163400  1
  Ag  Ag30  1  0.75873500  0.25274900  0.88163400  1
  Ag  Ag31  1  0.25873500  0.24725100  0.11836600  1
  Ag  Ag32  1  0.80524100  0.06239800  0.03159700  1
  Ag  Ag33  1  0.30524100  0.43760200  0.96840300  1
  Ag  Ag34  1  0.19475900  0.56239800  0.46840300  1
  Ag  Ag35  1  0.69475900  0.93760200  0.53159700  1
  Ag  Ag36  1  0.19475900  0.93760200  0.96840300  1
  Ag  Ag37  1  0.69475900  0.56239800  0.03159700  1
  Ag  Ag38  1  0.80524100  0.43760200  0.53159700  1
  Ag  Ag39  1  0.30524100  0.06239800  0.46840300  1
  Ag  Ag40  1  0.98260500  0.02148300  0.38514000  1
  Ag  Ag41  1  0.48260500  0.47851700  0.61486000  1
  Ag  Ag42  1  0.01739500  0.52148300  0.11486000  1
  Ag  Ag43  1  0.51739500  0.97851700  0.88514000  1
  Ag  Ag44  1  0.01739500  0.97851700  0.61486000  1
  Ag  Ag45  1  0.51739500  0.52148300  0.38514000  1
  Ag  Ag46  1  0.98260500  0.47851700  0.88514000  1
  Ag  Ag47  1  0.48260500  0.02148300  0.11486000  1
  P  P48  1  0.51903300  0.24498800  0.49677300  1
  P  P49  1  0.01903300  0.25501200  0.50322700  1
  P  P50  1  0.48096700  0.74498800  0.00322700  1
  P  P51  1  0.98096700  0.75501200  0.99677300  1
  P  P52  1  0.48096700  0.75501200  0.50322700  1
  P  P53  1  0.98096700  0.74498800  0.49677300  1
  P  P54  1  0.51903300  0.25501200  0.99677300  1
  P  P55  1  0.01903300  0.24498800  0.00322700  1
  P  P56  1  0.75326300  0.02196900  0.24920000  1
  P  P57  1  0.25326300  0.47803100  0.75080000  1
  P  P58  1  0.24673700  0.52196900  0.25080000  1
  P  P59  1  0.74673700  0.97803100  0.74920000  1
  P  P60  1  0.24673700  0.97803100  0.75080000  1
  P  P61  1  0.74673700  0.52196900  0.24920000  1
  P  P62  1  0.75326300  0.47803100  0.74920000  1
  P  P63  1  0.25326300  0.02196900  0.25080000  1
  S  S64  1  0.60889100  0.15400100  0.06203900  1
  S  S65  1  0.10889100  0.34599900  0.93796100  1
  S  S66  1  0.39110900  0.65400100  0.43796100  1
  S  S67  1  0.89110900  0.84599900  0.56203900  1
  S  S68  1  0.39110900  0.84599900  0.93796100  1
  S  S69  1  0.89110900  0.65400100  0.06203900  1
  S  S70  1  0.60889100  0.34599900  0.56203900  1
  S  S71  1  0.10889100  0.15400100  0.43796100  1
  S  S72  1  0.62123700  0.13955700  0.44730300  1
  S  S73  1  0.12123700  0.36044300  0.55269700  1
  S  S74  1  0.37876300  0.63955700  0.05269700  1
  S  S75  1  0.87876300  0.86044300  0.94730300  1
  S  S76  1  0.37876300  0.86044300  0.55269700  1
  S  S77  1  0.87876300  0.63955700  0.44730300  1
  S  S78  1  0.62123700  0.36044300  0.94730300  1
  S  S79  1  0.12123700  0.13955700  0.05269700  1
  S  S80  1  0.68175800  0.45382400  0.15151700  1
  S  S81  1  0.18175800  0.04617600  0.84848300  1
  S  S82  1  0.31824200  0.95382400  0.34848300  1
  S  S83  1  0.81824200  0.54617600  0.65151700  1
  S  S84  1  0.31824200  0.54617600  0.84848300  1
  S  S85  1  0.81824200  0.95382400  0.15151700  1
  S  S86  1  0.68175800  0.04617600  0.65151700  1
  S  S87  1  0.18175800  0.45382400  0.34848300  1
  S  S88  1  0.69132700  0.45153400  0.34488000  1
  S  S89  1  0.19132700  0.04846600  0.65512000  1
  S  S90  1  0.30867300  0.95153400  0.15512000  1
  S  S91  1  0.80867300  0.54846600  0.84488000  1
  S  S92  1  0.30867300  0.54846600  0.65512000  1
  S  S93  1  0.80867300  0.95153400  0.34488000  1
  S  S94  1  0.69132700  0.04846600  0.84488000  1
  S  S95  1  0.19132700  0.45153400  0.15512000  1
  S  S96  1  0.79483700  0.17736300  0.24926600  1
  S  S97  1  0.29483700  0.32263700  0.75073400  1
  S  S98  1  0.20516300  0.67736300  0.25073400  1
  S  S99  1  0.70516300  0.82263700  0.74926600  1
  S  S100  1  0.20516300  0.82263700  0.75073400  1
  S  S101  1  0.70516300  0.67736300  0.24926600  1
  S  S102  1  0.79483700  0.32263700  0.74926600  1
  S  S103  1  0.29483700  0.17736300  0.25073400  1
  S  S104  1  0.90470300  0.49742500  0.24278300  1
  S  S105  1  0.40470300  0.00257500  0.75721700  1
  S  S106  1  0.09529700  0.99742500  0.25721700  1
  S  S107  1  0.59529700  0.50257500  0.74278300  1
  S  S108  1  0.09529700  0.50257500  0.75721700  1
  S  S109  1  0.59529700  0.99742500  0.24278300  1
  S  S110  1  0.90470300  0.00257500  0.74278300  1
  S  S111  1  0.40470300  0.49742500  0.25721700  1
  S  S112  1  0.91774500  0.34218000  0.43571600  1
  S  S113  1  0.41774500  0.15782000  0.56428400  1
  S  S114  1  0.08225500  0.84218000  0.06428400  1
  S  S115  1  0.58225500  0.65782000  0.93571600  1
  S  S116  1  0.08225500  0.65782000  0.56428400  1
  S  S117  1  0.58225500  0.84218000  0.43571600  1
  S  S118  1  0.91774500  0.15782000  0.93571600  1
  S  S119  1  0.41774500  0.34218000  0.06428400  1
  S  S120  1  0.93416900  0.33483900  0.07485400  1
  S  S121  1  0.43416900  0.16516100  0.92514600  1
  S  S122  1  0.06583100  0.83483900  0.42514600  1
  S  S123  1  0.56583100  0.66516100  0.57485400  1
  S  S124  1  0.06583100  0.66516100  0.92514600  1
  S  S125  1  0.56583100  0.83483900  0.07485400  1
  S  S126  1  0.93416900  0.16516100  0.57485400  1
  S  S127  1  0.43416900  0.33483900  0.42514600  1
