# generated using pymatgen
data_CdB10H6O19
_symmetry_space_group_name_H-M   'P 1'
_cell_length_a   7.89030200
_cell_length_b   19.30792800
_cell_length_c   12.53390625
_cell_angle_alpha   90.00000000
_cell_angle_beta   127.80522687
_cell_angle_gamma   90.00000000
_symmetry_Int_Tables_number   1
_chemical_formula_structural   CdB10H6O19
_chemical_formula_sum   'Cd4 B40 H24 O76'
_cell_volume   1508.68059267
_cell_formula_units_Z   4
loop_
 _symmetry_equiv_pos_site_id
 _symmetry_equiv_pos_as_xyz
  1  'x, y, z'
loop_
 _atom_site_type_symbol
 _atom_site_label
 _atom_site_symmetry_multiplicity
 _atom_site_fract_x
 _atom_site_fract_y
 _atom_site_fract_z
 _atom_site_occupancy
  Cd  Cd0  1  0.91877300  0.23081200  0.97194600  1
  Cd  Cd1  1  0.91877300  0.26918800  0.47194600  1
  Cd  Cd2  1  0.08122700  0.76918800  0.02805400  1
  Cd  Cd3  1  0.08122700  0.73081200  0.52805400  1
  B  B4  1  0.51507200  0.21445200  0.96961700  1
  B  B5  1  0.51507200  0.28554800  0.46961700  1
  B  B6  1  0.48492800  0.78554800  0.03038300  1
  B  B7  1  0.48492800  0.71445200  0.53038300  1
  B  B8  1  0.79522300  0.26212600  0.19544800  1
  B  B9  1  0.79522300  0.23787400  0.69544800  1
  B  B10  1  0.20477700  0.73787400  0.80455200  1
  B  B11  1  0.20477700  0.76212600  0.30455200  1
  B  B12  1  0.43473500  0.31417300  0.08151400  1
  B  B13  1  0.43473500  0.18582700  0.58151400  1
  B  B14  1  0.56526500  0.68582700  0.91848600  1
  B  B15  1  0.56526500  0.81417300  0.41848600  1
  B  B16  1  0.22174900  0.40785600  0.91738400  1
  B  B17  1  0.22174900  0.09214400  0.41738400  1
  B  B18  1  0.77825100  0.59214400  0.08261600  1
  B  B19  1  0.77825100  0.90785600  0.58261600  1
  B  B20  1  0.16362800  0.28876200  0.82442200  1
  B  B21  1  0.16362800  0.21123800  0.32442200  1
  B  B22  1  0.83637200  0.71123800  0.17557800  1
  B  B23  1  0.83637200  0.78876200  0.67557800  1
  B  B24  1  0.33307200  0.23022200  0.72856600  1
  B  B25  1  0.33307200  0.26977800  0.22856600  1
  B  B26  1  0.66692800  0.76977800  0.27143400  1
  B  B27  1  0.66692800  0.73022200  0.77143400  1
  B  B28  1  0.00753700  0.51302400  0.78271000  1
  B  B29  1  0.00753700  0.98697600  0.28271000  1
  B  B30  1  0.99246300  0.48697600  0.21729000  1
  B  B31  1  0.99246300  0.01302400  0.71729000  1
  B  B32  1  0.48194400  0.12021600  0.09516600  1
  B  B33  1  0.48194400  0.37978400  0.59516600  1
  B  B34  1  0.51805600  0.87978400  0.90483400  1
  B  B35  1  0.51805600  0.62021600  0.40483400  1
  B  B36  1  0.47047200  0.02059700  0.20853600  1
  B  B37  1  0.47047200  0.47940300  0.70853600  1
  B  B38  1  0.52952800  0.97940300  0.79146400  1
  B  B39  1  0.52952800  0.52059700  0.29146400  1
  B  B40  1  0.68949100  0.11819000  0.33738600  1
  B  B41  1  0.68949100  0.38181000  0.83738600  1
  B  B42  1  0.31050900  0.88181000  0.66261400  1
  B  B43  1  0.31050900  0.61819000  0.16261400  1
  H  H44  1  0.86199100  0.60515500  0.71977900  1
  H  H45  1  0.86199100  0.89484500  0.21977900  1
  H  H46  1  0.13800900  0.39484500  0.28022100  1
  H  H47  1  0.13800900  0.10515500  0.78022100  1
  H  H48  1  0.78693500  0.51344200  0.57923900  1
  H  H49  1  0.78693500  0.98655800  0.07923900  1
  H  H50  1  0.21306500  0.48655800  0.42076100  1
  H  H51  1  0.21306500  0.01344200  0.92076100  1
  H  H52  1  0.45830400  0.93684000  0.29409800  1
  H  H53  1  0.45830400  0.56316000  0.79409800  1
  H  H54  1  0.54169600  0.06316000  0.70590200  1
  H  H55  1  0.54169600  0.43684000  0.20590200  1
  H  H56  1  0.89906100  0.12329300  0.54339100  1
  H  H57  1  0.89906100  0.37670700  0.04339100  1
  H  H58  1  0.10093900  0.87670700  0.45660900  1
  H  H59  1  0.10093900  0.62329300  0.95660900  1
  H  H60  1  0.97662900  0.10456600  0.08879400  1
  H  H61  1  0.97662900  0.39543400  0.58879400  1
  H  H62  1  0.02337100  0.89543400  0.91120600  1
  H  H63  1  0.02337100  0.60456600  0.41120600  1
  H  H64  1  0.84160800  0.08836100  0.93346000  1
  H  H65  1  0.84160800  0.41163900  0.43346000  1
  H  H66  1  0.15839200  0.91163900  0.06654000  1
  H  H67  1  0.15839200  0.58836100  0.56654000  1
  O  O68  1  0.73682500  0.22676600  0.08258700  1
  O  O69  1  0.73682500  0.27323400  0.58258700  1
  O  O70  1  0.26317500  0.77323400  0.91741300  1
  O  O71  1  0.26317500  0.72676600  0.41741300  1
  O  O72  1  0.38038700  0.27509000  0.95679300  1
  O  O73  1  0.38038700  0.22491000  0.45679300  1
  O  O74  1  0.61961300  0.72491000  0.04320700  1
  O  O75  1  0.61961300  0.77509000  0.54320700  1
  O  O76  1  0.51118500  0.20996300  0.85202600  1
  O  O77  1  0.51118500  0.29003700  0.35202600  1
  O  O78  1  0.48881500  0.79003700  0.14797400  1
  O  O79  1  0.48881500  0.70996300  0.64797400  1
  O  O80  1  0.99770300  0.25393900  0.31712900  1
  O  O81  1  0.99770300  0.24606100  0.81712900  1
  O  O82  1  0.00229700  0.74606100  0.68287100  1
  O  O83  1  0.00229700  0.75393900  0.18287100  1
  O  O84  1  0.65965700  0.30646600  0.19455500  1
  O  O85  1  0.65965700  0.19353400  0.69455500  1
  O  O86  1  0.34034300  0.69353400  0.80544500  1
  O  O87  1  0.34034300  0.80646600  0.30544500  1
  O  O88  1  0.29449900  0.28296900  0.10867500  1
  O  O89  1  0.29449900  0.21703100  0.60867500  1
  O  O90  1  0.70550100  0.71703100  0.89132500  1
  O  O91  1  0.70550100  0.78296900  0.39132500  1
  O  O92  1  0.38421200  0.38774300  0.04763700  1
  O  O93  1  0.38421200  0.11225700  0.54763700  1
  O  O94  1  0.61578800  0.61225700  0.95236300  1
  O  O95  1  0.61578800  0.88774300  0.45236300  1
  O  O96  1  0.11855000  0.36220000  0.81210900  1
  O  O97  1  0.11855000  0.13780000  0.31210900  1
  O  O98  1  0.88145000  0.63780000  0.18789100  1
  O  O99  1  0.88145000  0.86220000  0.68789100  1
  O  O100  1  0.16927200  0.26593600  0.71485500  1
  O  O101  1  0.16927200  0.23406400  0.21485500  1
  O  O102  1  0.83072800  0.73406400  0.28514500  1
  O  O103  1  0.83072800  0.76593600  0.78514500  1
  O  O104  1  0.16224400  0.47716800  0.89653700  1
  O  O105  1  0.16224400  0.02283200  0.39653700  1
  O  O106  1  0.83775600  0.52283200  0.10346300  1
  O  O107  1  0.83775600  0.97716800  0.60346300  1
  O  O108  1  0.97384500  0.58110200  0.80379600  1
  O  O109  1  0.97384500  0.91889800  0.30379600  1
  O  O110  1  0.02615500  0.41889800  0.19620400  1
  O  O111  1  0.02615500  0.08110200  0.69620400  1
  O  O112  1  0.89123000  0.48370700  0.65666700  1
  O  O113  1  0.89123000  0.01629300  0.15666700  1
  O  O114  1  0.10877000  0.51629300  0.34333300  1
  O  O115  1  0.10877000  0.98370700  0.84333300  1
  O  O116  1  0.42598700  0.14918300  0.98028600  1
  O  O117  1  0.42598700  0.35081700  0.48028600  1
  O  O118  1  0.57401300  0.85081700  0.01971400  1
  O  O119  1  0.57401300  0.64918300  0.51971400  1
  O  O120  1  0.61081800  0.15399000  0.22007700  1
  O  O121  1  0.61081800  0.34601000  0.72007700  1
  O  O122  1  0.38918200  0.84601000  0.77992300  1
  O  O123  1  0.38918200  0.65399000  0.27992300  1
  O  O124  1  0.40818200  0.05321700  0.09030100  1
  O  O125  1  0.40818200  0.44678300  0.59030100  1
  O  O126  1  0.59181800  0.94678300  0.90969900  1
  O  O127  1  0.59181800  0.55321700  0.40969900  1
  O  O128  1  0.38543300  0.95837600  0.20303600  1
  O  O129  1  0.38543300  0.54162400  0.70303600  1
  O  O130  1  0.61456700  0.04162400  0.79696400  1
  O  O131  1  0.61456700  0.45837600  0.29696400  1
  O  O132  1  0.62137300  0.05209000  0.33220300  1
  O  O133  1  0.62137300  0.44791000  0.83220300  1
  O  O134  1  0.37862700  0.94791000  0.66779700  1
  O  O135  1  0.37862700  0.55209000  0.16779700  1
  O  O136  1  0.83584200  0.15070200  0.45861900  1
  O  O137  1  0.83584200  0.34929800  0.95861900  1
  O  O138  1  0.16415800  0.84929800  0.54138100  1
  O  O139  1  0.16415800  0.65070200  0.04138100  1
  O  O140  1  0.96530100  0.11590300  0.00823100  1
  O  O141  1  0.96530100  0.38409700  0.50823100  1
  O  O142  1  0.03469900  0.88409700  0.99176900  1
  O  O143  1  0.03469900  0.61590300  0.49176900  1
