# generated using pymatgen
data_ZrS2O13
_symmetry_space_group_name_H-M   'P 1'
_cell_length_a   7.86569800
_cell_length_b   8.03534023
_cell_length_c   8.94204109
_cell_angle_alpha   100.18706755
_cell_angle_beta   88.48824047
_cell_angle_gamma   100.72520757
_symmetry_Int_Tables_number   1
_chemical_formula_structural   ZrS2O13
_chemical_formula_sum   'Zr2 S4 O26'
_cell_volume   546.52950185
_cell_formula_units_Z   2
loop_
 _symmetry_equiv_pos_site_id
 _symmetry_equiv_pos_as_xyz
  1  'x, y, z'
loop_
 _atom_site_type_symbol
 _atom_site_label
 _atom_site_symmetry_multiplicity
 _atom_site_fract_x
 _atom_site_fract_y
 _atom_site_fract_z
 _atom_site_occupancy
  Zr  Zr0  1  0.77304300  0.59212000  0.81106400  1
  Zr  Zr1  1  0.22695700  0.40788000  0.18893600  1
  S  S2  1  0.52851500  0.81549200  0.80730700  1
  S  S3  1  0.47148500  0.18450800  0.19269300  1
  S  S4  1  0.09221200  0.33467800  0.80161200  1
  S  S5  1  0.90778800  0.66532200  0.19838800  1
  O  O6  1  0.97389100  0.17033000  0.79842500  1
  O  O7  1  0.02610900  0.82967000  0.20157500  1
  O  O8  1  0.23506300  0.31161600  0.69766600  1
  O  O9  1  0.76493700  0.68838400  0.30233400  1
  O  O10  1  0.15651300  0.41034000  0.96062800  1
  O  O11  1  0.84348700  0.58966000  0.03937200  1
  O  O12  1  0.99658400  0.46676700  0.75698000  1
  O  O13  1  0.00341600  0.53323300  0.24302000  1
  O  O14  1  0.58466100  0.38824400  0.82061900  1
  O  O15  1  0.41533900  0.61175600  0.17938100  1
  O  O16  1  0.55083700  0.65350700  0.69179700  1
  O  O17  1  0.44916300  0.34649300  0.30820300  1
  O  O18  1  0.53565100  0.95886500  0.72683300  1
  O  O19  1  0.46434900  0.04113500  0.27316700  1
  O  O20  1  0.68730100  0.83281700  0.90823300  1
  O  O21  1  0.31269900  0.16718300  0.09176700  1
  O  O22  1  0.36865700  0.78539500  0.89287700  1
  O  O23  1  0.63134300  0.21460500  0.10712300  1
  O  O24  1  0.02876900  0.81051700  0.58552800  1
  O  O25  1  0.97123100  0.18948300  0.41447200  1
  O  O26  1  0.73487100  0.42044500  0.60203900  1
  O  O27  1  0.26512900  0.57955500  0.39796100  1
  O  O28  1  0.00928800  0.79594000  0.73137400  1
  O  O29  1  0.99071200  0.20406000  0.26862600  1
  O  O30  1  0.17189300  0.88897200  0.54892400  1
  O  O31  1  0.82810700  0.11102800  0.45107600  1
