# generated using pymatgen
data_Ba3Zn2B3O9F
_symmetry_space_group_name_H-M   'P 1'
_cell_length_a   7.11399000
_cell_length_b   8.51747200
_cell_length_c   17.60450500
_cell_angle_alpha   90.00000000
_cell_angle_beta   90.00000000
_cell_angle_gamma   90.00000000
_symmetry_Int_Tables_number   1
_chemical_formula_structural   Ba3Zn2B3O9F
_chemical_formula_sum   'Ba12 Zn8 B12 O36 F4'
_cell_volume   1066.71347956
_cell_formula_units_Z   4
loop_
 _symmetry_equiv_pos_site_id
 _symmetry_equiv_pos_as_xyz
  1  'x, y, z'
loop_
 _atom_site_type_symbol
 _atom_site_label
 _atom_site_symmetry_multiplicity
 _atom_site_fract_x
 _atom_site_fract_y
 _atom_site_fract_z
 _atom_site_occupancy
  Ba  Ba0  1  0.36101300  0.79490800  0.25000000  1
  Ba  Ba1  1  0.13898700  0.29490800  0.25000000  1
  Ba  Ba2  1  0.63898700  0.20509200  0.75000000  1
  Ba  Ba3  1  0.86101300  0.70509200  0.75000000  1
  Ba  Ba4  1  0.65393100  0.44895000  0.37924800  1
  Ba  Ba5  1  0.84606900  0.94895000  0.12075200  1
  Ba  Ba6  1  0.34606900  0.55105000  0.87924800  1
  Ba  Ba7  1  0.15393100  0.05105000  0.62075200  1
  Ba  Ba8  1  0.34606900  0.55105000  0.62075200  1
  Ba  Ba9  1  0.15393100  0.05105000  0.87924800  1
  Ba  Ba10  1  0.65393100  0.44895000  0.12075200  1
  Ba  Ba11  1  0.84606900  0.94895000  0.37924800  1
  Zn  Zn12  1  0.40633800  0.07192500  0.41681100  1
  Zn  Zn13  1  0.09366200  0.57192500  0.08318900  1
  Zn  Zn14  1  0.59366200  0.92807500  0.91681100  1
  Zn  Zn15  1  0.90633800  0.42807500  0.58318900  1
  Zn  Zn16  1  0.59366200  0.92807500  0.58318900  1
  Zn  Zn17  1  0.90633800  0.42807500  0.91681100  1
  Zn  Zn18  1  0.40633800  0.07192500  0.08318900  1
  Zn  Zn19  1  0.09366200  0.57192500  0.41681100  1
  B  B20  1  0.92923900  0.68609800  0.25000000  1
  B  B21  1  0.57076100  0.18609800  0.25000000  1
  B  B22  1  0.07076100  0.31390200  0.75000000  1
  B  B23  1  0.42923900  0.81390200  0.75000000  1
  B  B24  1  0.59712100  0.24335300  0.54008800  1
  B  B25  1  0.90287900  0.74335300  0.95991200  1
  B  B26  1  0.40287900  0.75664700  0.04008800  1
  B  B27  1  0.09712100  0.25664700  0.45991200  1
  B  B28  1  0.40287900  0.75664700  0.45991200  1
  B  B29  1  0.09712100  0.25664700  0.04008800  1
  B  B30  1  0.59712100  0.24335300  0.95991200  1
  B  B31  1  0.90287900  0.74335300  0.54008800  1
  O  O32  1  0.47090300  0.84764900  0.40037400  1
  O  O33  1  0.02909700  0.34764900  0.09962600  1
  O  O34  1  0.52909700  0.15235100  0.90037400  1
  O  O35  1  0.97090300  0.65235100  0.59962600  1
  O  O36  1  0.52909700  0.15235100  0.59962600  1
  O  O37  1  0.97090300  0.65235100  0.90037400  1
  O  O38  1  0.47090300  0.84764900  0.09962600  1
  O  O39  1  0.02909700  0.34764900  0.40037400  1
  O  O40  1  0.61554900  0.18425200  0.46724100  1
  O  O41  1  0.88445100  0.68425200  0.03275900  1
  O  O42  1  0.38445100  0.81574800  0.96724100  1
  O  O43  1  0.11554900  0.31574800  0.53275900  1
  O  O44  1  0.38445100  0.81574800  0.53275900  1
  O  O45  1  0.11554900  0.31574800  0.96724100  1
  O  O46  1  0.61554900  0.18425200  0.03275900  1
  O  O47  1  0.88445100  0.68425200  0.46724100  1
  O  O48  1  0.74681600  0.73968400  0.25000000  1
  O  O49  1  0.75318400  0.23968400  0.25000000  1
  O  O50  1  0.25318400  0.26031600  0.75000000  1
  O  O51  1  0.24681600  0.76031600  0.75000000  1
  O  O52  1  0.14637100  0.10055700  0.44640400  1
  O  O53  1  0.35362900  0.60055700  0.05359600  1
  O  O54  1  0.85362900  0.89944300  0.94640400  1
  O  O55  1  0.64637100  0.39944300  0.55359600  1
  O  O56  1  0.85362900  0.89944300  0.55359600  1
  O  O57  1  0.64637100  0.39944300  0.94640400  1
  O  O58  1  0.14637100  0.10055700  0.05359600  1
  O  O59  1  0.35362900  0.60055700  0.44640400  1
  O  O60  1  0.03030900  0.66225600  0.31699100  1
  O  O61  1  0.46969100  0.16225600  0.18300900  1
  O  O62  1  0.96969100  0.33774400  0.81699100  1
  O  O63  1  0.53030900  0.83774400  0.68300900  1
  O  O64  1  0.96969100  0.33774400  0.68300900  1
  O  O65  1  0.53030900  0.83774400  0.81699100  1
  O  O66  1  0.03030900  0.66225600  0.18300900  1
  O  O67  1  0.46969100  0.16225600  0.31699100  1
  F  F68  1  0.43429300  0.49286700  0.25000000  1
  F  F69  1  0.06570700  0.99286700  0.25000000  1
  F  F70  1  0.56570700  0.50713300  0.75000000  1
  F  F71  1  0.93429300  0.00713300  0.75000000  1
