# generated using pymatgen
data_Li2SeO7
_symmetry_space_group_name_H-M   'P 1'
_cell_length_a   6.71237400
_cell_length_b   6.66600500
_cell_length_c   12.39067700
_cell_angle_alpha   90.00000000
_cell_angle_beta   90.00000000
_cell_angle_gamma   90.00000000
_symmetry_Int_Tables_number   1
_chemical_formula_structural   Li2SeO7
_chemical_formula_sum   'Li8 Se4 O28'
_cell_volume   554.41735620
_cell_formula_units_Z   4
loop_
 _symmetry_equiv_pos_site_id
 _symmetry_equiv_pos_as_xyz
  1  'x, y, z'
loop_
 _atom_site_type_symbol
 _atom_site_label
 _atom_site_symmetry_multiplicity
 _atom_site_fract_x
 _atom_site_fract_y
 _atom_site_fract_z
 _atom_site_occupancy
  Li  Li0  1  0.00887100  0.16897200  0.88923600  1
  Li  Li1  1  0.49112900  0.16897200  0.11076400  1
  Li  Li2  1  0.00887100  0.33102800  0.61076400  1
  Li  Li3  1  0.49112900  0.33102800  0.38923600  1
  Li  Li4  1  0.99112900  0.83102800  0.11076400  1
  Li  Li5  1  0.50887100  0.83102800  0.88923600  1
  Li  Li6  1  0.99112900  0.66897200  0.38923600  1
  Li  Li7  1  0.50887100  0.66897200  0.61076400  1
  Se  Se8  1  0.79139000  0.25000000  0.25000000  1
  Se  Se9  1  0.70861000  0.25000000  0.75000000  1
  Se  Se10  1  0.20861000  0.75000000  0.75000000  1
  Se  Se11  1  0.29139000  0.75000000  0.25000000  1
  O  O12  1  0.26461700  0.96433700  0.09687700  1
  O  O13  1  0.23538300  0.96433700  0.90312300  1
  O  O14  1  0.26461700  0.53566300  0.40312300  1
  O  O15  1  0.23538300  0.53566300  0.59687700  1
  O  O16  1  0.73538300  0.03566300  0.90312300  1
  O  O17  1  0.76461700  0.03566300  0.09687700  1
  O  O18  1  0.73538300  0.46433700  0.59687700  1
  O  O19  1  0.76461700  0.46433700  0.40312300  1
  O  O20  1  0.15763300  0.36697500  0.99808100  1
  O  O21  1  0.34236700  0.36697500  0.00191900  1
  O  O22  1  0.15763300  0.13302500  0.50191900  1
  O  O23  1  0.34236700  0.13302500  0.49808100  1
  O  O24  1  0.84236700  0.63302500  0.00191900  1
  O  O25  1  0.65763300  0.63302500  0.99808100  1
  O  O26  1  0.84236700  0.86697500  0.49808100  1
  O  O27  1  0.65763300  0.86697500  0.50191900  1
  O  O28  1  0.25000000  0.83779800  0.00000000  1
  O  O29  1  0.25000000  0.66220200  0.50000000  1
  O  O30  1  0.75000000  0.16220200  0.00000000  1
  O  O31  1  0.75000000  0.33779800  0.50000000  1
  O  O32  1  0.63469500  0.41207800  0.19125400  1
  O  O33  1  0.86530500  0.41207800  0.80874600  1
  O  O34  1  0.63469500  0.08792200  0.30874600  1
  O  O35  1  0.86530500  0.08792200  0.69125400  1
  O  O36  1  0.36530500  0.58792200  0.80874600  1
  O  O37  1  0.13469500  0.58792200  0.19125400  1
  O  O38  1  0.36530500  0.91207800  0.69125400  1
  O  O39  1  0.13469500  0.91207800  0.30874600  1
