# generated using pymatgen
data_Ba4Zn4B14Pb2O31
_symmetry_space_group_name_H-M   'P 1'
_cell_length_a   7.13712101
_cell_length_b   7.13712101
_cell_length_c   32.13602535
_cell_angle_alpha   88.69735620
_cell_angle_beta   88.69735620
_cell_angle_gamma   120.11972013
_symmetry_Int_Tables_number   1
_chemical_formula_structural   Ba4Zn4B14Pb2O31
_chemical_formula_sum   'Ba8 Zn8 B28 Pb4 O62'
_cell_volume   1414.46671060
_cell_formula_units_Z   2
loop_
 _symmetry_equiv_pos_site_id
 _symmetry_equiv_pos_as_xyz
  1  'x, y, z'
loop_
 _atom_site_type_symbol
 _atom_site_label
 _atom_site_symmetry_multiplicity
 _atom_site_fract_x
 _atom_site_fract_y
 _atom_site_fract_z
 _atom_site_occupancy
  Ba  Ba0  1  0.52292700  0.66312500  0.37535400  1
  Ba  Ba1  1  0.66312500  0.52292700  0.87535400  1
  Ba  Ba2  1  0.38951600  0.21334500  0.74998300  1
  Ba  Ba3  1  0.21334500  0.38951600  0.24998300  1
  Ba  Ba4  1  0.78976100  0.87719800  0.67238000  1
  Ba  Ba5  1  0.87719800  0.78976100  0.17238000  1
  Ba  Ba6  1  0.87058900  0.26560200  0.45261000  1
  Ba  Ba7  1  0.26560200  0.87058900  0.95261000  1
  Zn  Zn8  1  0.50807300  0.57790000  0.48511400  1
  Zn  Zn9  1  0.57790000  0.50807300  0.98511400  1
  Zn  Zn10  1  0.84493600  0.34301100  0.33751400  1
  Zn  Zn11  1  0.34301100  0.84493600  0.83751400  1
  Zn  Zn12  1  0.70916400  0.89029200  0.78829400  1
  Zn  Zn13  1  0.89029200  0.70916400  0.28829400  1
  Zn  Zn14  1  0.46943900  0.23034200  0.64028600  1
  Zn  Zn15  1  0.23034200  0.46943900  0.14028600  1
  B  B16  1  0.36339800  0.87418000  0.46288200  1
  B  B17  1  0.87418000  0.36339800  0.96288200  1
  B  B18  1  0.88222100  0.59424100  0.76813100  1
  B  B19  1  0.59424100  0.88222100  0.26813100  1
  B  B20  1  0.00111600  0.77804400  0.38169400  1
  B  B21  1  0.77804400  0.00111600  0.88169400  1
  B  B22  1  0.40290700  0.04656000  0.36762300  1
  B  B23  1  0.04656000  0.40290700  0.86762300  1
  B  B24  1  0.24541200  0.14250700  0.45857900  1
  B  B25  1  0.14250700  0.24541200  0.95857900  1
  B  B26  1  0.91185100  0.49548700  0.66677400  1
  B  B27  1  0.49548700  0.91185100  0.16677400  1
  B  B28  1  0.30961500  0.77524700  0.66232600  1
  B  B29  1  0.77524700  0.30961500  0.16232600  1
  B  B30  1  0.36070300  0.36952400  0.56472900  1
  B  B31  1  0.36952400  0.36070300  0.06472900  1
  B  B32  1  0.18221400  0.37925200  0.66379600  1
  B  B33  1  0.37925200  0.18221400  0.16379600  1
  B  B34  1  0.00592200  0.33256600  0.75821500  1
  B  B35  1  0.33256600  0.00592200  0.25821500  1
  B  B36  1  0.14180500  0.17122700  0.35835500  1
  B  B37  1  0.17122700  0.14180500  0.85835500  1
  B  B38  1  0.94563900  0.11521900  0.56546900  1
  B  B39  1  0.11521900  0.94563900  0.06546900  1
  B  B40  1  0.96513700  0.74536300  0.46304900  1
  B  B41  1  0.74536300  0.96513700  0.96304900  1
  B  B42  1  0.27457600  0.73496900  0.74422100  1
  B  B43  1  0.73496900  0.27457600  0.24422100  1
  Pb  Pb44  1  0.49226500  0.91788400  0.56284000  1
  Pb  Pb45  1  0.91788400  0.49226500  0.06284000  1
  Pb  Pb46  1  0.89429300  0.59319700  0.55933100  1
  Pb  Pb47  1  0.59319700  0.89429300  0.05933100  1
  O  O48  1  0.38403300  0.84626700  0.70448100  1
  O  O49  1  0.84626700  0.38403300  0.20448100  1
  O  O50  1  0.38001700  0.54158300  0.54188400  1
  O  O51  1  0.54158300  0.38001700  0.04188400  1
  O  O52  1  0.53521700  0.84225100  0.45861000  1
  O  O53  1  0.84225100  0.53521700  0.95861000  1
  O  O54  1  0.07442800  0.70666000  0.65798700  1
  O  O55  1  0.70666000  0.07442800  0.15798700  1
  O  O56  1  0.61136000  0.08876400  0.36736500  1
  O  O57  1  0.08876400  0.61136000  0.86736500  1
  O  O58  1  0.53657000  0.36270200  0.58132500  1
  O  O59  1  0.36270200  0.53657000  0.08132500  1
  O  O60  1  0.41973600  0.85443400  0.77719700  1
  O  O61  1  0.85443400  0.41973600  0.27719700  1
  O  O62  1  0.79098100  0.60188800  0.49357000  1
  O  O63  1  0.60188800  0.79098100  0.99357000  1
  O  O64  1  0.88909000  0.66778000  0.42157800  1
  O  O65  1  0.66778000  0.88909000  0.92157800  1
  O  O66  1  0.88301800  0.63343700  0.34875100  1
  O  O67  1  0.63343700  0.88301800  0.84875100  1
  O  O68  1  0.41332900  0.09305400  0.45950300  1
  O  O69  1  0.09305400  0.41332900  0.95950300  1
  O  O70  1  0.03428500  0.97992000  0.46684400  1
  O  O71  1  0.97992000  0.03428500  0.96684400  1
  O  O72  1  0.15448400  0.71329400  0.47234300  1
  O  O73  1  0.71329400  0.15448400  0.97234300  1
  O  O74  1  0.07456100  0.75700900  0.75108500  1
  O  O75  1  0.75700900  0.07456100  0.25108500  1
  O  O76  1  0.70395100  0.44903500  0.67438800  1
  O  O77  1  0.44903500  0.70395100  0.17438800  1
  O  O78  1  0.23664500  0.84381400  0.38086800  1
  O  O79  1  0.84381400  0.23664500  0.88086800  1
  O  O80  1  0.29404500  0.35004400  0.44962200  1
  O  O81  1  0.35004400  0.29404500  0.94962200  1
  O  O82  1  0.11965700  0.34297300  0.34636700  1
  O  O83  1  0.34297300  0.11965700  0.84636700  1
  O  O84  1  0.96342700  0.12401000  0.75858300  1
  O  O85  1  0.12401000  0.96342700  0.25858300  1
  O  O86  1  0.84452300  0.37933300  0.77104600  1
  O  O87  1  0.37933300  0.84452300  0.27104600  1
  O  O88  1  0.21708300  0.21020700  0.67025300  1
  O  O89  1  0.21020700  0.21708300  0.17025300  1
  O  O90  1  0.79700400  0.91134200  0.58262700  1
  O  O91  1  0.91134200  0.79700400  0.08262700  1
  O  O92  1  0.97897700  0.97798000  0.37503400  1
  O  O93  1  0.97798000  0.97897700  0.87503400  1
  O  O94  1  0.87192500  0.23332700  0.54369900  1
  O  O95  1  0.23332700  0.87192500  0.04369900  1
  O  O96  1  0.71209200  0.61586800  0.78158300  1
  O  O97  1  0.61586800  0.71209200  0.28158300  1
  O  O98  1  0.45400900  0.95280700  0.63311500  1
  O  O99  1  0.95280700  0.45400900  0.13311500  1
  O  O100  1  0.35612300  0.20751300  0.35447900  1
  O  O101  1  0.20751300  0.35612300  0.85447900  1
  O  O102  1  0.96231200  0.32850400  0.66692900  1
  O  O103  1  0.32850400  0.96231200  0.16692900  1
  O  O104  1  0.20928400  0.49936000  0.74539100  1
  O  O105  1  0.49936000  0.20928400  0.24539100  1
  O  O106  1  0.16223400  0.18018000  0.57301400  1
  O  O107  1  0.18018000  0.16223400  0.07301400  1
  O  O108  1  0.34122300  0.58647300  0.65284900  1
  O  O109  1  0.58647300  0.34122300  0.15284900  1
