# generated using pymatgen
data_CaH2S2N2O9
_symmetry_space_group_name_H-M   'P 1'
_cell_length_a   7.18058700
_cell_length_b   6.48487200
_cell_length_c   10.08099507
_cell_angle_alpha   75.12144461
_cell_angle_beta   90.00000000
_cell_angle_gamma   90.00000000
_symmetry_Int_Tables_number   1
_chemical_formula_structural   CaH2S2N2O9
_chemical_formula_sum   'Ca2 H4 S4 N4 O18'
_cell_volume   453.68471572
_cell_formula_units_Z   2
loop_
 _symmetry_equiv_pos_site_id
 _symmetry_equiv_pos_as_xyz
  1  'x, y, z'
loop_
 _atom_site_type_symbol
 _atom_site_label
 _atom_site_symmetry_multiplicity
 _atom_site_fract_x
 _atom_site_fract_y
 _atom_site_fract_z
 _atom_site_occupancy
  Ca  Ca0  1  0.25000000  0.33302400  0.02621100  1
  Ca  Ca1  1  0.75000000  0.66697600  0.97378900  1
  H  H2  1  0.13927600  0.58900000  0.75025400  1
  H  H3  1  0.63927600  0.41100000  0.24974600  1
  H  H4  1  0.86072400  0.41100000  0.24974600  1
  H  H5  1  0.36072400  0.58900000  0.75025400  1
  S  S6  1  0.25000000  0.83026400  0.01298800  1
  S  S7  1  0.75000000  0.16973600  0.98701200  1
  S  S8  1  0.25000000  0.27270200  0.35433800  1
  S  S9  1  0.75000000  0.72729800  0.64566200  1
  N  N10  1  0.50308600  0.19614900  0.66468900  1
  N  N11  1  0.00308600  0.80385100  0.33531100  1
  N  N12  1  0.49691400  0.80385100  0.33531100  1
  N  N13  1  0.99691400  0.19614900  0.66468900  1
  O  O14  1  0.25000000  0.01683200  0.89142600  1
  O  O15  1  0.75000000  0.98316800  0.10857400  1
  O  O16  1  0.25000000  0.50709500  0.79143300  1
  O  O17  1  0.75000000  0.49290500  0.20856700  1
  O  O18  1  0.25000000  0.07240400  0.46725200  1
  O  O19  1  0.75000000  0.92759600  0.53274800  1
  O  O20  1  0.25000000  0.43798600  0.43433700  1
  O  O21  1  0.75000000  0.56201400  0.56566300  1
  O  O22  1  0.41557100  0.28839500  0.26491000  1
  O  O23  1  0.91557100  0.71160500  0.73509000  1
  O  O24  1  0.58442900  0.71160500  0.73509000  1
  O  O25  1  0.08442900  0.28839500  0.26491000  1
  O  O26  1  0.25000000  0.94047800  0.12773900  1
  O  O27  1  0.75000000  0.05952200  0.87226100  1
  O  O28  1  0.41568900  0.69149000  0.01976700  1
  O  O29  1  0.91568900  0.30851000  0.98023300  1
  O  O30  1  0.58431100  0.30851000  0.98023300  1
  O  O31  1  0.08431100  0.69149000  0.01976700  1
