# generated using pymatgen
data_CsHgCl3
_symmetry_space_group_name_H-M   'P 1'
_cell_length_a   15.70788200
_cell_length_b   9.55200900
_cell_length_c   10.96885994
_cell_angle_alpha   55.08005614
_cell_angle_beta   90.00000000
_cell_angle_gamma   90.00000000
_symmetry_Int_Tables_number   1
_chemical_formula_structural   CsHgCl3
_chemical_formula_sum   'Cs8 Hg8 Cl24'
_cell_volume   1349.46811887
_cell_formula_units_Z   8
loop_
 _symmetry_equiv_pos_site_id
 _symmetry_equiv_pos_as_xyz
  1  'x, y, z'
loop_
 _atom_site_type_symbol
 _atom_site_label
 _atom_site_symmetry_multiplicity
 _atom_site_fract_x
 _atom_site_fract_y
 _atom_site_fract_z
 _atom_site_occupancy
  Cs  Cs0  1  0.00000000  0.50000000  0.00000000  1
  Cs  Cs1  1  0.50000000  0.50000000  0.50000000  1
  Cs  Cs2  1  0.75224600  0.00432600  0.25264500  1
  Cs  Cs3  1  0.74775400  0.00432600  0.75264500  1
  Cs  Cs4  1  0.24775400  0.99567400  0.74735500  1
  Cs  Cs5  1  0.25224600  0.99567400  0.24735500  1
  Cs  Cs6  1  0.50000000  0.50000000  0.00000000  1
  Cs  Cs7  1  0.00000000  0.50000000  0.50000000  1
  Hg  Hg8  1  0.00000000  0.00000000  0.00000000  1
  Hg  Hg9  1  0.50000000  0.00000000  0.50000000  1
  Hg  Hg10  1  0.00000000  0.00000000  0.50000000  1
  Hg  Hg11  1  0.50000000  0.00000000  0.00000000  1
  Hg  Hg12  1  0.74341500  0.49292100  0.25698200  1
  Hg  Hg13  1  0.75658500  0.49292100  0.75698200  1
  Hg  Hg14  1  0.25658500  0.50707900  0.74301800  1
  Hg  Hg15  1  0.24341500  0.50707900  0.24301800  1
  Cl  Cl16  1  0.00153400  0.99110700  0.28713700  1
  Cl  Cl17  1  0.49846600  0.99110700  0.78713700  1
  Cl  Cl18  1  0.99846600  0.00889300  0.71286300  1
  Cl  Cl19  1  0.50153400  0.00889300  0.21286300  1
  Cl  Cl20  1  0.11028300  0.22506100  0.88525700  1
  Cl  Cl21  1  0.38971700  0.22506100  0.38525700  1
  Cl  Cl22  1  0.88971700  0.77493900  0.11474300  1
  Cl  Cl23  1  0.61028300  0.77493900  0.61474300  1
  Cl  Cl24  1  0.86676900  0.73218800  0.63722100  1
  Cl  Cl25  1  0.63323100  0.73218800  0.13722100  1
  Cl  Cl26  1  0.13323100  0.26781200  0.36277900  1
  Cl  Cl27  1  0.36676900  0.26781200  0.86277900  1
  Cl  Cl28  1  0.86545400  0.27864700  0.36131400  1
  Cl  Cl29  1  0.63454600  0.27864700  0.86131400  1
  Cl  Cl30  1  0.13454600  0.72135300  0.63868600  1
  Cl  Cl31  1  0.36545400  0.72135300  0.13868600  1
  Cl  Cl32  1  0.12458000  0.76012100  0.11265000  1
  Cl  Cl33  1  0.37542000  0.76012100  0.61265000  1
  Cl  Cl34  1  0.87542000  0.23987900  0.88735000  1
  Cl  Cl35  1  0.62458000  0.23987900  0.38735000  1
  Cl  Cl36  1  0.25058300  0.47935200  0.50682700  1
  Cl  Cl37  1  0.24941700  0.47935200  0.00682700  1
  Cl  Cl38  1  0.74941700  0.52064800  0.49317300  1
  Cl  Cl39  1  0.75058300  0.52064800  0.99317300  1
