# generated using pymatgen
data_TcP2H18(C3Br)2
_symmetry_space_group_name_H-M   'P 1'
_cell_length_a   10.64404905
_cell_length_b   10.64404905
_cell_length_c   17.93048528
_cell_angle_alpha   67.92156559
_cell_angle_beta   67.92156559
_cell_angle_gamma   55.38191335
_symmetry_Int_Tables_number   1
_chemical_formula_structural   TcP2H18(C3Br)2
_chemical_formula_sum   'Tc4 P8 H72 C24 Br8'
_cell_volume   1513.69432027
_cell_formula_units_Z   4
loop_
 _symmetry_equiv_pos_site_id
 _symmetry_equiv_pos_as_xyz
  1  'x, y, z'
loop_
 _atom_site_type_symbol
 _atom_site_label
 _atom_site_symmetry_multiplicity
 _atom_site_fract_x
 _atom_site_fract_y
 _atom_site_fract_z
 _atom_site_occupancy
  Tc  Tc0  1  0.82266300  0.17733700  0.75000000  1
  Tc  Tc1  1  0.17733700  0.82266300  0.25000000  1
  Tc  Tc2  1  0.60163400  0.39836600  0.75000000  1
  Tc  Tc3  1  0.39836600  0.60163400  0.25000000  1
  P  P4  1  0.79533800  0.03653300  0.68038700  1
  P  P5  1  0.96346700  0.20466200  0.81961300  1
  P  P6  1  0.20466200  0.96346700  0.31961300  1
  P  P7  1  0.03653300  0.79533800  0.18038700  1
  P  P8  1  0.65614900  0.56965100  0.62077500  1
  P  P9  1  0.43034900  0.34385100  0.87922500  1
  P  P10  1  0.34385100  0.43034900  0.37922500  1
  P  P11  1  0.56965100  0.65614900  0.12077500  1
  H  H12  1  0.07530700  0.85569200  0.64696800  1
  H  H13  1  0.14430800  0.92469300  0.85303200  1
  H  H14  1  0.92469300  0.14430800  0.35303200  1
  H  H15  1  0.85569200  0.07530700  0.14696800  1
  H  H16  1  0.96238000  0.78756700  0.63839000  1
  H  H17  1  0.21243300  0.03762000  0.86161000  1
  H  H18  1  0.03762000  0.21243300  0.36161000  1
  H  H19  1  0.78756700  0.96238000  0.13839000  1
  H  H20  1  0.97901100  0.77108200  0.73782400  1
  H  H21  1  0.22891800  0.02098900  0.76217600  1
  H  H22  1  0.02098900  0.22891800  0.26217600  1
  H  H23  1  0.77108200  0.97901100  0.23782400  1
  H  H24  1  0.64000000  0.93066800  0.79050000  1
  H  H25  1  0.06933200  0.36000000  0.70950000  1
  H  H26  1  0.36000000  0.06933200  0.20950000  1
  H  H27  1  0.93066800  0.64000000  0.29050000  1
  H  H28  1  0.66871100  0.89746900  0.69304500  1
  H  H29  1  0.10253100  0.33128900  0.80695500  1
  H  H30  1  0.33128900  0.10253100  0.30695500  1
  H  H31  1  0.89746900  0.66871100  0.19304500  1
  H  H32  1  0.52996800  0.08769600  0.71566700  1
  H  H33  1  0.91230400  0.47003200  0.78433300  1
  H  H34  1  0.47003200  0.91230400  0.28433300  1
  H  H35  1  0.08769600  0.52996800  0.21566700  1
  H  H36  1  0.86757200  0.14605500  0.53639300  1
  H  H37  1  0.85394500  0.13242800  0.96360700  1
  H  H38  1  0.13242800  0.85394500  0.46360700  1
  H  H39  1  0.14605500  0.86757200  0.03639300  1
  H  H40  1  0.66171800  0.21273700  0.56853300  1
  H  H41  1  0.78726300  0.33828200  0.93146700  1
  H  H42  1  0.33828200  0.78726300  0.43146700  1
  H  H43  1  0.21273700  0.66171800  0.06853300  1
  H  H44  1  0.79708600  0.01916200  0.54933200  1
  H  H45  1  0.98083800  0.20291400  0.95066800  1
  H  H46  1  0.20291400  0.98083800  0.45066800  1
  H  H47  1  0.01916200  0.79708600  0.04933200  1
  H  H48  1  0.78844800  0.65024700  0.66098800  1
  H  H49  1  0.34975300  0.21155200  0.83901200  1
  H  H50  1  0.21155200  0.34975300  0.33901200  1
  H  H51  1  0.65024700  0.78844800  0.16098800  1
  H  H52  1  0.79151200  0.71714300  0.55201300  1
  H  H53  1  0.28285700  0.20848800  0.94798700  1
  H  H54  1  0.20848800  0.28285700  0.44798700  1
  H  H55  1  0.71714300  0.79151200  0.05201300  1
  H  H56  1  0.92014700  0.51710200  0.59274300  1
  H  H57  1  0.48289800  0.07985300  0.90725700  1
  H  H58  1  0.07985300  0.48289800  0.40725700  1
  H  H59  1  0.51710200  0.92014700  0.09274300  1
  H  H60  1  0.62070600  0.49983000  0.51896800  1
  H  H61  1  0.50017000  0.37929400  0.98103200  1
  H  H62  1  0.37929400  0.50017000  0.48103200  1
  H  H63  1  0.49983000  0.62070600  0.01896800  1
  H  H64  1  0.82298000  0.42918400  0.51096600  1
  H  H65  1  0.57081600  0.17702000  0.98903400  1
  H  H66  1  0.17702000  0.57081600  0.48903400  1
  H  H67  1  0.42918400  0.82298000  0.01096600  1
  H  H68  1  0.69683700  0.63171000  0.47249700  1
  H  H69  1  0.36829000  0.30316300  0.02750300  1
  H  H70  1  0.30316300  0.36829000  0.52750300  1
  H  H71  1  0.63171000  0.69683700  0.97249700  1
  H  H72  1  0.44086700  0.80998500  0.66591800  1
  H  H73  1  0.19001500  0.55913300  0.83408200  1
  H  H74  1  0.55913300  0.19001500  0.33408200  1
  H  H75  1  0.80998500  0.44086700  0.16591800  1
  H  H76  1  0.38995100  0.75840400  0.60164300  1
  H  H77  1  0.24159600  0.61004900  0.89835700  1
  H  H78  1  0.61004900  0.24159600  0.39835700  1
  H  H79  1  0.75840400  0.38995100  0.10164300  1
  H  H80  1  0.51379600  0.84322900  0.55659200  1
  H  H81  1  0.15677100  0.48620400  0.94340800  1
  H  H82  1  0.48620400  0.15677100  0.44340800  1
  H  H83  1  0.84322900  0.51379600  0.05659200  1
  C  C84  1  0.97081100  0.84374100  0.67552500  1
  C  C85  1  0.15625900  0.02918900  0.82447500  1
  C  C86  1  0.02918900  0.15625900  0.32447500  1
  C  C87  1  0.84374100  0.97081100  0.17552500  1
  C  C88  1  0.64297200  0.98292800  0.72470400  1
  C  C89  1  0.01707200  0.35702800  0.77529600  1
  C  C90  1  0.35702800  0.01707200  0.27529600  1
  C  C91  1  0.98292800  0.64297200  0.22470400  1
  C  C92  1  0.77889100  0.11172800  0.57270100  1
  C  C93  1  0.88827200  0.22110900  0.92729900  1
  C  C94  1  0.22110900  0.88827200  0.42729900  1
  C  C95  1  0.11172800  0.77889100  0.07270100  1
  C  C96  1  0.80402400  0.61864500  0.60538900  1
  C  C97  1  0.38135500  0.19597600  0.89461100  1
  C  C98  1  0.19597600  0.38135500  0.39461100  1
  C  C99  1  0.61864500  0.80402400  0.10538900  1
  C  C100  1  0.70361900  0.52785700  0.52091600  1
  C  C101  1  0.47214300  0.29638100  0.97908400  1
  C  C102  1  0.29638100  0.47214300  0.47908400  1
  C  C103  1  0.52785700  0.70361900  0.02091600  1
  C  C104  1  0.48242800  0.76457200  0.61062100  1
  C  C105  1  0.23542800  0.51757200  0.88937900  1
  C  C106  1  0.51757200  0.23542800  0.38937900  1
  C  C107  1  0.76457200  0.48242800  0.11062100  1
  Br  Br108  1  0.03876300  0.18017500  0.62328600  1
  Br  Br109  1  0.81982500  0.96123700  0.87671400  1
  Br  Br110  1  0.96123700  0.81982500  0.37671400  1
  Br  Br111  1  0.18017500  0.03876300  0.12328600  1
  Br  Br112  1  0.41434700  0.42473600  0.68106200  1
  Br  Br113  1  0.57526400  0.58565300  0.81893800  1
  Br  Br114  1  0.58565300  0.57526400  0.31893800  1
  Br  Br115  1  0.42473600  0.41434700  0.18106200  1
