# generated using pymatgen
data_NaH4ClO6
_symmetry_space_group_name_H-M   'P 1'
_cell_length_a   7.96713100
_cell_length_b   14.17907300
_cell_length_c   10.49207400
_cell_angle_alpha   90.00000000
_cell_angle_beta   90.00000000
_cell_angle_gamma   90.00000000
_symmetry_Int_Tables_number   1
_chemical_formula_structural   NaH4ClO6
_chemical_formula_sum   'Na8 H32 Cl8 O48'
_cell_volume   1185.25321379
_cell_formula_units_Z   8
loop_
 _symmetry_equiv_pos_site_id
 _symmetry_equiv_pos_as_xyz
  1  'x, y, z'
loop_
 _atom_site_type_symbol
 _atom_site_label
 _atom_site_symmetry_multiplicity
 _atom_site_fract_x
 _atom_site_fract_y
 _atom_site_fract_z
 _atom_site_occupancy
  Na  Na0  1  0.07558600  0.00890600  0.83736100  1
  Na  Na1  1  0.42441400  0.99109400  0.33736100  1
  Na  Na2  1  0.57558600  0.49109400  0.16263900  1
  Na  Na3  1  0.92441400  0.50890600  0.66263900  1
  Na  Na4  1  0.92441400  0.99109400  0.16263900  1
  Na  Na5  1  0.57558600  0.00890600  0.66263900  1
  Na  Na6  1  0.42441400  0.50890600  0.83736100  1
  Na  Na7  1  0.07558600  0.49109400  0.33736100  1
  H  H8  1  0.93858300  0.84499000  0.95500900  1
  H  H9  1  0.56141700  0.15501000  0.45500900  1
  H  H10  1  0.43858300  0.65501000  0.04499100  1
  H  H11  1  0.06141700  0.34499000  0.54499100  1
  H  H12  1  0.06141700  0.15501000  0.04499100  1
  H  H13  1  0.43858300  0.84499000  0.54499100  1
  H  H14  1  0.56141700  0.34499000  0.95500900  1
  H  H15  1  0.93858300  0.65501000  0.45500900  1
  H  H16  1  0.78285200  0.90921000  0.93111900  1
  H  H17  1  0.71714800  0.09079000  0.43111900  1
  H  H18  1  0.28285200  0.59079000  0.06888100  1
  H  H19  1  0.21714800  0.40921000  0.56888100  1
  H  H20  1  0.21714800  0.09079000  0.06888100  1
  H  H21  1  0.28285200  0.90921000  0.56888100  1
  H  H22  1  0.71714800  0.40921000  0.93111900  1
  H  H23  1  0.78285200  0.59079000  0.43111900  1
  H  H24  1  0.84806200  0.14410500  0.71365900  1
  H  H25  1  0.65193800  0.85589500  0.21365900  1
  H  H26  1  0.34806200  0.35589500  0.28634100  1
  H  H27  1  0.15193800  0.64410500  0.78634100  1
  H  H28  1  0.15193800  0.85589500  0.28634100  1
  H  H29  1  0.34806200  0.14410500  0.78634100  1
  H  H30  1  0.65193800  0.64410500  0.71365900  1
  H  H31  1  0.84806200  0.35589500  0.21365900  1
  H  H32  1  0.76761500  0.12266400  0.84511800  1
  H  H33  1  0.73238500  0.87733600  0.34511800  1
  H  H34  1  0.26761500  0.37733600  0.15488200  1
  H  H35  1  0.23238500  0.62266400  0.65488200  1
  H  H36  1  0.23238500  0.87733600  0.15488200  1
  H  H37  1  0.26761500  0.12266400  0.65488200  1
  H  H38  1  0.73238500  0.62266400  0.84511800  1
  H  H39  1  0.76761500  0.37733600  0.34511800  1
  Cl  Cl40  1  0.93221300  0.84939100  0.59143700  1
  Cl  Cl41  1  0.56778700  0.15060900  0.09143700  1
  Cl  Cl42  1  0.43221300  0.65060900  0.40856300  1
  Cl  Cl43  1  0.06778700  0.34939100  0.90856300  1
  Cl  Cl44  1  0.06778700  0.15060900  0.40856300  1
  Cl  Cl45  1  0.43221300  0.84939100  0.90856300  1
  Cl  Cl46  1  0.56778700  0.34939100  0.59143700  1
  Cl  Cl47  1  0.93221300  0.65060900  0.09143700  1
  O  O48  1  0.05702000  0.91826600  0.63735300  1
  O  O49  1  0.44298000  0.08173400  0.13735300  1
  O  O50  1  0.55702000  0.58173400  0.36264700  1
  O  O51  1  0.94298000  0.41826600  0.86264700  1
  O  O52  1  0.94298000  0.08173400  0.36264700  1
  O  O53  1  0.55702000  0.91826600  0.86264700  1
  O  O54  1  0.44298000  0.41826600  0.63735300  1
  O  O55  1  0.05702000  0.58173400  0.13735300  1
  O  O56  1  0.90460200  0.77763400  0.68792000  1
  O  O57  1  0.59539800  0.22236600  0.18792000  1
  O  O58  1  0.40460200  0.72236600  0.31208000  1
  O  O59  1  0.09539800  0.27763400  0.81208000  1
  O  O60  1  0.09539800  0.22236600  0.31208000  1
  O  O61  1  0.40460200  0.77763400  0.81208000  1
  O  O62  1  0.59539800  0.27763400  0.68792000  1
  O  O63  1  0.90460200  0.72236600  0.18792000  1
  O  O64  1  0.77533700  0.89879500  0.56324500  1
  O  O65  1  0.72466300  0.10120500  0.06324500  1
  O  O66  1  0.27533700  0.60120500  0.43675500  1
  O  O67  1  0.22466300  0.39879500  0.93675500  1
  O  O68  1  0.22466300  0.10120500  0.43675500  1
  O  O69  1  0.27533700  0.89879500  0.93675500  1
  O  O70  1  0.72466300  0.39879500  0.56324500  1
  O  O71  1  0.77533700  0.60120500  0.06324500  1
  O  O72  1  0.99467500  0.80600400  0.47389300  1
  O  O73  1  0.50532500  0.19399600  0.97389300  1
  O  O74  1  0.49467500  0.69399600  0.52610700  1
  O  O75  1  0.00532500  0.30600400  0.02610700  1
  O  O76  1  0.00532500  0.19399600  0.52610700  1
  O  O77  1  0.49467500  0.80600400  0.02610700  1
  O  O78  1  0.50532500  0.30600400  0.47389300  1
  O  O79  1  0.99467500  0.69399600  0.97389300  1
  O  O80  1  0.81372700  0.09222000  0.76908100  1
  O  O81  1  0.68627300  0.90778000  0.26908100  1
  O  O82  1  0.31372700  0.40778000  0.23091900  1
  O  O83  1  0.18627300  0.59222000  0.73091900  1
  O  O84  1  0.18627300  0.90778000  0.23091900  1
  O  O85  1  0.31372700  0.09222000  0.73091900  1
  O  O86  1  0.68627300  0.59222000  0.76908100  1
  O  O87  1  0.81372700  0.40778000  0.26908100  1
  O  O88  1  0.89944300  0.91030200  0.96122400  1
  O  O89  1  0.60055700  0.08969800  0.46122400  1
  O  O90  1  0.39944300  0.58969800  0.03877600  1
  O  O91  1  0.10055700  0.41030200  0.53877600  1
  O  O92  1  0.10055700  0.08969800  0.03877600  1
  O  O93  1  0.39944300  0.91030200  0.53877600  1
  O  O94  1  0.60055700  0.41030200  0.96122400  1
  O  O95  1  0.89944300  0.58969800  0.46122400  1
