# generated using pymatgen
data_C
_symmetry_space_group_name_H-M   'P 1'
_cell_length_a   9.10502400
_cell_length_b   18.94352000
_cell_length_c   5.91726900
_cell_angle_alpha   90.00000000
_cell_angle_beta   90.00000000
_cell_angle_gamma   90.00000000
_symmetry_Int_Tables_number   1
_chemical_formula_structural   C
_chemical_formula_sum   C52
_cell_volume   1020.61768296
_cell_formula_units_Z   52
loop_
 _symmetry_equiv_pos_site_id
 _symmetry_equiv_pos_as_xyz
  1  'x, y, z'
loop_
 _atom_site_type_symbol
 _atom_site_label
 _atom_site_symmetry_multiplicity
 _atom_site_fract_x
 _atom_site_fract_y
 _atom_site_fract_z
 _atom_site_occupancy
  C  C0  1  0.86029600  0.78826500  0.07789400  1
  C  C1  1  0.36029600  0.71173500  0.42210600  1
  C  C2  1  0.13970400  0.28826500  0.92210600  1
  C  C3  1  0.63970400  0.21173500  0.57789400  1
  C  C4  1  0.13970400  0.21173500  0.92210600  1
  C  C5  1  0.63970400  0.28826500  0.57789400  1
  C  C6  1  0.86029600  0.71173500  0.07789400  1
  C  C7  1  0.36029600  0.78826500  0.42210600  1
  C  C8  1  0.92205800  0.84018900  0.20758800  1
  C  C9  1  0.42205800  0.65981100  0.29241200  1
  C  C10  1  0.07794200  0.34018900  0.79241200  1
  C  C11  1  0.57794200  0.15981100  0.70758800  1
  C  C12  1  0.07794200  0.15981100  0.79241200  1
  C  C13  1  0.57794200  0.34018900  0.70758800  1
  C  C14  1  0.92205800  0.65981100  0.20758800  1
  C  C15  1  0.42205800  0.84018900  0.29241200  1
  C  C16  1  0.89863000  0.90565700  0.15679700  1
  C  C17  1  0.39863000  0.59434300  0.34320300  1
  C  C18  1  0.10137000  0.40565700  0.84320300  1
  C  C19  1  0.60137000  0.09434300  0.65679700  1
  C  C20  1  0.10137000  0.09434300  0.84320300  1
  C  C21  1  0.60137000  0.40565700  0.65679700  1
  C  C22  1  0.89863000  0.59434300  0.15679700  1
  C  C23  1  0.39863000  0.90565700  0.34320300  1
  C  C24  1  0.81934000  0.92667800  0.98422500  1
  C  C25  1  0.31934000  0.57332200  0.51577500  1
  C  C26  1  0.18066000  0.42667800  0.01577500  1
  C  C27  1  0.68066000  0.07332200  0.48422500  1
  C  C28  1  0.18066000  0.07332200  0.01577500  1
  C  C29  1  0.68066000  0.42667800  0.48422500  1
  C  C30  1  0.81934000  0.57332200  0.98422500  1
  C  C31  1  0.31934000  0.92667800  0.51577500  1
  C  C32  1  0.75375100  0.88547300  0.84410100  1
  C  C33  1  0.25375100  0.61452700  0.65589900  1
  C  C34  1  0.24624900  0.38547300  0.15589900  1
  C  C35  1  0.74624900  0.11452700  0.34410100  1
  C  C36  1  0.24624900  0.11452700  0.15589900  1
  C  C37  1  0.74624900  0.38547300  0.34410100  1
  C  C38  1  0.75375100  0.61452700  0.84410100  1
  C  C39  1  0.25375100  0.88547300  0.65589900  1
  C  C40  1  0.76722700  0.81305900  0.87526600  1
  C  C41  1  0.26722700  0.68694100  0.62473400  1
  C  C42  1  0.23277300  0.31305900  0.12473400  1
  C  C43  1  0.73277300  0.18694100  0.37526600  1
  C  C44  1  0.23277300  0.18694100  0.12473400  1
  C  C45  1  0.73277300  0.31305900  0.37526600  1
  C  C46  1  0.76722700  0.68694100  0.87526600  1
  C  C47  1  0.26722700  0.81305900  0.62473400  1
  C  C48  1  0.72110000  0.75000000  0.77374700  1
  C  C49  1  0.22110000  0.75000000  0.72625300  1
  C  C50  1  0.27890000  0.25000000  0.22625300  1
  C  C51  1  0.77890000  0.25000000  0.27374700  1
