# generated using pymatgen
data_Ge3Ir2S3
_symmetry_space_group_name_H-M   'P 1'
_cell_length_a   8.46086400
_cell_length_b   8.46086400
_cell_length_c   8.46086400
_cell_angle_alpha   90.00000000
_cell_angle_beta   90.00000000
_cell_angle_gamma   90.00000000
_symmetry_Int_Tables_number   1
_chemical_formula_structural   Ge3Ir2S3
_chemical_formula_sum   'Ge12 Ir8 S12'
_cell_volume   605.68126853
_cell_formula_units_Z   4
loop_
 _symmetry_equiv_pos_site_id
 _symmetry_equiv_pos_as_xyz
  1  'x, y, z'
loop_
 _atom_site_type_symbol
 _atom_site_label
 _atom_site_symmetry_multiplicity
 _atom_site_fract_x
 _atom_site_fract_y
 _atom_site_fract_z
 _atom_site_occupancy
  Ge  Ge0  1  0.66910900  0.00000000  0.14447200  1
  Ge  Ge1  1  0.33089100  0.00000000  0.85552800  1
  Ge  Ge2  1  0.33089100  0.00000000  0.14447200  1
  Ge  Ge3  1  0.66910900  0.00000000  0.85552800  1
  Ge  Ge4  1  0.14447200  0.66910900  0.00000000  1
  Ge  Ge5  1  0.85552800  0.33089100  0.00000000  1
  Ge  Ge6  1  0.14447200  0.33089100  0.00000000  1
  Ge  Ge7  1  0.85552800  0.66910900  0.00000000  1
  Ge  Ge8  1  0.00000000  0.14447200  0.66910900  1
  Ge  Ge9  1  0.00000000  0.85552800  0.33089100  1
  Ge  Ge10  1  0.00000000  0.14447200  0.33089100  1
  Ge  Ge11  1  0.00000000  0.85552800  0.66910900  1
  Ir  Ir12  1  0.73575700  0.26424300  0.26424300  1
  Ir  Ir13  1  0.26424300  0.26424300  0.73575700  1
  Ir  Ir14  1  0.26424300  0.73575700  0.26424300  1
  Ir  Ir15  1  0.73575700  0.73575700  0.73575700  1
  Ir  Ir16  1  0.26424300  0.73575700  0.73575700  1
  Ir  Ir17  1  0.73575700  0.73575700  0.26424300  1
  Ir  Ir18  1  0.73575700  0.26424300  0.73575700  1
  Ir  Ir19  1  0.26424300  0.26424300  0.26424300  1
  S  S20  1  0.16929200  0.50000000  0.62877700  1
  S  S21  1  0.83070800  0.50000000  0.37122300  1
  S  S22  1  0.83070800  0.50000000  0.62877700  1
  S  S23  1  0.16929200  0.50000000  0.37122300  1
  S  S24  1  0.62877700  0.16929200  0.50000000  1
  S  S25  1  0.37122300  0.83070800  0.50000000  1
  S  S26  1  0.62877700  0.83070800  0.50000000  1
  S  S27  1  0.37122300  0.16929200  0.50000000  1
  S  S28  1  0.50000000  0.62877700  0.16929200  1
  S  S29  1  0.50000000  0.37122300  0.83070800  1
  S  S30  1  0.50000000  0.62877700  0.83070800  1
  S  S31  1  0.50000000  0.37122300  0.16929200  1
