# generated using pymatgen
data_Hg3S2O11
_symmetry_space_group_name_H-M   'P 1'
_cell_length_a   5.91961709
_cell_length_b   5.91961709
_cell_length_c   14.49001235
_cell_angle_alpha   80.12476354
_cell_angle_beta   80.12476354
_cell_angle_gamma   97.28825546
_symmetry_Int_Tables_number   1
_chemical_formula_structural   Hg3S2O11
_chemical_formula_sum   'Hg6 S4 O22'
_cell_volume   486.39221701
_cell_formula_units_Z   2
loop_
 _symmetry_equiv_pos_site_id
 _symmetry_equiv_pos_as_xyz
  1  'x, y, z'
loop_
 _atom_site_type_symbol
 _atom_site_label
 _atom_site_symmetry_multiplicity
 _atom_site_fract_x
 _atom_site_fract_y
 _atom_site_fract_z
 _atom_site_occupancy
  Hg  Hg0  1  0.00000000  0.00000000  0.50000000  1
  Hg  Hg1  1  0.00000000  0.00000000  0.00000000  1
  Hg  Hg2  1  0.42648100  0.81477200  0.34884200  1
  Hg  Hg3  1  0.18522800  0.57351900  0.15115800  1
  Hg  Hg4  1  0.57351900  0.18522800  0.65115800  1
  Hg  Hg5  1  0.81477200  0.42648100  0.84884200  1
  S  S6  1  0.80184100  0.48682300  0.39655800  1
  S  S7  1  0.51317700  0.19815900  0.10344200  1
  S  S8  1  0.19815900  0.51317700  0.60344200  1
  S  S9  1  0.48682300  0.80184100  0.89655800  1
  O  O10  1  0.43215200  0.35610700  0.17212100  1
  O  O11  1  0.64389300  0.56784800  0.32787900  1
  O  O12  1  0.56784800  0.64389300  0.82787900  1
  O  O13  1  0.35610700  0.43215200  0.67212100  1
  O  O14  1  0.47787400  0.95983400  0.16015500  1
  O  O15  1  0.04016600  0.52212600  0.33984500  1
  O  O16  1  0.52212600  0.04016600  0.83984500  1
  O  O17  1  0.95983400  0.47787400  0.66015500  1
  O  O18  1  0.71609100  0.23144300  0.43288000  1
  O  O19  1  0.76855700  0.28390900  0.06712000  1
  O  O20  1  0.28390900  0.76855700  0.56712000  1
  O  O21  1  0.23144300  0.71609100  0.93288000  1
  O  O22  1  0.77909800  0.61196900  0.47614500  1
  O  O23  1  0.38803100  0.22090200  0.02385500  1
  O  O24  1  0.22090200  0.38803100  0.52385500  1
  O  O25  1  0.61196900  0.77909800  0.97614500  1
  O  O26  1  0.19471400  0.04352800  0.35987800  1
  O  O27  1  0.95647200  0.80528600  0.14012200  1
  O  O28  1  0.80528600  0.95647200  0.64012200  1
  O  O29  1  0.04352800  0.19471400  0.85987800  1
  O  O30  1  0.97624300  0.02375700  0.25000000  1
  O  O31  1  0.02375700  0.97624300  0.75000000  1
