# generated using pymatgen
data_U2PbI2O13
_symmetry_space_group_name_H-M   'P 1'
_cell_length_a   6.97037800
_cell_length_b   7.98355742
_cell_length_c   21.75690350
_cell_angle_alpha   98.78693559
_cell_angle_beta   90.00000000
_cell_angle_gamma   90.00000000
_symmetry_Int_Tables_number   1
_chemical_formula_structural   U2PbI2O13
_chemical_formula_sum   'U8 Pb4 I8 O52'
_cell_volume   1196.52701895
_cell_formula_units_Z   4
loop_
 _symmetry_equiv_pos_site_id
 _symmetry_equiv_pos_as_xyz
  1  'x, y, z'
loop_
 _atom_site_type_symbol
 _atom_site_label
 _atom_site_symmetry_multiplicity
 _atom_site_fract_x
 _atom_site_fract_y
 _atom_site_fract_z
 _atom_site_occupancy
  U  U0  1  0.82554400  0.61109800  0.62546200  1
  U  U1  1  0.32554400  0.38890200  0.87453800  1
  U  U2  1  0.17445600  0.38890200  0.37453800  1
  U  U3  1  0.67445600  0.61109800  0.12546200  1
  U  U4  1  0.80609900  0.47385300  0.78014100  1
  U  U5  1  0.30609900  0.52614700  0.71985900  1
  U  U6  1  0.19390100  0.52614700  0.21985900  1
  U  U7  1  0.69390100  0.47385300  0.28014100  1
  Pb  Pb8  1  0.62505900  0.12189400  0.63393100  1
  Pb  Pb9  1  0.12505900  0.87810600  0.86606900  1
  Pb  Pb10  1  0.37494100  0.87810600  0.36606900  1
  Pb  Pb11  1  0.87494100  0.12189400  0.13393100  1
  I  I12  1  0.82359600  0.83714000  0.47130300  1
  I  I13  1  0.32359600  0.16286000  0.02869700  1
  I  I14  1  0.17640400  0.16286000  0.52869700  1
  I  I15  1  0.67640400  0.83714000  0.97130300  1
  I  I16  1  0.32827900  0.70241000  0.55038200  1
  I  I17  1  0.82827900  0.29759000  0.94961800  1
  I  I18  1  0.67172100  0.29759000  0.44961800  1
  I  I19  1  0.17172100  0.70241000  0.05038200  1
  O  O20  1  0.91667700  0.69064700  0.52226600  1
  O  O21  1  0.41667700  0.30935300  0.97773400  1
  O  O22  1  0.08332300  0.30935300  0.47773400  1
  O  O23  1  0.58332300  0.69064700  0.02226600  1
  O  O24  1  0.56763900  0.78160100  0.46768100  1
  O  O25  1  0.06763900  0.21839900  0.03231900  1
  O  O26  1  0.43236100  0.21839900  0.53231900  1
  O  O27  1  0.93236100  0.78160100  0.96768100  1
  O  O28  1  0.81903500  0.03291300  0.52846300  1
  O  O29  1  0.31903500  0.96708600  0.97153700  1
  O  O30  1  0.18096500  0.96708600  0.47153700  1
  O  O31  1  0.68096500  0.03291300  0.02846300  1
  O  O32  1  0.18936400  0.61655900  0.61151900  1
  O  O33  1  0.68936400  0.38344100  0.88848100  1
  O  O34  1  0.81063600  0.38344100  0.38848100  1
  O  O35  1  0.31063600  0.61655900  0.11151900  1
  O  O36  1  0.54784700  0.59143800  0.56754100  1
  O  O37  1  0.04784700  0.40856200  0.93245900  1
  O  O38  1  0.45215300  0.40856200  0.43245900  1
  O  O39  1  0.95215300  0.59143800  0.06754100  1
  O  O40  1  0.35843800  0.91599600  0.59337000  1
  O  O41  1  0.85843800  0.08400400  0.90663000  1
  O  O42  1  0.64156200  0.08400400  0.40663000  1
  O  O43  1  0.14156200  0.91599600  0.09337000  1
  O  O44  1  0.85142300  0.38125500  0.59477700  1
  O  O45  1  0.35142300  0.61874500  0.90522300  1
  O  O46  1  0.14857700  0.61874500  0.40522300  1
  O  O47  1  0.64857700  0.38125500  0.09477700  1
  O  O48  1  0.78447600  0.84376100  0.64920800  1
  O  O49  1  0.28447600  0.15623900  0.85079200  1
  O  O50  1  0.21552400  0.15623900  0.35079200  1
  O  O51  1  0.71552400  0.84376100  0.14920800  1
  O  O52  1  0.61886800  0.54898500  0.69558100  1
  O  O53  1  0.11886800  0.45101500  0.80441900  1
  O  O54  1  0.38113200  0.45101500  0.30441900  1
  O  O55  1  0.88113200  0.54898500  0.19558100  1
  O  O56  1  0.81350600  0.25283600  0.73663400  1
  O  O57  1  0.31350600  0.74716400  0.76336600  1
  O  O58  1  0.18649400  0.74716400  0.26336600  1
  O  O59  1  0.68649400  0.25283600  0.23663400  1
  O  O60  1  0.80261600  0.69047400  0.82617300  1
  O  O61  1  0.30261600  0.30952600  0.67382700  1
  O  O62  1  0.19738400  0.30952600  0.17382700  1
  O  O63  1  0.69738400  0.69047400  0.32617300  1
  O  O64  1  0.98866400  0.56929700  0.70776900  1
  O  O65  1  0.48866400  0.43070300  0.79223100  1
  O  O66  1  0.01133600  0.43070300  0.29223100  1
  O  O67  1  0.51133600  0.56929700  0.20776900  1
  O  O68  1  0.51868600  0.02405200  0.73765700  1
  O  O69  1  0.01868600  0.97594800  0.76234300  1
  O  O70  1  0.48131400  0.97594800  0.26234200  1
  O  O71  1  0.98131400  0.02405200  0.23765700  1
