# generated using pymatgen
data_Ho5Bi2Pd
_symmetry_space_group_name_H-M   'P 1'
_cell_length_a   8.02565300
_cell_length_b   9.04951600
_cell_length_c   12.29774100
_cell_angle_alpha   90.00000000
_cell_angle_beta   90.00000000
_cell_angle_gamma   90.00000000
_symmetry_Int_Tables_number   1
_chemical_formula_structural   Ho5Bi2Pd
_chemical_formula_sum   'Ho20 Bi8 Pd4'
_cell_volume   893.16371810
_cell_formula_units_Z   4
loop_
 _symmetry_equiv_pos_site_id
 _symmetry_equiv_pos_as_xyz
  1  'x, y, z'
loop_
 _atom_site_type_symbol
 _atom_site_label
 _atom_site_symmetry_multiplicity
 _atom_site_fract_x
 _atom_site_fract_y
 _atom_site_fract_z
 _atom_site_occupancy
  Ho  Ho0  1  0.16606600  0.75000000  0.21281600  1
  Ho  Ho1  1  0.33393400  0.75000000  0.71281600  1
  Ho  Ho2  1  0.83393400  0.25000000  0.78718400  1
  Ho  Ho3  1  0.66606600  0.25000000  0.28718400  1
  Ho  Ho4  1  0.45912100  0.75000000  0.00018700  1
  Ho  Ho5  1  0.04087900  0.75000000  0.50018700  1
  Ho  Ho6  1  0.54087900  0.25000000  0.99981300  1
  Ho  Ho7  1  0.95912100  0.25000000  0.49981300  1
  Ho  Ho8  1  0.63062900  0.75000000  0.30282400  1
  Ho  Ho9  1  0.86937100  0.75000000  0.80282400  1
  Ho  Ho10  1  0.36937100  0.25000000  0.69717600  1
  Ho  Ho11  1  0.13062900  0.25000000  0.19717600  1
  Ho  Ho12  1  0.82131600  0.55074000  0.06687500  1
  Ho  Ho13  1  0.67868400  0.94926000  0.56687500  1
  Ho  Ho14  1  0.17868400  0.05074000  0.93312500  1
  Ho  Ho15  1  0.32131600  0.44926000  0.43312500  1
  Ho  Ho16  1  0.17868400  0.44926000  0.93312500  1
  Ho  Ho17  1  0.32131600  0.05074000  0.43312500  1
  Ho  Ho18  1  0.82131600  0.94926000  0.06687500  1
  Ho  Ho19  1  0.67868400  0.55074000  0.56687500  1
  Bi  Bi20  1  0.93207700  0.50833800  0.32667500  1
  Bi  Bi21  1  0.56792300  0.99166200  0.82667500  1
  Bi  Bi22  1  0.06792300  0.00833800  0.67332500  1
  Bi  Bi23  1  0.43207700  0.49166200  0.17332500  1
  Bi  Bi24  1  0.06792300  0.49166200  0.67332500  1
  Bi  Bi25  1  0.43207700  0.00833800  0.17332500  1
  Bi  Bi26  1  0.93207700  0.99166200  0.32667500  1
  Bi  Bi27  1  0.56792300  0.50833800  0.82667500  1
  Pd  Pd28  1  0.41245100  0.75000000  0.48586600  1
  Pd  Pd29  1  0.08754900  0.75000000  0.98586600  1
  Pd  Pd30  1  0.58754900  0.25000000  0.51413400  1
  Pd  Pd31  1  0.91245100  0.25000000  0.01413400  1
