# generated using pymatgen
data_Yb2Fe14B
_symmetry_space_group_name_H-M   'P 1'
_cell_length_a   8.69343000
_cell_length_b   8.69343000
_cell_length_c   11.94350800
_cell_angle_alpha   90.00000000
_cell_angle_beta   90.00000000
_cell_angle_gamma   90.00000000
_symmetry_Int_Tables_number   1
_chemical_formula_structural   Yb2Fe14B
_chemical_formula_sum   'Yb8 Fe56 B4'
_cell_volume   902.63927811
_cell_formula_units_Z   4
loop_
 _symmetry_equiv_pos_site_id
 _symmetry_equiv_pos_as_xyz
  1  'x, y, z'
loop_
 _atom_site_type_symbol
 _atom_site_label
 _atom_site_symmetry_multiplicity
 _atom_site_fract_x
 _atom_site_fract_y
 _atom_site_fract_z
 _atom_site_occupancy
  Yb  Yb0  1  0.23004800  0.76995200  0.50000000  1
  Yb  Yb1  1  0.76995200  0.23004800  0.50000000  1
  Yb  Yb2  1  0.26995200  0.26995200  0.00000000  1
  Yb  Yb3  1  0.73004800  0.73004800  0.00000000  1
  Yb  Yb4  1  0.64213200  0.64213200  0.50000000  1
  Yb  Yb5  1  0.35786800  0.35786800  0.50000000  1
  Yb  Yb6  1  0.85786800  0.14213200  0.00000000  1
  Yb  Yb7  1  0.14213200  0.85786800  0.00000000  1
  Fe  Fe8  1  0.00000000  0.50000000  0.50000000  1
  Fe  Fe9  1  0.50000000  0.00000000  0.00000000  1
  Fe  Fe10  1  0.50000000  0.00000000  0.50000000  1
  Fe  Fe11  1  0.00000000  0.50000000  0.00000000  1
  Fe  Fe12  1  0.50000000  0.50000000  0.11385100  1
  Fe  Fe13  1  0.00000000  0.00000000  0.61385100  1
  Fe  Fe14  1  0.50000000  0.50000000  0.88614900  1
  Fe  Fe15  1  0.00000000  0.00000000  0.38614900  1
  Fe  Fe16  1  0.18242200  0.81757800  0.25397500  1
  Fe  Fe17  1  0.81757800  0.18242200  0.25397500  1
  Fe  Fe18  1  0.31757800  0.31757800  0.75397500  1
  Fe  Fe19  1  0.68242200  0.68242200  0.75397500  1
  Fe  Fe20  1  0.81757800  0.18242200  0.74602500  1
  Fe  Fe21  1  0.18242200  0.81757800  0.74602500  1
  Fe  Fe22  1  0.68242200  0.68242200  0.24602500  1
  Fe  Fe23  1  0.31757800  0.31757800  0.24602500  1
  Fe  Fe24  1  0.40317100  0.59682900  0.29456300  1
  Fe  Fe25  1  0.59682900  0.40317100  0.29456300  1
  Fe  Fe26  1  0.09682900  0.09682900  0.79456300  1
  Fe  Fe27  1  0.90317100  0.90317100  0.79456300  1
  Fe  Fe28  1  0.59682900  0.40317100  0.70543700  1
  Fe  Fe29  1  0.40317100  0.59682900  0.70543700  1
  Fe  Fe30  1  0.90317100  0.90317100  0.20543700  1
  Fe  Fe31  1  0.09682900  0.09682900  0.20543700  1
  Fe  Fe32  1  0.14210700  0.53827800  0.32498700  1
  Fe  Fe33  1  0.85789300  0.46172200  0.32498700  1
  Fe  Fe34  1  0.35789300  0.03827800  0.82498700  1
  Fe  Fe35  1  0.64210700  0.96172200  0.82498700  1
  Fe  Fe36  1  0.85789300  0.46172200  0.67501300  1
  Fe  Fe37  1  0.14210700  0.53827800  0.67501300  1
  Fe  Fe38  1  0.64210700  0.96172200  0.17501300  1
  Fe  Fe39  1  0.35789300  0.03827800  0.17501300  1
  Fe  Fe40  1  0.53827800  0.14210700  0.32498700  1
  Fe  Fe41  1  0.46172200  0.85789300  0.32498700  1
  Fe  Fe42  1  0.03827800  0.35789300  0.82498700  1
  Fe  Fe43  1  0.96172200  0.64210700  0.82498700  1
  Fe  Fe44  1  0.46172200  0.85789300  0.67501300  1
  Fe  Fe45  1  0.53827800  0.14210700  0.67501300  1
  Fe  Fe46  1  0.96172200  0.64210700  0.17501300  1
  Fe  Fe47  1  0.03827800  0.35789300  0.17501300  1
  Fe  Fe48  1  0.93289500  0.72324200  0.37510200  1
  Fe  Fe49  1  0.06710500  0.27675800  0.37510200  1
  Fe  Fe50  1  0.56710500  0.22324200  0.87510200  1
  Fe  Fe51  1  0.43289500  0.77675800  0.87510200  1
  Fe  Fe52  1  0.06710500  0.27675800  0.62489800  1
  Fe  Fe53  1  0.93289500  0.72324200  0.62489800  1
  Fe  Fe54  1  0.43289500  0.77675800  0.12489800  1
  Fe  Fe55  1  0.56710500  0.22324200  0.12489800  1
  Fe  Fe56  1  0.72324200  0.93289500  0.37510200  1
  Fe  Fe57  1  0.27675800  0.06710500  0.37510200  1
  Fe  Fe58  1  0.22324200  0.56710500  0.87510200  1
  Fe  Fe59  1  0.77675800  0.43289500  0.87510200  1
  Fe  Fe60  1  0.27675800  0.06710500  0.62489800  1
  Fe  Fe61  1  0.72324200  0.93289500  0.62489800  1
  Fe  Fe62  1  0.77675800  0.43289500  0.12489800  1
  Fe  Fe63  1  0.22324200  0.56710500  0.12489800  1
  B  B64  1  0.87523400  0.87523400  0.50000000  1
  B  B65  1  0.12476600  0.12476600  0.50000000  1
  B  B66  1  0.62476600  0.37523400  0.00000000  1
  B  B67  1  0.37523400  0.62476600  0.00000000  1
