# generated using pymatgen
data_Sr2V(PO4)3
_symmetry_space_group_name_H-M   'P 1'
_cell_length_a   8.23760232
_cell_length_b   8.23760232
_cell_length_c   9.11779143
_cell_angle_alpha   66.62270444
_cell_angle_beta   66.62270444
_cell_angle_gamma   96.68295886
_symmetry_Int_Tables_number   1
_chemical_formula_structural   Sr2V(PO4)3
_chemical_formula_sum   'Sr4 V2 P6 O24'
_cell_volume   493.01126879
_cell_formula_units_Z   2
loop_
 _symmetry_equiv_pos_site_id
 _symmetry_equiv_pos_as_xyz
  1  'x, y, z'
loop_
 _atom_site_type_symbol
 _atom_site_label
 _atom_site_symmetry_multiplicity
 _atom_site_fract_x
 _atom_site_fract_y
 _atom_site_fract_z
 _atom_site_occupancy
  Sr  Sr0  1  0.64517900  0.05631700  0.68751000  1
  Sr  Sr1  1  0.94368300  0.35482100  0.81249000  1
  Sr  Sr2  1  0.35482100  0.94368300  0.31249000  1
  Sr  Sr3  1  0.05631700  0.64517900  0.18751000  1
  V  V4  1  0.50000000  0.50000000  0.50000000  1
  V  V5  1  0.50000000  0.50000000  0.00000000  1
  P  P6  1  0.29626200  0.70373800  0.75000000  1
  P  P7  1  0.70373800  0.29626200  0.25000000  1
  P  P8  1  0.81878000  0.70217700  0.55832500  1
  P  P9  1  0.29782300  0.18122000  0.94167500  1
  P  P10  1  0.18122000  0.29782300  0.44167500  1
  P  P11  1  0.70217700  0.81878000  0.05832500  1
  O  O12  1  0.39926500  0.64697000  0.59703000  1
  O  O13  1  0.35303000  0.60073500  0.90297000  1
  O  O14  1  0.60073500  0.35303000  0.40297000  1
  O  O15  1  0.64697000  0.39926500  0.09703000  1
  O  O16  1  0.74007500  0.62274900  0.45596300  1
  O  O17  1  0.37725100  0.25992500  0.04403700  1
  O  O18  1  0.25992500  0.37725100  0.54403700  1
  O  O19  1  0.62274900  0.74007500  0.95596300  1
  O  O20  1  0.45659600  0.30142400  0.73138100  1
  O  O21  1  0.69857600  0.54340400  0.76861900  1
  O  O22  1  0.54340400  0.69857600  0.26861900  1
  O  O23  1  0.30142400  0.45659600  0.23138100  1
  O  O24  1  0.37373400  0.90795300  0.68299400  1
  O  O25  1  0.09204700  0.62626600  0.81700600  1
  O  O26  1  0.62626600  0.09204700  0.31700600  1
  O  O27  1  0.90795300  0.37373400  0.18299400  1
  O  O28  1  0.01975400  0.69565500  0.48317500  1
  O  O29  1  0.30434500  0.98024600  0.01682500  1
  O  O30  1  0.98024600  0.30434500  0.51682500  1
  O  O31  1  0.69565500  0.01975400  0.98317500  1
  O  O32  1  0.79331500  0.88479800  0.53904200  1
  O  O33  1  0.11520200  0.20668500  0.96095800  1
  O  O34  1  0.20668500  0.11520200  0.46095800  1
  O  O35  1  0.88479800  0.79331500  0.03904200  1
