# generated using pymatgen
data_NiP4N2O19
_symmetry_space_group_name_H-M   'P 1'
_cell_length_a   7.08332600
_cell_length_b   9.59257339
_cell_length_c   13.22431923
_cell_angle_alpha   98.23888900
_cell_angle_beta   98.03583210
_cell_angle_gamma   93.99103019
_symmetry_Int_Tables_number   1
_chemical_formula_structural   NiP4N2O19
_chemical_formula_sum   'Ni2 P8 N4 O38'
_cell_volume   876.86020647
_cell_formula_units_Z   2
loop_
 _symmetry_equiv_pos_site_id
 _symmetry_equiv_pos_as_xyz
  1  'x, y, z'
loop_
 _atom_site_type_symbol
 _atom_site_label
 _atom_site_symmetry_multiplicity
 _atom_site_fract_x
 _atom_site_fract_y
 _atom_site_fract_z
 _atom_site_occupancy
  Ni  Ni0  1  0.00000000  0.00000000  0.00000000  1
  Ni  Ni1  1  0.50000000  0.50000000  0.50000000  1
  P  P2  1  0.82912200  0.30927200  0.02921100  1
  P  P3  1  0.17087800  0.69072800  0.97078900  1
  P  P4  1  0.69354800  0.08707500  0.14996900  1
  P  P5  1  0.30645200  0.91292500  0.85003100  1
  P  P6  1  0.96263400  0.51329900  0.22115200  1
  P  P7  1  0.03736600  0.48670100  0.77884800  1
  P  P8  1  0.95056000  0.26578900  0.33162900  1
  P  P9  1  0.04944000  0.73421100  0.66837100  1
  N  N10  1  0.34131700  0.45845000  0.22819900  1
  N  N11  1  0.65868300  0.54155000  0.77180100  1
  N  N12  1  0.74306100  0.74140500  0.00883200  1
  N  N13  1  0.25693900  0.25859500  0.99116800  1
  O  O14  1  0.95623500  0.19959100  0.98325300  1
  O  O15  1  0.04376500  0.80040900  0.01674700  1
  O  O16  1  0.28773500  0.60994100  0.03816900  1
  O  O17  1  0.71226500  0.39005900  0.96183100  1
  O  O18  1  0.69569800  0.23038200  0.09686800  1
  O  O19  1  0.30430200  0.76961800  0.90313200  1
  O  O20  1  0.83516300  0.99243700  0.10344700  1
  O  O21  1  0.16483700  0.00756300  0.89655300  1
  O  O22  1  0.49279700  0.02900700  0.14325900  1
  O  O23  1  0.50720300  0.97099300  0.85674100  1
  O  O24  1  0.78427700  0.14742200  0.26845400  1
  O  O25  1  0.21572300  0.85257800  0.73154600  1
  O  O26  1  0.14250200  0.24143200  0.29933800  1
  O  O27  1  0.85749800  0.75856800  0.70066200  1
  O  O28  1  0.93278900  0.27788300  0.44388600  1
  O  O29  1  0.06721100  0.72211700  0.55611400  1
  O  O30  1  0.87519100  0.40955100  0.29150600  1
  O  O31  1  0.12480900  0.59044900  0.70849400  1
  O  O32  1  0.84179400  0.62970500  0.20826700  1
  O  O33  1  0.15820600  0.37029500  0.79173300  1
  O  O34  1  0.17827700  0.55823200  0.27212300  1
  O  O35  1  0.82172300  0.44176800  0.72787700  1
  O  O36  1  0.98364100  0.40918600  0.11716900  1
  O  O37  1  0.01635900  0.59081400  0.88283100  1
  O  O38  1  0.48241600  0.47969800  0.28525500  1
  O  O39  1  0.51758400  0.52030200  0.71474500  1
  O  O40  1  0.48098800  0.67745700  0.47142900  1
  O  O41  1  0.51901200  0.32254300  0.52857100  1
  O  O42  1  0.66763500  0.74831300  0.45730400  1
  O  O43  1  0.33236500  0.25168700  0.54269600  1
  O  O44  1  0.32547300  0.25304200  0.07162900  1
  O  O45  1  0.67452700  0.74695800  0.92837100  1
  O  O46  1  0.28139600  0.93345300  0.31142300  1
  O  O47  1  0.71860400  0.06654700  0.68857700  1
  O  O48  1  0.41932600  0.97890800  0.37624300  1
  O  O49  1  0.58067400  0.02109200  0.62375700  1
  O  O50  1  0.65857200  0.79994900  0.37610200  1
  O  O51  1  0.34142800  0.20005100  0.62389800  1
