# generated using pymatgen
data_RuN3Cl3O
_symmetry_space_group_name_H-M   'P 1'
_cell_length_a   6.45114700
_cell_length_b   11.42662800
_cell_length_c   9.10338400
_cell_angle_alpha   90.00000000
_cell_angle_beta   90.00000000
_cell_angle_gamma   90.00000000
_symmetry_Int_Tables_number   1
_chemical_formula_structural   RuN3Cl3O
_chemical_formula_sum   'Ru4 N12 Cl12 O4'
_cell_volume   671.05464925
_cell_formula_units_Z   4
loop_
 _symmetry_equiv_pos_site_id
 _symmetry_equiv_pos_as_xyz
  1  'x, y, z'
loop_
 _atom_site_type_symbol
 _atom_site_label
 _atom_site_symmetry_multiplicity
 _atom_site_fract_x
 _atom_site_fract_y
 _atom_site_fract_z
 _atom_site_occupancy
  Ru  Ru0  1  0.00000000  0.86845000  0.75000000  1
  Ru  Ru1  1  0.50000000  0.63155000  0.25000000  1
  Ru  Ru2  1  0.00000000  0.13155000  0.25000000  1
  Ru  Ru3  1  0.50000000  0.36845000  0.75000000  1
  N  N4  1  0.00000000  0.70989600  0.75000000  1
  N  N5  1  0.50000000  0.79010400  0.25000000  1
  N  N6  1  0.00000000  0.29010400  0.25000000  1
  N  N7  1  0.50000000  0.20989600  0.75000000  1
  N  N8  1  0.80981800  0.89435700  0.90939400  1
  N  N9  1  0.69018200  0.60564300  0.40939400  1
  N  N10  1  0.30981800  0.60564300  0.09060600  1
  N  N11  1  0.19018200  0.89435700  0.59060600  1
  N  N12  1  0.19018200  0.10564300  0.09060600  1
  N  N13  1  0.30981800  0.39435700  0.59060600  1
  N  N14  1  0.69018200  0.39435700  0.90939400  1
  N  N15  1  0.80981800  0.10564300  0.40939400  1
  Cl  Cl16  1  0.28283900  0.87204900  0.91913500  1
  Cl  Cl17  1  0.21716100  0.62795100  0.41913500  1
  Cl  Cl18  1  0.78283900  0.62795100  0.08086500  1
  Cl  Cl19  1  0.71716100  0.87204900  0.58086500  1
  Cl  Cl20  1  0.71716100  0.12795100  0.08086500  1
  Cl  Cl21  1  0.78283900  0.37204900  0.58086500  1
  Cl  Cl22  1  0.21716100  0.37204900  0.91913500  1
  Cl  Cl23  1  0.28283900  0.12795100  0.41913500  1
  Cl  Cl24  1  0.00000000  0.07551400  0.75000000  1
  Cl  Cl25  1  0.50000000  0.42448600  0.25000000  1
  Cl  Cl26  1  0.00000000  0.92448600  0.25000000  1
  Cl  Cl27  1  0.50000000  0.57551400  0.75000000  1
  O  O28  1  0.00000000  0.60901400  0.75000000  1
  O  O29  1  0.50000000  0.89098600  0.25000000  1
  O  O30  1  0.00000000  0.39098600  0.25000000  1
  O  O31  1  0.50000000  0.10901400  0.75000000  1
