# generated using pymatgen
data_Sm3InS6
_symmetry_space_group_name_H-M   'P 1'
_cell_length_a   3.95516400
_cell_length_b   13.72521400
_cell_length_c   16.76029400
_cell_angle_alpha   90.00000000
_cell_angle_beta   90.00000000
_cell_angle_gamma   90.00000000
_symmetry_Int_Tables_number   1
_chemical_formula_structural   Sm3InS6
_chemical_formula_sum   'Sm12 In4 S24'
_cell_volume   909.84047576
_cell_formula_units_Z   4
loop_
 _symmetry_equiv_pos_site_id
 _symmetry_equiv_pos_as_xyz
  1  'x, y, z'
loop_
 _atom_site_type_symbol
 _atom_site_label
 _atom_site_symmetry_multiplicity
 _atom_site_fract_x
 _atom_site_fract_y
 _atom_site_fract_z
 _atom_site_occupancy
  Sm  Sm0  1  0.25465900  0.03704100  0.77833600  1
  Sm  Sm1  1  0.25465900  0.96295900  0.22166400  1
  Sm  Sm2  1  0.74534100  0.46295900  0.27833600  1
  Sm  Sm3  1  0.74534100  0.53704100  0.72166400  1
  Sm  Sm4  1  0.26095300  0.24749700  0.60956200  1
  Sm  Sm5  1  0.26095300  0.75250300  0.39043800  1
  Sm  Sm6  1  0.73904700  0.25250300  0.10956200  1
  Sm  Sm7  1  0.73904700  0.74749700  0.89043800  1
  Sm  Sm8  1  0.74665700  0.30967500  0.85643500  1
  Sm  Sm9  1  0.74665700  0.69032500  0.14356500  1
  Sm  Sm10  1  0.25334300  0.19032500  0.35643500  1
  Sm  Sm11  1  0.25334300  0.80967500  0.64356500  1
  In  In12  1  0.75360300  0.00000000  0.50000000  1
  In  In13  1  0.24639700  0.50000000  0.00000000  1
  In  In14  1  0.40435100  0.50000000  0.50000000  1
  In  In15  1  0.59564900  0.00000000  0.00000000  1
  S  S16  1  0.76878200  0.39682600  0.59085400  1
  S  S17  1  0.76878200  0.60317400  0.40914600  1
  S  S18  1  0.23121800  0.10317400  0.09085400  1
  S  S19  1  0.23121800  0.89682600  0.90914600  1
  S  S20  1  0.24611800  0.31020700  0.98203000  1
  S  S21  1  0.24611800  0.68979300  0.01797000  1
  S  S22  1  0.75388200  0.18979300  0.48203000  1
  S  S23  1  0.75388200  0.81020700  0.51797000  1
  S  S24  1  0.75506700  0.10848400  0.88868600  1
  S  S25  1  0.75506700  0.89151600  0.11131400  1
  S  S26  1  0.24493300  0.39151600  0.38868600  1
  S  S27  1  0.24493300  0.60848400  0.61131400  1
  S  S28  1  0.75789800  0.17827600  0.71762200  1
  S  S29  1  0.75789800  0.82172400  0.28237800  1
  S  S30  1  0.24210200  0.32172400  0.21762200  1
  S  S31  1  0.24210200  0.67827600  0.78237800  1
  S  S32  1  0.24793600  0.38608300  0.75547500  1
  S  S33  1  0.24793600  0.61391700  0.24452500  1
  S  S34  1  0.75206400  0.11391700  0.25547500  1
  S  S35  1  0.75206400  0.88608300  0.74452500  1
  S  S36  1  0.25375000  0.02032100  0.60488800  1
  S  S37  1  0.25375000  0.97967900  0.39511200  1
  S  S38  1  0.74625000  0.47967900  0.10488800  1
  S  S39  1  0.74625000  0.52032100  0.89511200  1
