# generated using pymatgen
data_Dy4B4O11F2
_symmetry_space_group_name_H-M   'P 1'
_cell_length_a   7.14732407
_cell_length_b   7.14732407
_cell_length_c   13.67043022
_cell_angle_alpha   88.75481013
_cell_angle_beta   88.75481013
_cell_angle_gamma   37.77899110
_symmetry_Int_Tables_number   1
_chemical_formula_structural   Dy4B4O11F2
_chemical_formula_sum   'Dy8 B8 O22 F4'
_cell_volume   427.70447586
_cell_formula_units_Z   2
loop_
 _symmetry_equiv_pos_site_id
 _symmetry_equiv_pos_as_xyz
  1  'x, y, z'
loop_
 _atom_site_type_symbol
 _atom_site_label
 _atom_site_symmetry_multiplicity
 _atom_site_fract_x
 _atom_site_fract_y
 _atom_site_fract_z
 _atom_site_occupancy
  Dy  Dy0  1  0.45866300  0.42349700  0.37017900  1
  Dy  Dy1  1  0.57650300  0.54133700  0.12982100  1
  Dy  Dy2  1  0.54133700  0.57650300  0.62982100  1
  Dy  Dy3  1  0.42349700  0.45866300  0.87017900  1
  Dy  Dy4  1  0.73433100  0.70463500  0.36962200  1
  Dy  Dy5  1  0.29536500  0.26566900  0.13037800  1
  Dy  Dy6  1  0.26566900  0.29536500  0.63037800  1
  Dy  Dy7  1  0.70463500  0.73433100  0.86962200  1
  B  B8  1  0.06807700  0.11926700  0.28632400  1
  B  B9  1  0.88073300  0.93192300  0.21367600  1
  B  B10  1  0.93192300  0.88073300  0.71367600  1
  B  B11  1  0.11926700  0.06807700  0.78632400  1
  B  B12  1  0.86142500  0.94641700  0.52283900  1
  B  B13  1  0.05358300  0.13857500  0.97716100  1
  B  B14  1  0.13857500  0.05358300  0.47716100  1
  B  B15  1  0.94641700  0.86142500  0.02283900  1
  O  O16  1  0.95004100  0.22583900  0.39514200  1
  O  O17  1  0.77416100  0.04995900  0.10485800  1
  O  O18  1  0.04995900  0.77416100  0.60485800  1
  O  O19  1  0.22583900  0.95004100  0.89514200  1
  O  O20  1  0.63735600  0.01033400  0.25709200  1
  O  O21  1  0.98966600  0.36264400  0.24290800  1
  O  O22  1  0.36264400  0.98966600  0.74290800  1
  O  O23  1  0.01033400  0.63735600  0.75709200  1
  O  O24  1  0.58743400  0.25504700  0.53354200  1
  O  O25  1  0.74495300  0.41256600  0.96645800  1
  O  O26  1  0.41256600  0.74495300  0.46645800  1
  O  O27  1  0.25504700  0.58743400  0.03354200  1
  O  O28  1  0.83988000  0.16012000  0.25000000  1
  O  O29  1  0.16012000  0.83988000  0.75000000  1
  O  O30  1  0.94805600  0.82046500  0.43186300  1
  O  O31  1  0.17953500  0.05194400  0.06813700  1
  O  O32  1  0.05194400  0.17953500  0.56813700  1
  O  O33  1  0.82046500  0.94805600  0.93186300  1
  O  O34  1  0.37912200  0.81761000  0.27635100  1
  O  O35  1  0.18239000  0.62087800  0.22364900  1
  O  O36  1  0.62087800  0.18239000  0.72364900  1
  O  O37  1  0.81761000  0.37912200  0.77635100  1
  F  F38  1  0.29623800  0.24176500  0.42421200  1
  F  F39  1  0.75823500  0.70376200  0.07578800  1
  F  F40  1  0.70376200  0.75823500  0.57578800  1
  F  F41  1  0.24176500  0.29623800  0.92421200  1
