# generated using pymatgen
data_Cu7PS6
_symmetry_space_group_name_H-M   'P 1'
_cell_length_a   9.63741000
_cell_length_b   9.63741000
_cell_length_c   9.63741000
_cell_angle_alpha   90.00000000
_cell_angle_beta   90.00000000
_cell_angle_gamma   90.00000000
_symmetry_Int_Tables_number   1
_chemical_formula_structural   Cu7PS6
_chemical_formula_sum   'Cu28 P4 S24'
_cell_volume   895.11947499
_cell_formula_units_Z   4
loop_
 _symmetry_equiv_pos_site_id
 _symmetry_equiv_pos_as_xyz
  1  'x, y, z'
loop_
 _atom_site_type_symbol
 _atom_site_label
 _atom_site_symmetry_multiplicity
 _atom_site_fract_x
 _atom_site_fract_y
 _atom_site_fract_z
 _atom_site_occupancy
  Cu  Cu0  1  0.23459400  0.92600000  0.90573500  1
  Cu  Cu1  1  0.09426500  0.73459400  0.57400000  1
  Cu  Cu2  1  0.42600000  0.59426500  0.76540600  1
  Cu  Cu3  1  0.73459400  0.57400000  0.09426500  1
  Cu  Cu4  1  0.59426500  0.76540600  0.42600000  1
  Cu  Cu5  1  0.92600000  0.90573500  0.23459400  1
  Cu  Cu6  1  0.76540600  0.42600000  0.59426500  1
  Cu  Cu7  1  0.90573500  0.23459400  0.92600000  1
  Cu  Cu8  1  0.57400000  0.09426500  0.73459400  1
  Cu  Cu9  1  0.26540600  0.07400000  0.40573500  1
  Cu  Cu10  1  0.40573500  0.26540600  0.07400000  1
  Cu  Cu11  1  0.07400000  0.40573500  0.26540600  1
  Cu  Cu12  1  0.01338900  0.77728400  0.99502500  1
  Cu  Cu13  1  0.00497500  0.51338900  0.72271600  1
  Cu  Cu14  1  0.27728400  0.50497500  0.98661100  1
  Cu  Cu15  1  0.51338900  0.72271600  0.00497500  1
  Cu  Cu16  1  0.50497500  0.98661100  0.27728400  1
  Cu  Cu17  1  0.77728400  0.99502500  0.01338900  1
  Cu  Cu18  1  0.98661100  0.27728400  0.50497500  1
  Cu  Cu19  1  0.99502500  0.01338900  0.77728400  1
  Cu  Cu20  1  0.72271600  0.00497500  0.51338900  1
  Cu  Cu21  1  0.48661100  0.22271600  0.49502500  1
  Cu  Cu22  1  0.49502500  0.48661100  0.22271600  1
  Cu  Cu23  1  0.22271600  0.49502500  0.48661100  1
  Cu  Cu24  1  0.35640100  0.85640100  0.64359900  1
  Cu  Cu25  1  0.85640100  0.64359900  0.35640100  1
  Cu  Cu26  1  0.64359900  0.35640100  0.85640100  1
  Cu  Cu27  1  0.14359900  0.14359900  0.14359900  1
  P  P28  1  0.74724000  0.24724000  0.25276000  1
  P  P29  1  0.24724000  0.25276000  0.74724000  1
  P  P30  1  0.25276000  0.74724000  0.24724000  1
  P  P31  1  0.75276000  0.75276000  0.75276000  1
  S  S32  1  0.87168900  0.37168900  0.12831100  1
  S  S33  1  0.37168900  0.12831100  0.87168900  1
  S  S34  1  0.12831100  0.87168900  0.37168900  1
  S  S35  1  0.62831100  0.62831100  0.62831100  1
  S  S36  1  0.36952500  0.87096100  0.11659200  1
  S  S37  1  0.88340800  0.86952500  0.62903900  1
  S  S38  1  0.37096100  0.38340800  0.63047500  1
  S  S39  1  0.86952500  0.62903900  0.88340800  1
  S  S40  1  0.38340800  0.63047500  0.37096100  1
  S  S41  1  0.87096100  0.11659200  0.36952500  1
  S  S42  1  0.63047500  0.37096100  0.38340800  1
  S  S43  1  0.11659200  0.36952500  0.87096100  1
  S  S44  1  0.62903900  0.88340800  0.86952500  1
  S  S45  1  0.13047500  0.12903900  0.61659200  1
  S  S46  1  0.61659200  0.13047500  0.12903900  1
  S  S47  1  0.12903900  0.61659200  0.13047500  1
  S  S48  1  0.22752000  0.72752000  0.77248000  1
  S  S49  1  0.72752000  0.77248000  0.22752000  1
  S  S50  1  0.77248000  0.22752000  0.72752000  1
  S  S51  1  0.27248000  0.27248000  0.27248000  1
  S  S52  1  0.48732900  0.98732900  0.51267100  1
  S  S53  1  0.98732900  0.51267100  0.48732900  1
  S  S54  1  0.51267100  0.48732900  0.98732900  1
  S  S55  1  0.01267100  0.01267100  0.01267100  1
