# generated using pymatgen
data_H9RhC5NO5
_symmetry_space_group_name_H-M   'P 1'
_cell_length_a   6.79311200
_cell_length_b   7.82248340
_cell_length_c   10.24452485
_cell_angle_alpha   97.79645661
_cell_angle_beta   100.69162035
_cell_angle_gamma   111.56475786
_symmetry_Int_Tables_number   1
_chemical_formula_structural   H9RhC5NO5
_chemical_formula_sum   'H18 Rh2 C10 N2 O10'
_cell_volume   484.95524998
_cell_formula_units_Z   2
loop_
 _symmetry_equiv_pos_site_id
 _symmetry_equiv_pos_as_xyz
  1  'x, y, z'
loop_
 _atom_site_type_symbol
 _atom_site_label
 _atom_site_symmetry_multiplicity
 _atom_site_fract_x
 _atom_site_fract_y
 _atom_site_fract_z
 _atom_site_occupancy
  H  H0  1  0.58180600  0.66246400  0.13524200  1
  H  H1  1  0.41819400  0.33753600  0.86475800  1
  H  H2  1  0.21498800  0.62916200  0.94660700  1
  H  H3  1  0.78501200  0.37083800  0.05339300  1
  H  H4  1  0.39625200  0.86657700  0.72483600  1
  H  H5  1  0.60374800  0.13342300  0.27516400  1
  H  H6  1  0.55509100  0.73045000  0.41933000  1
  H  H7  1  0.44490900  0.26955000  0.58067000  1
  H  H8  1  0.29683400  0.53255200  0.37126200  1
  H  H9  1  0.70316600  0.46744800  0.62873800  1
  H  H10  1  0.32170700  0.74413700  0.31384500  1
  H  H11  1  0.67829300  0.25586300  0.68615500  1
  H  H12  1  0.08807800  0.82184300  0.60106700  1
  H  H13  1  0.91192200  0.17815700  0.39893300  1
  H  H14  1  0.10507600  0.87534800  0.43790000  1
  H  H15  1  0.89492400  0.12465200  0.56210000  1
  H  H16  1  0.97936900  0.63636100  0.45250100  1
  H  H17  1  0.02063100  0.36363900  0.54749900  1
  Rh  Rh18  1  0.87839100  0.93568300  0.88565800  1
  Rh  Rh19  1  0.12160900  0.06431700  0.11434200  1
  C  C20  1  0.70429200  0.76546700  0.09593500  1
  C  C21  1  0.29570800  0.23453300  0.90406500  1
  C  C22  1  0.15341400  0.74114500  0.96116300  1
  C  C23  1  0.84658600  0.25885500  0.03883700  1
  C  C24  1  0.46293800  0.81664400  0.64405200  1
  C  C25  1  0.53706200  0.18335600  0.35594800  1
  C  C26  1  0.37759000  0.68757200  0.39905700  1
  C  C27  1  0.62241000  0.31242800  0.60094300  1
  C  C28  1  0.11261800  0.77482500  0.50193700  1
  C  C29  1  0.88738200  0.22517500  0.49806300  1
  N  N30  1  0.32395200  0.76123700  0.52005400  1
  N  N31  1  0.67604800  0.23876300  0.47994600  1
  O  O32  1  0.65279000  0.75448800  0.96791200  1
  O  O33  1  0.34721000  0.24551200  0.03208800  1
  O  O34  1  0.00993100  0.73832600  0.86030600  1
  O  O35  1  0.99006900  0.26167400  0.13969400  1
  O  O36  1  0.12055800  0.12116400  0.81613600  1
  O  O37  1  0.87944200  0.87883600  0.18386400  1
  O  O38  1  0.76444700  0.14316300  0.92333600  1
  O  O39  1  0.23555300  0.85683700  0.07666400  1
  O  O40  1  0.64958500  0.81444400  0.66825000  1
  O  O41  1  0.35041500  0.18555600  0.33175000  1
