# generated using pymatgen
data_NiH12SO10
_symmetry_space_group_name_H-M   'P 1'
_cell_length_a   6.20183679
_cell_length_b   6.20183679
_cell_length_c   24.60302795
_cell_angle_alpha   81.84964606
_cell_angle_beta   81.84964606
_cell_angle_gamma   70.81196249
_symmetry_Int_Tables_number   1
_chemical_formula_structural   NiH12SO10
_chemical_formula_sum   'Ni4 H48 S4 O40'
_cell_volume   880.10562911
_cell_formula_units_Z   4
loop_
 _symmetry_equiv_pos_site_id
 _symmetry_equiv_pos_as_xyz
  1  'x, y, z'
loop_
 _atom_site_type_symbol
 _atom_site_label
 _atom_site_symmetry_multiplicity
 _atom_site_fract_x
 _atom_site_fract_y
 _atom_site_fract_z
 _atom_site_occupancy
  Ni  Ni0  1  0.50000000  0.50000000  0.50000000  1
  Ni  Ni1  1  0.50000000  0.50000000  0.00000000  1
  Ni  Ni2  1  0.54599400  0.45400600  0.25000000  1
  Ni  Ni3  1  0.45400600  0.54599400  0.75000000  1
  H  H4  1  0.47055800  0.83823600  0.42138700  1
  H  H5  1  0.16176400  0.52944200  0.07861300  1
  H  H6  1  0.52944200  0.16176400  0.57861300  1
  H  H7  1  0.83823600  0.47055800  0.92138700  1
  H  H8  1  0.21303800  0.85046000  0.44488600  1
  H  H9  1  0.14954000  0.78696200  0.05511400  1
  H  H10  1  0.78696200  0.14954000  0.55511400  1
  H  H11  1  0.85046000  0.21303800  0.94488600  1
  H  H12  1  0.16560900  0.43751000  0.44750200  1
  H  H13  1  0.56249000  0.83439100  0.05249800  1
  H  H14  1  0.83439100  0.56249000  0.55249800  1
  H  H15  1  0.43751000  0.16560900  0.94750200  1
  H  H16  1  0.19887700  0.25707600  0.50214700  1
  H  H17  1  0.74292400  0.80112300  0.99785300  1
  H  H18  1  0.80112300  0.74292400  0.49785300  1
  H  H19  1  0.25707600  0.19887700  0.00214700  1
  H  H20  1  0.81466600  0.43569500  0.41147200  1
  H  H21  1  0.56430500  0.18533400  0.08852800  1
  H  H22  1  0.18533400  0.56430500  0.58852800  1
  H  H23  1  0.43569500  0.81466600  0.91147200  1
  H  H24  1  0.77180400  0.19926800  0.43323000  1
  H  H25  1  0.80073200  0.22819600  0.06677000  1
  H  H26  1  0.22819600  0.80073200  0.56677000  1
  H  H27  1  0.19926800  0.77180400  0.93323000  1
  H  H28  1  0.30297200  0.83281300  0.29926800  1
  H  H29  1  0.16718700  0.69702800  0.20073200  1
  H  H30  1  0.69702800  0.16718700  0.70073200  1
  H  H31  1  0.83281300  0.30297200  0.79926800  1
  H  H32  1  0.56252800  0.76658800  0.30964700  1
  H  H33  1  0.23341200  0.43747200  0.19035300  1
  H  H34  1  0.43747200  0.23341200  0.69035300  1
  H  H35  1  0.76658800  0.56252800  0.80964700  1
  H  H36  1  0.81553100  0.50029800  0.15720800  1
  H  H37  1  0.49970200  0.18446900  0.34279200  1
  H  H38  1  0.18446900  0.49970200  0.84279200  1
  H  H39  1  0.50029800  0.81553100  0.65720800  1
  H  H40  1  0.59387700  0.72551000  0.15682400  1
  H  H41  1  0.27449000  0.40612300  0.34317600  1
  H  H42  1  0.40612300  0.27449000  0.84317600  1
  H  H43  1  0.72551000  0.59387700  0.65682400  1
  H  H44  1  0.97605300  0.42367200  0.26342600  1
  H  H45  1  0.57632800  0.02394700  0.23657400  1
  H  H46  1  0.02394700  0.57632800  0.73657400  1
  H  H47  1  0.42367200  0.97605300  0.76342600  1
  H  H48  1  0.92400500  0.20845900  0.29993500  1
  H  H49  1  0.79154100  0.07599500  0.20006500  1
  H  H50  1  0.07599500  0.79154100  0.70006500  1
  H  H51  1  0.20845900  0.92400500  0.79993500  1
  S  S52  1  0.91817700  0.82217000  0.37679100  1
  S  S53  1  0.17783000  0.08182300  0.12320900  1
  S  S54  1  0.08182300  0.17783000  0.62320900  1
  S  S55  1  0.82217000  0.91817700  0.87679100  1
  O  O56  1  0.37037400  0.81514600  0.45534700  1
  O  O57  1  0.18485400  0.62962600  0.04465300  1
  O  O58  1  0.62962600  0.18485400  0.54465300  1
  O  O59  1  0.81514600  0.37037400  0.95534700  1
  O  O60  1  0.25728700  0.37164200  0.47889400  1
  O  O61  1  0.62835800  0.74271300  0.02110600  1
  O  O62  1  0.74271300  0.62835800  0.52110600  1
  O  O63  1  0.37164200  0.25728700  0.97889400  1
  O  O64  1  0.69620600  0.36827300  0.42981000  1
  O  O65  1  0.63172700  0.30379400  0.07019000  1
  O  O66  1  0.30379400  0.63172700  0.57019000  1
  O  O67  1  0.36827300  0.69620600  0.92981000  1
  O  O68  1  0.46318900  0.77728700  0.28068700  1
  O  O69  1  0.22271300  0.53681100  0.21931300  1
  O  O70  1  0.53681100  0.22271300  0.71931300  1
  O  O71  1  0.77728700  0.46318900  0.78068700  1
  O  O72  1  0.69384000  0.60146100  0.18070400  1
  O  O73  1  0.39853900  0.30616000  0.31929600  1
  O  O74  1  0.30616000  0.39853900  0.81929600  1
  O  O75  1  0.60146100  0.69384000  0.68070400  1
  O  O76  1  0.85299500  0.36922100  0.28434100  1
  O  O77  1  0.63077900  0.14700500  0.21565900  1
  O  O78  1  0.14700500  0.63077900  0.71565900  1
  O  O79  1  0.36922100  0.85299500  0.78434100  1
  O  O80  1  0.03198700  0.56742200  0.38341300  1
  O  O81  1  0.43257800  0.96801300  0.11658700  1
  O  O82  1  0.96801300  0.43257800  0.61658700  1
  O  O83  1  0.56742200  0.03198700  0.88341300  1
  O  O84  1  0.67347500  0.87584000  0.36602900  1
  O  O85  1  0.12416000  0.32652500  0.13397100  1
  O  O86  1  0.32652500  0.12416000  0.63397100  1
  O  O87  1  0.87584000  0.67347500  0.86602900  1
  O  O88  1  0.92537000  0.91314000  0.42960800  1
  O  O89  1  0.08686000  0.07463000  0.07039200  1
  O  O90  1  0.07463000  0.08686000  0.57039200  1
  O  O91  1  0.91314000  0.92537000  0.92960800  1
  O  O92  1  0.03948200  0.92875400  0.32969000  1
  O  O93  1  0.07124600  0.96051800  0.17031000  1
  O  O94  1  0.96051800  0.07124600  0.67031000  1
  O  O95  1  0.92875400  0.03948200  0.82969000  1
