# generated using pymatgen
data_Ba5Al3F19
_symmetry_space_group_name_H-M   'P 1'
_cell_length_a   11.14996457
_cell_length_b   11.14996457
_cell_length_c   11.14996457
_cell_angle_alpha   96.61431296
_cell_angle_beta   96.61431296
_cell_angle_gamma   140.32062101
_symmetry_Int_Tables_number   1
_chemical_formula_structural   Ba5Al3F19
_chemical_formula_sum   'Ba10 Al6 F38'
_cell_volume   832.53272798
_cell_formula_units_Z   2
loop_
 _symmetry_equiv_pos_site_id
 _symmetry_equiv_pos_as_xyz
  1  'x, y, z'
loop_
 _atom_site_type_symbol
 _atom_site_label
 _atom_site_symmetry_multiplicity
 _atom_site_fract_x
 _atom_site_fract_y
 _atom_site_fract_z
 _atom_site_occupancy
  Ba  Ba0  1  0.75903900  0.08446900  0.84350800  1
  Ba  Ba1  1  0.24096100  0.91553100  0.15649200  1
  Ba  Ba2  1  0.91553100  0.75903900  0.67457000  1
  Ba  Ba3  1  0.08446900  0.24096100  0.32543000  1
  Ba  Ba4  1  0.28529100  0.44296500  0.72825500  1
  Ba  Ba5  1  0.71470900  0.55703500  0.27174500  1
  Ba  Ba6  1  0.55703500  0.28529100  0.84232600  1
  Ba  Ba7  1  0.44296500  0.71470900  0.15767400  1
  Ba  Ba8  1  0.75000000  0.25000000  0.50000000  1
  Ba  Ba9  1  0.25000000  0.75000000  0.50000000  1
  Al  Al10  1  0.32425300  0.15849000  0.48274300  1
  Al  Al11  1  0.67574700  0.84151000  0.51725700  1
  Al  Al12  1  0.84151000  0.32425300  0.16576300  1
  Al  Al13  1  0.15849000  0.67574700  0.83423700  1
  Al  Al14  1  0.24745600  0.24745600  0.00000000  1
  Al  Al15  1  0.75254400  0.75254400  0.00000000  1
  F  F16  1  0.69125600  0.62973100  0.83945900  1
  F  F17  1  0.79027200  0.85179700  0.16054100  1
  F  F18  1  0.85179700  0.69125600  0.06152500  1
  F  F19  1  0.62973100  0.79027200  0.93847500  1
  F  F20  1  0.30874400  0.37026900  0.16054100  1
  F  F21  1  0.20972800  0.14820300  0.83945900  1
  F  F22  1  0.14820300  0.30874400  0.93847500  1
  F  F23  1  0.37026900  0.20972800  0.06152500  1
  F  F24  1  0.57307200  0.36615100  0.60415700  1
  F  F25  1  0.76199400  0.96891500  0.39584300  1
  F  F26  1  0.96891500  0.57307200  0.20692100  1
  F  F27  1  0.36615100  0.76199400  0.79307900  1
  F  F28  1  0.42692800  0.63384900  0.39584300  1
  F  F29  1  0.23800600  0.03108500  0.60415700  1
  F  F30  1  0.03108500  0.42692800  0.79307900  1
  F  F31  1  0.63384900  0.23800600  0.20692100  1
  F  F32  1  0.91884600  0.05453400  0.64097400  1
  F  F33  1  0.41356000  0.27787100  0.35902600  1
  F  F34  1  0.27787100  0.91884600  0.86431100  1
  F  F35  1  0.05453400  0.41356000  0.13568900  1
  F  F36  1  0.08115400  0.94546600  0.35902600  1
  F  F37  1  0.58644000  0.72212900  0.64097400  1
  F  F38  1  0.72212900  0.08115400  0.13568900  1
  F  F39  1  0.94546600  0.58644000  0.86431100  1
  F  F40  1  0.26395500  0.26459700  0.52855200  1
  F  F41  1  0.73604500  0.73540300  0.47144800  1
  F  F42  1  0.73540300  0.26395500  0.99935800  1
  F  F43  1  0.26459700  0.73604500  0.00064200  1
  F  F44  1  0.61778900  0.95009000  0.56787900  1
  F  F45  1  0.38221100  0.04991000  0.43212100  1
  F  F46  1  0.04991000  0.61778900  0.66769900  1
  F  F47  1  0.95009000  0.38221100  0.33230100  1
  F  F48  1  0.11626100  0.42063000  0.53689100  1
  F  F49  1  0.88373900  0.57937000  0.46310900  1
  F  F50  1  0.57937000  0.11626100  0.69563200  1
  F  F51  1  0.42063000  0.88373900  0.30436800  1
  F  F52  1  0.00000000  0.00000000  0.00000000  1
  F  F53  1  0.50000000  0.50000000  0.00000000  1
