# generated using pymatgen
data_H7C2SNO
_symmetry_space_group_name_H-M   'P 1'
_cell_length_a   6.39984100
_cell_length_b   10.36272200
_cell_length_c   18.49972400
_cell_angle_alpha   90.00000000
_cell_angle_beta   90.00000000
_cell_angle_gamma   90.00000000
_symmetry_Int_Tables_number   1
_chemical_formula_structural   H7C2SNO
_chemical_formula_sum   'H56 C16 S8 N8 O8'
_cell_volume   1226.89749860
_cell_formula_units_Z   8
loop_
 _symmetry_equiv_pos_site_id
 _symmetry_equiv_pos_as_xyz
  1  'x, y, z'
loop_
 _atom_site_type_symbol
 _atom_site_label
 _atom_site_symmetry_multiplicity
 _atom_site_fract_x
 _atom_site_fract_y
 _atom_site_fract_z
 _atom_site_occupancy
  H  H0  1  0.77038800  0.99247800  0.46217400  1
  H  H1  1  0.27038800  0.50752200  0.53782600  1
  H  H2  1  0.22961200  0.49247800  0.03782600  1
  H  H3  1  0.72961200  0.00752200  0.96217400  1
  H  H4  1  0.22961200  0.00752200  0.53782600  1
  H  H5  1  0.72961200  0.49247800  0.46217400  1
  H  H6  1  0.77038800  0.50752200  0.96217400  1
  H  H7  1  0.27038800  0.99247800  0.03782600  1
  H  H8  1  0.49146000  0.18493900  0.27620000  1
  H  H9  1  0.99146000  0.31506100  0.72380000  1
  H  H10  1  0.50854000  0.68493900  0.22380000  1
  H  H11  1  0.00854000  0.81506100  0.77620000  1
  H  H12  1  0.50854000  0.81506100  0.72380000  1
  H  H13  1  0.00854000  0.68493900  0.27620000  1
  H  H14  1  0.49146000  0.31506100  0.77620000  1
  H  H15  1  0.99146000  0.18493900  0.22380000  1
  H  H16  1  0.39409800  0.89312700  0.40514700  1
  H  H17  1  0.89409800  0.60687300  0.59485300  1
  H  H18  1  0.60590200  0.39312700  0.09485300  1
  H  H19  1  0.10590200  0.10687300  0.90514700  1
  H  H20  1  0.60590200  0.10687300  0.59485300  1
  H  H21  1  0.10590200  0.39312700  0.40514700  1
  H  H22  1  0.39409800  0.60687300  0.90514700  1
  H  H23  1  0.89409800  0.89312700  0.09485300  1
  H  H24  1  0.90070000  0.00683900  0.37542800  1
  H  H25  1  0.40070000  0.49316100  0.62457200  1
  H  H26  1  0.09930000  0.50683900  0.12457200  1
  H  H27  1  0.59930000  0.99316100  0.87542800  1
  H  H28  1  0.09930000  0.99316100  0.62457200  1
  H  H29  1  0.59930000  0.50683900  0.37542800  1
  H  H30  1  0.90070000  0.49316100  0.87542800  1
  H  H31  1  0.40070000  0.00683900  0.12457200  1
  H  H32  1  0.31131500  0.96032400  0.32003800  1
  H  H33  1  0.81131500  0.53967600  0.67996200  1
  H  H34  1  0.68868500  0.46032400  0.17996200  1
  H  H35  1  0.18868500  0.03967600  0.82003800  1
  H  H36  1  0.68868500  0.03967600  0.67996200  1
  H  H37  1  0.18868500  0.46032400  0.32003800  1
  H  H38  1  0.31131500  0.53967600  0.82003800  1
  H  H39  1  0.81131500  0.96032400  0.17996200  1
  H  H40  1  0.86952500  0.14714500  0.43241000  1
  H  H41  1  0.36952500  0.35285500  0.56759000  1
  H  H42  1  0.13047500  0.64714500  0.06759000  1
  H  H43  1  0.63047500  0.85285500  0.93241000  1
  H  H44  1  0.13047500  0.85285500  0.56759000  1
  H  H45  1  0.63047500  0.64714500  0.43241000  1
  H  H46  1  0.86952500  0.35285500  0.93241000  1
  H  H47  1  0.36952500  0.14714500  0.06759000  1
  H  H48  1  0.56042500  0.87945400  0.32636900  1
  H  H49  1  0.06042500  0.62054600  0.67363100  1
  H  H50  1  0.43957500  0.37945400  0.17363100  1
  H  H51  1  0.93957500  0.12054600  0.82636900  1
  H  H52  1  0.43957500  0.12054600  0.67363100  1
  H  H53  1  0.93957500  0.37945400  0.32636900  1
  H  H54  1  0.56042500  0.62054600  0.82636900  1
  H  H55  1  0.06042500  0.87945400  0.17363100  1
  C  C56  1  0.44576300  0.93916000  0.35499800  1
  C  C57  1  0.94576300  0.56084000  0.64500200  1
  C  C58  1  0.55423700  0.43916000  0.14500200  1
  C  C59  1  0.05423700  0.06084000  0.85499800  1
  C  C60  1  0.55423700  0.06084000  0.64500200  1
  C  C61  1  0.05423700  0.43916000  0.35499800  1
  C  C62  1  0.44576300  0.56084000  0.85499800  1
  C  C63  1  0.94576300  0.93916000  0.14500200  1
  C  C64  1  0.80202400  0.05467200  0.41550500  1
  C  C65  1  0.30202400  0.44532800  0.58449500  1
  C  C66  1  0.19797600  0.55467200  0.08449500  1
  C  C67  1  0.69797600  0.94532800  0.91550500  1
  C  C68  1  0.19797600  0.94532800  0.58449500  1
  C  C69  1  0.69797600  0.55467200  0.41550500  1
  C  C70  1  0.80202400  0.44532800  0.91550500  1
  C  C71  1  0.30202400  0.05467200  0.08449500  1
  S  S72  1  0.55850000  0.09384200  0.37539600  1
  S  S73  1  0.05850000  0.40615800  0.62460400  1
  S  S74  1  0.44150000  0.59384200  0.12460400  1
  S  S75  1  0.94150000  0.90615800  0.87539600  1
  S  S76  1  0.44150000  0.90615800  0.62460400  1
  S  S77  1  0.94150000  0.59384200  0.37539600  1
  S  S78  1  0.55850000  0.40615800  0.87539600  1
  S  S79  1  0.05850000  0.09384200  0.12460400  1
  N  N80  1  0.62282100  0.16667000  0.30665000  1
  N  N81  1  0.12282100  0.33333000  0.69335000  1
  N  N82  1  0.37717900  0.66667000  0.19335000  1
  N  N83  1  0.87717900  0.83333000  0.80665000  1
  N  N84  1  0.37717900  0.83333000  0.69335000  1
  N  N85  1  0.87717900  0.66667000  0.30665000  1
  N  N86  1  0.62282100  0.33333000  0.80665000  1
  N  N87  1  0.12282100  0.16667000  0.19335000  1
  O  O88  1  0.42176400  0.15189300  0.43010600  1
  O  O89  1  0.92176400  0.34810700  0.56989400  1
  O  O90  1  0.57823600  0.65189300  0.06989400  1
  O  O91  1  0.07823600  0.84810700  0.93010600  1
  O  O92  1  0.57823600  0.84810700  0.56989400  1
  O  O93  1  0.07823600  0.65189300  0.43010600  1
  O  O94  1  0.42176400  0.34810700  0.93010600  1
  O  O95  1  0.92176400  0.15189300  0.06989400  1
