# generated using pymatgen
data_Sr3Te4O11
_symmetry_space_group_name_H-M   'P 1'
_cell_length_a   7.68607500
_cell_length_b   9.40474031
_cell_length_c   9.74698361
_cell_angle_alpha   98.36066533
_cell_angle_beta   110.05402150
_cell_angle_gamma   101.49872770
_symmetry_Int_Tables_number   1
_chemical_formula_structural   Sr3Te4O11
_chemical_formula_sum   'Sr6 Te8 O22'
_cell_volume   630.83469358
_cell_formula_units_Z   2
loop_
 _symmetry_equiv_pos_site_id
 _symmetry_equiv_pos_as_xyz
  1  'x, y, z'
loop_
 _atom_site_type_symbol
 _atom_site_label
 _atom_site_symmetry_multiplicity
 _atom_site_fract_x
 _atom_site_fract_y
 _atom_site_fract_z
 _atom_site_occupancy
  Sr  Sr0  1  0.47365400  0.33330300  0.32316900  1
  Sr  Sr1  1  0.04257100  0.37595200  0.53009300  1
  Sr  Sr2  1  0.48641800  0.82592000  0.82623400  1
  Sr  Sr3  1  0.31620100  0.21456100  0.88527400  1
  Sr  Sr4  1  0.86942300  0.76502300  0.58905600  1
  Sr  Sr5  1  0.88697300  0.25310200  0.08872200  1
  Te  Te6  1  0.10276800  0.93441700  0.00479400  1
  Te  Te7  1  0.20011100  0.54695600  0.98220800  1
  Te  Te8  1  0.64088800  0.98963000  0.25254700  1
  Te  Te9  1  0.25768800  0.65635600  0.41032500  1
  Te  Te10  1  0.72188300  0.59461600  0.16490900  1
  Te  Te11  1  0.67818200  0.10330900  0.66802400  1
  Te  Te12  1  0.68274700  0.48780500  0.74968500  1
  Te  Te13  1  0.16325200  0.04378300  0.43377500  1
  O  O14  1  0.73817000  0.19679300  0.33997400  1
  O  O15  1  0.13116200  0.19072100  0.32084400  1
  O  O16  1  0.37992500  0.52595300  0.51451600  1
  O  O17  1  0.87079300  0.92919000  0.37240100  1
  O  O18  1  0.70058300  0.98826200  0.08206800  1
  O  O19  1  0.15251300  0.14951100  0.60795800  1
  O  O20  1  0.79006900  0.48395400  0.60218500  1
  O  O21  1  0.47461700  0.15341800  0.51604100  1
  O  O22  1  0.88701300  0.43622000  0.90002400  1
  O  O23  1  0.34792000  0.07771500  0.11211900  1
  O  O24  1  0.57585600  0.11381000  0.81828100  1
  O  O25  1  0.01669100  0.50792000  0.30230000  1
  O  O26  1  0.75066700  0.69645300  0.82299300  1
  O  O27  1  0.60632200  0.89356700  0.60161400  1
  O  O28  1  0.18542800  0.74225400  0.56252500  1
  O  O29  1  0.16903300  0.85519300  0.84604800  1
  O  O30  1  0.98123500  0.06868600  0.90718700  1
  O  O31  1  0.21632000  0.44957100  0.80666100  1
  O  O32  1  0.22963400  0.39487900  0.08843500  1
  O  O33  1  0.49234700  0.66000600  0.05177600  1
  O  O34  1  0.62055500  0.38729300  0.07963800  1
  O  O35  1  0.66528800  0.59559900  0.33649500  1
