# generated using pymatgen
data_U(PO2)4
_symmetry_space_group_name_H-M   'P 1'
_cell_length_a   7.83994200
_cell_length_b   13.64726500
_cell_length_c   19.89638200
_cell_angle_alpha   90.00000000
_cell_angle_beta   90.00000000
_cell_angle_gamma   90.00000000
_symmetry_Int_Tables_number   1
_chemical_formula_structural   U(PO2)4
_chemical_formula_sum   'U8 P32 O64'
_cell_volume   2128.78884112
_cell_formula_units_Z   8
loop_
 _symmetry_equiv_pos_site_id
 _symmetry_equiv_pos_as_xyz
  1  'x, y, z'
loop_
 _atom_site_type_symbol
 _atom_site_label
 _atom_site_symmetry_multiplicity
 _atom_site_fract_x
 _atom_site_fract_y
 _atom_site_fract_z
 _atom_site_occupancy
  U  U0  1  0.65057700  0.13907200  0.38723500  1
  U  U1  1  0.15057700  0.36092800  0.61276500  1
  U  U2  1  0.34942300  0.63907200  0.11276500  1
  U  U3  1  0.84942300  0.86092800  0.88723500  1
  U  U4  1  0.34942300  0.86092800  0.61276500  1
  U  U5  1  0.84942300  0.63907200  0.38723500  1
  U  U6  1  0.65057700  0.36092800  0.88723500  1
  U  U7  1  0.15057700  0.13907200  0.11276500  1
  P  P8  1  0.72622400  0.17377700  0.20609400  1
  P  P9  1  0.22622400  0.32622300  0.79390600  1
  P  P10  1  0.27377600  0.67377700  0.29390600  1
  P  P11  1  0.77377600  0.82622300  0.70609400  1
  P  P12  1  0.27377600  0.82622300  0.79390600  1
  P  P13  1  0.77377600  0.67377700  0.20609400  1
  P  P14  1  0.72622400  0.32622300  0.70609400  1
  P  P15  1  0.22622400  0.17377700  0.29390600  1
  P  P16  1  0.64666900  0.40459300  0.32515500  1
  P  P17  1  0.14666900  0.09540700  0.67484500  1
  P  P18  1  0.35333100  0.90459300  0.17484500  1
  P  P19  1  0.85333100  0.59540700  0.82515500  1
  P  P20  1  0.35333100  0.59540700  0.67484500  1
  P  P21  1  0.85333100  0.90459300  0.32515500  1
  P  P22  1  0.64666900  0.09540700  0.82515500  1
  P  P23  1  0.14666900  0.40459300  0.17484500  1
  P  P24  1  0.62988200  0.07621100  0.57437100  1
  P  P25  1  0.12988200  0.42378900  0.42562900  1
  P  P26  1  0.37011800  0.57621100  0.92562900  1
  P  P27  1  0.87011800  0.92378900  0.07437100  1
  P  P28  1  0.37011800  0.92378900  0.42562900  1
  P  P29  1  0.87011800  0.57621100  0.57437100  1
  P  P30  1  0.62988200  0.42378900  0.07437100  1
  P  P31  1  0.12988200  0.07621100  0.92562900  1
  P  P32  1  0.55646700  0.33171900  0.51624100  1
  P  P33  1  0.05646700  0.16828100  0.48375900  1
  P  P34  1  0.44353300  0.83171900  0.98375900  1
  P  P35  1  0.94353300  0.66828100  0.01624100  1
  P  P36  1  0.44353300  0.66828100  0.48375900  1
  P  P37  1  0.94353300  0.83171900  0.51624100  1
  P  P38  1  0.55646700  0.16828100  0.01624100  1
  P  P39  1  0.05646700  0.33171900  0.98375900  1
  O  O40  1  0.74130000  0.12570300  0.27577700  1
  O  O41  1  0.24130000  0.37429700  0.72422300  1
  O  O42  1  0.25870000  0.62570300  0.22422300  1
  O  O43  1  0.75870000  0.87429700  0.77577700  1
  O  O44  1  0.25870000  0.87429700  0.72422300  1
  O  O45  1  0.75870000  0.62570300  0.27577700  1
  O  O46  1  0.74130000  0.37429700  0.77577700  1
  O  O47  1  0.24130000  0.12570300  0.22422300  1
  O  O48  1  0.90067400  0.18560300  0.17280300  1
  O  O49  1  0.40067400  0.31439700  0.82719700  1
  O  O50  1  0.09932600  0.68560300  0.32719700  1
  O  O51  1  0.59932600  0.81439700  0.67280300  1
  O  O52  1  0.09932600  0.81439700  0.82719700  1
  O  O53  1  0.59932600  0.68560300  0.17280300  1
  O  O54  1  0.90067400  0.31439700  0.67280300  1
  O  O55  1  0.40067400  0.18560300  0.32719700  1
  O  O56  1  0.70556500  0.30233500  0.34624800  1
  O  O57  1  0.20556500  0.19766500  0.65375200  1
  O  O58  1  0.29443500  0.80233500  0.15375200  1
  O  O59  1  0.79443500  0.69766500  0.84624800  1
  O  O60  1  0.29443500  0.69766500  0.65375200  1
  O  O61  1  0.79443500  0.80233500  0.34624800  1
  O  O62  1  0.70556500  0.19766500  0.84624800  1
  O  O63  1  0.20556500  0.30233500  0.15375200  1
  O  O64  1  0.71966800  0.48425100  0.37127200  1
  O  O65  1  0.21966800  0.01574900  0.62872800  1
  O  O66  1  0.28033200  0.98425100  0.12872800  1
  O  O67  1  0.78033200  0.51574900  0.87127200  1
  O  O68  1  0.28033200  0.51574900  0.62872800  1
  O  O69  1  0.78033200  0.98425100  0.37127200  1
  O  O70  1  0.71966800  0.01574900  0.87127200  1
  O  O71  1  0.21966800  0.48425100  0.12872800  1
  O  O72  1  0.66531900  0.07377400  0.49915000  1
  O  O73  1  0.16531900  0.42622600  0.50085000  1
  O  O74  1  0.33468100  0.57377400  0.00085000  1
  O  O75  1  0.83468100  0.92622600  0.99915000  1
  O  O76  1  0.33468100  0.92622600  0.50085000  1
  O  O77  1  0.83468100  0.57377400  0.49915000  1
  O  O78  1  0.66531900  0.42622600  0.99915000  1
  O  O79  1  0.16531900  0.07377400  0.00085000  1
  O  O80  1  0.56522300  0.97755800  0.60122000  1
  O  O81  1  0.06522300  0.52244200  0.39878000  1
  O  O82  1  0.43477700  0.47755800  0.89878000  1
  O  O83  1  0.93477700  0.02244200  0.10122000  1
  O  O84  1  0.43477700  0.02244200  0.39878000  1
  O  O85  1  0.93477700  0.47755800  0.60122000  1
  O  O86  1  0.56522300  0.52244200  0.10122000  1
  O  O87  1  0.06522300  0.97755800  0.89878000  1
  O  O88  1  0.52877500  0.25274000  0.46241500  1
  O  O89  1  0.02877500  0.24726000  0.53758500  1
  O  O90  1  0.47122500  0.75274000  0.03758500  1
  O  O91  1  0.97122500  0.74726000  0.96241500  1
  O  O92  1  0.47122500  0.74726000  0.53758500  1
  O  O93  1  0.97122500  0.75274000  0.46241500  1
  O  O94  1  0.52877500  0.24726000  0.96241500  1
  O  O95  1  0.02877500  0.25274000  0.03758500  1
  O  O96  1  0.41686300  0.32532900  0.57035700  1
  O  O97  1  0.91686300  0.17467100  0.42964300  1
  O  O98  1  0.58313700  0.82532900  0.92964300  1
  O  O99  1  0.08313700  0.67467100  0.07035700  1
  O  O100  1  0.58313700  0.67467100  0.42964300  1
  O  O101  1  0.08313700  0.82532900  0.57035700  1
  O  O102  1  0.41686300  0.17467100  0.07035700  1
  O  O103  1  0.91686300  0.32532900  0.92964300  1
