# generated using pymatgen
data_C13F7
_symmetry_space_group_name_H-M   'P 1'
_cell_length_a   10.62163763
_cell_length_b   12.84199191
_cell_length_c   21.34154073
_cell_angle_alpha   88.33247977
_cell_angle_beta   82.88787911
_cell_angle_gamma   77.31741003
_symmetry_Int_Tables_number   1
_chemical_formula_structural   C13F7
_chemical_formula_sum   'C156 F84'
_cell_volume   2818.16669439
_cell_formula_units_Z   12
loop_
 _symmetry_equiv_pos_site_id
 _symmetry_equiv_pos_as_xyz
  1  'x, y, z'
loop_
 _atom_site_type_symbol
 _atom_site_label
 _atom_site_symmetry_multiplicity
 _atom_site_fract_x
 _atom_site_fract_y
 _atom_site_fract_z
 _atom_site_occupancy
  C  C0  1  0.42926085  0.71296164  0.65998912  1
  C  C1  1  0.57073915  0.28703836  0.34001088  1
  C  C2  1  0.36573087  0.70367924  0.72886927  1
  C  C3  1  0.63426913  0.29632076  0.27113073  1
  C  C4  1  0.41296765  0.76721206  0.77046519  1
  C  C5  1  0.58703235  0.23278794  0.22953481  1
  C  C6  1  0.52334453  0.80253816  0.73567051  1
  C  C7  1  0.47665547  0.19746184  0.26432949  1
  C  C8  1  0.54390138  0.76396842  0.67178566  1
  C  C9  1  0.45609862  0.23603158  0.32821434  1
  C  C10  1  0.66984026  0.73237091  0.64218002  1
  C  C11  1  0.33015974  0.26762909  0.35781998  1
  C  C12  1  0.71420730  0.64068175  0.59315463  1
  C  C13  1  0.28579270  0.35931825  0.40684537  1
  C  C14  1  0.61582200  0.56955965  0.60510913  1
  C  C15  1  0.38417800  0.43044035  0.39489087  1
  C  C16  1  0.49040273  0.60113353  0.63448932  1
  C  C17  1  0.50959727  0.39886647  0.36551068  1
  C  C18  1  0.44575026  0.50718234  0.66065693  1
  C  C19  1  0.55424974  0.49281766  0.33934307  1
  C  C20  1  0.36324116  0.51171636  0.71684989  1
  C  C21  1  0.63675884  0.48828364  0.28315011  1
  C  C22  1  0.32589707  0.61246232  0.75218943  1
  C  C23  1  0.67410293  0.38753768  0.24781057  1
  C  C24  1  0.32636877  0.58638331  0.81806561  1
  C  C25  1  0.67363123  0.41361669  0.18193439  1
  C  C26  1  0.37010947  0.65228559  0.85836233  1
  C  C27  1  0.62989053  0.34771441  0.14163767  1
  C  C28  1  0.40838418  0.74679784  0.83525960  1
  C  C29  1  0.59161582  0.25320216  0.16474040  1
  C  C30  1  0.50461052  0.77649646  0.87733365  1
  C  C31  1  0.49538948  0.22350354  0.12266635  1
  C  C32  1  0.62692081  0.78857405  0.83524246  1
  C  C33  1  0.37307919  0.21142595  0.16475754  1
  C  C34  1  0.62572857  0.81300897  0.76792647  1
  C  C35  1  0.37427143  0.18699103  0.23207353  1
  C  C36  1  0.75526237  0.78078615  0.73749049  1
  C  C37  1  0.24473763  0.21921385  0.26250951  1
  C  C38  1  0.77613171  0.73800151  0.67646072  1
  C  C39  1  0.22386829  0.26199849  0.32353928  1
  C  C40  1  0.88147987  0.64729207  0.66101625  1
  C  C41  1  0.11852013  0.35270793  0.33898375  1
  C  C42  1  0.84322656  0.58169500  0.61750675  1
  C  C43  1  0.15677344  0.41830500  0.38249325  1
  C  C44  1  0.87474673  0.47192713  0.62628005  1
  C  C45  1  0.12525327  0.52807287  0.37371995  1
  C  C46  1  0.78079295  0.40580635  0.62214313  1
  C  C47  1  0.21920705  0.59419365  0.37785687  1
  C  C48  1  0.65623974  0.45390865  0.61171808  1
  C  C49  1  0.34376026  0.54609135  0.38828192  1
  C  C50  1  0.54783037  0.41487944  0.64576364  1
  C  C51  1  0.45216963  0.58512056  0.35423636  1
  C  C52  1  0.56757161  0.32859709  0.68676612  1
  C  C53  1  0.43242839  0.67140291  0.31323388  1
  C  C54  1  0.48943012  0.33619646  0.74637534  1
  C  C55  1  0.51056988  0.66380354  0.25362466  1
  C  C56  1  0.38657372  0.42566311  0.76116856  1
  C  C57  1  0.61342628  0.57433689  0.23883144  1
  C  C58  1  0.36351104  0.47148847  0.82370599  1
  C  C59  1  0.63648896  0.52851153  0.17629401  1
  C  C60  1  0.44159805  0.42606172  0.86973986  1
  C  C61  1  0.55840195  0.57393828  0.13026014  1
  C  C62  1  0.48492344  0.49381702  0.91187217  1
  C  C63  1  0.51507656  0.50618298  0.08812783  1
  C  C64  1  0.45118774  0.60509945  0.90617456  1
  C  C65  1  0.54881226  0.39490055  0.09382544  1
  C  C66  1  0.54158973  0.67064611  0.91445019  1
  C  C67  1  0.45841027  0.32935389  0.08554981  1
  C  C68  1  0.66725151  0.62282135  0.92473741  1
  C  C69  1  0.33274849  0.37717865  0.07526259  1
  C  C70  1  0.78914002  0.66816906  0.90091080  1
  C  C71  1  0.21085998  0.33183094  0.09908920  1
  C  C72  1  0.75257969  0.74145776  0.84563361  1
  C  C73  1  0.24742031  0.25854224  0.15436639  1
  C  C74  1  0.83515264  0.73422793  0.78535270  1
  C  C75  1  0.16484736  0.26577207  0.21464730  1
  C  C76  1  0.93613290  0.64667337  0.77056327  1
  C  C77  1  0.06386710  0.35332663  0.22943673  1
  C  C78  1  0.96048707  0.60188858  0.70795689  1
  C  C79  1  0.03951293  0.39811142  0.29204311  1
  C  C80  1  -0.00203014  0.48830845  0.71377912  1
  C  C81  1  0.00203014  0.51169155  0.28622088  1
  C  C82  1  0.95288298  0.42442623  0.67435377  1
  C  C83  1  0.04711702  0.57557377  0.32564623  1
  C  C84  1  0.90930679  0.32849719  0.69766119  1
  C  C85  1  0.09069321  0.67150281  0.30233881  1
  C  C86  1  0.80665706  0.31736721  0.66669489  1
  C  C87  1  0.19334294  0.68263279  0.33330511  1
  C  C88  1  0.70369514  0.25576530  0.69174462  1
  C  C89  1  0.29630486  0.74423470  0.30825538  1
  C  C90  1  0.70173850  0.25033798  0.76462063  1
  C  C91  1  0.29826150  0.74966202  0.23537937  1
  C  C92  1  0.57090674  0.28979983  0.79391736  1
  C  C93  1  0.42909326  0.71020017  0.20608264  1
  C  C94  1  0.54579029  0.33356692  0.85486203  1
  C  C95  1  0.45420971  0.66643308  0.14513797  1
  C  C96  1  0.65271727  0.34496639  0.88695154  1
  C  C97  1  0.34728273  0.65503361  0.11304846  1
  C  C98  1  0.61512761  0.44406201  0.92236744  1
  C  C99  1  0.38487239  0.55593799  0.07763256  1
  C  C100  1  0.70470278  0.50807378  0.92669924  1
  C  C101  1  0.29529722  0.49192622  0.07330076  1
  C  C102  1  0.83639243  0.47349513  0.89646533  1
  C  C103  1  0.16360757  0.52650487  0.10353467  1
  C  C104  1  0.88455928  0.56455970  0.87496133  1
  C  C105  1  0.11544072  0.43544030  0.12503867  1
  C  C106  1  0.95898352  0.55910671  0.81628818  1
  C  C107  1  0.04101648  0.44089329  0.18371182  1
  C  C108  1  0.99635391  0.46080614  0.78103191  1
  C  C109  1  0.00364609  0.53919386  0.21896809  1
  C  C110  1  0.95881439  0.36876858  0.80477324  1
  C  C111  1  0.04118561  0.63123142  0.19522676  1
  C  C112  1  0.93634287  0.28006518  0.76204434  1
  C  C113  1  0.06365713  0.71993482  0.23795566  1
  C  C114  1  0.80454409  0.26158594  0.79551096  1
  C  C115  1  0.19545591  0.73841406  0.20448904  1
  C  C116  1  0.77922658  0.31208806  0.85657289  1
  C  C117  1  0.22077342  0.68791194  0.14342711  1
  C  C118  1  0.87285282  0.37693619  0.86166211  1
  C  C119  1  0.12714718  0.62306381  0.13833789  1
  C  C120  1  0.33223479  0.77847085  0.61404737  1
  C  C121  1  0.66776521  0.22152915  0.38595263  1
  C  C122  1  0.19559247  0.74923086  0.62078068  1
  C  C123  1  0.80440753  0.25076914  0.37921932  1
  C  C124  1  0.31489448  0.90198248  0.61912902  1
  C  C125  1  0.68510552  0.09801752  0.38087098  1
  C  C126  1  0.73043825  0.68202577  0.52206796  1
  C  C127  1  0.26956175  0.31797423  0.47793204  1
  C  C128  1  0.84794580  0.73731318  0.50449689  1
  C  C129  1  0.15205420  0.26268682  0.49550311  1
  C  C130  1  0.73387407  0.59290815  0.47303220  1
  C  C131  1  0.26612593  0.40709185  0.52696780  1
  C  C132  1  0.44411367  0.87645537  0.92220899  1
  C  C133  1  0.55588633  0.12354463  0.07779101  1
  C  C134  1  0.44788710  0.98525513  0.88757412  1
  C  C135  1  0.55211290  0.01474487  0.11242588  1
  C  C136  1  0.30390826  0.87821508  0.95578985  1
  C  C137  1  0.69609174  0.12178492  0.04421015  1
  C  C138  1  0.84284951  0.72796715  0.95273966  1
  C  C139  1  0.15715049  0.27203285  0.04726034  1
  C  C140  1  0.81829801  0.68318790  0.02097425  1
  C  C141  1  0.18170199  0.31681210  0.97902575  1
  C  C142  1  0.98877652  0.73490719  0.93748261  1
  C  C143  1  0.01122348  0.26509281  0.06251739  1
  C  C144  1  0.72651368  0.14153532  0.65994506  1
  C  C145  1  0.27348632  0.85846468  0.34005494  1
  C  C146  1  0.60602557  0.08930785  0.67099741  1
  C  C147  1  0.39397443  0.91069215  0.32900259  1
  C  C148  1  0.77605443  0.14262054  0.58783366  1
  C  C149  1  0.22394557  0.85737946  0.41216634  1
  C  C150  1  0.05157174  0.17672153  0.75564645  1
  C  C151  1  0.94842826  0.82327847  0.24435355  1
  C  C152  1  0.18936902  0.20380375  0.75002111  1
  C  C153  1  0.81063098  0.79619625  0.24997889  1
  C  C154  1  0.03812668  0.09113305  0.80851270  1
  C  C155  1  0.96187332  0.90886695  0.19148730  1
  F  F156  1  0.38505935  0.75191993  0.55240690  1
  F  F157  1  0.61494065  0.24808007  0.44759310  1
  F  F158  1  0.13167236  0.78478914  0.57069785  1
  F  F159  1  0.86832764  0.21521086  0.42930215  1
  F  F160  1  0.20846338  0.64154916  0.62288096  1
  F  F161  1  0.79153662  0.35845084  0.37711904  1
  F  F162  1  0.11988959  0.79159552  0.67390500  1
  F  F163  1  0.88011041  0.20840448  0.32609500  1
  F  F164  1  0.28569090  0.93214715  0.68052737  1
  F  F165  1  0.71430910  0.06785285  0.31947263  1
  F  F166  1  0.42543068  0.93213900  0.59501896  1
  F  F167  1  0.57456932  0.06786100  0.40498104  1
  F  F168  1  0.21823019  0.95598748  0.58716250  1
  F  F169  1  0.78176981  0.04401252  0.41283750  1
  F  F170  1  0.62174999  0.76102613  0.51310926  1
  F  F171  1  0.37825001  0.23897387  0.48689074  1
  F  F172  1  0.84998627  0.81035836  0.54870160  1
  F  F173  1  0.15001373  0.18964164  0.45129840  1
  F  F174  1  0.96304880  0.66489541  0.49962771  1
  F  F175  1  0.03695120  0.33510459  0.50037229  1
  F  F176  1  0.83859991  0.78981538  0.44878958  1
  F  F177  1  0.16140009  0.21018462  0.55121042  1
  F  F178  1  0.76028117  0.62537506  0.41284049  1
  F  F179  1  0.23971883  0.37462494  0.58715951  1
  F  F180  1  0.82550874  0.50427343  0.48320610  1
  F  F181  1  0.17449126  0.49572657  0.51679390  1
  F  F182  1  0.61671445  0.56552755  0.47755284  1
  F  F183  1  0.38328555  0.43447245  0.52244716  1
  F  F184  1  0.52003279  0.87167147  0.97112857  1
  F  F185  1  0.47996721  0.12832853  0.02887143  1
  F  F186  1  0.57117161  0.00046540  0.87853424  1
  F  F187  1  0.42882839  0.99953460  0.12146576  1
  F  F188  1  0.37365748  0.06962378  0.92080220  1
  F  F189  1  0.62634252  0.93037622  0.07919780  1
  F  F190  1  0.40379112  0.98659299  0.83043473  1
  F  F191  1  0.59620888  0.01340701  0.16956527  1
  F  F192  1  0.29547986  0.78074719  0.98046166  1
  F  F193  1  0.70452014  0.21925281  0.01953834  1
  F  F194  1  0.27222181  0.94783486  0.00444048  1
  F  F195  1  0.72777819  0.05216514  0.99555952  1
  F  F196  1  0.21432298  0.90616904  0.91481024  1
  F  F197  1  0.78567702  0.09383096  0.08518976  1
  F  F198  1  0.77535478  0.83368012  0.95522461  1
  F  F199  1  0.22464522  0.16631988  0.04477539  1
  F  F200  1  0.86181011  0.57556888  0.02301940  1
  F  F201  1  0.13818989  0.42443112  0.97698060  1
  F  F202  1  0.87819450  0.72663933  0.06266502  1
  F  F203  1  0.12180550  0.27336067  0.93733498  1
  F  F204  1  0.68946394  0.70641473  0.04140217  1
  F  F205  1  0.31053606  0.29358527  0.95859783  1
  F  F206  1  0.07055140  0.64049980  0.94823801  1
  F  F207  1  0.92944860  0.35950020  0.05176199  1
  F  F208  1  0.01623260  0.76286048  0.87626968  1
  F  F209  1  0.98376740  0.23713952  0.12373032  1
  F  F210  1  0.01500694  0.81023020  0.97370062  1
  F  F211  1  0.98499306  0.18976980  0.02629938  1
  F  F212  1  0.82342238  0.07178865  0.68780998  1
  F  F213  1  0.17657762  0.92821135  0.31219002  1
  F  F214  1  0.55900291  0.09189893  0.73316879  1
  F  F215  1  0.44099709  0.90810107  0.26683121  1
  F  F216  1  0.50967895  0.13979303  0.63754066  1
  F  F217  1  0.49032105  0.86020697  0.36245934  1
  F  F218  1  0.63886332  0.98544952  0.65364376  1
  F  F219  1  0.36113668  0.01455048  0.34635624  1
  F  F220  1  0.90005945  0.15596161  0.57882763  1
  F  F221  1  0.09994055  0.84403839  0.42117237  1
  F  F222  1  0.77466718  0.05077903  0.55868794  1
  F  F223  1  0.22533282  0.94922097  0.44131206  1
  F  F224  1  0.69988100  0.22400128  0.55901010  1
  F  F225  1  0.30011900  0.77599872  0.44098990  1
  F  F226  1  0.04956583  0.12578124  0.69930012  1
  F  F227  1  0.95043417  0.87421876  0.30069988  1
  F  F228  1  0.21699383  0.23412349  0.80630348  1
  F  F229  1  0.78300617  0.76587651  0.19369652  1
  F  F230  1  0.28341807  0.11964564  0.72881788  1
  F  F231  1  0.71658193  0.88035436  0.27118212  1
  F  F232  1  0.19613521  0.28436237  0.70779546  1
  F  F233  1  0.80386479  0.71563763  0.29220454  1
  F  F234  1  0.02613081  0.13371224  0.86700812  1
  F  F235  1  0.97386919  0.86628776  0.13299188  1
  F  F236  1  0.14305314  0.00870500  0.80293903  1
  F  F237  1  0.85694686  0.99129500  0.19706097  1
  F  F238  1  0.93265071  0.04982996  0.80409730  1
  F  F239  1  0.06734929  0.95017004  0.19590270  1
