# generated using pymatgen
data_UAs2H12(C3O2)4
_symmetry_space_group_name_H-M   'P 1'
_cell_length_a   18.80082500
_cell_length_b   7.12179700
_cell_length_c   13.17323381
_cell_angle_alpha   90.00000000
_cell_angle_beta   104.81325033
_cell_angle_gamma   90.00000000
_symmetry_Int_Tables_number   1
_chemical_formula_structural   UAs2H12(C3O2)4
_chemical_formula_sum   'U4 As8 H48 C48 O32'
_cell_volume   1705.21638343
_cell_formula_units_Z   4
loop_
 _symmetry_equiv_pos_site_id
 _symmetry_equiv_pos_as_xyz
  1  'x, y, z'
loop_
 _atom_site_type_symbol
 _atom_site_label
 _atom_site_symmetry_multiplicity
 _atom_site_fract_x
 _atom_site_fract_y
 _atom_site_fract_z
 _atom_site_occupancy
  U  U0  1  0.74366300  0.27744500  0.82351500  1
  U  U1  1  0.25633700  0.77744500  0.67648500  1
  U  U2  1  0.25633700  0.72255500  0.17648500  1
  U  U3  1  0.74366300  0.22255500  0.32351500  1
  As  As4  1  0.71710700  0.97498500  0.05390400  1
  As  As5  1  0.28289300  0.47498500  0.44609600  1
  As  As6  1  0.28289300  0.02501500  0.94609600  1
  As  As7  1  0.71710700  0.52501500  0.55390400  1
  As  As8  1  0.78518200  0.71835200  0.25524900  1
  As  As9  1  0.21481800  0.21835200  0.24475100  1
  As  As10  1  0.21481800  0.28164800  0.74475100  1
  As  As11  1  0.78518200  0.78164800  0.75524900  1
  H  H12  1  0.76393700  0.55157500  0.02074500  1
  H  H13  1  0.23606300  0.05157500  0.47925500  1
  H  H14  1  0.23606300  0.44842500  0.97925500  1
  H  H15  1  0.76393700  0.94842500  0.52074500  1
  H  H16  1  0.75052700  0.34712600  0.06083200  1
  H  H17  1  0.24947300  0.84712600  0.43916800  1
  H  H18  1  0.24947300  0.65287400  0.93916800  1
  H  H19  1  0.75052700  0.15287400  0.56083200  1
  H  H20  1  0.63088400  0.84351800  0.84447900  1
  H  H21  1  0.36911600  0.34351800  0.65552100  1
  H  H22  1  0.36911600  0.15648200  0.15552100  1
  H  H23  1  0.63088400  0.65648200  0.34447900  1
  H  H24  1  0.50342500  0.70936900  0.77929200  1
  H  H25  1  0.49657500  0.20936900  0.72070800  1
  H  H26  1  0.49657500  0.29063100  0.22070800  1
  H  H27  1  0.50342500  0.79063100  0.27929200  1
  H  H28  1  0.42601200  0.65737100  0.90244600  1
  H  H29  1  0.57398800  0.15737100  0.59755400  1
  H  H30  1  0.57398800  0.34262900  0.09755400  1
  H  H31  1  0.42601200  0.84262900  0.40244600  1
  H  H32  1  0.47320900  0.73363500  0.09173400  1
  H  H33  1  0.52679100  0.23363500  0.40826600  1
  H  H34  1  0.52679100  0.26636500  0.90826600  1
  H  H35  1  0.47320900  0.76636500  0.59173400  1
  H  H36  1  0.59942900  0.87157700  0.15776800  1
  H  H37  1  0.40057100  0.37157700  0.34223200  1
  H  H38  1  0.40057100  0.12842300  0.84223200  1
  H  H39  1  0.59942900  0.62842300  0.65776800  1
  H  H40  1  0.90765900  0.53444600  0.18351900  1
  H  H41  1  0.09234100  0.03444600  0.31648100  1
  H  H42  1  0.09234100  0.46555400  0.81648100  1
  H  H43  1  0.90765900  0.96555400  0.68351900  1
  H  H44  1  0.04267600  0.51122800  0.26163800  1
  H  H45  1  0.95732400  0.01122800  0.23836200  1
  H  H46  1  0.95732400  0.48877200  0.73836200  1
  H  H47  1  0.04267600  0.98877200  0.76163800  1
  H  H48  1  0.09844700  0.64816500  0.43792200  1
  H  H49  1  0.90155300  0.14816500  0.06207800  1
  H  H50  1  0.90155300  0.35183500  0.56207800  1
  H  H51  1  0.09844700  0.85183500  0.93792200  1
  H  H52  1  0.02010300  0.80557500  0.53687200  1
  H  H53  1  0.97989700  0.30557500  0.96312800  1
  H  H54  1  0.97989700  0.19442500  0.46312800  1
  H  H55  1  0.02010300  0.69442500  0.03687200  1
  H  H56  1  0.88430800  0.83834500  0.45714300  1
  H  H57  1  0.11569200  0.33834500  0.04285700  1
  H  H58  1  0.11569200  0.16165500  0.54285700  1
  H  H59  1  0.88430800  0.66165500  0.95714300  1
  C  C60  1  0.62095200  0.86292400  0.00407800  1
  C  C61  1  0.37904800  0.36292400  0.49592200  1
  C  C62  1  0.37904800  0.13707600  0.99592200  1
  C  C63  1  0.62095200  0.63707600  0.50407800  1
  C  C64  1  0.88971200  0.69219200  0.31549900  1
  C  C65  1  0.11028800  0.19219200  0.18450100  1
  C  C66  1  0.11028800  0.30780800  0.68450100  1
  C  C67  1  0.88971200  0.80780800  0.81549900  1
  C  C68  1  0.59587800  0.81886300  0.89755700  1
  C  C69  1  0.40412200  0.31886300  0.60244300  1
  C  C70  1  0.40412200  0.18113700  0.10244300  1
  C  C71  1  0.59587800  0.68113700  0.39755700  1
  C  C72  1  0.52513400  0.74359700  0.86200100  1
  C  C73  1  0.47486600  0.24359700  0.63799900  1
  C  C74  1  0.47486600  0.25640300  0.13799900  1
  C  C75  1  0.52513400  0.75640300  0.36200100  1
  C  C76  1  0.48150800  0.71376200  0.93173000  1
  C  C77  1  0.51849200  0.21376200  0.56827000  1
  C  C78  1  0.51849200  0.28623800  0.06827000  1
  C  C79  1  0.48150800  0.78623800  0.43173000  1
  C  C80  1  0.50796500  0.75714700  0.03820500  1
  C  C81  1  0.49203500  0.25714700  0.46179500  1
  C  C82  1  0.49203500  0.24285300  0.96179500  1
  C  C83  1  0.50796500  0.74285300  0.53820500  1
  C  C84  1  0.57830400  0.83317600  0.07542700  1
  C  C85  1  0.42169600  0.33317600  0.42457300  1
  C  C86  1  0.42169600  0.16682400  0.92457300  1
  C  C87  1  0.57830400  0.66682400  0.57542700  1
  C  C88  1  0.93259200  0.59698900  0.25985000  1
  C  C89  1  0.06740800  0.09698900  0.24015000  1
  C  C90  1  0.06740800  0.40301100  0.74015000  1
  C  C91  1  0.93259200  0.90301100  0.75985000  1
  C  C92  1  0.00822300  0.58275200  0.30432300  1
  C  C93  1  0.99177700  0.08275200  0.19567700  1
  C  C94  1  0.99177700  0.41724800  0.69567700  1
  C  C95  1  0.00822300  0.91724800  0.80432300  1
  C  C96  1  0.03937000  0.65997500  0.40325100  1
  C  C97  1  0.96063000  0.15997500  0.09674900  1
  C  C98  1  0.96063000  0.34002500  0.59674900  1
  C  C99  1  0.03937000  0.84002500  0.90325100  1
  C  C100  1  0.99530300  0.75007200  0.45885400  1
  C  C101  1  0.00469700  0.25007200  0.04114600  1
  C  C102  1  0.00469700  0.24992800  0.54114600  1
  C  C103  1  0.99530300  0.74992800  0.95885400  1
  C  C104  1  0.91961400  0.76795800  0.41515400  1
  C  C105  1  0.08038600  0.26795800  0.08484600  1
  C  C106  1  0.08038600  0.23204200  0.58484600  1
  C  C107  1  0.91961400  0.73204200  0.91515400  1
  O  O108  1  0.64588200  0.27942200  0.81303200  1
  O  O109  1  0.35411800  0.77942200  0.68696800  1
  O  O110  1  0.35411800  0.72057800  0.18696800  1
  O  O111  1  0.64588200  0.22057800  0.31303200  1
  O  O112  1  0.84186300  0.28434300  0.83581800  1
  O  O113  1  0.15813700  0.78434300  0.66418200  1
  O  O114  1  0.15813700  0.71565700  0.16418200  1
  O  O115  1  0.84186300  0.21565700  0.33581800  1
  O  O116  1  0.76751600  0.41777800  0.00665200  1
  O  O117  1  0.23248400  0.91777800  0.49334800  1
  O  O118  1  0.23248400  0.58222200  0.99334800  1
  O  O119  1  0.76751600  0.08222200  0.50665200  1
  O  O120  1  0.75600100  0.04271100  0.95743600  1
  O  O121  1  0.24399900  0.54271100  0.54256400  1
  O  O122  1  0.24399900  0.95728900  0.04256400  1
  O  O123  1  0.75600100  0.45728900  0.45743600  1
  O  O124  1  0.71858900  0.15364200  0.14041200  1
  O  O125  1  0.28141100  0.65364200  0.35958800  1
  O  O126  1  0.28141100  0.84635800  0.85958800  1
  O  O127  1  0.71858900  0.34635800  0.64041200  1
  O  O128  1  0.77802800  0.78989100  0.11998300  1
  O  O129  1  0.22197200  0.28989100  0.38001700  1
  O  O130  1  0.22197200  0.21010900  0.88001700  1
  O  O131  1  0.77802800  0.71010900  0.61998300  1
  O  O132  1  0.73827400  0.51237400  0.23757500  1
  O  O133  1  0.26172600  0.01237400  0.26242500  1
  O  O134  1  0.26172600  0.48762600  0.76242500  1
  O  O135  1  0.73827400  0.98762600  0.73757500  1
  O  O136  1  0.74451300  0.88441500  0.31368300  1
  O  O137  1  0.25548700  0.38441500  0.18631700  1
  O  O138  1  0.25548700  0.11558500  0.68631700  1
  O  O139  1  0.74451300  0.61558500  0.81368300  1
