# generated using pymatgen
data_ScP2NO8
_symmetry_space_group_name_H-M   'P 1'
_cell_length_a   5.46175700
_cell_length_b   8.36977100
_cell_length_c   17.24657393
_cell_angle_alpha   90.00000000
_cell_angle_beta   90.90553736
_cell_angle_gamma   90.00000000
_symmetry_Int_Tables_number   1
_chemical_formula_structural   ScP2NO8
_chemical_formula_sum   'Sc4 P8 N4 O32'
_cell_volume   788.30547255
_cell_formula_units_Z   4
loop_
 _symmetry_equiv_pos_site_id
 _symmetry_equiv_pos_as_xyz
  1  'x, y, z'
loop_
 _atom_site_type_symbol
 _atom_site_label
 _atom_site_symmetry_multiplicity
 _atom_site_fract_x
 _atom_site_fract_y
 _atom_site_fract_z
 _atom_site_occupancy
  Sc  Sc0  1  0.27484400  0.47302800  0.64018800  1
  Sc  Sc1  1  0.72515600  0.97302800  0.85981200  1
  Sc  Sc2  1  0.72515600  0.52697200  0.35981200  1
  Sc  Sc3  1  0.27484400  0.02697200  0.14018800  1
  P  P4  1  0.75766200  0.66264900  0.55389900  1
  P  P5  1  0.24233800  0.16264900  0.94610100  1
  P  P6  1  0.24233800  0.33735100  0.44610100  1
  P  P7  1  0.75766200  0.83735100  0.05389900  1
  P  P8  1  0.21216300  0.72470600  0.80564400  1
  P  P9  1  0.78783700  0.22470600  0.69435600  1
  P  P10  1  0.78783700  0.27529400  0.19435600  1
  P  P11  1  0.21216300  0.77529400  0.30564400  1
  N  N12  1  0.77862300  0.94959500  0.61599200  1
  N  N13  1  0.22137700  0.44959500  0.88400800  1
  N  N14  1  0.22137700  0.05040500  0.38400800  1
  N  N15  1  0.77862300  0.55040500  0.11599200  1
  O  O16  1  0.99460900  0.61717300  0.59306700  1
  O  O17  1  0.00539100  0.11717300  0.90693300  1
  O  O18  1  0.00539100  0.38282700  0.40693300  1
  O  O19  1  0.99460900  0.88282700  0.09306700  1
  O  O20  1  0.73447700  0.64038400  0.46768800  1
  O  O21  1  0.26552300  0.14038400  0.03231200  1
  O  O22  1  0.26552300  0.35961600  0.53231200  1
  O  O23  1  0.73447700  0.85961600  0.96768800  1
  O  O24  1  0.52934800  0.63953300  0.60010300  1
  O  O25  1  0.47065200  0.13953300  0.89989700  1
  O  O26  1  0.47065200  0.36046700  0.39989700  1
  O  O27  1  0.52934800  0.86046700  0.10010300  1
  O  O28  1  0.21847300  0.38022600  0.95049200  1
  O  O29  1  0.78152700  0.88022600  0.54950800  1
  O  O30  1  0.78152700  0.61977400  0.04950800  1
  O  O31  1  0.21847300  0.11977400  0.45049200  1
  O  O32  1  0.24460200  0.60288200  0.74305100  1
  O  O33  1  0.75539800  0.10288200  0.75694900  1
  O  O34  1  0.75539800  0.39711800  0.25694900  1
  O  O35  1  0.24460200  0.89711800  0.24305100  1
  O  O36  1  0.42851900  0.82796500  0.82539500  1
  O  O37  1  0.57148100  0.32796500  0.67460500  1
  O  O38  1  0.57148100  0.17203500  0.17460500  1
  O  O39  1  0.42851900  0.67203500  0.32539500  1
  O  O40  1  0.96301100  0.79804700  0.81372400  1
  O  O41  1  0.03698900  0.29804700  0.68627600  1
  O  O42  1  0.03698900  0.20195300  0.18627600  1
  O  O43  1  0.96301100  0.70195300  0.31372400  1
  O  O44  1  0.21100000  0.60021500  0.89445600  1
  O  O45  1  0.78900000  0.10021500  0.60554400  1
  O  O46  1  0.78900000  0.39978500  0.10554400  1
  O  O47  1  0.21100000  0.89978500  0.39445600  1
