# generated using pymatgen
data_H9CN7O3
_symmetry_space_group_name_H-M   'P 1'
_cell_length_a   6.87496000
_cell_length_b   8.57702700
_cell_length_c   12.95649400
_cell_angle_alpha   90.00000000
_cell_angle_beta   90.00000000
_cell_angle_gamma   90.00000000
_symmetry_Int_Tables_number   1
_chemical_formula_structural   H9CN7O3
_chemical_formula_sum   'H36 C4 N28 O12'
_cell_volume   764.00192206
_cell_formula_units_Z   4
loop_
 _symmetry_equiv_pos_site_id
 _symmetry_equiv_pos_as_xyz
  1  'x, y, z'
loop_
 _atom_site_type_symbol
 _atom_site_label
 _atom_site_symmetry_multiplicity
 _atom_site_fract_x
 _atom_site_fract_y
 _atom_site_fract_z
 _atom_site_occupancy
  H  H0  1  0.25000000  0.55013700  0.62816700  1
  H  H1  1  0.75000000  0.44986300  0.37183300  1
  H  H2  1  0.75000000  0.55013700  0.87183300  1
  H  H3  1  0.25000000  0.44986300  0.12816700  1
  H  H4  1  0.25000000  0.94826100  0.69905100  1
  H  H5  1  0.75000000  0.05173900  0.30094900  1
  H  H6  1  0.75000000  0.94826100  0.80094900  1
  H  H7  1  0.25000000  0.05173900  0.19905100  1
  H  H8  1  0.25000000  0.65767100  0.89264000  1
  H  H9  1  0.75000000  0.34232900  0.10736000  1
  H  H10  1  0.75000000  0.65767100  0.60736000  1
  H  H11  1  0.25000000  0.34232900  0.39264000  1
  H  H12  1  0.12894500  0.75907200  0.51642600  1
  H  H13  1  0.62894500  0.24092800  0.48357400  1
  H  H14  1  0.87105500  0.75907200  0.98357400  1
  H  H15  1  0.37105500  0.24092800  0.01642600  1
  H  H16  1  0.87105500  0.24092800  0.48357400  1
  H  H17  1  0.37105500  0.75907200  0.51642600  1
  H  H18  1  0.12894500  0.24092800  0.01642600  1
  H  H19  1  0.62894500  0.75907200  0.98357400  1
  H  H20  1  0.12906700  0.99017300  0.87482600  1
  H  H21  1  0.62906700  0.00982700  0.12517400  1
  H  H22  1  0.87093300  0.99017300  0.62517400  1
  H  H23  1  0.37093300  0.00982700  0.37482600  1
  H  H24  1  0.87093300  0.00982700  0.12517400  1
  H  H25  1  0.37093300  0.99017300  0.87482600  1
  H  H26  1  0.12906700  0.00982700  0.37482600  1
  H  H27  1  0.62906700  0.99017300  0.62517400  1
  H  H28  1  0.12939300  0.40521000  0.82781800  1
  H  H29  1  0.62939300  0.59479000  0.17218200  1
  H  H30  1  0.87060700  0.40521000  0.67218200  1
  H  H31  1  0.37060700  0.59479000  0.32781800  1
  H  H32  1  0.87060700  0.59479000  0.17218200  1
  H  H33  1  0.37060700  0.40521000  0.82781800  1
  H  H34  1  0.12939300  0.59479000  0.32781800  1
  H  H35  1  0.62939300  0.40521000  0.67218200  1
  C  C36  1  0.25000000  0.71876100  0.73992400  1
  C  C37  1  0.75000000  0.28123900  0.26007600  1
  C  C38  1  0.75000000  0.71876100  0.76007600  1
  C  C39  1  0.25000000  0.28123900  0.23992400  1
  N  N40  1  0.25000000  0.66822700  0.64222900  1
  N  N41  1  0.75000000  0.33177300  0.35777100  1
  N  N42  1  0.75000000  0.66822700  0.85777100  1
  N  N43  1  0.25000000  0.33177300  0.14222900  1
  N  N44  1  0.25000000  0.87233300  0.75999700  1
  N  N45  1  0.75000000  0.12766700  0.24000300  1
  N  N46  1  0.75000000  0.87233300  0.74000300  1
  N  N47  1  0.25000000  0.12766700  0.25999700  1
  N  N48  1  0.25000000  0.61633600  0.81818200  1
  N  N49  1  0.75000000  0.38366400  0.18181800  1
  N  N50  1  0.75000000  0.61633600  0.68181800  1
  N  N51  1  0.25000000  0.38366400  0.31818200  1
  N  N52  1  0.25000000  0.77662800  0.56117400  1
  N  N53  1  0.75000000  0.22337200  0.43882600  1
  N  N54  1  0.75000000  0.77662800  0.93882600  1
  N  N55  1  0.25000000  0.22337200  0.06117400  1
  N  N56  1  0.25000000  0.92274800  0.86294400  1
  N  N57  1  0.75000000  0.07725200  0.13705600  1
  N  N58  1  0.75000000  0.92274800  0.63705600  1
  N  N59  1  0.25000000  0.07725200  0.36294400  1
  N  N60  1  0.25000000  0.45624800  0.79598400  1
  N  N61  1  0.75000000  0.54375200  0.20401600  1
  N  N62  1  0.75000000  0.45624800  0.70401600  1
  N  N63  1  0.25000000  0.54375200  0.29598400  1
  N  N64  1  0.25000000  0.24007000  0.59690400  1
  N  N65  1  0.75000000  0.75993000  0.40309600  1
  N  N66  1  0.75000000  0.24007000  0.90309600  1
  N  N67  1  0.25000000  0.75993000  0.09690400  1
  O  O68  1  0.25000000  0.36562600  0.54341000  1
  O  O69  1  0.75000000  0.63437400  0.45659000  1
  O  O70  1  0.75000000  0.36562600  0.95659000  1
  O  O71  1  0.25000000  0.63437400  0.04341000  1
  O  O72  1  0.40994900  0.17927900  0.62350400  1
  O  O73  1  0.90994900  0.82072100  0.37649600  1
  O  O74  1  0.59005100  0.17927900  0.87649600  1
  O  O75  1  0.09005100  0.82072100  0.12350400  1
  O  O76  1  0.59005100  0.82072100  0.37649600  1
  O  O77  1  0.09005100  0.17927900  0.62350400  1
  O  O78  1  0.40994900  0.82072100  0.12350400  1
  O  O79  1  0.90994900  0.17927900  0.87649600  1
