# generated using pymatgen
data_NiP2H21C7Cl
_symmetry_space_group_name_H-M   'P 1'
_cell_length_a   12.25935600
_cell_length_b   19.96918500
_cell_length_c   12.23158534
_cell_angle_alpha   90.00000000
_cell_angle_beta   90.04231282
_cell_angle_gamma   90.00000000
_symmetry_Int_Tables_number   1
_chemical_formula_structural   NiP2H21C7Cl
_chemical_formula_sum   'Ni8 P16 H168 C56 Cl8'
_cell_volume   2994.40561375
_cell_formula_units_Z   8
loop_
 _symmetry_equiv_pos_site_id
 _symmetry_equiv_pos_as_xyz
  1  'x, y, z'
loop_
 _atom_site_type_symbol
 _atom_site_label
 _atom_site_symmetry_multiplicity
 _atom_site_fract_x
 _atom_site_fract_y
 _atom_site_fract_z
 _atom_site_occupancy
  Ni  Ni0  1  0.21397200  0.62523100  0.45497000  1
  Ni  Ni1  1  0.78602800  0.12523100  0.04503000  1
  Ni  Ni2  1  0.78602800  0.37476900  0.54503000  1
  Ni  Ni3  1  0.21397200  0.87476900  0.95497000  1
  Ni  Ni4  1  0.71351200  0.62531100  0.04633700  1
  Ni  Ni5  1  0.28648800  0.12531100  0.45366300  1
  Ni  Ni6  1  0.28648800  0.37468900  0.95366300  1
  Ni  Ni7  1  0.71351200  0.87468900  0.54633700  1
  P  P8  1  0.17781000  0.70974200  0.56327400  1
  P  P9  1  0.82219000  0.20974200  0.93672600  1
  P  P10  1  0.82219000  0.29025800  0.43672600  1
  P  P11  1  0.17781000  0.79025800  0.06327400  1
  P  P12  1  0.23900300  0.53574500  0.35300700  1
  P  P13  1  0.76099700  0.03574500  0.14699300  1
  P  P14  1  0.76099700  0.46425500  0.64699300  1
  P  P15  1  0.23900300  0.96425500  0.85300700  1
  P  P16  1  0.67761300  0.70946400  0.93708800  1
  P  P17  1  0.32238700  0.20946400  0.56291200  1
  P  P18  1  0.32238700  0.29053600  0.06291200  1
  P  P19  1  0.67761300  0.79053600  0.43708800  1
  P  P20  1  0.73902300  0.53565200  0.14687300  1
  P  P21  1  0.26097700  0.03565200  0.35312700  1
  P  P22  1  0.26097700  0.46434800  0.85312700  1
  P  P23  1  0.73902300  0.96434800  0.64687300  1
  H  H24  1  0.38448000  0.57060100  0.53511800  1
  H  H25  1  0.61552000  0.07060100  0.96488200  1
  H  H26  1  0.61552000  0.42939900  0.46488200  1
  H  H27  1  0.38448000  0.92939900  0.03511800  1
  H  H28  1  0.41522500  0.63256200  0.43465100  1
  H  H29  1  0.58477500  0.13256200  0.06534900  1
  H  H30  1  0.58477500  0.36743800  0.56534900  1
  H  H31  1  0.41522500  0.86743800  0.93465100  1
  H  H32  1  0.38326900  0.65664500  0.57112200  1
  H  H33  1  0.61673100  0.15664500  0.92887800  1
  H  H34  1  0.61673100  0.34335500  0.42887800  1
  H  H35  1  0.38326900  0.84335500  0.07112200  1
  H  H36  1  0.23278900  0.77893600  0.71594800  1
  H  H37  1  0.76721100  0.27893600  0.78405200  1
  H  H38  1  0.76721100  0.22106400  0.28405200  1
  H  H39  1  0.23278900  0.72106400  0.21594800  1
  H  H40  1  0.27702600  0.69456800  0.73460700  1
  H  H41  1  0.72297400  0.19456800  0.76539300  1
  H  H42  1  0.72297400  0.30543200  0.26539300  1
  H  H43  1  0.27702600  0.80543200  0.23460700  1
  H  H44  1  0.34972700  0.74889700  0.64456000  1
  H  H45  1  0.65027300  0.24889700  0.85544000  1
  H  H46  1  0.65027300  0.25110300  0.35544000  1
  H  H47  1  0.34972700  0.75110300  0.14456000  1
  H  H48  1  0.24557800  0.80320000  0.45799100  1
  H  H49  1  0.75442200  0.30320000  0.04200900  1
  H  H50  1  0.75442200  0.19680000  0.54200900  1
  H  H51  1  0.24557800  0.69680000  0.95799100  1
  H  H52  1  0.10642500  0.78441600  0.42427600  1
  H  H53  1  0.89357500  0.28441600  0.07572400  1
  H  H54  1  0.89357500  0.21558400  0.57572400  1
  H  H55  1  0.10642500  0.71558400  0.92427600  1
  H  H56  1  0.13827600  0.82800900  0.54873100  1
  H  H57  1  0.86172400  0.32800900  0.95126900  1
  H  H58  1  0.86172400  0.17199100  0.45126900  1
  H  H59  1  0.13827600  0.67199100  0.04873100  1
  H  H60  1  0.98209600  0.69573400  0.57825000  1
  H  H61  1  0.01790400  0.19573400  0.92175000  1
  H  H62  1  0.01790400  0.30426600  0.42175000  1
  H  H63  1  0.98209600  0.80426600  0.07825000  1
  H  H64  1  0.05134800  0.66385700  0.69555000  1
  H  H65  1  0.94865200  0.16385700  0.80445000  1
  H  H66  1  0.94865200  0.33614300  0.30445000  1
  H  H67  1  0.05134800  0.83614300  0.19555000  1
  H  H68  1  0.03349700  0.75233600  0.68097400  1
  H  H69  1  0.96650300  0.25233600  0.81902600  1
  H  H70  1  0.96650300  0.24766400  0.31902600  1
  H  H71  1  0.03349700  0.74766400  0.18097400  1
  H  H72  1  0.15726300  0.57601400  0.18597300  1
  H  H73  1  0.84273700  0.07601400  0.31402700  1
  H  H74  1  0.84273700  0.42398600  0.81402700  1
  H  H75  1  0.15726300  0.92398600  0.68597300  1
  H  H76  1  0.30363900  0.57736400  0.17828400  1
  H  H77  1  0.69636100  0.07736400  0.32171600  1
  H  H78  1  0.69636100  0.42263600  0.82171600  1
  H  H79  1  0.30363900  0.92263600  0.67828400  1
  H  H80  1  0.23194900  0.49986900  0.16291400  1
  H  H81  1  0.76805100  0.99986900  0.33708600  1
  H  H82  1  0.76805100  0.50013100  0.83708600  1
  H  H83  1  0.23194900  0.00013100  0.66291400  1
  H  H84  1  0.43497400  0.51606100  0.33872600  1
  H  H85  1  0.56502600  0.01606100  0.16127400  1
  H  H86  1  0.56502600  0.48393900  0.66127400  1
  H  H87  1  0.43497400  0.98393900  0.83872600  1
  H  H88  1  0.37626200  0.46787800  0.44641700  1
  H  H89  1  0.62373800  0.96787800  0.05358300  1
  H  H90  1  0.62373800  0.53212200  0.55358300  1
  H  H91  1  0.37626200  0.03212200  0.94641700  1
  H  H92  1  0.35794600  0.44268600  0.30750600  1
  H  H93  1  0.64205400  0.94268600  0.19249400  1
  H  H94  1  0.64205400  0.55731400  0.69249400  1
  H  H95  1  0.35794600  0.05731400  0.80750600  1
  H  H96  1  0.14856200  0.43038300  0.31428100  1
  H  H97  1  0.85143800  0.93038300  0.18571900  1
  H  H98  1  0.85143800  0.56961700  0.68571900  1
  H  H99  1  0.14856200  0.06961700  0.81428100  1
  H  H100  1  0.13888700  0.45139500  0.45648400  1
  H  H101  1  0.86111300  0.95139500  0.04351600  1
  H  H102  1  0.86111300  0.54860500  0.54351600  1
  H  H103  1  0.13888700  0.04860500  0.95648400  1
  H  H104  1  0.05418600  0.49315800  0.35992600  1
  H  H105  1  0.94581400  0.99315800  0.14007400  1
  H  H106  1  0.94581400  0.50684200  0.64007400  1
  H  H107  1  0.05418600  0.00684200  0.85992600  1
  H  H108  1  0.89249600  0.67303700  0.97137900  1
  H  H109  1  0.10750400  0.17303700  0.52862100  1
  H  H110  1  0.10750400  0.32696300  0.02862100  1
  H  H111  1  0.89249600  0.82696300  0.47137900  1
  H  H112  1  0.91793900  0.60490900  0.06062700  1
  H  H113  1  0.08206100  0.10490900  0.43937300  1
  H  H114  1  0.08206100  0.39509100  0.93937300  1
  H  H115  1  0.91793900  0.89509100  0.56062700  1
  H  H116  1  0.87011100  0.58956900  0.92519800  1
  H  H117  1  0.12988900  0.08956900  0.57480200  1
  H  H118  1  0.12988900  0.41043100  0.07480200  1
  H  H119  1  0.87011100  0.91043100  0.42519800  1
  H  H120  1  0.84442000  0.75694100  0.85845700  1
  H  H121  1  0.15558000  0.25694100  0.64154300  1
  H  H122  1  0.15558000  0.24305900  0.14154300  1
  H  H123  1  0.84442000  0.74305900  0.35845700  1
  H  H124  1  0.79193900  0.69092800  0.77577600  1
  H  H125  1  0.20806100  0.19092800  0.72422400  1
  H  H126  1  0.20806100  0.30907200  0.22422400  1
  H  H127  1  0.79193900  0.80907200  0.27577600  1
  H  H128  1  0.72768900  0.77136800  0.77472700  1
  H  H129  1  0.27231100  0.27136800  0.72527300  1
  H  H130  1  0.27231100  0.22863200  0.22527300  1
  H  H131  1  0.72768900  0.72863200  0.27472700  1
  H  H132  1  0.63499800  0.82744300  0.95139400  1
  H  H133  1  0.36500200  0.32744300  0.54860600  1
  H  H134  1  0.36500200  0.17255700  0.04860600  1
  H  H135  1  0.63499800  0.67255700  0.45139400  1
  H  H136  1  0.60898800  0.78411800  0.07736200  1
  H  H137  1  0.39101200  0.28411800  0.42263800  1
  H  H138  1  0.39101200  0.21588200  0.92263800  1
  H  H139  1  0.60898800  0.71588200  0.57736200  1
  H  H140  1  0.74625000  0.80419200  0.03858200  1
  H  H141  1  0.25375000  0.30419200  0.46141800  1
  H  H142  1  0.25375000  0.19580800  0.96141800  1
  H  H143  1  0.74625000  0.69580800  0.53858200  1
  H  H144  1  0.53479900  0.75171200  0.81748500  1
  H  H145  1  0.46520100  0.25171200  0.68251500  1
  H  H146  1  0.46520100  0.24828800  0.18251500  1
  H  H147  1  0.53479900  0.74828800  0.31748500  1
  H  H148  1  0.54980800  0.66282200  0.80612600  1
  H  H149  1  0.45019200  0.16282200  0.69387400  1
  H  H150  1  0.45019200  0.33717800  0.19387400  1
  H  H151  1  0.54980800  0.83717800  0.30612600  1
  H  H152  1  0.48151200  0.69713100  0.92200900  1
  H  H153  1  0.51848800  0.19713100  0.57799100  1
  H  H154  1  0.51848800  0.30286900  0.07799100  1
  H  H155  1  0.48151200  0.80286900  0.42200900  1
  H  H156  1  0.73945700  0.50064500  0.33707300  1
  H  H157  1  0.26054300  0.00064500  0.16292700  1
  H  H158  1  0.26054300  0.49935500  0.66292700  1
  H  H159  1  0.73945700  0.99935500  0.83707300  1
  H  H160  1  0.80164300  0.58115000  0.31969200  1
  H  H161  1  0.19835700  0.08115000  0.18030800  1
  H  H162  1  0.19835700  0.41885000  0.68030800  1
  H  H163  1  0.80164300  0.91885000  0.81969200  1
  H  H164  1  0.65579000  0.57337300  0.31452400  1
  H  H165  1  0.34421000  0.07337300  0.18547600  1
  H  H166  1  0.34421000  0.42662700  0.68547600  1
  H  H167  1  0.65579000  0.92662700  0.81452400  1
  H  H168  1  0.85791800  0.44350600  0.19563100  1
  H  H169  1  0.14208200  0.94350600  0.30436900  1
  H  H170  1  0.14208200  0.55649400  0.80436900  1
  H  H171  1  0.85791800  0.05649400  0.69563100  1
  H  H172  1  0.87518800  0.46584900  0.05507500  1
  H  H173  1  0.12481200  0.96584900  0.44492500  1
  H  H174  1  0.12481200  0.53415100  0.94492500  1
  H  H175  1  0.87518800  0.03415100  0.55507500  1
  H  H176  1  0.93546800  0.51562900  0.16000000  1
  H  H177  1  0.06453200  0.01562900  0.34000000  1
  H  H178  1  0.06453200  0.48437100  0.84000000  1
  H  H179  1  0.93546800  0.98437100  0.66000000  1
  H  H180  1  0.55399800  0.49424100  0.13177700  1
  H  H181  1  0.44600200  0.99424100  0.36822300  1
  H  H182  1  0.44600200  0.50575900  0.86822300  1
  H  H183  1  0.55399800  0.00575900  0.63177700  1
  H  H184  1  0.64438900  0.44722600  0.04761800  1
  H  H185  1  0.35561100  0.94722600  0.45238200  1
  H  H186  1  0.35561100  0.55277400  0.95238200  1
  H  H187  1  0.64438900  0.05277400  0.54761800  1
  H  H188  1  0.64294700  0.43322100  0.19244600  1
  H  H189  1  0.35705300  0.93322100  0.30755400  1
  H  H190  1  0.35705300  0.56677900  0.80755400  1
  H  H191  1  0.64294700  0.06677900  0.69244600  1
  C  C192  1  0.36341100  0.62095200  0.50560100  1
  C  C193  1  0.63658900  0.12095200  0.99439900  1
  C  C194  1  0.63658900  0.37904800  0.49439900  1
  C  C195  1  0.36341100  0.87904800  0.00560100  1
  C  C196  1  0.26864400  0.73514500  0.67488500  1
  C  C197  1  0.73135600  0.23514500  0.82511500  1
  C  C198  1  0.73135600  0.26485500  0.32511500  1
  C  C199  1  0.26864400  0.76485500  0.17488500  1
  C  C200  1  0.16546700  0.78941200  0.49099700  1
  C  C201  1  0.83453300  0.28941200  0.00900300  1
  C  C202  1  0.83453300  0.21058800  0.50900300  1
  C  C203  1  0.16546700  0.71058800  0.99099700  1
  C  C204  1  0.04802400  0.70512400  0.63667800  1
  C  C205  1  0.95197600  0.20512400  0.86332200  1
  C  C206  1  0.95197600  0.29487600  0.36332200  1
  C  C207  1  0.04802400  0.79487600  0.13667800  1
  C  C208  1  0.23226800  0.54856800  0.20507200  1
  C  C209  1  0.76773200  0.04856800  0.29492800  1
  C  C210  1  0.76773200  0.45143200  0.79492800  1
  C  C211  1  0.23226800  0.95143200  0.70507200  1
  C  C212  1  0.36416100  0.48596000  0.36267400  1
  C  C213  1  0.63583900  0.98596000  0.13732600  1
  C  C214  1  0.63583900  0.51404000  0.63732600  1
  C  C215  1  0.36416100  0.01404000  0.86267400  1
  C  C216  1  0.13501600  0.47124900  0.37302700  1
  C  C217  1  0.86498400  0.97124900  0.12697300  1
  C  C218  1  0.86498400  0.52875100  0.62697300  1
  C  C219  1  0.13501600  0.02875100  0.87302700  1
  C  C220  1  0.86318700  0.62323500  0.99615500  1
  C  C221  1  0.13681300  0.12323500  0.50384500  1
  C  C222  1  0.13681300  0.37676500  0.00384500  1
  C  C223  1  0.86318700  0.87676500  0.49615500  1
  C  C224  1  0.76962600  0.73419000  0.82612200  1
  C  C225  1  0.23037400  0.23419000  0.67387800  1
  C  C226  1  0.23037400  0.26581000  0.17387800  1
  C  C227  1  0.76962600  0.76581000  0.32612200  1
  C  C228  1  0.66533500  0.78936000  0.00864000  1
  C  C229  1  0.33466500  0.28936000  0.49136000  1
  C  C230  1  0.33466500  0.21064000  0.99136000  1
  C  C231  1  0.66533500  0.71064000  0.50864000  1
  C  C232  1  0.54777000  0.70489700  0.86345700  1
  C  C233  1  0.45223000  0.20489700  0.63654300  1
  C  C234  1  0.45223000  0.29510300  0.13654300  1
  C  C235  1  0.54777000  0.79510300  0.36345700  1
  C  C236  1  0.73335400  0.54914400  0.29458500  1
  C  C237  1  0.26664600  0.04914400  0.20541500  1
  C  C238  1  0.26664600  0.45085600  0.70541500  1
  C  C239  1  0.73335400  0.95085600  0.79458500  1
  C  C240  1  0.86397500  0.48552400  0.13797200  1
  C  C241  1  0.13602500  0.98552400  0.36202800  1
  C  C242  1  0.13602500  0.51447600  0.86202800  1
  C  C243  1  0.86397500  0.01447600  0.63797200  1
  C  C244  1  0.63484000  0.47115800  0.12771800  1
  C  C245  1  0.36516000  0.97115800  0.37228200  1
  C  C246  1  0.36516000  0.52884200  0.87228200  1
  C  C247  1  0.63484000  0.02884200  0.62771800  1
  Cl  Cl248  1  0.04816200  0.63703100  0.37825300  1
  Cl  Cl249  1  0.95183800  0.13703100  0.12174700  1
  Cl  Cl250  1  0.95183800  0.36296900  0.62174700  1
  Cl  Cl251  1  0.04816200  0.86296900  0.87825300  1
  Cl  Cl252  1  0.54727900  0.63671200  0.12184100  1
  Cl  Cl253  1  0.45272100  0.13671200  0.37815900  1
  Cl  Cl254  1  0.45272100  0.36328800  0.87815900  1
  Cl  Cl255  1  0.54727900  0.86328800  0.62184100  1
