# generated using pymatgen
data_NdTmS3
_symmetry_space_group_name_H-M   'P 1'
_cell_length_a   3.95062900
_cell_length_b   11.01284800
_cell_length_c   21.52027121
_cell_angle_alpha   78.50493671
_cell_angle_beta   90.00000000
_cell_angle_gamma   90.00000000
_symmetry_Int_Tables_number   1
_chemical_formula_structural   NdTmS3
_chemical_formula_sum   'Nd8 Tm8 S24'
_cell_volume   917.51664308
_cell_formula_units_Z   8
loop_
 _symmetry_equiv_pos_site_id
 _symmetry_equiv_pos_as_xyz
  1  'x, y, z'
loop_
 _atom_site_type_symbol
 _atom_site_label
 _atom_site_symmetry_multiplicity
 _atom_site_fract_x
 _atom_site_fract_y
 _atom_site_fract_z
 _atom_site_occupancy
  Nd  Nd0  1  0.25000000  0.30343500  0.76547700  1
  Nd  Nd1  1  0.75000000  0.69656500  0.23452300  1
  Nd  Nd2  1  0.25000000  0.90747600  0.86312700  1
  Nd  Nd3  1  0.75000000  0.09252400  0.13687300  1
  Nd  Nd4  1  0.25000000  0.69253200  0.73184800  1
  Nd  Nd5  1  0.75000000  0.30746800  0.26815200  1
  Nd  Nd6  1  0.25000000  0.79874400  0.53636600  1
  Nd  Nd7  1  0.75000000  0.20125600  0.46363400  1
  Tm  Tm8  1  0.25000000  0.55273900  0.41704000  1
  Tm  Tm9  1  0.75000000  0.44726100  0.58296000  1
  Tm  Tm10  1  0.25000000  0.97062200  0.35179100  1
  Tm  Tm11  1  0.75000000  0.02937800  0.64820900  1
  Tm  Tm12  1  0.25000000  0.82040400  0.04649700  1
  Tm  Tm13  1  0.75000000  0.17959600  0.95350300  1
  Tm  Tm14  1  0.25000000  0.47708300  0.08847400  1
  Tm  Tm15  1  0.75000000  0.52291700  0.91152600  1
  S  S16  1  0.25000000  0.08525700  0.03757700  1
  S  S17  1  0.75000000  0.91474300  0.96242300  1
  S  S18  1  0.25000000  0.20457400  0.36657000  1
  S  S19  1  0.75000000  0.79542600  0.63343000  1
  S  S20  1  0.25000000  0.74615800  0.32371100  1
  S  S21  1  0.75000000  0.25384200  0.67628900  1
  S  S22  1  0.25000000  0.63605800  0.96375600  1
  S  S23  1  0.75000000  0.36394200  0.03624400  1
  S  S24  1  0.25000000  0.50460700  0.22101000  1
  S  S25  1  0.75000000  0.49539300  0.77899000  1
  S  S26  1  0.25000000  0.25299500  0.17428800  1
  S  S27  1  0.75000000  0.74700500  0.82571200  1
  S  S28  1  0.25000000  0.87546200  0.16392200  1
  S  S29  1  0.75000000  0.12453800  0.83607800  1
  S  S30  1  0.25000000  0.35505800  0.51475300  1
  S  S31  1  0.75000000  0.64494200  0.48524700  1
  S  S32  1  0.25000000  0.05729100  0.55508600  1
  S  S33  1  0.75000000  0.94270900  0.44491400  1
  S  S34  1  0.25000000  0.96100700  0.72870600  1
  S  S35  1  0.75000000  0.03899300  0.27129400  1
  S  S36  1  0.25000000  0.54860200  0.63344800  1
  S  S37  1  0.75000000  0.45139800  0.36655200  1
  S  S38  1  0.25000000  0.34218800  0.90035000  1
  S  S39  1  0.75000000  0.65781200  0.09965000  1
