# generated using pymatgen
data_FeSn4H24C8(Se5N)2
_symmetry_space_group_name_H-M   'P 1'
_cell_length_a   11.01614547
_cell_length_b   11.01614547
_cell_length_c   11.01614547
_cell_angle_alpha   123.33029273
_cell_angle_beta   123.33029273
_cell_angle_gamma   84.32248310
_symmetry_Int_Tables_number   1
_chemical_formula_structural   FeSn4H24C8(Se5N)2
_chemical_formula_sum   'Fe1 Sn4 H24 C8 Se10 N2'
_cell_volume   892.93066885
_cell_formula_units_Z   1
loop_
 _symmetry_equiv_pos_site_id
 _symmetry_equiv_pos_as_xyz
  1  'x, y, z'
loop_
 _atom_site_type_symbol
 _atom_site_label
 _atom_site_symmetry_multiplicity
 _atom_site_fract_x
 _atom_site_fract_y
 _atom_site_fract_z
 _atom_site_occupancy
  Fe  Fe0  1  0.50000000  0.50000000  0.00000000  1
  Sn  Sn1  1  0.40442000  0.65300000  0.37710500  1
  Sn  Sn2  1  0.27589600  0.02731500  0.62289500  1
  Sn  Sn3  1  0.34700000  0.72410400  0.75141900  1
  Sn  Sn4  1  0.97268500  0.59558000  0.24858100  1
  H  H5  1  0.95639600  0.42676200  0.70133200  1
  H  H6  1  0.72543000  0.25506300  0.29866800  1
  H  H7  1  0.57323800  0.27457000  0.52963400  1
  H  H8  1  0.74493700  0.04360400  0.47036600  1
  H  H9  1  0.79087600  0.47452600  0.58207800  1
  H  H10  1  0.89244800  0.20879800  0.41792200  1
  H  H11  1  0.52547400  0.10755200  0.31634900  1
  H  H12  1  0.79120200  0.20912400  0.68365100  1
  H  H13  1  0.81982000  0.45710200  0.74934800  1
  H  H14  1  0.70775400  0.07047200  0.25065200  1
  H  H15  1  0.54289800  0.29224600  0.36271800  1
  H  H16  1  0.92952800  0.18018000  0.63728200  1
  H  H17  1  0.89107100  0.76700000  0.83979300  1
  H  H18  1  0.92720600  0.05127700  0.16020700  1
  H  H19  1  0.23300000  0.07279400  0.12407100  1
  H  H20  1  0.94872300  0.10892900  0.87592900  1
  H  H21  1  0.08665000  0.81159000  0.92436800  1
  H  H22  1  0.88722200  0.16228200  0.07563200  1
  H  H23  1  0.18841000  0.11277800  0.27506000  1
  H  H24  1  0.83771800  0.91335000  0.72494000  1
  H  H25  1  0.04093900  0.85053100  0.07403600  1
  H  H26  1  0.77649500  0.96690300  0.92596400  1
  H  H27  1  0.14946900  0.22350500  0.19040800  1
  H  H28  1  0.03309700  0.95906100  0.80959200  1
  C  C29  1  0.83622900  0.41518300  0.64502400  1
  C  C30  1  0.77015900  0.19120500  0.35497600  1
  C  C31  1  0.58481700  0.22984100  0.42104600  1
  C  C32  1  0.80879500  0.16377100  0.57895400  1
  C  C33  1  0.00514300  0.84525200  0.95613900  1
  C  C34  1  0.88911300  0.04900400  0.04386100  1
  C  C35  1  0.15474800  0.11088700  0.15989100  1
  C  C36  1  0.95099600  0.99485700  0.84010900  1
  Se  Se37  1  0.12664400  0.48140500  0.11805400  1
  Se  Se38  1  0.36335100  0.00859000  0.88194600  1
  Se  Se39  1  0.51859500  0.63664900  0.64523900  1
  Se  Se40  1  0.99141000  0.87335600  0.35476100  1
  Se  Se41  1  0.43579900  0.93579900  0.50000000  1
  Se  Se42  1  0.06420100  0.56420100  0.50000000  1
  Se  Se43  1  0.57802200  0.55608300  0.28171500  1
  Se  Se44  1  0.27436800  0.29630700  0.71828500  1
  Se  Se45  1  0.44391700  0.72563200  0.02193900  1
  Se  Se46  1  0.70369300  0.42197800  0.97806100  1
  N  N47  1  0.75000000  0.25000000  0.50000000  1
  N  N48  1  0.00000000  0.00000000  0.00000000  1
