# generated using pymatgen
data_NaMnH6C3S3(NO)3
_symmetry_space_group_name_H-M   'P 1'
_cell_length_a   10.24828375
_cell_length_b   10.24828375
_cell_length_c   6.72537400
_cell_angle_alpha   90.00000000
_cell_angle_beta   90.00000000
_cell_angle_gamma   119.99999838
_symmetry_Int_Tables_number   1
_chemical_formula_structural   NaMnH6C3S3(NO)3
_chemical_formula_sum   'Na2 Mn2 H12 C6 S6 N6 O6'
_cell_volume   611.71532703
_cell_formula_units_Z   2
loop_
 _symmetry_equiv_pos_site_id
 _symmetry_equiv_pos_as_xyz
  1  'x, y, z'
loop_
 _atom_site_type_symbol
 _atom_site_label
 _atom_site_symmetry_multiplicity
 _atom_site_fract_x
 _atom_site_fract_y
 _atom_site_fract_z
 _atom_site_occupancy
  Na  Na0  1  0.00000000  0.00000000  0.00000000  1
  Na  Na1  1  0.00000000  0.00000000  0.50000000  1
  Mn  Mn2  1  0.33333300  0.66666700  0.97578600  1
  Mn  Mn3  1  0.66666700  0.33333300  0.02421400  1
  H  H4  1  0.10177900  0.28492200  0.23833000  1
  H  H5  1  0.18314300  0.89822100  0.23833000  1
  H  H6  1  0.71507800  0.81685700  0.23833000  1
  H  H7  1  0.89822100  0.71507800  0.76167000  1
  H  H8  1  0.81685700  0.10177900  0.76167000  1
  H  H9  1  0.28492200  0.18314300  0.76167000  1
  H  H10  1  0.92610200  0.18870400  0.25140000  1
  H  H11  1  0.26260200  0.07389800  0.25140000  1
  H  H12  1  0.81129600  0.73739800  0.25140000  1
  H  H13  1  0.07389800  0.81129600  0.74860000  1
  H  H14  1  0.73739800  0.92610200  0.74860000  1
  H  H15  1  0.18870400  0.26260200  0.74860000  1
  C  C16  1  0.57984200  0.97705700  0.20587800  1
  C  C17  1  0.39721500  0.42015800  0.20587800  1
  C  C18  1  0.02294300  0.60278500  0.20587800  1
  C  C19  1  0.42015800  0.02294300  0.79412200  1
  C  C20  1  0.60278500  0.57984200  0.79412200  1
  C  C21  1  0.97705700  0.39721500  0.79412200  1
  S  S22  1  0.67932000  0.14274300  0.30821800  1
  S  S23  1  0.46342300  0.32068000  0.30821800  1
  S  S24  1  0.85725700  0.53657700  0.30821800  1
  S  S25  1  0.32068000  0.85725700  0.69178200  1
  S  S26  1  0.53657700  0.67932000  0.69178200  1
  S  S27  1  0.14274300  0.46342300  0.69178200  1
  N  N28  1  0.50860800  0.85620300  0.13327800  1
  N  N29  1  0.34759600  0.49139200  0.13327800  1
  N  N30  1  0.14379700  0.65240400  0.13327800  1
  N  N31  1  0.49139200  0.14379700  0.86672200  1
  N  N32  1  0.65240400  0.50860800  0.86672200  1
  N  N33  1  0.85620300  0.34759600  0.86672200  1
  O  O34  1  0.01830300  0.18118600  0.24516600  1
  O  O35  1  0.16288200  0.98169700  0.24516600  1
  O  O36  1  0.81881400  0.83711800  0.24516600  1
  O  O37  1  0.98169700  0.81881400  0.75483400  1
  O  O38  1  0.83711800  0.01830300  0.75483400  1
  O  O39  1  0.18118600  0.16288200  0.75483400  1
