# generated using pymatgen
data_Sn2PH32C11N3Cl2O
_symmetry_space_group_name_H-M   'P 1'
_cell_length_a   13.19930012
_cell_length_b   13.41059125
_cell_length_c   15.43576292
_cell_angle_alpha   90.00000000
_cell_angle_beta   90.00000000
_cell_angle_gamma   90.00000000
_symmetry_Int_Tables_number   1
_chemical_formula_structural   Sn2PH32C11N3Cl2O
_chemical_formula_sum   'Sn8 P4 H128 C44 N12 Cl8 O4'
_cell_volume   2732.29085735
_cell_formula_units_Z   4
loop_
 _symmetry_equiv_pos_site_id
 _symmetry_equiv_pos_as_xyz
  1  'x, y, z'
loop_
 _atom_site_type_symbol
 _atom_site_label
 _atom_site_symmetry_multiplicity
 _atom_site_fract_x
 _atom_site_fract_y
 _atom_site_fract_z
 _atom_site_occupancy
  Sn  Sn0  1  0.75000000  0.28840600  0.57923192  1
  Sn  Sn1  1  0.75000000  0.78840600  0.92076808  1
  Sn  Sn2  1  0.25000000  0.71159400  0.42076808  1
  Sn  Sn3  1  0.25000000  0.21159400  0.07923192  1
  Sn  Sn4  1  0.75000000  0.55861593  0.54893825  1
  Sn  Sn5  1  0.75000000  0.05861593  0.95106175  1
  Sn  Sn6  1  0.25000000  0.44138407  0.45106175  1
  Sn  Sn7  1  0.25000000  0.94138407  0.04893825  1
  P  P8  1  0.75000000  0.07609570  0.40719786  1
  P  P9  1  0.75000000  0.57609570  0.09280214  1
  P  P10  1  0.25000000  0.92390430  0.59280214  1
  P  P11  1  0.25000000  0.42390430  0.90719786  1
  H  H12  1  0.94206414  0.28016967  0.64070022  1
  H  H13  1  0.55793586  0.78016967  0.85929978  1
  H  H14  1  0.44206414  0.71983033  0.35929978  1
  H  H15  1  0.05793586  0.21983033  0.14070022  1
  H  H16  1  0.05793586  0.71983033  0.35929978  1
  H  H17  1  0.44206414  0.21983033  0.14070022  1
  H  H18  1  0.55793586  0.28016967  0.64070022  1
  H  H19  1  0.94206414  0.78016967  0.85929978  1
  H  H20  1  0.87654095  0.16825396  0.66948149  1
  H  H21  1  0.62345905  0.66825396  0.83051851  1
  H  H22  1  0.37654095  0.83174604  0.33051851  1
  H  H23  1  0.12345905  0.33174604  0.16948149  1
  H  H24  1  0.12345905  0.83174604  0.33051851  1
  H  H25  1  0.37654095  0.33174604  0.16948149  1
  H  H26  1  0.62345905  0.16825396  0.66948149  1
  H  H27  1  0.87654095  0.66825396  0.83051851  1
  H  H28  1  0.92500043  0.18286090  0.56174392  1
  H  H29  1  0.57499957  0.68286090  0.93825608  1
  H  H30  1  0.42500043  0.81713910  0.43825608  1
  H  H31  1  0.07499957  0.31713910  0.06174392  1
  H  H32  1  0.07499957  0.81713910  0.43825608  1
  H  H33  1  0.42500043  0.31713910  0.06174392  1
  H  H34  1  0.57499957  0.18286090  0.56174392  1
  H  H35  1  0.92500043  0.68286090  0.93825608  1
  H  H36  1  0.93737316  0.55129943  0.62201360  1
  H  H37  1  0.56262684  0.05129943  0.87798640  1
  H  H38  1  0.43737316  0.44870057  0.37798640  1
  H  H39  1  0.06262684  0.94870057  0.12201360  1
  H  H40  1  0.06262684  0.44870057  0.37798640  1
  H  H41  1  0.43737316  0.94870057  0.12201360  1
  H  H42  1  0.56262684  0.55129943  0.62201360  1
  H  H43  1  0.93737316  0.05129943  0.87798640  1
  H  H44  1  0.92785889  0.65863275  0.55226868  1
  H  H45  1  0.57214111  0.15863275  0.94773132  1
  H  H46  1  0.42785889  0.34136725  0.44773132  1
  H  H47  1  0.07214111  0.84136725  0.05226868  1
  H  H48  1  0.07214111  0.34136725  0.44773132  1
  H  H49  1  0.42785889  0.84136725  0.05226868  1
  H  H50  1  0.57214111  0.65863275  0.55226868  1
  H  H51  1  0.92785889  0.15863275  0.94773132  1
  H  H52  1  0.87270784  0.66117964  0.65837092  1
  H  H53  1  0.62729216  0.16117964  0.84162908  1
  H  H54  1  0.37270784  0.33882036  0.34162908  1
  H  H55  1  0.12729216  0.83882036  0.15837092  1
  H  H56  1  0.12729216  0.33882036  0.34162908  1
  H  H57  1  0.37270784  0.83882036  0.15837092  1
  H  H58  1  0.62729216  0.66117964  0.65837092  1
  H  H59  1  0.87270784  0.16117964  0.84162908  1
  H  H60  1  0.68247570  0.40719872  0.44942539  1
  H  H61  1  0.81752430  0.90719872  0.05057461  1
  H  H62  1  0.18247570  0.59280128  0.55057461  1
  H  H63  1  0.31752430  0.09280128  0.94942539  1
  H  H64  1  0.31752430  0.59280128  0.55057461  1
  H  H65  1  0.18247570  0.09280128  0.94942539  1
  H  H66  1  0.81752430  0.40719872  0.44942539  1
  H  H67  1  0.68247570  0.90719872  0.05057461  1
  H  H68  1  0.96335089  0.96743179  0.29623054  1
  H  H69  1  0.53664911  0.46743179  0.20376946  1
  H  H70  1  0.46335089  0.03256821  0.70376946  1
  H  H71  1  0.03664911  0.53256821  0.79623054  1
  H  H72  1  0.03664911  0.03256821  0.70376946  1
  H  H73  1  0.46335089  0.53256821  0.79623054  1
  H  H74  1  0.53664911  0.96743179  0.29623054  1
  H  H75  1  0.96335089  0.46743179  0.20376946  1
  H  H76  1  0.84572448  0.90999286  0.32330893  1
  H  H77  1  0.65427552  0.40999286  0.17669107  1
  H  H78  1  0.34572448  0.09000714  0.67669107  1
  H  H79  1  0.15427552  0.59000714  0.82330893  1
  H  H80  1  0.15427552  0.09000714  0.67669107  1
  H  H81  1  0.34572448  0.59000714  0.82330893  1
  H  H82  1  0.65427552  0.90999286  0.32330893  1
  H  H83  1  0.84572448  0.40999286  0.17669107  1
  H  H84  1  0.85549994  0.98784345  0.22926268  1
  H  H85  1  0.64450006  0.48784345  0.27073732  1
  H  H86  1  0.35549994  0.01215655  0.77073732  1
  H  H87  1  0.14450006  0.51215655  0.72926268  1
  H  H88  1  0.14450006  0.01215655  0.77073732  1
  H  H89  1  0.35549994  0.51215655  0.72926268  1
  H  H90  1  0.64450006  0.98784345  0.22926268  1
  H  H91  1  0.85549994  0.48784345  0.27073732  1
  H  H92  1  0.99288097  0.13734775  0.32047955  1
  H  H93  1  0.50711903  0.63734775  0.17952045  1
  H  H94  1  0.49288097  0.86265225  0.67952045  1
  H  H95  1  0.00711903  0.36265225  0.82047955  1
  H  H96  1  0.00711903  0.86265225  0.67952045  1
  H  H97  1  0.49288097  0.36265225  0.82047955  1
  H  H98  1  0.50711903  0.13734775  0.32047955  1
  H  H99  1  0.99288097  0.63734775  0.17952045  1
  H  H100  1  0.88865638  0.17383386  0.25364769  1
  H  H101  1  0.61134362  0.67383386  0.24635231  1
  H  H102  1  0.38865638  0.82616614  0.74635231  1
  H  H103  1  0.11134362  0.32616614  0.75364769  1
  H  H104  1  0.11134362  0.82616614  0.74635231  1
  H  H105  1  0.38865638  0.32616614  0.75364769  1
  H  H106  1  0.61134362  0.17383386  0.25364769  1
  H  H107  1  0.88865638  0.67383386  0.24635231  1
  H  H108  1  0.89535629  0.21594440  0.36370203  1
  H  H109  1  0.60464371  0.71594440  0.13629797  1
  H  H110  1  0.39535629  0.78405560  0.63629797  1
  H  H111  1  0.10464371  0.28405560  0.86370203  1
  H  H112  1  0.10464371  0.78405560  0.63629797  1
  H  H113  1  0.39535629  0.28405560  0.86370203  1
  H  H114  1  0.60464371  0.21594440  0.36370203  1
  H  H115  1  0.89535629  0.71594440  0.13629797  1
  H  H116  1  0.84634626  0.85640405  0.50305949  1
  H  H117  1  0.65365374  0.35640405  0.99694051  1
  H  H118  1  0.34634626  0.14359595  0.49694051  1
  H  H119  1  0.15365374  0.64359595  0.00305949  1
  H  H120  1  0.15365374  0.14359595  0.49694051  1
  H  H121  1  0.34634626  0.64359595  0.00305949  1
  H  H122  1  0.65365374  0.85640405  0.50305949  1
  H  H123  1  0.84634626  0.35640405  0.99694051  1
  H  H124  1  0.90931311  0.97259911  0.48372058  1
  H  H125  1  0.59068689  0.47259911  0.01627942  1
  H  H126  1  0.40931311  0.02740089  0.51627942  1
  H  H127  1  0.09068689  0.52740089  0.98372058  1
  H  H128  1  0.09068689  0.02740089  0.51627942  1
  H  H129  1  0.40931311  0.52740089  0.98372058  1
  H  H130  1  0.59068689  0.97259911  0.48372058  1
  H  H131  1  0.90931311  0.47259911  0.01627942  1
  H  H132  1  0.83786495  0.95423051  0.58104603  1
  H  H133  1  0.66213505  0.45423051  0.91895397  1
  H  H134  1  0.33786495  0.04576949  0.41895397  1
  H  H135  1  0.16213505  0.54576949  0.08104603  1
  H  H136  1  0.16213505  0.04576949  0.41895397  1
  H  H137  1  0.33786495  0.54576949  0.08104603  1
  H  H138  1  0.66213505  0.95423051  0.58104603  1
  H  H139  1  0.83786495  0.45423051  0.91895397  1
  C  C140  1  0.75000000  0.41236406  0.49066949  1
  C  C141  1  0.75000000  0.91236406  0.00933051  1
  C  C142  1  0.25000000  0.58763594  0.50933051  1
  C  C143  1  0.25000000  0.08763594  0.99066949  1
  C  C144  1  0.91094634  0.15355522  0.32037276  1
  C  C145  1  0.58905366  0.65355522  0.17962724  1
  C  C146  1  0.41094634  0.84644478  0.67962724  1
  C  C147  1  0.08905366  0.34644478  0.82037276  1
  C  C148  1  0.08905366  0.84644478  0.67962724  1
  C  C149  1  0.41094634  0.34644478  0.82037276  1
  C  C150  1  0.58905366  0.15355522  0.32037276  1
  C  C151  1  0.91094634  0.65355522  0.17962724  1
  C  C152  1  0.84144909  0.93781712  0.51108700  1
  C  C153  1  0.65855091  0.43781712  0.98891300  1
  C  C154  1  0.34144909  0.06218288  0.48891300  1
  C  C155  1  0.15855091  0.56218288  0.01108700  1
  C  C156  1  0.15855091  0.06218288  0.48891300  1
  C  C157  1  0.34144909  0.56218288  0.01108700  1
  C  C158  1  0.65855091  0.93781712  0.51108700  1
  C  C159  1  0.84144909  0.43781712  0.98891300  1
  C  C160  1  0.88050188  0.97768819  0.29698473  1
  C  C161  1  0.61949812  0.47768819  0.20301527  1
  C  C162  1  0.38050188  0.02231181  0.70301527  1
  C  C163  1  0.11949812  0.52231181  0.79698473  1
  C  C164  1  0.11949812  0.02231181  0.70301527  1
  C  C165  1  0.38050188  0.52231181  0.79698473  1
  C  C166  1  0.61949812  0.97768819  0.29698473  1
  C  C167  1  0.88050188  0.47768819  0.20301527  1
  C  C168  1  0.89126921  0.22156673  0.61708660  1
  C  C169  1  0.60873079  0.72156673  0.88291340  1
  C  C170  1  0.39126921  0.77843327  0.38291340  1
  C  C171  1  0.10873079  0.27843327  0.11708660  1
  C  C172  1  0.10873079  0.77843327  0.38291340  1
  C  C173  1  0.39126921  0.27843327  0.11708660  1
  C  C174  1  0.60873079  0.22156673  0.61708660  1
  C  C175  1  0.89126921  0.72156673  0.88291340  1
  C  C176  1  0.88979692  0.61415202  0.60215800  1
  C  C177  1  0.61020308  0.11415202  0.89784200  1
  C  C178  1  0.38979692  0.38584798  0.39784200  1
  C  C179  1  0.11020308  0.88584798  0.10215800  1
  C  C180  1  0.11020308  0.38584798  0.39784200  1
  C  C181  1  0.38979692  0.88584798  0.10215800  1
  C  C182  1  0.61020308  0.61415202  0.60215800  1
  C  C183  1  0.88979692  0.11415202  0.89784200  1
  N  N184  1  0.85696688  0.06481115  0.35024942  1
  N  N185  1  0.64303312  0.56481115  0.14975058  1
  N  N186  1  0.35696688  0.93518885  0.64975058  1
  N  N187  1  0.14303312  0.43518885  0.85024942  1
  N  N188  1  0.14303312  0.93518885  0.64975058  1
  N  N189  1  0.35696688  0.43518885  0.85024942  1
  N  N190  1  0.64303312  0.06481115  0.35024942  1
  N  N191  1  0.85696688  0.56481115  0.14975058  1
  N  N192  1  0.75000000  0.97447277  0.46787095  1
  N  N193  1  0.75000000  0.47447277  0.03212905  1
  N  N194  1  0.25000000  0.02552723  0.53212905  1
  N  N195  1  0.25000000  0.52552723  0.96787095  1
  Cl  Cl196  1  0.75000000  0.41227638  0.70787807  1
  Cl  Cl197  1  0.75000000  0.91227638  0.79212193  1
  Cl  Cl198  1  0.25000000  0.58772362  0.29212193  1
  Cl  Cl199  1  0.25000000  0.08772362  0.20787807  1
  Cl  Cl200  1  0.75000000  0.66031015  0.41492347  1
  Cl  Cl201  1  0.75000000  0.16031015  0.08507653  1
  Cl  Cl202  1  0.25000000  0.33968985  0.58507653  1
  Cl  Cl203  1  0.25000000  0.83968985  0.91492347  1
  O  O204  1  0.75000000  0.17719637  0.45108291  1
  O  O205  1  0.75000000  0.67719637  0.04891709  1
  O  O206  1  0.25000000  0.82280363  0.54891709  1
  O  O207  1  0.25000000  0.32280363  0.95108291  1
