# generated using pymatgen
data_GaH8N2OF5
_symmetry_space_group_name_H-M   'P 1'
_cell_length_a   9.34428700
_cell_length_b   11.13311200
_cell_length_c   11.28453100
_cell_angle_alpha   90.00000000
_cell_angle_beta   90.00000000
_cell_angle_gamma   90.00000000
_symmetry_Int_Tables_number   1
_chemical_formula_structural   GaH8N2OF5
_chemical_formula_sum   'Ga8 H64 N16 O8 F40'
_cell_volume   1173.94097372
_cell_formula_units_Z   8
loop_
 _symmetry_equiv_pos_site_id
 _symmetry_equiv_pos_as_xyz
  1  'x, y, z'
loop_
 _atom_site_type_symbol
 _atom_site_label
 _atom_site_symmetry_multiplicity
 _atom_site_fract_x
 _atom_site_fract_y
 _atom_site_fract_z
 _atom_site_occupancy
  Ga  Ga0  1  0.71931600  0.11339200  0.93858300  1
  Ga  Ga1  1  0.21931600  0.38660800  0.06141700  1
  Ga  Ga2  1  0.28068400  0.61339200  0.56141700  1
  Ga  Ga3  1  0.78068400  0.88660800  0.43858300  1
  Ga  Ga4  1  0.28068400  0.88660800  0.06141700  1
  Ga  Ga5  1  0.78068400  0.61339200  0.93858300  1
  Ga  Ga6  1  0.71931600  0.38660800  0.43858300  1
  Ga  Ga7  1  0.21931600  0.11339200  0.56141700  1
  H  H8  1  0.49681400  0.23875700  0.80317300  1
  H  H9  1  0.99681400  0.26124300  0.19682700  1
  H  H10  1  0.50318600  0.73875700  0.69682700  1
  H  H11  1  0.00318600  0.76124300  0.30317300  1
  H  H12  1  0.50318600  0.76124300  0.19682700  1
  H  H13  1  0.00318600  0.73875700  0.80317300  1
  H  H14  1  0.49681400  0.26124300  0.30317300  1
  H  H15  1  0.99681400  0.23875700  0.69682700  1
  H  H16  1  0.55112700  0.31408400  0.67806200  1
  H  H17  1  0.05112700  0.18591600  0.32193800  1
  H  H18  1  0.44887300  0.81408400  0.82193800  1
  H  H19  1  0.94887300  0.68591600  0.17806200  1
  H  H20  1  0.44887300  0.68591600  0.32193800  1
  H  H21  1  0.94887300  0.81408400  0.67806200  1
  H  H22  1  0.55112700  0.18591600  0.17806200  1
  H  H23  1  0.05112700  0.31408400  0.82193800  1
  H  H24  1  0.36939900  0.29610300  0.70866900  1
  H  H25  1  0.86939900  0.20389700  0.29133100  1
  H  H26  1  0.63060100  0.79610300  0.79133100  1
  H  H27  1  0.13060100  0.70389700  0.20866900  1
  H  H28  1  0.63060100  0.70389700  0.29133100  1
  H  H29  1  0.13060100  0.79610300  0.70866900  1
  H  H30  1  0.36939900  0.20389700  0.20866900  1
  H  H31  1  0.86939900  0.29610300  0.79133100  1
  H  H32  1  0.38803900  0.47599100  0.78161100  1
  H  H33  1  0.88803900  0.02400900  0.21838900  1
  H  H34  1  0.61196100  0.97599100  0.71838900  1
  H  H35  1  0.11196100  0.52400900  0.28161100  1
  H  H36  1  0.61196100  0.52400900  0.21838900  1
  H  H37  1  0.11196100  0.97599100  0.78161100  1
  H  H38  1  0.38803900  0.02400900  0.28161100  1
  H  H39  1  0.88803900  0.47599100  0.71838900  1
  H  H40  1  0.57102600  0.46622300  0.80187200  1
  H  H41  1  0.07102600  0.03377700  0.19812800  1
  H  H42  1  0.42897400  0.96622300  0.69812800  1
  H  H43  1  0.92897400  0.53377700  0.30187200  1
  H  H44  1  0.42897400  0.53377700  0.19812800  1
  H  H45  1  0.92897400  0.96622300  0.80187200  1
  H  H46  1  0.57102600  0.03377700  0.30187200  1
  H  H47  1  0.07102600  0.46622300  0.69812800  1
  H  H48  1  0.45321900  0.40316300  0.90581700  1
  H  H49  1  0.95321900  0.09683700  0.09418300  1
  H  H50  1  0.54678100  0.90316300  0.59418300  1
  H  H51  1  0.04678100  0.59683700  0.40581700  1
  H  H52  1  0.54678100  0.59683700  0.09418300  1
  H  H53  1  0.04678100  0.90316300  0.90581700  1
  H  H54  1  0.45321900  0.09683700  0.40581700  1
  H  H55  1  0.95321900  0.40316300  0.59418300  1
  H  H56  1  0.74899100  0.88268600  0.96815000  1
  H  H57  1  0.24899100  0.61731400  0.03185000  1
  H  H58  1  0.25100900  0.38268600  0.53185000  1
  H  H59  1  0.75100900  0.11731400  0.46815000  1
  H  H60  1  0.25100900  0.11731400  0.03185000  1
  H  H61  1  0.75100900  0.38268600  0.96815000  1
  H  H62  1  0.74899100  0.61731400  0.46815000  1
  H  H63  1  0.24899100  0.88268600  0.53185000  1
  H  H64  1  0.62936000  0.92884900  0.06017100  1
  H  H65  1  0.12936000  0.57115100  0.93982900  1
  H  H66  1  0.37064000  0.42884900  0.43982900  1
  H  H67  1  0.87064000  0.07115100  0.56017100  1
  H  H68  1  0.37064000  0.07115100  0.93982900  1
  H  H69  1  0.87064000  0.42884900  0.06017100  1
  H  H70  1  0.62936000  0.57115100  0.56017100  1
  H  H71  1  0.12936000  0.92884900  0.43982900  1
  N  N72  1  0.47162400  0.31050100  0.74670800  1
  N  N73  1  0.97162400  0.18949900  0.25329200  1
  N  N74  1  0.52837600  0.81050100  0.75329200  1
  N  N75  1  0.02837600  0.68949900  0.24670800  1
  N  N76  1  0.52837600  0.68949900  0.25329200  1
  N  N77  1  0.02837600  0.81050100  0.74670800  1
  N  N78  1  0.47162400  0.18949900  0.24670800  1
  N  N79  1  0.97162400  0.31050100  0.75329200  1
  N  N80  1  0.47187100  0.42186400  0.81318800  1
  N  N81  1  0.97187100  0.07813600  0.18681200  1
  N  N82  1  0.52812900  0.92186400  0.68681200  1
  N  N83  1  0.02812900  0.57813600  0.31318800  1
  N  N84  1  0.52812900  0.57813600  0.18681200  1
  N  N85  1  0.02812900  0.92186400  0.81318800  1
  N  N86  1  0.47187100  0.07813600  0.31318800  1
  N  N87  1  0.97187100  0.42186400  0.68681200  1
  O  O88  1  0.71967500  0.95193100  0.01848900  1
  O  O89  1  0.21967500  0.54806900  0.98151100  1
  O  O90  1  0.28032500  0.45193100  0.48151100  1
  O  O91  1  0.78032500  0.04806900  0.51848900  1
  O  O92  1  0.28032500  0.04806900  0.98151100  1
  O  O93  1  0.78032500  0.45193100  0.01848900  1
  O  O94  1  0.71967500  0.54806900  0.51848900  1
  O  O95  1  0.21967500  0.95193100  0.48151100  1
  F  F96  1  0.72547300  0.27402500  0.86926700  1
  F  F97  1  0.22547300  0.22597500  0.13073300  1
  F  F98  1  0.27452700  0.77402500  0.63073300  1
  F  F99  1  0.77452700  0.72597500  0.36926700  1
  F  F100  1  0.27452700  0.72597500  0.13073300  1
  F  F101  1  0.77452700  0.77402500  0.86926700  1
  F  F102  1  0.72547300  0.22597500  0.36926700  1
  F  F103  1  0.22547300  0.27402500  0.63073300  1
  F  F104  1  0.52209900  0.10830000  0.88500600  1
  F  F105  1  0.02209900  0.39170000  0.11499400  1
  F  F106  1  0.47790100  0.60830000  0.61499400  1
  F  F107  1  0.97790100  0.89170000  0.38500600  1
  F  F108  1  0.47790100  0.89170000  0.11499400  1
  F  F109  1  0.97790100  0.60830000  0.88500600  1
  F  F110  1  0.52209900  0.39170000  0.38500600  1
  F  F111  1  0.02209900  0.10830000  0.61499400  1
  F  F112  1  0.76664800  0.03331100  0.79175400  1
  F  F113  1  0.26664800  0.46668900  0.20824600  1
  F  F114  1  0.23335200  0.53331100  0.70824600  1
  F  F115  1  0.73335200  0.96668900  0.29175400  1
  F  F116  1  0.23335200  0.96668900  0.20824600  1
  F  F117  1  0.73335200  0.53331100  0.79175400  1
  F  F118  1  0.76664800  0.46668900  0.29175400  1
  F  F119  1  0.26664800  0.03331100  0.70824600  1
  F  F120  1  0.92031400  0.12718700  0.96748900  1
  F  F121  1  0.42031400  0.37281300  0.03251100  1
  F  F122  1  0.07968600  0.62718700  0.53251100  1
  F  F123  1  0.57968600  0.87281300  0.46748900  1
  F  F124  1  0.07968600  0.87281300  0.03251100  1
  F  F125  1  0.57968600  0.62718700  0.96748900  1
  F  F126  1  0.92031400  0.37281300  0.46748900  1
  F  F127  1  0.42031400  0.12718700  0.53251100  1
  F  F128  1  0.67425500  0.17770600  0.08976600  1
  F  F129  1  0.17425500  0.32229400  0.91023400  1
  F  F130  1  0.32574500  0.67770600  0.41023400  1
  F  F131  1  0.82574500  0.82229400  0.58976600  1
  F  F132  1  0.32574500  0.82229400  0.91023400  1
  F  F133  1  0.82574500  0.67770600  0.08976600  1
  F  F134  1  0.67425500  0.32229400  0.58976600  1
  F  F135  1  0.17425500  0.17770600  0.41023400  1
