# generated using pymatgen
data_Cr4O15
_symmetry_space_group_name_H-M   'P 1'
_cell_length_a   7.94167100
_cell_length_b   9.01986376
_cell_length_c   9.31760132
_cell_angle_alpha   86.78228854
_cell_angle_beta   90.00000000
_cell_angle_gamma   90.00000000
_symmetry_Int_Tables_number   1
_chemical_formula_structural   Cr4O15
_chemical_formula_sum   'Cr8 O30'
_cell_volume   666.39352793
_cell_formula_units_Z   2
loop_
 _symmetry_equiv_pos_site_id
 _symmetry_equiv_pos_as_xyz
  1  'x, y, z'
loop_
 _atom_site_type_symbol
 _atom_site_label
 _atom_site_symmetry_multiplicity
 _atom_site_fract_x
 _atom_site_fract_y
 _atom_site_fract_z
 _atom_site_occupancy
  Cr  Cr0  1  0.11226100  0.56413600  0.44112400  1
  Cr  Cr1  1  0.88773900  0.56413600  0.94112400  1
  Cr  Cr2  1  0.91975800  0.88030900  0.30675400  1
  Cr  Cr3  1  0.08024200  0.88030900  0.80675400  1
  Cr  Cr4  1  0.44056000  0.55713900  0.67024100  1
  Cr  Cr5  1  0.55944000  0.55713900  0.17024100  1
  Cr  Cr6  1  0.41905400  0.21257800  0.72129300  1
  Cr  Cr7  1  0.58094600  0.21257800  0.22129300  1
  O  O8  1  0.98144200  0.54087900  0.56931400  1
  O  O9  1  0.01855800  0.54087900  0.06931400  1
  O  O10  1  0.31679200  0.56986900  0.80425900  1
  O  O11  1  0.68320800  0.56986900  0.30425900  1
  O  O12  1  0.06131300  0.72869500  0.33803700  1
  O  O13  1  0.93868700  0.72869500  0.83803700  1
  O  O14  1  0.53798500  0.37952100  0.68484400  1
  O  O15  1  0.46201500  0.37952100  0.18484400  1
  O  O16  1  0.79661700  0.90436100  0.43913300  1
  O  O17  1  0.20338300  0.90436100  0.93913300  1
  O  O18  1  0.10189400  0.42338700  0.34512400  1
  O  O19  1  0.89810600  0.42338700  0.84512400  1
  O  O20  1  0.32237200  0.57586300  0.50944300  1
  O  O21  1  0.67762800  0.57586300  0.00944200  1
  O  O22  1  0.55906900  0.04008900  0.73105100  1
  O  O23  1  0.44093100  0.04008900  0.23105100  1
  O  O24  1  0.04972500  0.06027900  0.28571200  1
  O  O25  1  0.95027500  0.06027900  0.78571200  1
  O  O26  1  0.81839700  0.86978500  0.15892500  1
  O  O27  1  0.18160300  0.86978500  0.65892500  1
  O  O28  1  0.32986900  0.21809900  0.87429100  1
  O  O29  1  0.67013100  0.21809900  0.37429100  1
  O  O30  1  0.58280300  0.68149200  0.67371000  1
  O  O31  1  0.41719700  0.68149200  0.17371000  1
  O  O32  1  0.28473000  0.19455600  0.59520300  1
  O  O33  1  0.71527100  0.19455600  0.09520300  1
  O  O34  1  0.42008700  0.95629400  0.34425900  1
  O  O35  1  0.57991300  0.95629400  0.84425900  1
  O  O36  1  0.92458700  0.13068000  0.66567500  1
  O  O37  1  0.07541300  0.13068000  0.16567500  1
