# generated using pymatgen
data_RbBeN3
_symmetry_space_group_name_H-M   'P 1'
_cell_length_a   8.43036600
_cell_length_b   14.11111200
_cell_length_c   15.12570700
_cell_angle_alpha   90.00000000
_cell_angle_beta   90.00000000
_cell_angle_gamma   90.00000000
_symmetry_Int_Tables_number   1
_chemical_formula_structural   RbBeN3
_chemical_formula_sum   'Rb16 Be16 N48'
_cell_volume   1799.38191828
_cell_formula_units_Z   16
loop_
 _symmetry_equiv_pos_site_id
 _symmetry_equiv_pos_as_xyz
  1  'x, y, z'
loop_
 _atom_site_type_symbol
 _atom_site_label
 _atom_site_symmetry_multiplicity
 _atom_site_fract_x
 _atom_site_fract_y
 _atom_site_fract_z
 _atom_site_occupancy
  Rb  Rb0  1  0.92284400  0.25244400  0.47805400  1
  Rb  Rb1  1  0.57715600  0.75244400  0.52194600  1
  Rb  Rb2  1  0.42284400  0.74755600  0.02194600  1
  Rb  Rb3  1  0.07715600  0.24755600  0.97805400  1
  Rb  Rb4  1  0.07715600  0.74755600  0.52194600  1
  Rb  Rb5  1  0.42284400  0.24755600  0.47805400  1
  Rb  Rb6  1  0.57715600  0.25244400  0.97805400  1
  Rb  Rb7  1  0.92284400  0.75244400  0.02194600  1
  Rb  Rb8  1  0.27467000  0.49398100  0.69244600  1
  Rb  Rb9  1  0.22533000  0.99398100  0.30755400  1
  Rb  Rb10  1  0.77467000  0.50601900  0.80755400  1
  Rb  Rb11  1  0.72533000  0.00601900  0.19244600  1
  Rb  Rb12  1  0.72533000  0.50601900  0.30755400  1
  Rb  Rb13  1  0.77467000  0.00601900  0.69244600  1
  Rb  Rb14  1  0.22533000  0.49398100  0.19244600  1
  Rb  Rb15  1  0.27467000  0.99398100  0.80755400  1
  Be  Be16  1  0.64754500  0.03068900  0.47269700  1
  Be  Be17  1  0.85245500  0.53068900  0.52730300  1
  Be  Be18  1  0.14754500  0.96931100  0.02730300  1
  Be  Be19  1  0.35245500  0.46931100  0.97269700  1
  Be  Be20  1  0.35245500  0.96931100  0.52730300  1
  Be  Be21  1  0.14754500  0.46931100  0.47269700  1
  Be  Be22  1  0.85245500  0.03068900  0.97269700  1
  Be  Be23  1  0.64754500  0.53068900  0.02730300  1
  Be  Be24  1  0.97330900  0.22852500  0.25066700  1
  Be  Be25  1  0.52669100  0.72852500  0.74933300  1
  Be  Be26  1  0.47330900  0.77147500  0.24933300  1
  Be  Be27  1  0.02669100  0.27147500  0.75066700  1
  Be  Be28  1  0.02669100  0.77147500  0.74933300  1
  Be  Be29  1  0.47330900  0.27147500  0.25066700  1
  Be  Be30  1  0.52669100  0.22852500  0.75066700  1
  Be  Be31  1  0.97330900  0.72852500  0.24933300  1
  N  N32  1  0.74768600  0.93137700  0.48464500  1
  N  N33  1  0.75231400  0.43137700  0.51535500  1
  N  N34  1  0.24768600  0.06862300  0.01535500  1
  N  N35  1  0.25231400  0.56862300  0.98464500  1
  N  N36  1  0.25231400  0.06862300  0.51535500  1
  N  N37  1  0.24768600  0.56862300  0.48464500  1
  N  N38  1  0.75231400  0.93137700  0.98464500  1
  N  N39  1  0.74768600  0.43137700  0.01535500  1
  N  N40  1  0.67522500  0.11973900  0.53958600  1
  N  N41  1  0.82477500  0.61973900  0.46041400  1
  N  N42  1  0.17522500  0.88026100  0.96041400  1
  N  N43  1  0.32477500  0.38026100  0.03958600  1
  N  N44  1  0.32477500  0.88026100  0.46041400  1
  N  N45  1  0.17522500  0.38026100  0.53958600  1
  N  N46  1  0.82477500  0.11973900  0.03958600  1
  N  N47  1  0.67522500  0.61973900  0.96041400  1
  N  N48  1  0.54895900  0.05370400  0.38251700  1
  N  N49  1  0.95104100  0.55370400  0.61748300  1
  N  N50  1  0.04895900  0.94629600  0.11748300  1
  N  N51  1  0.45104100  0.44629600  0.88251700  1
  N  N52  1  0.45104100  0.94629600  0.61748300  1
  N  N53  1  0.04895900  0.44629600  0.38251700  1
  N  N54  1  0.95104100  0.05370400  0.88251700  1
  N  N55  1  0.54895900  0.55370400  0.11748300  1
  N  N56  1  0.99631900  0.14512700  0.30864500  1
  N  N57  1  0.50368100  0.64512700  0.69135500  1
  N  N58  1  0.49631900  0.85487300  0.19135500  1
  N  N59  1  0.00368100  0.35487300  0.80864500  1
  N  N60  1  0.00368100  0.85487300  0.69135500  1
  N  N61  1  0.49631900  0.35487300  0.30864500  1
  N  N62  1  0.50368100  0.14512700  0.80864500  1
  N  N63  1  0.99631900  0.64512700  0.19135500  1
  N  N64  1  0.89178200  0.33725900  0.22382200  1
  N  N65  1  0.60821800  0.83725900  0.77617800  1
  N  N66  1  0.39178200  0.66274100  0.27617800  1
  N  N67  1  0.10821800  0.16274100  0.72382200  1
  N  N68  1  0.10821800  0.66274100  0.77617800  1
  N  N69  1  0.39178200  0.16274100  0.22382200  1
  N  N70  1  0.60821800  0.33725900  0.72382200  1
  N  N71  1  0.89178200  0.83725900  0.27617800  1
  N  N72  1  0.97956200  0.31398800  0.16802000  1
  N  N73  1  0.52043800  0.81398800  0.83198000  1
  N  N74  1  0.47956200  0.68601200  0.33198000  1
  N  N75  1  0.02043800  0.18601200  0.66802000  1
  N  N76  1  0.02043800  0.68601200  0.83198000  1
  N  N77  1  0.47956200  0.18601200  0.16802000  1
  N  N78  1  0.52043800  0.31398800  0.66802000  1
  N  N79  1  0.97956200  0.81398800  0.33198000  1
