# generated using pymatgen
data_La(Ga4Fe)2
_symmetry_space_group_name_H-M   'P 1'
_cell_length_a   4.02318500
_cell_length_b   12.59480900
_cell_length_c   14.27245700
_cell_angle_alpha   90.00000000
_cell_angle_beta   90.00000000
_cell_angle_gamma   90.00000000
_symmetry_Int_Tables_number   1
_chemical_formula_structural   La(Ga4Fe)2
_chemical_formula_sum   'La4 Ga32 Fe8'
_cell_volume   723.20318890
_cell_formula_units_Z   4
loop_
 _symmetry_equiv_pos_site_id
 _symmetry_equiv_pos_as_xyz
  1  'x, y, z'
loop_
 _atom_site_type_symbol
 _atom_site_label
 _atom_site_symmetry_multiplicity
 _atom_site_fract_x
 _atom_site_fract_y
 _atom_site_fract_z
 _atom_site_occupancy
  La  La0  1  0.00000000  0.84195500  0.18125700  1
  La  La1  1  0.00000000  0.15804500  0.81874300  1
  La  La2  1  0.00000000  0.65804500  0.68125700  1
  La  La3  1  0.00000000  0.34195500  0.31874300  1
  Ga  Ga4  1  0.00000000  0.50000000  0.50000000  1
  Ga  Ga5  1  0.00000000  0.00000000  0.00000000  1
  Ga  Ga6  1  0.50000000  0.00000000  0.50000000  1
  Ga  Ga7  1  0.50000000  0.50000000  0.00000000  1
  Ga  Ga8  1  0.50000000  0.73928500  0.32581100  1
  Ga  Ga9  1  0.50000000  0.26071500  0.67418900  1
  Ga  Ga10  1  0.50000000  0.76071500  0.82581100  1
  Ga  Ga11  1  0.50000000  0.23928500  0.17418900  1
  Ga  Ga12  1  0.50000000  0.95094100  0.31815600  1
  Ga  Ga13  1  0.50000000  0.04905900  0.68184400  1
  Ga  Ga14  1  0.50000000  0.54905900  0.81815600  1
  Ga  Ga15  1  0.50000000  0.45094100  0.18184400  1
  Ga  Ga16  1  0.50000000  0.66386700  0.12097700  1
  Ga  Ga17  1  0.50000000  0.33613300  0.87902300  1
  Ga  Ga18  1  0.50000000  0.83613300  0.62097700  1
  Ga  Ga19  1  0.50000000  0.16386700  0.37902300  1
  Ga  Ga20  1  0.00000000  0.83690000  0.45406100  1
  Ga  Ga21  1  0.00000000  0.16310000  0.54593900  1
  Ga  Ga22  1  0.00000000  0.66310000  0.95406100  1
  Ga  Ga23  1  0.00000000  0.33690000  0.04593900  1
  Ga  Ga24  1  0.00000000  0.59822800  0.24557400  1
  Ga  Ga25  1  0.00000000  0.40177200  0.75442600  1
  Ga  Ga26  1  0.00000000  0.90177200  0.74557400  1
  Ga  Ga27  1  0.00000000  0.09822800  0.25442600  1
  Ga  Ga28  1  0.50000000  0.83161600  0.01000500  1
  Ga  Ga29  1  0.50000000  0.16838400  0.98999500  1
  Ga  Ga30  1  0.50000000  0.66838400  0.51000500  1
  Ga  Ga31  1  0.50000000  0.33161600  0.48999500  1
  Ga  Ga32  1  0.50000000  0.52465100  0.36617000  1
  Ga  Ga33  1  0.50000000  0.47534900  0.63383000  1
  Ga  Ga34  1  0.50000000  0.97534900  0.86617000  1
  Ga  Ga35  1  0.50000000  0.02465100  0.13383000  1
  Fe  Fe36  1  0.00000000  0.65288600  0.40338500  1
  Fe  Fe37  1  0.00000000  0.34711400  0.59661500  1
  Fe  Fe38  1  0.00000000  0.84711400  0.90338500  1
  Fe  Fe39  1  0.00000000  0.15288600  0.09661500  1
  Fe  Fe40  1  0.00000000  0.53431300  0.09123800  1
  Fe  Fe41  1  0.00000000  0.46568700  0.90876200  1
  Fe  Fe42  1  0.00000000  0.96568700  0.59123800  1
  Fe  Fe43  1  0.00000000  0.03431300  0.40876200  1
