# generated using pymatgen
data_Sm(MnSn)6
_symmetry_space_group_name_H-M   'P 1'
_cell_length_a   15.17442591
_cell_length_b   15.17442591
_cell_length_c   15.17442591
_cell_angle_alpha   159.14441358
_cell_angle_beta   145.31046208
_cell_angle_gamma   40.82335010
_symmetry_Int_Tables_number   1
_chemical_formula_structural   Sm(MnSn)6
_chemical_formula_sum   'Sm3 Mn18 Sn18'
_cell_volume   706.79908167
_cell_formula_units_Z   3
loop_
 _symmetry_equiv_pos_site_id
 _symmetry_equiv_pos_as_xyz
  1  'x, y, z'
loop_
 _atom_site_type_symbol
 _atom_site_label
 _atom_site_symmetry_multiplicity
 _atom_site_fract_x
 _atom_site_fract_y
 _atom_site_fract_z
 _atom_site_occupancy
  Sm  Sm0  1  0.16853800  0.66853800  0.50000000  1
  Sm  Sm1  1  0.83146200  0.33146200  0.50000000  1
  Sm  Sm2  1  0.00000000  0.00000000  0.00000000  1
  Mn  Mn3  1  0.24903100  0.50000000  0.74903100  1
  Mn  Mn4  1  0.75096900  0.50000000  0.25096900  1
  Mn  Mn5  1  0.50000000  0.00000000  0.00000000  1
  Mn  Mn6  1  0.00000000  0.00000000  0.50000000  1
  Mn  Mn7  1  0.00000000  0.50000000  0.00000000  1
  Mn  Mn8  1  0.50000000  0.50000000  0.50000000  1
  Mn  Mn9  1  0.58336400  0.83332000  0.75004300  1
  Mn  Mn10  1  0.91672300  0.16668000  0.75004300  1
  Mn  Mn11  1  0.08327700  0.83332000  0.24995700  1
  Mn  Mn12  1  0.41663600  0.16668000  0.24995700  1
  Mn  Mn13  1  0.33242000  0.83404100  0.99983700  1
  Mn  Mn14  1  0.16579500  0.16595900  0.49837800  1
  Mn  Mn15  1  0.83420500  0.33258300  0.00016300  1
  Mn  Mn16  1  0.66758000  0.66741700  0.50162200  1
  Mn  Mn17  1  0.66758000  0.16595900  0.00016300  1
  Mn  Mn18  1  0.83420500  0.83404100  0.50162200  1
  Mn  Mn19  1  0.16579500  0.66741700  0.99983700  1
  Mn  Mn20  1  0.33242000  0.33258300  0.49837800  1
  Sn  Sn21  1  0.05587300  0.55587300  0.50000000  1
  Sn  Sn22  1  0.94412700  0.44412700  0.50000000  1
  Sn  Sn23  1  0.55543400  0.55543400  0.00000000  1
  Sn  Sn24  1  0.44456600  0.44456600  0.00000000  1
  Sn  Sn25  1  0.11196700  0.11196700  0.00000000  1
  Sn  Sn26  1  0.88803300  0.88803300  0.00000000  1
  Sn  Sn27  1  0.61013200  0.11013200  0.50000000  1
  Sn  Sn28  1  0.38986800  0.88986800  0.50000000  1
  Sn  Sn29  1  0.22390300  0.22390300  0.00000000  1
  Sn  Sn30  1  0.77609700  0.77609700  0.00000000  1
  Sn  Sn31  1  0.71998700  0.21998700  0.50000000  1
  Sn  Sn32  1  0.28001300  0.78001300  0.50000000  1
  Sn  Sn33  1  0.33383700  0.00000000  0.33383700  1
  Sn  Sn34  1  0.66616300  0.00000000  0.66616300  1
  Sn  Sn35  1  0.49991900  0.66630900  0.83361000  1
  Sn  Sn36  1  0.16730100  0.33369100  0.83361000  1
  Sn  Sn37  1  0.83269900  0.66630900  0.16639000  1
  Sn  Sn38  1  0.50008100  0.33369100  0.16639000  1
