# generated using pymatgen
data_Yb2Fe3Si5
_symmetry_space_group_name_H-M   'P 1'
_cell_length_a   10.42479300
_cell_length_b   10.42479300
_cell_length_c   5.45955600
_cell_angle_alpha   90.00000000
_cell_angle_beta   90.00000000
_cell_angle_gamma   90.00000000
_symmetry_Int_Tables_number   1
_chemical_formula_structural   Yb2Fe3Si5
_chemical_formula_sum   'Yb8 Fe12 Si20'
_cell_volume   593.32439537
_cell_formula_units_Z   4
loop_
 _symmetry_equiv_pos_site_id
 _symmetry_equiv_pos_as_xyz
  1  'x, y, z'
loop_
 _atom_site_type_symbol
 _atom_site_label
 _atom_site_symmetry_multiplicity
 _atom_site_fract_x
 _atom_site_fract_y
 _atom_site_fract_z
 _atom_site_occupancy
  Yb  Yb0  1  0.57083000  0.73538400  0.50000000  1
  Yb  Yb1  1  0.42917000  0.26461600  0.50000000  1
  Yb  Yb2  1  0.07083000  0.76461600  0.00000000  1
  Yb  Yb3  1  0.92917000  0.23538400  0.00000000  1
  Yb  Yb4  1  0.26461600  0.57083000  0.50000000  1
  Yb  Yb5  1  0.73538400  0.42917000  0.50000000  1
  Yb  Yb6  1  0.23538400  0.07083000  0.00000000  1
  Yb  Yb7  1  0.76461600  0.92917000  0.00000000  1
  Fe  Fe8  1  0.87724600  0.85418300  0.50000000  1
  Fe  Fe9  1  0.12275400  0.14581700  0.50000000  1
  Fe  Fe10  1  0.37724600  0.64581700  0.00000000  1
  Fe  Fe11  1  0.62275400  0.35418300  0.00000000  1
  Fe  Fe12  1  0.14581700  0.87724600  0.50000000  1
  Fe  Fe13  1  0.85418300  0.12275400  0.50000000  1
  Fe  Fe14  1  0.35418300  0.37724600  0.00000000  1
  Fe  Fe15  1  0.64581700  0.62275400  0.00000000  1
  Fe  Fe16  1  0.50000000  0.00000000  0.25000000  1
  Fe  Fe17  1  0.00000000  0.50000000  0.75000000  1
  Fe  Fe18  1  0.00000000  0.50000000  0.25000000  1
  Fe  Fe19  1  0.50000000  0.00000000  0.75000000  1
  Si  Si20  1  0.67775400  0.17775400  0.25000000  1
  Si  Si21  1  0.32224600  0.82224600  0.25000000  1
  Si  Si22  1  0.17775400  0.32224600  0.75000000  1
  Si  Si23  1  0.82224600  0.67775400  0.75000000  1
  Si  Si24  1  0.82224600  0.67775400  0.25000000  1
  Si  Si25  1  0.17775400  0.32224600  0.25000000  1
  Si  Si26  1  0.67775400  0.17775400  0.75000000  1
  Si  Si27  1  0.32224600  0.82224600  0.75000000  1
  Si  Si28  1  0.50000000  0.50000000  0.23285100  1
  Si  Si29  1  0.00000000  0.00000000  0.73285100  1
  Si  Si30  1  0.50000000  0.50000000  0.76714900  1
  Si  Si31  1  0.00000000  0.00000000  0.26714900  1
  Si  Si32  1  0.68290500  0.97598200  0.50000000  1
  Si  Si33  1  0.31709500  0.02401800  0.50000000  1
  Si  Si34  1  0.18290500  0.52401800  0.00000000  1
  Si  Si35  1  0.81709500  0.47598200  0.00000000  1
  Si  Si36  1  0.02401800  0.68290500  0.50000000  1
  Si  Si37  1  0.97598200  0.31709500  0.50000000  1
  Si  Si38  1  0.47598200  0.18290500  0.00000000  1
  Si  Si39  1  0.52401800  0.81709500  0.00000000  1
