# generated using pymatgen
data_K2UMo2O11
_symmetry_space_group_name_H-M   'P 1'
_cell_length_a   8.10911600
_cell_length_b   11.04643600
_cell_length_c   13.67570530
_cell_angle_alpha   90.00000000
_cell_angle_beta   99.28292441
_cell_angle_gamma   90.00000000
_symmetry_Int_Tables_number   1
_chemical_formula_structural   K2UMo2O11
_chemical_formula_sum   'K8 U4 Mo8 O44'
_cell_volume   1208.98319353
_cell_formula_units_Z   4
loop_
 _symmetry_equiv_pos_site_id
 _symmetry_equiv_pos_as_xyz
  1  'x, y, z'
loop_
 _atom_site_type_symbol
 _atom_site_label
 _atom_site_symmetry_multiplicity
 _atom_site_fract_x
 _atom_site_fract_y
 _atom_site_fract_z
 _atom_site_occupancy
  K  K0  1  0.24117900  0.57915300  0.37297700  1
  K  K1  1  0.75882100  0.07915300  0.12702300  1
  K  K2  1  0.75882100  0.42084700  0.62702300  1
  K  K3  1  0.24117900  0.92084700  0.87297700  1
  K  K4  1  0.93328100  0.82860400  0.59355400  1
  K  K5  1  0.06671900  0.32860400  0.90644600  1
  K  K6  1  0.06671900  0.17139600  0.40644600  1
  K  K7  1  0.93328100  0.67139600  0.09355400  1
  U  U8  1  0.47328700  0.75866900  0.64535400  1
  U  U9  1  0.52671300  0.25866900  0.85464600  1
  U  U10  1  0.52671300  0.24133100  0.35464600  1
  U  U11  1  0.47328700  0.74133100  0.14535400  1
  Mo  Mo12  1  0.51208300  0.89804800  0.40672400  1
  Mo  Mo13  1  0.48791700  0.39804800  0.09327600  1
  Mo  Mo14  1  0.48791700  0.10195200  0.59327600  1
  Mo  Mo15  1  0.51208300  0.60195200  0.90672400  1
  Mo  Mo16  1  0.76262500  0.54388000  0.35712900  1
  Mo  Mo17  1  0.23737500  0.04388000  0.14287100  1
  Mo  Mo18  1  0.23737500  0.45612000  0.64287100  1
  Mo  Mo19  1  0.76262500  0.95612000  0.85712900  1
  O  O20  1  0.42783900  0.05401900  0.41623700  1
  O  O21  1  0.57216100  0.55401900  0.08376300  1
  O  O22  1  0.57216100  0.94598100  0.58376300  1
  O  O23  1  0.42783900  0.44598100  0.91623700  1
  O  O24  1  0.42495100  0.77338700  0.47078400  1
  O  O25  1  0.57504900  0.27338700  0.02921600  1
  O  O26  1  0.57504900  0.22661300  0.52921600  1
  O  O27  1  0.42495100  0.72661300  0.97078400  1
  O  O28  1  0.27481000  0.83269900  0.65711600  1
  O  O29  1  0.72519000  0.33269900  0.84288400  1
  O  O30  1  0.72519000  0.16730100  0.34288400  1
  O  O31  1  0.27481000  0.66730100  0.15711600  1
  O  O32  1  0.67175200  0.41589500  0.41643700  1
  O  O33  1  0.32824800  0.91589500  0.08356300  1
  O  O34  1  0.32824800  0.58410500  0.58356300  1
  O  O35  1  0.67175200  0.08410500  0.91643700  1
  O  O36  1  0.67372700  0.68481700  0.63805000  1
  O  O37  1  0.32627300  0.18481700  0.86195000  1
  O  O38  1  0.32627300  0.31518300  0.36195000  1
  O  O39  1  0.67372700  0.81518300  0.13805000  1
  O  O40  1  0.43726400  0.86410000  0.27805200  1
  O  O41  1  0.56273600  0.36410000  0.22194800  1
  O  O42  1  0.56273600  0.13590000  0.72194800  1
  O  O43  1  0.43726400  0.63590000  0.77805200  1
  O  O44  1  0.86971000  0.63092200  0.45491700  1
  O  O45  1  0.13029000  0.13092200  0.04508300  1
  O  O46  1  0.13029000  0.36907800  0.54508300  1
  O  O47  1  0.86971000  0.86907800  0.95491700  1
  O  O48  1  0.59741500  0.63590400  0.28557100  1
  O  O49  1  0.40258500  0.13590400  0.21442900  1
  O  O50  1  0.40258500  0.36409600  0.71442900  1
  O  O51  1  0.59741500  0.86409600  0.78557100  1
  O  O52  1  0.72905800  0.89617500  0.41970500  1
  O  O53  1  0.27094200  0.39617500  0.08029500  1
  O  O54  1  0.27094200  0.10382500  0.58029500  1
  O  O55  1  0.72905800  0.60382500  0.91970500  1
  O  O56  1  0.91419700  0.49958500  0.28345900  1
  O  O57  1  0.08580300  0.99958500  0.21654100  1
  O  O58  1  0.08580300  0.50041500  0.71654100  1
  O  O59  1  0.91419700  0.00041500  0.78345900  1
  O  O60  1  0.97781700  0.29479300  0.19144300  1
  O  O61  1  0.02218300  0.79479300  0.30855700  1
  O  O62  1  0.02218300  0.70520700  0.80855700  1
  O  O63  1  0.97781700  0.20520700  0.69144300  1
