# generated using pymatgen
data_Yb5Ir3
_symmetry_space_group_name_H-M   'P 1'
_cell_length_a   6.16185000
_cell_length_b   10.88223500
_cell_length_c   10.88223500
_cell_angle_alpha   90.00000000
_cell_angle_beta   90.00000000
_cell_angle_gamma   90.00000000
_symmetry_Int_Tables_number   1
_chemical_formula_structural   Yb5Ir3
_chemical_formula_sum   'Yb20 Ir12'
_cell_volume   729.70500037
_cell_formula_units_Z   4
loop_
 _symmetry_equiv_pos_site_id
 _symmetry_equiv_pos_as_xyz
  1  'x, y, z'
loop_
 _atom_site_type_symbol
 _atom_site_label
 _atom_site_symmetry_multiplicity
 _atom_site_fract_x
 _atom_site_fract_y
 _atom_site_fract_z
 _atom_site_occupancy
  Yb  Yb0  1  0.36554500  0.83530400  0.54128400  1
  Yb  Yb1  1  0.86554500  0.66469600  0.54128400  1
  Yb  Yb2  1  0.86554500  0.83530400  0.95871600  1
  Yb  Yb3  1  0.36554500  0.66469600  0.95871600  1
  Yb  Yb4  1  0.86554500  0.54128400  0.83530400  1
  Yb  Yb5  1  0.36554500  0.95871600  0.83530400  1
  Yb  Yb6  1  0.36554500  0.54128400  0.66469600  1
  Yb  Yb7  1  0.86554500  0.95871600  0.66469600  1
  Yb  Yb8  1  0.63445500  0.16469600  0.45871700  1
  Yb  Yb9  1  0.13445500  0.33530400  0.45871700  1
  Yb  Yb10  1  0.13445500  0.16469600  0.04128400  1
  Yb  Yb11  1  0.63445500  0.33530400  0.04128400  1
  Yb  Yb12  1  0.13445500  0.45871700  0.16469600  1
  Yb  Yb13  1  0.63445500  0.04128400  0.16469600  1
  Yb  Yb14  1  0.63445500  0.45871700  0.33530400  1
  Yb  Yb15  1  0.13445500  0.04128400  0.33530400  1
  Yb  Yb16  1  0.50000000  0.75000000  0.25000000  1
  Yb  Yb17  1  0.00000000  0.75000000  0.25000000  1
  Yb  Yb18  1  0.00000000  0.25000000  0.75000000  1
  Yb  Yb19  1  0.50000000  0.25000000  0.75000000  1
  Ir  Ir20  1  0.25000000  0.90384700  0.09615300  1
  Ir  Ir21  1  0.75000000  0.59615300  0.09615300  1
  Ir  Ir22  1  0.75000000  0.90384700  0.40384700  1
  Ir  Ir23  1  0.25000000  0.59615300  0.40384700  1
  Ir  Ir24  1  0.75000000  0.09615300  0.90384700  1
  Ir  Ir25  1  0.25000000  0.40384700  0.90384700  1
  Ir  Ir26  1  0.25000000  0.09615300  0.59615300  1
  Ir  Ir27  1  0.75000000  0.40384700  0.59615300  1
  Ir  Ir28  1  0.11995300  0.75000000  0.75000000  1
  Ir  Ir29  1  0.61995300  0.75000000  0.75000000  1
  Ir  Ir30  1  0.88004700  0.25000000  0.25000000  1
  Ir  Ir31  1  0.38004700  0.25000000  0.25000000  1
