# generated using pymatgen
data_Zn6P4H14O23
_symmetry_space_group_name_H-M   'P 1'
_cell_length_a   8.38644600
_cell_length_b   9.70143482
_cell_length_c   12.37589054
_cell_angle_alpha   71.54995809
_cell_angle_beta   82.36191661
_cell_angle_gamma   80.78777631
_symmetry_Int_Tables_number   1
_chemical_formula_structural   Zn6P4H14O23
_chemical_formula_sum   'Zn12 P8 H28 O46'
_cell_volume   939.19035854
_cell_formula_units_Z   2
loop_
 _symmetry_equiv_pos_site_id
 _symmetry_equiv_pos_as_xyz
  1  'x, y, z'
loop_
 _atom_site_type_symbol
 _atom_site_label
 _atom_site_symmetry_multiplicity
 _atom_site_fract_x
 _atom_site_fract_y
 _atom_site_fract_z
 _atom_site_occupancy
  Zn  Zn0  1  0.96996700  0.59789300  0.87580600  1
  Zn  Zn1  1  0.03003300  0.40210700  0.12419400  1
  Zn  Zn2  1  0.57440500  0.60516500  0.88089100  1
  Zn  Zn3  1  0.42559500  0.39483500  0.11910900  1
  Zn  Zn4  1  0.07678000  0.87903400  0.61129800  1
  Zn  Zn5  1  0.92322000  0.12096600  0.38870200  1
  Zn  Zn6  1  0.47607300  0.85804800  0.60537300  1
  Zn  Zn7  1  0.52392700  0.14195200  0.39462700  1
  Zn  Zn8  1  0.18584200  0.59749100  0.50517700  1
  Zn  Zn9  1  0.81415800  0.40250900  0.49482300  1
  Zn  Zn10  1  0.34443400  0.65765800  0.25353200  1
  Zn  Zn11  1  0.65556600  0.34234200  0.74646800  1
  P  P12  1  0.79091900  0.29989100  0.97939200  1
  P  P13  1  0.20908100  0.70010900  0.02060800  1
  P  P14  1  0.32107500  0.55946400  0.71764100  1
  P  P15  1  0.67892500  0.44053600  0.28235900  1
  P  P16  1  0.82406300  0.63929000  0.63436700  1
  P  P17  1  0.17593700  0.36071000  0.36563300  1
  P  P18  1  0.71192400  0.08171700  0.62757400  1
  P  P19  1  0.28807600  0.91828300  0.37242600  1
  H  H20  1  0.07150200  0.84955100  0.83688100  1
  H  H21  1  0.92849800  0.15044900  0.16311900  1
  H  H22  1  0.88572300  0.89135700  0.78526700  1
  H  H23  1  0.11427700  0.10864300  0.21473300  1
  H  H24  1  0.72768100  0.77474900  0.98254600  1
  H  H25  1  0.27231900  0.22525100  0.01745400  1
  H  H26  1  0.74537500  0.60481900  0.05448600  1
  H  H27  1  0.25462500  0.39518100  0.94551400  1
  H  H28  1  0.18118900  0.09293500  0.68098100  1
  H  H29  1  0.81881100  0.90706500  0.31901900  1
  H  H30  1  0.24177700  0.11145000  0.55195300  1
  H  H31  1  0.75822300  0.88855000  0.44804700  1
  H  H32  1  0.56739900  0.89120500  0.78697200  1
  H  H33  1  0.43260100  0.10879500  0.21302800  1
  H  H34  1  0.37790300  0.84392500  0.83391800  1
  H  H35  1  0.62209700  0.15607500  0.16608200  1
  H  H36  1  0.50832000  0.87972400  0.10739000  1
  H  H37  1  0.49168000  0.12027600  0.89261000  1
  H  H38  1  0.61572500  0.80588000  0.21074500  1
  H  H39  1  0.38427500  0.19412000  0.78925500  1
  H  H40  1  0.17037600  0.31563700  0.71032900  1
  H  H41  1  0.82962400  0.68436300  0.28967100  1
  H  H42  1  0.02954800  0.23583000  0.79347600  1
  H  H43  1  0.97045200  0.76417000  0.20652400  1
  H  H44  1  0.76340300  0.00477000  0.02846500  1
  H  H45  1  0.23659700  0.99522900  0.97153500  1
  H  H46  1  0.74300700  0.01310600  0.90276900  1
  H  H47  1  0.25699300  0.98689400  0.09723100  1
  O  O48  1  0.93203900  0.38601900  0.97979500  1
  O  O49  1  0.06796100  0.61398100  0.02020500  1
  O  O50  1  0.79459700  0.15805400  0.08363400  1
  O  O51  1  0.20540300  0.84194600  0.91636600  1
  O  O52  1  0.62419800  0.39665100  0.98869200  1
  O  O53  1  0.37580200  0.60334900  0.01130800  1
  O  O54  1  0.81044900  0.26049800  0.86519200  1
  O  O55  1  0.18955100  0.73950200  0.13480800  1
  O  O56  1  0.19790000  0.52386900  0.82292500  1
  O  O57  1  0.80210000  0.47613100  0.17707500  1
  O  O58  1  0.30191300  0.47072800  0.63585300  1
  O  O59  1  0.69808700  0.52927200  0.36414700  1
  O  O60  1  0.29745200  0.72760700  0.64984400  1
  O  O61  1  0.70254800  0.27239300  0.35015600  1
  O  O62  1  0.49652700  0.51976200  0.75752500  1
  O  O63  1  0.50347300  0.48023800  0.24247500  1
  O  O64  1  0.69428300  0.75428200  0.56902000  1
  O  O65  1  0.30571700  0.24571800  0.43098000  1
  O  O66  1  0.82206500  0.48522500  0.61969100  1
  O  O67  1  0.17793500  0.51477500  0.38030900  1
  O  O68  1  0.79909700  0.62111100  0.76475800  1
  O  O69  1  0.20090300  0.37888900  0.23524200  1
  O  O70  1  0.99443900  0.68986600  0.58522300  1
  O  O71  1  0.00556100  0.31013400  0.41477700  1
  O  O72  1  0.70857000  0.98782500  0.75435900  1
  O  O73  1  0.29143000  0.01217500  0.24564100  1
  O  O74  1  0.87518600  0.03989600  0.56373600  1
  O  O75  1  0.12481400  0.96010400  0.43626400  1
  O  O76  1  0.56869600  0.05774900  0.57025200  1
  O  O77  1  0.43130400  0.94225100  0.42974800  1
  O  O78  1  0.69963900  0.24874600  0.61723800  1
  O  O79  1  0.30036100  0.75125400  0.38276200  1
  O  O80  1  0.99499000  0.82911500  0.78662200  1
  O  O81  1  0.00501000  0.17088500  0.21337800  1
  O  O82  1  0.73319700  0.67423900  0.97524900  1
  O  O83  1  0.26680300  0.32576100  0.02475100  1
  O  O84  1  0.21956900  0.03446800  0.62620500  1
  O  O85  1  0.78043100  0.96553200  0.37379500  1
  O  O86  1  0.48576000  0.82109800  0.79068000  1
  O  O87  1  0.51424000  0.17890200  0.20932000  1
  O  O88  1  0.52861700  0.79132900  0.17188500  1
  O  O89  1  0.47138300  0.20867100  0.82811500  1
  O  O90  1  0.13650000  0.21844300  0.75199000  1
  O  O91  1  0.86350000  0.78155700  0.24801000  1
  O  O92  1  0.71647500  0.95671500  0.98256300  1
  O  O93  1  0.28352500  0.04328500  0.01743700  1
