# generated using pymatgen
data_Ta2H36C12N6Cl2O
_symmetry_space_group_name_H-M   'P 1'
_cell_length_a   11.70972900
_cell_length_b   13.34471000
_cell_length_c   17.35751998
_cell_angle_alpha   90.00000000
_cell_angle_beta   111.58630287
_cell_angle_gamma   90.00000000
_symmetry_Int_Tables_number   1
_chemical_formula_structural   Ta2H36C12N6Cl2O
_chemical_formula_sum   'Ta8 H144 C48 N24 Cl8 O4'
_cell_volume   2522.10584729
_cell_formula_units_Z   4
loop_
 _symmetry_equiv_pos_site_id
 _symmetry_equiv_pos_as_xyz
  1  'x, y, z'
loop_
 _atom_site_type_symbol
 _atom_site_label
 _atom_site_symmetry_multiplicity
 _atom_site_fract_x
 _atom_site_fract_y
 _atom_site_fract_z
 _atom_site_occupancy
  Ta  Ta0  1  0.08143900  0.29656200  0.68699400  1
  Ta  Ta1  1  0.08143900  0.20343800  0.18699400  1
  Ta  Ta2  1  0.91856100  0.70343800  0.31300600  1
  Ta  Ta3  1  0.91856100  0.79656200  0.81300600  1
  Ta  Ta4  1  0.36501300  0.24105100  0.68735200  1
  Ta  Ta5  1  0.36501300  0.25894900  0.18735200  1
  Ta  Ta6  1  0.63498700  0.75894900  0.31264800  1
  Ta  Ta7  1  0.63498700  0.74105100  0.81264800  1
  H  H8  1  0.25632100  0.03824500  0.52551400  1
  H  H9  1  0.25632100  0.46175500  0.02551400  1
  H  H10  1  0.74367900  0.96175500  0.47448600  1
  H  H11  1  0.74367900  0.53824500  0.97448600  1
  H  H12  1  0.23504400  0.04473900  0.62259700  1
  H  H13  1  0.23504400  0.45526100  0.12259700  1
  H  H14  1  0.76495600  0.95526100  0.37740300  1
  H  H15  1  0.76495600  0.54473900  0.87740300  1
  H  H16  1  0.35957000  0.97414200  0.61387500  1
  H  H17  1  0.35957000  0.52585800  0.11387500  1
  H  H18  1  0.64043000  0.02585800  0.38612500  1
  H  H19  1  0.64043000  0.47414200  0.88612500  1
  H  H20  1  0.53960500  0.06385300  0.60256300  1
  H  H21  1  0.53960500  0.43614700  0.10256300  1
  H  H22  1  0.46039500  0.93614700  0.39743700  1
  H  H23  1  0.46039500  0.56385300  0.89743700  1
  H  H24  1  0.51939100  0.19433300  0.57633900  1
  H  H25  1  0.51939100  0.30566700  0.07633900  1
  H  H26  1  0.48060900  0.80566700  0.42366100  1
  H  H27  1  0.48060900  0.69433300  0.92366100  1
  H  H28  1  0.42325000  0.10221100  0.50803600  1
  H  H29  1  0.42325000  0.39778900  0.00803600  1
  H  H30  1  0.57675000  0.89778900  0.49196400  1
  H  H31  1  0.57675000  0.60221100  0.99196400  1
  H  H32  1  0.70107300  0.21649000  0.82576000  1
  H  H33  1  0.70107300  0.28351000  0.32576000  1
  H  H34  1  0.29892700  0.78351000  0.17424000  1
  H  H35  1  0.29892700  0.71649000  0.67424000  1
  H  H36  1  0.61632300  0.15279500  0.73154300  1
  H  H37  1  0.61632300  0.34720500  0.23154300  1
  H  H38  1  0.38367700  0.84720500  0.26845700  1
  H  H39  1  0.38367700  0.65279500  0.76845700  1
  H  H40  1  0.63566000  0.09673800  0.82839000  1
  H  H41  1  0.63566000  0.40326200  0.32839000  1
  H  H42  1  0.36434000  0.90326200  0.17161000  1
  H  H43  1  0.36434000  0.59673800  0.67161000  1
  H  H44  1  0.52231200  0.15362200  0.90913100  1
  H  H45  1  0.52231200  0.34637800  0.40913100  1
  H  H46  1  0.47768800  0.84637800  0.09086900  1
  H  H47  1  0.47768800  0.65362200  0.59086900  1
  H  H48  1  0.44227700  0.27074400  0.88511400  1
  H  H49  1  0.44227700  0.22925600  0.38511400  1
  H  H50  1  0.55772300  0.72925600  0.11488600  1
  H  H51  1  0.55772300  0.77074400  0.61488600  1
  H  H52  1  0.60600800  0.26721200  0.91706400  1
  H  H53  1  0.60600800  0.23278800  0.41706400  1
  H  H54  1  0.39399200  0.73278800  0.08293600  1
  H  H55  1  0.39399200  0.76721200  0.58293600  1
  H  H56  1  0.36632300  0.46472300  0.56301300  1
  H  H57  1  0.36632300  0.03527700  0.06301300  1
  H  H58  1  0.63367700  0.53527700  0.43698700  1
  H  H59  1  0.63367700  0.96472300  0.93698700  1
  H  H60  1  0.29513500  0.34630300  0.52753000  1
  H  H61  1  0.29513500  0.15369700  0.02753000  1
  H  H62  1  0.70486500  0.65369700  0.47247000  1
  H  H63  1  0.70486500  0.84630300  0.97247000  1
  H  H64  1  0.44089100  0.37492900  0.52172500  1
  H  H65  1  0.44089100  0.12507100  0.02172500  1
  H  H66  1  0.55910900  0.62507100  0.47827500  1
  H  H67  1  0.55910900  0.87492900  0.97827500  1
  H  H68  1  0.60905000  0.40733200  0.63874400  1
  H  H69  1  0.60905000  0.09266800  0.13874400  1
  H  H70  1  0.39095000  0.59266800  0.36125600  1
  H  H71  1  0.39095000  0.90733200  0.86125600  1
  H  H72  1  0.62319300  0.35633200  0.73719500  1
  H  H73  1  0.62319300  0.14366800  0.23719500  1
  H  H74  1  0.37680700  0.64366800  0.26280500  1
  H  H75  1  0.37680700  0.85633200  0.76280500  1
  H  H76  1  0.54457500  0.47177300  0.70240400  1
  H  H77  1  0.54457500  0.02822700  0.20240400  1
  H  H78  1  0.45542500  0.52822700  0.29759600  1
  H  H79  1  0.45542500  0.97177300  0.79759600  1
  H  H80  1  0.82591000  0.50115000  0.58977800  1
  H  H81  1  0.82591000  0.99885000  0.08977800  1
  H  H82  1  0.17409000  0.49885000  0.41022200  1
  H  H83  1  0.17409000  0.00115000  0.91022200  1
  H  H84  1  0.80543600  0.37086000  0.60202200  1
  H  H85  1  0.80543600  0.12914000  0.10202200  1
  H  H86  1  0.19456400  0.62914000  0.39797800  1
  H  H87  1  0.19456400  0.87086000  0.89797800  1
  H  H88  1  0.83669700  0.41450000  0.51471200  1
  H  H89  1  0.83669700  0.08550000  0.01471200  1
  H  H90  1  0.16330300  0.58550000  0.48528800  1
  H  H91  1  0.16330300  0.91450000  0.98528800  1
  H  H92  1  0.02895500  0.53830400  0.56301800  1
  H  H93  1  0.02895500  0.96169600  0.06301800  1
  H  H94  1  0.97104500  0.46169600  0.43698200  1
  H  H95  1  0.97104500  0.03830400  0.93698200  1
  H  H96  1  0.14766800  0.51111000  0.66079100  1
  H  H97  1  0.14766800  0.98889000  0.16079100  1
  H  H98  1  0.85233200  0.48889000  0.33920900  1
  H  H99  1  0.85233200  0.01111000  0.83920900  1
  H  H100  1  0.00952300  0.57211700  0.65663000  1
  H  H101  1  0.00952300  0.92788300  0.15663000  1
  H  H102  1  0.99047700  0.42788300  0.34337000  1
  H  H103  1  0.99047700  0.07211700  0.84337000  1
  H  H104  1  0.89825300  0.31267400  0.83265300  1
  H  H105  1  0.89825300  0.18732600  0.33265300  1
  H  H106  1  0.10174700  0.68732600  0.16734700  1
  H  H107  1  0.10174700  0.81267400  0.66734700  1
  H  H108  1  0.86792000  0.36221200  0.73188700  1
  H  H109  1  0.86792000  0.13778800  0.23188700  1
  H  H110  1  0.13208000  0.63778800  0.26811300  1
  H  H111  1  0.13208000  0.86221200  0.76811300  1
  H  H112  1  0.96022200  0.43109900  0.82049700  1
  H  H113  1  0.96022200  0.06890100  0.32049700  1
  H  H114  1  0.03977800  0.56890100  0.17950300  1
  H  H115  1  0.03977800  0.93109900  0.67950300  1
  H  H116  1  0.14981900  0.35495500  0.91461300  1
  H  H117  1  0.14981900  0.14504500  0.41461300  1
  H  H118  1  0.85018100  0.64504500  0.08538700  1
  H  H119  1  0.85018100  0.85495500  0.58538700  1
  H  H120  1  0.21328100  0.24815400  0.88257500  1
  H  H121  1  0.21328100  0.25184600  0.38257500  1
  H  H122  1  0.78671900  0.75184600  0.11742500  1
  H  H123  1  0.78671900  0.74815400  0.61742500  1
  H  H124  1  0.08040200  0.23538000  0.90950200  1
  H  H125  1  0.08040200  0.26462000  0.40950200  1
  H  H126  1  0.91959800  0.76462000  0.09049800  1
  H  H127  1  0.91959800  0.73538000  0.59049800  1
  H  H128  1  0.78888300  0.11562900  0.59782200  1
  H  H129  1  0.78888300  0.38437100  0.09782200  1
  H  H130  1  0.21111700  0.88437100  0.40217800  1
  H  H131  1  0.21111700  0.61562900  0.90217800  1
  H  H132  1  0.81805800  0.19732200  0.68380900  1
  H  H133  1  0.81805800  0.30267800  0.18380900  1
  H  H134  1  0.18194200  0.80267800  0.31619100  1
  H  H135  1  0.18194200  0.69732200  0.81619100  1
  H  H136  1  0.90606200  0.08576500  0.69428500  1
  H  H137  1  0.90606200  0.41423500  0.19428500  1
  H  H138  1  0.09393800  0.91423500  0.30571500  1
  H  H139  1  0.09393800  0.58576500  0.80571500  1
  H  H140  1  0.94742700  0.08358700  0.54292900  1
  H  H141  1  0.94742700  0.41641300  0.04292900  1
  H  H142  1  0.05257300  0.91641300  0.45707100  1
  H  H143  1  0.05257300  0.58358700  0.95707100  1
  H  H144  1  0.00871800  0.19912600  0.52286300  1
  H  H145  1  0.00871800  0.30087400  0.02286300  1
  H  H146  1  0.99128200  0.80087400  0.47713700  1
  H  H147  1  0.99128200  0.69912600  0.97713700  1
  H  H148  1  0.84661700  0.18518200  0.49727900  1
  H  H149  1  0.84661700  0.31481800  0.99727900  1
  H  H150  1  0.15338300  0.81481800  0.50272100  1
  H  H151  1  0.15338300  0.68518200  0.00272100  1
  C  C152  1  0.30355200  0.04283300  0.59350300  1
  C  C153  1  0.30355200  0.45716700  0.09350300  1
  C  C154  1  0.69644800  0.95716700  0.40649700  1
  C  C155  1  0.69644800  0.54283300  0.90649700  1
  C  C156  1  0.47123000  0.12307800  0.57365600  1
  C  C157  1  0.47123000  0.37692200  0.07365600  1
  C  C158  1  0.52877000  0.87692200  0.42634400  1
  C  C159  1  0.52877000  0.62307800  0.92634400  1
  C  C160  1  0.61993300  0.16863800  0.79417800  1
  C  C161  1  0.61993300  0.33136200  0.29417800  1
  C  C162  1  0.38006700  0.83136200  0.20582200  1
  C  C163  1  0.38006700  0.66863800  0.70582200  1
  C  C164  1  0.51920800  0.22841800  0.88058100  1
  C  C165  1  0.51920800  0.27158200  0.38058100  1
  C  C166  1  0.48079200  0.77158200  0.11941900  1
  C  C167  1  0.48079200  0.72841800  0.61941900  1
  C  C168  1  0.38329400  0.38363700  0.55933000  1
  C  C169  1  0.38329400  0.11636300  0.05933000  1
  C  C170  1  0.61670600  0.61636300  0.44067000  1
  C  C171  1  0.61670600  0.88363700  0.94067000  1
  C  C172  1  0.56187900  0.39648400  0.68267400  1
  C  C173  1  0.56187900  0.10351600  0.18267400  1
  C  C174  1  0.43812100  0.60351600  0.31732600  1
  C  C175  1  0.43812100  0.89648400  0.81732600  1
  C  C176  1  0.85824200  0.42569600  0.58165500  1
  C  C177  1  0.85824200  0.07430400  0.08165500  1
  C  C178  1  0.14175800  0.57430400  0.41834500  1
  C  C179  1  0.14175800  0.92569600  0.91834500  1
  C  C180  1  0.04813500  0.51437400  0.62752200  1
  C  C181  1  0.04813500  0.98562600  0.12752200  1
  C  C182  1  0.95186500  0.48562600  0.37247800  1
  C  C183  1  0.95186500  0.01437400  0.87247800  1
  C  C184  1  0.93854100  0.35489300  0.79395000  1
  C  C185  1  0.93854100  0.14510700  0.29395000  1
  C  C186  1  0.06145900  0.64510700  0.20605000  1
  C  C187  1  0.06145900  0.85489300  0.70605000  1
  C  C188  1  0.12769800  0.28398100  0.87897700  1
  C  C189  1  0.12769800  0.21601900  0.37897700  1
  C  C190  1  0.87230200  0.71601900  0.12102300  1
  C  C191  1  0.87230200  0.78398100  0.62102300  1
  C  C192  1  0.86181700  0.14791100  0.65218200  1
  C  C193  1  0.86181700  0.35208900  0.15218200  1
  C  C194  1  0.13818300  0.85208900  0.34781800  1
  C  C195  1  0.13818300  0.64791100  0.84781800  1
  C  C196  1  0.93838200  0.16603200  0.54275700  1
  C  C197  1  0.93838200  0.33396800  0.04275700  1
  C  C198  1  0.06161800  0.83396800  0.45724300  1
  C  C199  1  0.06161800  0.66603200  0.95724300  1
  N  N200  1  0.98996100  0.41784200  0.62903600  1
  N  N201  1  0.98996100  0.08215800  0.12903600  1
  N  N202  1  0.01003900  0.58215800  0.37096400  1
  N  N203  1  0.01003900  0.91784200  0.87096400  1
  N  N204  1  0.04851800  0.30336500  0.79356800  1
  N  N205  1  0.04851800  0.19663500  0.29356800  1
  N  N206  1  0.95148200  0.69663500  0.20643200  1
  N  N207  1  0.95148200  0.80336500  0.70643200  1
  N  N208  1  0.94982900  0.20122500  0.62513700  1
  N  N209  1  0.94982900  0.29877500  0.12513700  1
  N  N210  1  0.05017100  0.79877500  0.37486300  1
  N  N211  1  0.05017100  0.70122500  0.87486300  1
  N  N212  1  0.44701000  0.34254700  0.64224200  1
  N  N213  1  0.44701000  0.15745300  0.14224200  1
  N  N214  1  0.55299000  0.65745300  0.35775800  1
  N  N215  1  0.55299000  0.84254700  0.85775800  1
  N  N216  1  0.50871300  0.21764200  0.79495900  1
  N  N217  1  0.50871300  0.28235800  0.29495900  1
  N  N218  1  0.49128700  0.78235800  0.20504100  1
  N  N219  1  0.49128700  0.71764200  0.70504100  1
  N  N220  1  0.38267500  0.13132500  0.61444500  1
  N  N221  1  0.38267500  0.36867500  0.11444500  1
  N  N222  1  0.61732500  0.86867500  0.38555500  1
  N  N223  1  0.61732500  0.63132500  0.88555500  1
  Cl  Cl224  1  0.29379000  0.39033800  0.77687300  1
  Cl  Cl225  1  0.29379000  0.10966200  0.27687300  1
  Cl  Cl226  1  0.70621000  0.60966200  0.22312700  1
  Cl  Cl227  1  0.70621000  0.89033800  0.72312700  1
  Cl  Cl228  1  0.23695800  0.13753100  0.76260200  1
  Cl  Cl229  1  0.23695800  0.36246900  0.26260200  1
  Cl  Cl230  1  0.76304200  0.86246900  0.23739800  1
  Cl  Cl231  1  0.76304200  0.63753100  0.73739800  1
  O  O232  1  0.19261900  0.27557000  0.62713700  1
  O  O233  1  0.19261900  0.22443000  0.12713700  1
  O  O234  1  0.80738100  0.72443000  0.37286300  1
  O  O235  1  0.80738100  0.77557000  0.87286300  1
