# generated using pymatgen
data_Cu4SO12
_symmetry_space_group_name_H-M   'P 1'
_cell_length_a   5.19453100
_cell_length_b   5.88042304
_cell_length_c   14.12291128
_cell_angle_alpha   93.28651424
_cell_angle_beta   90.00000000
_cell_angle_gamma   90.00000000
_symmetry_Int_Tables_number   1
_chemical_formula_structural   Cu4SO12
_chemical_formula_sum   'Cu8 S2 O24'
_cell_volume   430.68950367
_cell_formula_units_Z   2
loop_
 _symmetry_equiv_pos_site_id
 _symmetry_equiv_pos_as_xyz
  1  'x, y, z'
loop_
 _atom_site_type_symbol
 _atom_site_label
 _atom_site_symmetry_multiplicity
 _atom_site_fract_x
 _atom_site_fract_y
 _atom_site_fract_z
 _atom_site_occupancy
  Cu  Cu0  1  0.32629300  0.00482700  0.25190100  1
  Cu  Cu1  1  0.67370700  0.00482700  0.75190100  1
  Cu  Cu2  1  0.32137100  0.50548600  0.24626800  1
  Cu  Cu3  1  0.67862900  0.50548600  0.74626800  1
  Cu  Cu4  1  0.82099000  0.25770500  0.24532700  1
  Cu  Cu5  1  0.17901000  0.25770500  0.74532700  1
  Cu  Cu6  1  0.17963700  0.75181400  0.74818500  1
  Cu  Cu7  1  0.82036300  0.75181400  0.24818500  1
  S  S8  1  0.02946700  0.06525500  0.46696400  1
  S  S9  1  0.97053300  0.06525500  0.96696400  1
  O  O10  1  0.00966200  0.02275100  0.35778700  1
  O  O11  1  0.99033800  0.02275100  0.85778700  1
  O  O12  1  0.95065100  0.84814900  0.50913900  1
  O  O13  1  0.04934900  0.84814900  0.00913900  1
  O  O14  1  0.30652800  0.10946200  0.48919600  1
  O  O15  1  0.69347200  0.10946200  0.98919600  1
  O  O16  1  0.86970500  0.26047300  0.49459400  1
  O  O17  1  0.13029500  0.26047300  0.99459400  1
  O  O18  1  0.49944500  0.75960400  0.31021700  1
  O  O19  1  0.50055500  0.75960400  0.81021700  1
  O  O20  1  0.14904700  0.75535200  0.19287700  1
  O  O21  1  0.85095300  0.75535200  0.69287700  1
  O  O22  1  0.70445700  0.99471400  0.18357900  1
  O  O23  1  0.29554300  0.99471400  0.68357900  1
  O  O24  1  0.49704800  0.26989100  0.30495600  1
  O  O25  1  0.50295200  0.26989100  0.80495600  1
  O  O26  1  0.14692900  0.23387900  0.19104700  1
  O  O27  1  0.85307100  0.23387900  0.69104700  1
  O  O28  1  0.94979800  0.51173100  0.31187200  1
  O  O29  1  0.05020200  0.51173100  0.81187200  1
  O  O30  1  0.62909500  0.51272900  0.16050100  1
  O  O31  1  0.37090500  0.51272900  0.66050100  1
  O  O32  1  0.45932100  0.78478000  0.00629000  1
  O  O33  1  0.54067900  0.78478000  0.50629000  1
