# generated using pymatgen
data_Sr2YCu3(PbO4)2
_symmetry_space_group_name_H-M   'P 1'
_cell_length_a   5.41574400
_cell_length_b   5.48836700
_cell_length_c   15.95109600
_cell_angle_alpha   90.00000000
_cell_angle_beta   90.00000000
_cell_angle_gamma   90.00000000
_symmetry_Int_Tables_number   1
_chemical_formula_structural   Sr2YCu3(PbO4)2
_chemical_formula_sum   'Sr4 Y2 Cu6 Pb4 O16'
_cell_volume   474.12384792
_cell_formula_units_Z   2
loop_
 _symmetry_equiv_pos_site_id
 _symmetry_equiv_pos_as_xyz
  1  'x, y, z'
loop_
 _atom_site_type_symbol
 _atom_site_label
 _atom_site_symmetry_multiplicity
 _atom_site_fract_x
 _atom_site_fract_y
 _atom_site_fract_z
 _atom_site_occupancy
  Sr  Sr0  1  0.00000000  0.99667400  0.22102800  1
  Sr  Sr1  1  0.50000000  0.50332600  0.22102800  1
  Sr  Sr2  1  0.50000000  0.49667400  0.77897200  1
  Sr  Sr3  1  0.00000000  0.00332600  0.77897200  1
  Y  Y4  1  0.00000000  0.00000000  0.00000000  1
  Y  Y5  1  0.50000000  0.50000000  0.00000000  1
  Cu  Cu6  1  0.00000000  0.00000000  0.50000000  1
  Cu  Cu7  1  0.50000000  0.50000000  0.50000000  1
  Cu  Cu8  1  0.00000000  0.49916300  0.10394000  1
  Cu  Cu9  1  0.50000000  0.00083700  0.10394000  1
  Cu  Cu10  1  0.50000000  0.99916300  0.89606000  1
  Cu  Cu11  1  0.00000000  0.50083700  0.89606000  1
  Pb  Pb12  1  0.00000000  0.50683800  0.38855700  1
  Pb  Pb13  1  0.50000000  0.99316200  0.38855700  1
  Pb  Pb14  1  0.50000000  0.00683800  0.61144300  1
  Pb  Pb15  1  0.00000000  0.49316200  0.61144300  1
  O  O16  1  0.00000000  0.48832700  0.25145000  1
  O  O17  1  0.50000000  0.01167300  0.25145000  1
  O  O18  1  0.50000000  0.98832700  0.74855000  1
  O  O19  1  0.00000000  0.51167300  0.74855000  1
  O  O20  1  0.00000000  0.93331900  0.38504200  1
  O  O21  1  0.50000000  0.56668100  0.38504200  1
  O  O22  1  0.50000000  0.43331900  0.61495800  1
  O  O23  1  0.00000000  0.06668100  0.61495800  1
  O  O24  1  0.75000000  0.25000000  0.09072900  1
  O  O25  1  0.75000000  0.75000000  0.90927100  1
  O  O26  1  0.75000000  0.75000000  0.09229400  1
  O  O27  1  0.75000000  0.25000000  0.90770600  1
  O  O28  1  0.25000000  0.75000000  0.09229400  1
  O  O29  1  0.25000000  0.25000000  0.90770600  1
  O  O30  1  0.25000000  0.25000000  0.09072900  1
  O  O31  1  0.25000000  0.75000000  0.90927100  1
