# generated using pymatgen
data_Nd2H12C7N2O17
_symmetry_space_group_name_H-M   'P 1'
_cell_length_a   8.88290338
_cell_length_b   9.74402802
_cell_length_c   10.33361993
_cell_angle_alpha   73.66899793
_cell_angle_beta   86.99984422
_cell_angle_gamma   80.40037715
_symmetry_Int_Tables_number   1
_chemical_formula_structural   Nd2H12C7N2O17
_chemical_formula_sum   'Nd4 H24 C14 N4 O34'
_cell_volume   846.30860591
_cell_formula_units_Z   2
loop_
 _symmetry_equiv_pos_site_id
 _symmetry_equiv_pos_as_xyz
  1  'x, y, z'
loop_
 _atom_site_type_symbol
 _atom_site_label
 _atom_site_symmetry_multiplicity
 _atom_site_fract_x
 _atom_site_fract_y
 _atom_site_fract_z
 _atom_site_occupancy
  Nd  Nd0  1  0.20027900  0.81164300  0.81558900  1
  Nd  Nd1  1  0.79972100  0.18835700  0.18441100  1
  Nd  Nd2  1  0.64837400  0.59430100  0.58846300  1
  Nd  Nd3  1  0.35162600  0.40569900  0.41153700  1
  H  H4  1  0.86655800  0.82251800  0.69559400  1
  H  H5  1  0.13344200  0.17748200  0.30440600  1
  H  H6  1  0.85290300  0.82846700  0.84708300  1
  H  H7  1  0.14709700  0.17153300  0.15291700  1
  H  H8  1  0.64631200  0.04874200  0.95045300  1
  H  H9  1  0.35368800  0.95125800  0.04954700  1
  H  H10  1  0.57280700  0.95986900  0.87265400  1
  H  H11  1  0.42719300  0.04013100  0.12734600  1
  H  H12  1  0.31548500  0.82763600  0.34738600  1
  H  H13  1  0.68451500  0.17236400  0.65261400  1
  H  H14  1  0.16575400  0.87567300  0.44092300  1
  H  H15  1  0.83424600  0.12432700  0.55907700  1
  H  H16  1  0.15942500  0.94420800  0.27493800  1
  H  H17  1  0.84057500  0.05579200  0.72506200  1
  H  H18  1  0.14989300  0.76353600  0.34232500  1
  H  H19  1  0.85010700  0.23646400  0.65767500  1
  H  H20  1  0.62251600  0.68003000  0.19586000  1
  H  H21  1  0.37748400  0.31997000  0.80414000  1
  H  H22  1  0.76245500  0.60865000  0.10606900  1
  H  H23  1  0.23754500  0.39135000  0.89393100  1
  H  H24  1  0.80422900  0.69815100  0.21730500  1
  H  H25  1  0.19577100  0.30184900  0.78269500  1
  H  H26  1  0.70928400  0.79245300  0.07142400  1
  H  H27  1  0.29071600  0.20754700  0.92857600  1
  C  C28  1  0.73550100  0.92305900  0.45775200  1
  C  C29  1  0.26449900  0.07694100  0.54224800  1
  C  C30  1  0.61499000  0.91654600  0.35604000  1
  C  C31  1  0.38501000  0.08345400  0.64396000  1
  C  C32  1  0.71891700  0.47086100  0.91742400  1
  C  C33  1  0.28108300  0.52913900  0.08257600  1
  C  C34  1  0.64253700  0.34980600  0.88822500  1
  C  C35  1  0.35746300  0.65019400  0.11177500  1
  C  C36  1  0.98316300  0.92932900  0.05213200  1
  C  C37  1  0.01683700  0.07067100  0.94786800  1
  C  C38  1  0.99093200  0.56409700  0.43540500  1
  C  C39  1  0.00906800  0.43590300  0.56459500  1
  C  C40  1  0.31690900  0.63879400  0.63574200  1
  C  C41  1  0.68309100  0.36120600  0.36425800  1
  N  N42  1  0.19739900  0.85184800  0.35062200  1
  N  N43  1  0.80260100  0.14815200  0.64937800  1
  N  N44  1  0.72615200  0.69484200  0.14750100  1
  N  N45  1  0.27384800  0.30515800  0.85249900  1
  O  O46  1  0.81417700  0.02427600  0.42267400  1
  O  O47  1  0.18582300  0.97572400  0.57732600  1
  O  O48  1  0.74321500  0.82688400  0.57102900  1
  O  O49  1  0.25678500  0.17311600  0.42897100  1
  O  O50  1  0.54095900  0.81098000  0.39202100  1
  O  O51  1  0.45904100  0.18902000  0.60797900  1
  O  O52  1  0.59933300  0.01731400  0.24681800  1
  O  O53  1  0.40066700  0.98268600  0.75318200  1
  O  O54  1  0.76476800  0.44734400  0.03767600  1
  O  O55  1  0.23523200  0.55265600  0.96232400  1
  O  O56  1  0.72586500  0.58279400  0.82127700  1
  O  O57  1  0.27413500  0.41720600  0.17872300  1
  O  O58  1  0.58837300  0.37496900  0.77136300  1
  O  O59  1  0.41162700  0.62503100  0.22863700  1
  O  O60  1  0.63615300  0.23513900  0.98364700  1
  O  O61  1  0.36384700  0.76486100  0.01635300  1
  O  O62  1  0.03351300  0.81102300  0.02548400  1
  O  O63  1  0.96648700  0.18897700  0.97451600  1
  O  O64  1  0.90701400  0.94411300  0.15622200  1
  O  O65  1  0.09298600  0.05588700  0.84377800  1
  O  O66  1  0.86035500  0.63987600  0.41160300  1
  O  O67  1  0.13964500  0.36012400  0.58839700  1
  O  O68  1  0.10980200  0.58441700  0.36302500  1
  O  O69  1  0.89019800  0.41558300  0.63697500  1
  O  O70  1  0.17406200  0.66174700  0.65905100  1
  O  O71  1  0.82593800  0.33825300  0.34094900  1
  O  O72  1  0.41135900  0.69227300  0.69525400  1
  O  O73  1  0.58864100  0.30772700  0.30474600  1
  O  O74  1  0.37937300  0.56532500  0.55328500  1
  O  O75  1  0.62062700  0.43467500  0.44671500  1
  O  O76  1  0.92143700  0.84196600  0.76901500  1
  O  O77  1  0.07856300  0.15803400  0.23098500  1
  O  O78  1  0.66291500  0.95599400  0.92657500  1
  O  O79  1  0.33708500  0.04400600  0.07342500  1
