# generated using pymatgen
data_Pr6Fe13Bi
_symmetry_space_group_name_H-M   'P 1'
_cell_length_a   8.13928300
_cell_length_b   8.13928300
_cell_length_c   13.23385719
_cell_angle_alpha   107.90968394
_cell_angle_beta   107.90968394
_cell_angle_gamma   90.00000000
_symmetry_Int_Tables_number   1
_chemical_formula_structural   Pr6Fe13Bi
_chemical_formula_sum   'Pr12 Fe26 Bi2'
_cell_volume   789.46575663
_cell_formula_units_Z   2
loop_
 _symmetry_equiv_pos_site_id
 _symmetry_equiv_pos_as_xyz
  1  'x, y, z'
loop_
 _atom_site_type_symbol
 _atom_site_label
 _atom_site_symmetry_multiplicity
 _atom_site_fract_x
 _atom_site_fract_y
 _atom_site_fract_z
 _atom_site_occupancy
  Pr  Pr0  1  0.60268900  0.60268900  0.20537800  1
  Pr  Pr1  1  0.10268900  0.10268900  0.20537800  1
  Pr  Pr2  1  0.39731100  0.39731100  0.79462200  1
  Pr  Pr3  1  0.89731100  0.89731100  0.79462200  1
  Pr  Pr4  1  0.97700400  0.47700400  0.63261600  1
  Pr  Pr5  1  0.65561200  0.15561200  0.63261600  1
  Pr  Pr6  1  0.15561200  0.97700400  0.63261600  1
  Pr  Pr7  1  0.47700400  0.65561200  0.63261600  1
  Pr  Pr8  1  0.02299600  0.52299600  0.36738400  1
  Pr  Pr9  1  0.34438800  0.84438800  0.36738400  1
  Pr  Pr10  1  0.84438800  0.02299600  0.36738400  1
  Pr  Pr11  1  0.52299600  0.34438800  0.36738400  1
  Fe  Fe12  1  0.00000000  0.50000000  0.00000000  1
  Fe  Fe13  1  0.50000000  0.00000000  0.00000000  1
  Fe  Fe14  1  0.71056100  0.56721100  0.00000000  1
  Fe  Fe15  1  0.28943900  0.43278900  0.00000000  1
  Fe  Fe16  1  0.78943900  0.06721100  0.00000000  1
  Fe  Fe17  1  0.21056100  0.93278900  0.00000000  1
  Fe  Fe18  1  0.56721100  0.28943900  0.00000000  1
  Fe  Fe19  1  0.43278900  0.71056100  0.00000000  1
  Fe  Fe20  1  0.06721100  0.21056100  0.00000000  1
  Fe  Fe21  1  0.93278900  0.78943900  0.00000000  1
  Fe  Fe22  1  0.12049800  0.62049800  0.88454900  1
  Fe  Fe23  1  0.76405100  0.26405100  0.88454900  1
  Fe  Fe24  1  0.26405100  0.12049800  0.88454900  1
  Fe  Fe25  1  0.62049800  0.76405100  0.88454900  1
  Fe  Fe26  1  0.87950200  0.37950200  0.11545100  1
  Fe  Fe27  1  0.23594900  0.73594900  0.11545100  1
  Fe  Fe28  1  0.73594900  0.87950200  0.11545100  1
  Fe  Fe29  1  0.37950200  0.23594900  0.11545100  1
  Fe  Fe30  1  0.29411000  0.79411000  0.81522100  1
  Fe  Fe31  1  0.52111200  0.02111200  0.81522100  1
  Fe  Fe32  1  0.02111200  0.29411000  0.81522100  1
  Fe  Fe33  1  0.79411000  0.52111200  0.81522100  1
  Fe  Fe34  1  0.70589000  0.20589000  0.18477900  1
  Fe  Fe35  1  0.47888800  0.97888800  0.18477900  1
  Fe  Fe36  1  0.97888800  0.70589000  0.18477900  1
  Fe  Fe37  1  0.20589000  0.47888800  0.18477900  1
  Bi  Bi38  1  0.25000000  0.25000000  0.50000000  1
  Bi  Bi39  1  0.75000000  0.75000000  0.50000000  1
