# generated using pymatgen
data_Na6Mg3B9P6H3O38
_symmetry_space_group_name_H-M   'P 1'
_cell_length_a   11.86650407
_cell_length_b   11.86650407
_cell_length_c   12.20721300
_cell_angle_alpha   90.00000000
_cell_angle_beta   90.00000000
_cell_angle_gamma   120.00000040
_symmetry_Int_Tables_number   1
_chemical_formula_structural   Na6Mg3B9P6H3O38
_chemical_formula_sum   'Na12 Mg6 B18 P12 H6 O76'
_cell_volume   1488.65046561
_cell_formula_units_Z   2
loop_
 _symmetry_equiv_pos_site_id
 _symmetry_equiv_pos_as_xyz
  1  'x, y, z'
loop_
 _atom_site_type_symbol
 _atom_site_label
 _atom_site_symmetry_multiplicity
 _atom_site_fract_x
 _atom_site_fract_y
 _atom_site_fract_z
 _atom_site_occupancy
  Na  Na0  1  0.28716700  0.01818500  0.82273600  1
  Na  Na1  1  0.98181500  0.26898200  0.82273600  1
  Na  Na2  1  0.73101800  0.71283300  0.82273600  1
  Na  Na3  1  0.71283300  0.98181500  0.32273600  1
  Na  Na4  1  0.01818500  0.73101800  0.32273600  1
  Na  Na5  1  0.26898200  0.28716700  0.32273600  1
  Na  Na6  1  0.66666700  0.33333300  0.17625200  1
  Na  Na7  1  0.33333300  0.66666700  0.67625200  1
  Na  Na8  1  0.33333300  0.66666700  0.16377600  1
  Na  Na9  1  0.66666700  0.33333300  0.66377600  1
  Na  Na10  1  0.00000000  0.00000000  0.07856400  1
  Na  Na11  1  0.00000000  0.00000000  0.57856400  1
  Mg  Mg12  1  0.49962100  0.49566500  0.07719500  1
  Mg  Mg13  1  0.50433500  0.00395600  0.07719500  1
  Mg  Mg14  1  0.99604400  0.50037900  0.07719500  1
  Mg  Mg15  1  0.50037900  0.50433500  0.57719500  1
  Mg  Mg16  1  0.49566500  0.99604400  0.57719500  1
  Mg  Mg17  1  0.00395600  0.49962100  0.57719500  1
  B  B18  1  0.29645300  0.04368100  0.22566600  1
  B  B19  1  0.95631900  0.25277200  0.22566600  1
  B  B20  1  0.74722800  0.70354700  0.22566600  1
  B  B21  1  0.70354700  0.95631900  0.72566600  1
  B  B22  1  0.04368100  0.74722800  0.72566600  1
  B  B23  1  0.25277200  0.29645300  0.72566600  1
  B  B24  1  0.40737000  0.49457400  0.82953500  1
  B  B25  1  0.50542600  0.91279600  0.82953500  1
  B  B26  1  0.08720400  0.59263000  0.82953500  1
  B  B27  1  0.59263000  0.50542600  0.32953500  1
  B  B28  1  0.49457400  0.08720400  0.32953500  1
  B  B29  1  0.91279600  0.40737000  0.32953500  1
  B  B30  1  0.03908800  0.74763200  0.92766500  1
  B  B31  1  0.25236800  0.29145600  0.92766500  1
  B  B32  1  0.70854400  0.96091200  0.92766500  1
  B  B33  1  0.96091200  0.25236800  0.42766500  1
  B  B34  1  0.74763200  0.70854400  0.42766500  1
  B  B35  1  0.29145600  0.03908800  0.42766500  1
  P  P36  1  0.80395300  0.61777400  0.03734600  1
  P  P37  1  0.38222600  0.18617900  0.03734600  1
  P  P38  1  0.81382100  0.19604700  0.03734600  1
  P  P39  1  0.19604700  0.38222600  0.53734600  1
  P  P40  1  0.61777400  0.81382100  0.53734600  1
  P  P41  1  0.18617900  0.80395300  0.53734600  1
  P  P42  1  0.18837900  0.80804200  0.11270500  1
  P  P43  1  0.19195800  0.38033800  0.11270500  1
  P  P44  1  0.61966200  0.81162100  0.11270500  1
  P  P45  1  0.81162100  0.19195800  0.61270600  1
  P  P46  1  0.80804200  0.61966200  0.61270600  1
  P  P47  1  0.38033800  0.18837900  0.61270600  1
  H  H48  1  0.33755400  0.83683900  0.90774800  1
  H  H49  1  0.16316100  0.50071500  0.90774800  1
  H  H50  1  0.49928500  0.66244600  0.90774800  1
  H  H51  1  0.66244600  0.16316100  0.40774800  1
  H  H52  1  0.83683900  0.49928500  0.40774800  1
  H  H53  1  0.50071500  0.33755400  0.40774800  1
  O  O54  1  0.83494000  0.71795300  0.13482900  1
  O  O55  1  0.28204700  0.11698600  0.13482900  1
  O  O56  1  0.88301400  0.16506000  0.13482900  1
  O  O57  1  0.16506000  0.28204700  0.63482900  1
  O  O58  1  0.71795300  0.88301400  0.63482900  1
  O  O59  1  0.11698600  0.83494000  0.63482900  1
  O  O60  1  0.66900800  0.57310700  0.99096400  1
  O  O61  1  0.42689300  0.09590100  0.99096400  1
  O  O62  1  0.90409900  0.33099200  0.99096400  1
  O  O63  1  0.33099200  0.42689300  0.49096400  1
  O  O64  1  0.57310700  0.90409900  0.49096400  1
  O  O65  1  0.09590100  0.66900800  0.49096400  1
  O  O66  1  0.89984000  0.70436400  0.94398600  1
  O  O67  1  0.29563600  0.19547600  0.94398600  1
  O  O68  1  0.80452400  0.10016000  0.94398600  1
  O  O69  1  0.10016000  0.29563600  0.44398600  1
  O  O70  1  0.70436400  0.80452400  0.44398600  1
  O  O71  1  0.19547600  0.89984000  0.44398600  1
  O  O72  1  0.20274400  0.90224600  0.20866100  1
  O  O73  1  0.09775400  0.30049800  0.20866100  1
  O  O74  1  0.69950200  0.79725600  0.20866100  1
  O  O75  1  0.79725600  0.09775400  0.70866100  1
  O  O76  1  0.90224600  0.69950200  0.70866100  1
  O  O77  1  0.30049800  0.20274400  0.70866100  1
  O  O78  1  0.83027900  0.51123100  0.07540000  1
  O  O79  1  0.48876900  0.31904800  0.07540000  1
  O  O80  1  0.68095200  0.16972100  0.07540000  1
  O  O81  1  0.16972100  0.48876900  0.57540000  1
  O  O82  1  0.51123100  0.68095200  0.57540000  1
  O  O83  1  0.31904800  0.83027900  0.57540000  1
  O  O84  1  0.10575100  0.67179000  0.16108000  1
  O  O85  1  0.32821000  0.43396100  0.16108000  1
  O  O86  1  0.56603900  0.89424900  0.16108000  1
  O  O87  1  0.89424900  0.32821000  0.66108000  1
  O  O88  1  0.67179000  0.56603900  0.66108000  1
  O  O89  1  0.43396100  0.10575100  0.66108000  1
  O  O90  1  0.32043800  0.83400700  0.06952400  1
  O  O91  1  0.16599300  0.48643100  0.06952400  1
  O  O92  1  0.51356900  0.67956200  0.06952400  1
  O  O93  1  0.67956200  0.16599300  0.56952400  1
  O  O94  1  0.83400700  0.51356900  0.56952400  1
  O  O95  1  0.48643100  0.32043800  0.56952400  1
  O  O96  1  0.62996400  0.56540600  0.22837500  1
  O  O97  1  0.43459400  0.06455700  0.22837500  1
  O  O98  1  0.93544300  0.37003600  0.22837500  1
  O  O99  1  0.37003600  0.43459400  0.72837500  1
  O  O100  1  0.56540600  0.93544300  0.72837500  1
  O  O101  1  0.06455700  0.62996400  0.72837500  1
  O  O102  1  0.08499000  0.81845800  0.82668900  1
  O  O103  1  0.18154200  0.26653200  0.82668900  1
  O  O104  1  0.73346800  0.91501000  0.82668900  1
  O  O105  1  0.91501000  0.18154200  0.32668900  1
  O  O106  1  0.81845800  0.73346800  0.32668900  1
  O  O107  1  0.26653200  0.08499000  0.32668900  1
  O  O108  1  0.36864800  0.42737500  0.92720400  1
  O  O109  1  0.57262500  0.94127200  0.92720400  1
  O  O110  1  0.05872800  0.63135200  0.92720400  1
  O  O111  1  0.63135200  0.57262500  0.42720400  1
  O  O112  1  0.42737500  0.05872800  0.42720400  1
  O  O113  1  0.94127200  0.36864800  0.42720400  1
  O  O114  1  0.37102700  0.85662700  0.83184800  1
  O  O115  1  0.14337300  0.51439900  0.83184800  1
  O  O116  1  0.48560100  0.62897300  0.83184800  1
  O  O117  1  0.62897300  0.14337300  0.33184800  1
  O  O118  1  0.85662700  0.48560100  0.33184800  1
  O  O119  1  0.51439900  0.37102700  0.33184800  1
  O  O120  1  0.11352500  0.83641200  0.01969400  1
  O  O121  1  0.16358800  0.27711300  0.01969400  1
  O  O122  1  0.72288700  0.88647500  0.01969400  1
  O  O123  1  0.88647500  0.16358800  0.51969400  1
  O  O124  1  0.83641200  0.72288700  0.51969400  1
  O  O125  1  0.27711300  0.11352500  0.51969400  1
  O  O126  1  0.33333300  0.66666700  0.36442900  1
  O  O127  1  0.66666700  0.33333300  0.86442900  1
  O  O128  1  0.00000000  0.00000000  0.28988300  1
  O  O129  1  0.00000000  0.00000000  0.78988300  1
