# generated using pymatgen
data_PrC2BrO7
_symmetry_space_group_name_H-M   'P 1'
_cell_length_a   16.58446400
_cell_length_b   6.06648400
_cell_length_c   8.99188975
_cell_angle_alpha   67.89002146
_cell_angle_beta   90.00000000
_cell_angle_gamma   90.00000000
_symmetry_Int_Tables_number   1
_chemical_formula_structural   PrC2BrO7
_chemical_formula_sum   'Pr4 C8 Br4 O28'
_cell_volume   838.14197979
_cell_formula_units_Z   4
loop_
 _symmetry_equiv_pos_site_id
 _symmetry_equiv_pos_as_xyz
  1  'x, y, z'
loop_
 _atom_site_type_symbol
 _atom_site_label
 _atom_site_symmetry_multiplicity
 _atom_site_fract_x
 _atom_site_fract_y
 _atom_site_fract_z
 _atom_site_occupancy
  Pr  Pr0  1  0.60785200  0.33925700  0.14746200  1
  Pr  Pr1  1  0.89214800  0.33925700  0.64746200  1
  Pr  Pr2  1  0.39214800  0.66074300  0.85253800  1
  Pr  Pr3  1  0.10785200  0.66074300  0.35253800  1
  C  C4  1  0.52998300  0.89843400  0.04492100  1
  C  C5  1  0.97001700  0.89843400  0.54492100  1
  C  C6  1  0.47001700  0.10156600  0.95507900  1
  C  C7  1  0.02998300  0.10156600  0.45507900  1
  C  C8  1  0.57431100  0.80093800  0.56583500  1
  C  C9  1  0.92568900  0.80093800  0.06583500  1
  C  C10  1  0.42568900  0.19906200  0.43416500  1
  C  C11  1  0.07431100  0.19906200  0.93416500  1
  Br  Br12  1  0.78620300  0.19189300  0.13043700  1
  Br  Br13  1  0.71379700  0.19189300  0.63043700  1
  Br  Br14  1  0.21379700  0.80810700  0.86956300  1
  Br  Br15  1  0.28620300  0.80810700  0.36956300  1
  O  O16  1  0.52112200  0.70517100  0.01973700  1
  O  O17  1  0.97887800  0.70517100  0.51973700  1
  O  O18  1  0.47887800  0.29482900  0.98026300  1
  O  O19  1  0.02112200  0.29482900  0.48026300  1
  O  O20  1  0.60667800  0.91524700  0.44629600  1
  O  O21  1  0.89332200  0.91524700  0.94629600  1
  O  O22  1  0.39332200  0.08475300  0.55370400  1
  O  O23  1  0.10667800  0.08475300  0.05370400  1
  O  O24  1  0.58166200  0.93452000  0.13460200  1
  O  O25  1  0.91833800  0.93452000  0.63460200  1
  O  O26  1  0.41833800  0.06548000  0.86539800  1
  O  O27  1  0.08166200  0.06548000  0.36539800  1
  O  O28  1  0.46179700  0.30722400  0.31618100  1
  O  O29  1  0.03820300  0.30722400  0.81618100  1
  O  O30  1  0.53820300  0.69277600  0.68381900  1
  O  O31  1  0.96179700  0.69277600  0.18381900  1
  O  O32  1  0.68313600  0.42288500  0.91649700  1
  O  O33  1  0.81686400  0.42288500  0.41649700  1
  O  O34  1  0.31686400  0.57711500  0.08350300  1
  O  O35  1  0.18313600  0.57711500  0.58350300  1
  O  O36  1  0.72493500  0.58378300  0.08895200  1
  O  O37  1  0.77506500  0.58378300  0.58895200  1
  O  O38  1  0.27506500  0.41621700  0.91104800  1
  O  O39  1  0.22493500  0.41621700  0.41104800  1
  O  O40  1  0.64825600  0.41286600  0.37602700  1
  O  O41  1  0.85174400  0.41286600  0.87602700  1
  O  O42  1  0.35174400  0.58713400  0.62397300  1
  O  O43  1  0.14825600  0.58713400  0.12397300  1
