# generated using pymatgen
data_UC4SNClO8
_symmetry_space_group_name_H-M   'P 1'
_cell_length_a   6.94298600
_cell_length_b   9.94615400
_cell_length_c   11.75513225
_cell_angle_alpha   72.14528175
_cell_angle_beta   90.00000000
_cell_angle_gamma   90.00000000
_symmetry_Int_Tables_number   1
_chemical_formula_structural   UC4SNClO8
_chemical_formula_sum   'U2 C8 S2 N2 Cl2 O16'
_cell_volume   772.66560156
_cell_formula_units_Z   2
loop_
 _symmetry_equiv_pos_site_id
 _symmetry_equiv_pos_as_xyz
  1  'x, y, z'
loop_
 _atom_site_type_symbol
 _atom_site_label
 _atom_site_symmetry_multiplicity
 _atom_site_fract_x
 _atom_site_fract_y
 _atom_site_fract_z
 _atom_site_occupancy
  U  U0  1  0.49889600  0.36475700  0.88815800  1
  U  U1  1  0.99889600  0.63524300  0.11184200  1
  C  C2  1  0.70164000  0.21644500  0.27789700  1
  C  C3  1  0.20164000  0.78355500  0.72210300  1
  C  C4  1  0.47860900  0.24985000  0.55233000  1
  C  C5  1  0.97860900  0.75015000  0.44767000  1
  C  C6  1  0.46864700  0.23679200  0.43505800  1
  C  C7  1  0.96864700  0.76320800  0.56494200  1
  C  C8  1  0.30414100  0.22965200  0.49729900  1
  C  C9  1  0.80414100  0.77034800  0.50270100  1
  S  S10  1  0.00131300  0.34148200  0.97766000  1
  S  S11  1  0.50131300  0.65851800  0.02234000  1
  N  N12  1  0.57794000  0.22998200  0.34409400  1
  N  N13  1  0.07794000  0.77001800  0.65590600  1
  Cl  Cl14  1  0.06731000  0.20798100  0.51430000  1
  Cl  Cl15  1  0.56731000  0.79201900  0.48570000  1
  O  O16  1  0.49434900  0.24877800  0.03849100  1
  O  O17  1  0.99434900  0.75122200  0.96150900  1
  O  O18  1  0.50043300  0.46148700  0.73205600  1
  O  O19  1  0.00043300  0.53851300  0.26794400  1
  O  O20  1  0.82738100  0.37978100  0.89647800  1
  O  O21  1  0.32738100  0.62021900  0.10352200  1
  O  O22  1  0.17068000  0.38483700  0.89289200  1
  O  O23  1  0.67068000  0.61516300  0.10710800  1
  O  O24  1  0.00642900  0.19573300  0.04723500  1
  O  O25  1  0.50642900  0.80426700  0.95276500  1
  O  O26  1  0.50101400  0.56148200  0.94597900  1
  O  O27  1  0.00101400  0.43851800  0.05402100  1
  O  O28  1  0.37790800  0.09489800  0.83284400  1
  O  O29  1  0.87790800  0.90510200  0.16715600  1
  O  O30  1  0.55211200  0.11407800  0.80988200  1
  O  O31  1  0.05211200  0.88592200  0.19011800  1
