# generated using pymatgen
data_Na3Te(PO7)2
_symmetry_space_group_name_H-M   'P 1'
_cell_length_a   8.16636118
_cell_length_b   8.16636118
_cell_length_c   10.85902500
_cell_angle_alpha   90.00000000
_cell_angle_beta   90.00000000
_cell_angle_gamma   119.99999335
_symmetry_Int_Tables_number   1
_chemical_formula_structural   Na3Te(PO7)2
_chemical_formula_sum   'Na6 Te2 P4 O28'
_cell_volume   627.16044765
_cell_formula_units_Z   2
loop_
 _symmetry_equiv_pos_site_id
 _symmetry_equiv_pos_as_xyz
  1  'x, y, z'
loop_
 _atom_site_type_symbol
 _atom_site_label
 _atom_site_symmetry_multiplicity
 _atom_site_fract_x
 _atom_site_fract_y
 _atom_site_fract_z
 _atom_site_occupancy
  Na  Na0  1  0.52569200  0.47430800  0.25000000  1
  Na  Na1  1  0.52569200  0.05138400  0.25000000  1
  Na  Na2  1  0.94861600  0.47430800  0.25000000  1
  Na  Na3  1  0.47430800  0.52569200  0.75000000  1
  Na  Na4  1  0.05138400  0.52569200  0.75000000  1
  Na  Na5  1  0.47430800  0.94861600  0.75000000  1
  Te  Te6  1  0.00000000  0.00000000  0.25000000  1
  Te  Te7  1  0.00000000  0.00000000  0.75000000  1
  P  P8  1  0.66666700  0.33333300  0.97910700  1
  P  P9  1  0.33333300  0.66666700  0.02089300  1
  P  P10  1  0.33333300  0.66666700  0.47910700  1
  P  P11  1  0.66666700  0.33333300  0.52089300  1
  O  O12  1  0.22225900  0.20408600  0.16909900  1
  O  O13  1  0.79591400  0.01817300  0.16909900  1
  O  O14  1  0.98182700  0.77774100  0.16909900  1
  O  O15  1  0.20408600  0.22225900  0.83090100  1
  O  O16  1  0.01817300  0.79591400  0.83090100  1
  O  O17  1  0.77774100  0.98182700  0.83090100  1
  O  O18  1  0.77774100  0.79591400  0.66909900  1
  O  O19  1  0.20408600  0.98182700  0.66909900  1
  O  O20  1  0.01817300  0.22225900  0.66909900  1
  O  O21  1  0.79591400  0.77774100  0.33090100  1
  O  O22  1  0.98182700  0.20408600  0.33090100  1
  O  O23  1  0.22225900  0.01817300  0.33090100  1
  O  O24  1  0.66666700  0.33333300  0.11859400  1
  O  O25  1  0.33333300  0.66666700  0.88140600  1
  O  O26  1  0.33333300  0.66666700  0.61859400  1
  O  O27  1  0.66666700  0.33333300  0.38140600  1
  O  O28  1  0.64282100  0.49524300  0.92148100  1
  O  O29  1  0.50475700  0.14757800  0.92148100  1
  O  O30  1  0.85242200  0.35717900  0.92148100  1
  O  O31  1  0.49524300  0.64282100  0.07851900  1
  O  O32  1  0.14757800  0.50475700  0.07851900  1
  O  O33  1  0.35717900  0.85242200  0.07851900  1
  O  O34  1  0.35717900  0.50475700  0.42148100  1
  O  O35  1  0.49524300  0.85242200  0.42148100  1
  O  O36  1  0.14757800  0.64282100  0.42148100  1
  O  O37  1  0.50475700  0.35717900  0.57851900  1
  O  O38  1  0.85242200  0.49524300  0.57851900  1
  O  O39  1  0.64282100  0.14757800  0.57851900  1
