# generated using pymatgen
data_MgI3
_symmetry_space_group_name_H-M   'P 1'
_cell_length_a   11.76601600
_cell_length_b   11.76601521
_cell_length_c   3.45922000
_cell_angle_alpha   90.00000000
_cell_angle_beta   90.00000000
_cell_angle_gamma   119.99999097
_symmetry_Int_Tables_number   1
_chemical_formula_structural   MgI3
_chemical_formula_sum   'Mg2 I6'
_cell_volume   414.73214176
_cell_formula_units_Z   2
loop_
 _symmetry_equiv_pos_site_id
 _symmetry_equiv_pos_as_xyz
  1  'x, y, z'
loop_
 _atom_site_type_symbol
 _atom_site_label
 _atom_site_symmetry_multiplicity
 _atom_site_fract_x
 _atom_site_fract_y
 _atom_site_fract_z
 _atom_site_occupancy
  Mg  Mg0  1  0.66666700  0.33333300  0.24999900  1
  Mg  Mg1  1  0.33333300  0.66666700  0.75000000  1
  I  I2  1  0.21664300  0.43328800  0.24999900  1
  I  I3  1  0.21664400  0.78335600  0.24999900  1
  I  I4  1  0.56671100  0.78335600  0.24999900  1
  I  I5  1  0.43328900  0.21664300  0.75000000  1
  I  I6  1  0.78335600  0.21664300  0.75000000  1
  I  I7  1  0.78335700  0.56671200  0.75000000  1
