# generated using pymatgen
data_Ba3Fe2P4(O6F5)2
_symmetry_space_group_name_H-M   'P 1'
_cell_length_a   7.44975157
_cell_length_b   7.44975157
_cell_length_c   30.63134275
_cell_angle_alpha   87.98491163
_cell_angle_beta   87.98491163
_cell_angle_gamma   38.47324162
_symmetry_Int_Tables_number   1
_chemical_formula_structural   Ba3Fe2P4(O6F5)2
_chemical_formula_sum   'Ba6 Fe4 P8 O24 F20'
_cell_volume   1056.92139377
_cell_formula_units_Z   2
loop_
 _symmetry_equiv_pos_site_id
 _symmetry_equiv_pos_as_xyz
  1  'x, y, z'
loop_
 _atom_site_type_symbol
 _atom_site_label
 _atom_site_symmetry_multiplicity
 _atom_site_fract_x
 _atom_site_fract_y
 _atom_site_fract_z
 _atom_site_occupancy
  Ba  Ba0  1  0.58330000  0.41670000  0.25000000  1
  Ba  Ba1  1  0.41670000  0.58330000  0.75000000  1
  Ba  Ba2  1  0.70724800  0.51867700  0.39247300  1
  Ba  Ba3  1  0.48132300  0.29275200  0.10752700  1
  Ba  Ba4  1  0.29275200  0.48132300  0.60752700  1
  Ba  Ba5  1  0.51867700  0.70724800  0.89247300  1
  Fe  Fe6  1  0.54460100  0.13010500  0.37667400  1
  Fe  Fe7  1  0.86989500  0.45539900  0.12332600  1
  Fe  Fe8  1  0.45539900  0.86989500  0.62332600  1
  Fe  Fe9  1  0.13010500  0.54460100  0.87667400  1
  P  P10  1  0.08467900  0.69251600  0.44728000  1
  P  P11  1  0.30748400  0.91532100  0.05272000  1
  P  P12  1  0.91532100  0.30748400  0.55272000  1
  P  P13  1  0.69251600  0.08467900  0.94728000  1
  P  P14  1  0.01407800  0.61286800  0.30757600  1
  P  P15  1  0.38713200  0.98592200  0.19242400  1
  P  P16  1  0.98592200  0.38713200  0.69242400  1
  P  P17  1  0.61286800  0.01407800  0.80757600  1
  O  O18  1  0.97003900  0.79512000  0.27420300  1
  O  O19  1  0.20488000  0.02996100  0.22579700  1
  O  O20  1  0.02996100  0.20488000  0.72579700  1
  O  O21  1  0.79512000  0.97003900  0.77420300  1
  O  O22  1  0.80102700  0.76049700  0.34697700  1
  O  O23  1  0.23950300  0.19897300  0.15302300  1
  O  O24  1  0.19897300  0.23950300  0.65302300  1
  O  O25  1  0.76049700  0.80102700  0.84697700  1
  O  O26  1  0.32839500  0.35695000  0.32398700  1
  O  O27  1  0.64305000  0.67160500  0.17601300  1
  O  O28  1  0.67160500  0.64305000  0.67601300  1
  O  O29  1  0.35695000  0.32839500  0.82398700  1
  O  O30  1  0.43470800  0.68988200  0.32408100  1
  O  O31  1  0.31011800  0.56529200  0.17591900  1
  O  O32  1  0.56529200  0.31011800  0.67591900  1
  O  O33  1  0.68988200  0.43470800  0.82408100  1
  O  O34  1  0.79592400  0.84632700  0.43636500  1
  O  O35  1  0.15367300  0.20407600  0.06363500  1
  O  O36  1  0.20407600  0.15367300  0.56363500  1
  O  O37  1  0.84632700  0.79592400  0.93636500  1
  O  O38  1  0.34680900  0.46782100  0.41875200  1
  O  O39  1  0.53217900  0.65319100  0.08124800  1
  O  O40  1  0.65319100  0.53217900  0.58124800  1
  O  O41  1  0.46782100  0.34680900  0.91875200  1
  F  F42  1  0.29369100  0.13032500  0.39891400  1
  F  F43  1  0.86967500  0.70630900  0.10108600  1
  F  F44  1  0.70630900  0.86967500  0.60108600  1
  F  F45  1  0.13032500  0.29369100  0.89891400  1
  F  F46  1  0.06823500  0.91322100  0.45674200  1
  F  F47  1  0.08677900  0.93176500  0.04325800  1
  F  F48  1  0.93176500  0.08677900  0.54325800  1
  F  F49  1  0.91322100  0.06823500  0.95674200  1
  F  F50  1  0.96540400  0.46168500  0.28605500  1
  F  F51  1  0.53831500  0.03459600  0.21394500  1
  F  F52  1  0.03459600  0.53831500  0.71394500  1
  F  F53  1  0.46168500  0.96540400  0.78605500  1
  F  F54  1  0.16269500  0.56139400  0.49504500  1
  F  F55  1  0.43860600  0.83730500  0.00495500  1
  F  F56  1  0.83730500  0.43860600  0.50495500  1
  F  F57  1  0.56139400  0.16269500  0.99504500  1
  F  F58  1  0.82168400  0.10226400  0.37103700  1
  F  F59  1  0.89773600  0.17831600  0.12896300  1
  F  F60  1  0.17831600  0.89773600  0.62896300  1
  F  F61  1  0.10226400  0.82168400  0.87103700  1
