# generated using pymatgen
data_Mo2P2NO11
_symmetry_space_group_name_H-M   'P 1'
_cell_length_a   9.77550100
_cell_length_b   9.90803400
_cell_length_c   12.60809571
_cell_angle_alpha   51.07067111
_cell_angle_beta   90.00000000
_cell_angle_gamma   90.00000000
_symmetry_Int_Tables_number   1
_chemical_formula_structural   Mo2P2NO11
_chemical_formula_sum   'Mo8 P8 N4 O44'
_cell_volume   949.97426563
_cell_formula_units_Z   4
loop_
 _symmetry_equiv_pos_site_id
 _symmetry_equiv_pos_as_xyz
  1  'x, y, z'
loop_
 _atom_site_type_symbol
 _atom_site_label
 _atom_site_symmetry_multiplicity
 _atom_site_fract_x
 _atom_site_fract_y
 _atom_site_fract_z
 _atom_site_occupancy
  Mo  Mo0  1  0.53774200  0.52121300  0.59279700  1
  Mo  Mo1  1  0.96225800  0.52121300  0.09279700  1
  Mo  Mo2  1  0.46225800  0.47878700  0.40720300  1
  Mo  Mo3  1  0.03774200  0.47878700  0.90720300  1
  Mo  Mo4  1  0.69477000  0.24903500  0.07904400  1
  Mo  Mo5  1  0.80523000  0.24903500  0.57904400  1
  Mo  Mo6  1  0.30523000  0.75096500  0.92095600  1
  Mo  Mo7  1  0.19477000  0.75096500  0.42095600  1
  P  P8  1  0.68888700  0.34131600  0.29454000  1
  P  P9  1  0.81111300  0.34131600  0.79454000  1
  P  P10  1  0.31111300  0.65868400  0.70546000  1
  P  P11  1  0.18888700  0.65868400  0.20546000  1
  P  P12  1  0.51423500  0.86553300  0.29072300  1
  P  P13  1  0.98576500  0.86553300  0.79072300  1
  P  P14  1  0.48576500  0.13446700  0.70927700  1
  P  P15  1  0.01423500  0.13446700  0.20927700  1
  N  N16  1  0.82236400  0.86722800  0.51605200  1
  N  N17  1  0.67763600  0.86722800  0.01605200  1
  N  N18  1  0.17763600  0.13277200  0.48394800  1
  N  N19  1  0.32236400  0.13277200  0.98394800  1
  O  O20  1  0.00931100  0.27532700  0.23126800  1
  O  O21  1  0.49068900  0.27532700  0.73126800  1
  O  O22  1  0.99068900  0.72467300  0.76873200  1
  O  O23  1  0.50931100  0.72467300  0.26873200  1
  O  O24  1  0.55456800  0.42629000  0.29578600  1
  O  O25  1  0.94543200  0.42629000  0.79578600  1
  O  O26  1  0.44543200  0.57371000  0.70421400  1
  O  O27  1  0.05456800  0.57371000  0.20421400  1
  O  O28  1  0.12785300  0.91780500  0.79946000  1
  O  O29  1  0.37214700  0.91780500  0.29946000  1
  O  O30  1  0.87214700  0.08219500  0.20054000  1
  O  O31  1  0.62785300  0.08219500  0.70054000  1
  O  O32  1  0.64410500  0.43472100  0.50487400  1
  O  O33  1  0.85589500  0.43472100  0.00487400  1
  O  O34  1  0.35589500  0.56527900  0.49512600  1
  O  O35  1  0.14410500  0.56527900  0.99512600  1
  O  O36  1  0.79188600  0.49154400  0.19472000  1
  O  O37  1  0.70811400  0.49154400  0.69472000  1
  O  O38  1  0.20811400  0.50845600  0.80528000  1
  O  O39  1  0.29188600  0.50845600  0.30528000  1
  O  O40  1  0.60495900  0.01173500  0.18079200  1
  O  O41  1  0.89504100  0.01173500  0.68079200  1
  O  O42  1  0.39504100  0.98826500  0.81920800  1
  O  O43  1  0.10495900  0.98826500  0.31920800  1
  O  O44  1  0.15769300  0.76407800  0.25345100  1
  O  O45  1  0.34230700  0.76407800  0.75345100  1
  O  O46  1  0.84230700  0.23592200  0.74654900  1
  O  O47  1  0.65769300  0.23592200  0.24654900  1
  O  O48  1  0.43482800  0.61137200  0.01572600  1
  O  O49  1  0.06517200  0.61137200  0.51572600  1
  O  O50  1  0.56517200  0.38862800  0.98427400  1
  O  O51  1  0.93482800  0.38862800  0.48427400  1
  O  O52  1  0.74820600  0.21854200  0.43923400  1
  O  O53  1  0.75179400  0.21854200  0.93923400  1
  O  O54  1  0.25179400  0.78145800  0.56076600  1
  O  O55  1  0.24820600  0.78145800  0.06076600  1
  O  O56  1  0.08391700  0.24206400  0.06207100  1
  O  O57  1  0.41608300  0.24206400  0.56207100  1
  O  O58  1  0.91608300  0.75793600  0.93792900  1
  O  O59  1  0.58391700  0.75793600  0.43792900  1
  O  O60  1  0.66208200  0.75339600  0.75985400  1
  O  O61  1  0.83791800  0.75339600  0.25985400  1
  O  O62  1  0.33791800  0.24660400  0.24014600  1
  O  O63  1  0.16208200  0.24660400  0.74014600  1
