# generated using pymatgen
data_IrRhBr6N5Cl
_symmetry_space_group_name_H-M   'P 1'
_cell_length_a   7.56484800
_cell_length_b   11.86030300
_cell_length_c   17.54885635
_cell_angle_alpha   72.54842703
_cell_angle_beta   90.00000000
_cell_angle_gamma   90.00000000
_symmetry_Int_Tables_number   1
_chemical_formula_structural   IrRhBr6N5Cl
_chemical_formula_sum   'Ir4 Rh4 Br24 N20 Cl4'
_cell_volume   1502.03439368
_cell_formula_units_Z   4
loop_
 _symmetry_equiv_pos_site_id
 _symmetry_equiv_pos_as_xyz
  1  'x, y, z'
loop_
 _atom_site_type_symbol
 _atom_site_label
 _atom_site_symmetry_multiplicity
 _atom_site_fract_x
 _atom_site_fract_y
 _atom_site_fract_z
 _atom_site_occupancy
  Ir  Ir0  1  0.25000000  0.74429800  0.16297700  1
  Ir  Ir1  1  0.75000000  0.25570200  0.83702300  1
  Ir  Ir2  1  0.25000000  0.78973500  0.66487200  1
  Ir  Ir3  1  0.75000000  0.21026500  0.33512800  1
  Rh  Rh4  1  0.25000000  0.32361200  0.15580200  1
  Rh  Rh5  1  0.75000000  0.67638800  0.84419800  1
  Rh  Rh6  1  0.25000000  0.23963900  0.62151000  1
  Rh  Rh7  1  0.75000000  0.76036100  0.37849000  1
  Br  Br8  1  0.25000000  0.90034600  0.23036300  1
  Br  Br9  1  0.75000000  0.09965400  0.76963700  1
  Br  Br10  1  0.56104600  0.79029800  0.13135300  1
  Br  Br11  1  0.06104600  0.20970200  0.86864700  1
  Br  Br12  1  0.43895400  0.20970200  0.86864700  1
  Br  Br13  1  0.93895400  0.79029800  0.13135300  1
  Br  Br14  1  0.25000000  0.59483200  0.29520000  1
  Br  Br15  1  0.75000000  0.40516800  0.70480000  1
  Br  Br16  1  0.25000000  0.89519600  0.02304300  1
  Br  Br17  1  0.75000000  0.10480400  0.97695700  1
  Br  Br18  1  0.25000000  0.58332800  0.09337800  1
  Br  Br19  1  0.75000000  0.41667200  0.90662200  1
  Br  Br20  1  0.25000000  0.79848300  0.52019300  1
  Br  Br21  1  0.75000000  0.20151700  0.47980700  1
  Br  Br22  1  0.47881600  0.63667900  0.68657600  1
  Br  Br23  1  0.97881600  0.36332100  0.31342400  1
  Br  Br24  1  0.52118400  0.36332100  0.31342400  1
  Br  Br25  1  0.02118400  0.63667900  0.68657600  1
  Br  Br26  1  0.04510900  0.96666500  0.62883400  1
  Br  Br27  1  0.54510900  0.03333500  0.37116600  1
  Br  Br28  1  0.95489100  0.03333500  0.37116600  1
  Br  Br29  1  0.45489100  0.96666500  0.62883400  1
  Br  Br30  1  0.25000000  0.77885100  0.81245200  1
  Br  Br31  1  0.75000000  0.22114900  0.18754800  1
  N  N32  1  0.25000000  0.26846700  0.25917600  1
  N  N33  1  0.75000000  0.73153300  0.74082400  1
  N  N34  1  0.42377100  0.46457000  0.13633200  1
  N  N35  1  0.92377100  0.53543000  0.86366800  1
  N  N36  1  0.57622900  0.53543000  0.86366800  1
  N  N37  1  0.07622900  0.46457000  0.13633200  1
  N  N38  1  0.45257300  0.21820300  0.14084500  1
  N  N39  1  0.95257300  0.78179700  0.85915500  1
  N  N40  1  0.54742700  0.78179700  0.85915500  1
  N  N41  1  0.04742700  0.21820300  0.14084500  1
  N  N42  1  0.25000000  0.06012100  0.64759500  1
  N  N43  1  0.75000000  0.93987900  0.35240500  1
  N  N44  1  0.05562000  0.26734200  0.66530100  1
  N  N45  1  0.55562000  0.73265800  0.33469900  1
  N  N46  1  0.94438000  0.73265800  0.33469900  1
  N  N47  1  0.44438000  0.26734200  0.66530100  1
  N  N48  1  0.25000000  0.29254800  0.80116500  1
  N  N49  1  0.75000000  0.70745200  0.19883500  1
  N  N50  1  0.25000000  0.34473400  0.51097100  1
  N  N51  1  0.75000000  0.65526600  0.48902900  1
  Cl  Cl52  1  0.25000000  0.35917200  0.00600600  1
  Cl  Cl53  1  0.75000000  0.64082800  0.99399400  1
  Cl  Cl54  1  0.25000000  0.48820400  0.49627300  1
  Cl  Cl55  1  0.75000000  0.51179600  0.50372700  1
