# generated using pymatgen
data_Mn4Se4O15
_symmetry_space_group_name_H-M   'P 1'
_cell_length_a   8.43167300
_cell_length_b   9.25752688
_cell_length_c   9.54195783
_cell_angle_alpha   117.21642940
_cell_angle_beta   90.00000000
_cell_angle_gamma   90.00000000
_symmetry_Int_Tables_number   1
_chemical_formula_structural   Mn4Se4O15
_chemical_formula_sum   'Mn8 Se8 O30'
_cell_volume   662.34967331
_cell_formula_units_Z   2
loop_
 _symmetry_equiv_pos_site_id
 _symmetry_equiv_pos_as_xyz
  1  'x, y, z'
loop_
 _atom_site_type_symbol
 _atom_site_label
 _atom_site_symmetry_multiplicity
 _atom_site_fract_x
 _atom_site_fract_y
 _atom_site_fract_z
 _atom_site_occupancy
  Mn  Mn0  1  0.97379600  0.31866900  0.01343400  1
  Mn  Mn1  1  0.47379600  0.68133100  0.98656600  1
  Mn  Mn2  1  0.36963900  0.33467600  0.01638700  1
  Mn  Mn3  1  0.86963900  0.66532400  0.98361300  1
  Mn  Mn4  1  0.97052400  0.04663600  0.33631900  1
  Mn  Mn5  1  0.47052400  0.95336400  0.66368100  1
  Mn  Mn6  1  0.37564500  0.04397900  0.35766900  1
  Mn  Mn7  1  0.87564500  0.95602100  0.64233100  1
  Se  Se8  1  0.17785500  0.25144200  0.67309700  1
  Se  Se9  1  0.67785500  0.74855800  0.32690300  1
  Se  Se10  1  0.18006200  0.38023100  0.35817900  1
  Se  Se11  1  0.68006200  0.61976900  0.64182100  1
  Se  Se12  1  0.66620900  0.31618400  0.74996900  1
  Se  Se13  1  0.16620900  0.68381600  0.25003100  1
  Se  Se14  1  0.79626900  0.04362600  0.02216700  1
  Se  Se15  1  0.29626900  0.95637400  0.97783300  1
  O  O16  1  0.17650600  0.27870900  0.86598300  1
  O  O17  1  0.67650600  0.72129100  0.13401700  1
  O  O18  1  0.18431600  0.32168000  0.14950800  1
  O  O19  1  0.68431600  0.67832000  0.85049200  1
  O  O20  1  0.84016300  0.24139000  0.15269000  1
  O  O21  1  0.34016300  0.75861000  0.84731000  1
  O  O22  1  0.92560200  0.04647800  0.87724900  1
  O  O23  1  0.42560200  0.95352200  0.12275100  1
  O  O24  1  0.80595400  0.39720700  0.89855300  1
  O  O25  1  0.30595400  0.60279300  0.10144700  1
  O  O26  1  0.49002800  0.39258300  0.85615900  1
  O  O27  1  0.99002800  0.60741700  0.14384100  1
  O  O28  1  0.91053900  0.93358100  0.09743700  1
  O  O29  1  0.41053900  0.06641900  0.90256300  1
  O  O30  1  0.17635700  0.18288400  0.35053800  1
  O  O31  1  0.67635700  0.81711600  0.64946200  1
  O  O32  1  0.31816800  0.09383600  0.58972700  1
  O  O33  1  0.81816800  0.90616400  0.41027300  1
  O  O34  1  0.16285100  0.88600300  0.28202200  1
  O  O35  1  0.66285100  0.11399700  0.71797800  1
  O  O36  1  0.00214200  0.14488600  0.60565100  1
  O  O37  1  0.50214200  0.85511400  0.39434900  1
  O  O38  1  0.36631700  0.43907200  0.40963900  1
  O  O39  1  0.86631700  0.56092800  0.59036100  1
  O  O40  1  0.52139600  0.37964900  0.15309500  1
  O  O41  1  0.02139600  0.62035100  0.84690500  1
  O  O42  1  0.83996400  0.20868900  0.38007700  1
  O  O43  1  0.33996400  0.79131100  0.61992300  1
  O  O44  1  0.52049800  0.19551200  0.42003900  1
  O  O45  1  0.02049800  0.80448800  0.57996100  1
