# generated using pymatgen
data_MgPt5
_symmetry_space_group_name_H-M   'P 1'
_cell_length_a   7.34178923
_cell_length_b   7.34178923
_cell_length_c   4.67021500
_cell_angle_alpha   90.00000000
_cell_angle_beta   90.00000000
_cell_angle_gamma   157.93417606
_symmetry_Int_Tables_number   1
_chemical_formula_structural   MgPt5
_chemical_formula_sum   'Mg1 Pt5'
_cell_volume   94.56904215
_cell_formula_units_Z   1
loop_
 _symmetry_equiv_pos_site_id
 _symmetry_equiv_pos_as_xyz
  1  'x, y, z'
loop_
 _atom_site_type_symbol
 _atom_site_label
 _atom_site_symmetry_multiplicity
 _atom_site_fract_x
 _atom_site_fract_y
 _atom_site_fract_z
 _atom_site_occupancy
  Mg  Mg0  1  0.78426200  0.21573800  0.50000000  1
  Pt  Pt1  1  0.99120200  0.00879800  0.00000000  1
  Pt  Pt2  1  0.32656200  0.67343800  0.00000000  1
  Pt  Pt3  1  0.65914500  0.34085500  0.00000000  1
  Pt  Pt4  1  0.44815800  0.55184200  0.50000000  1
  Pt  Pt5  1  0.12391100  0.87608900  0.50000000  1
