# generated using pymatgen
data_LaMoI4O15
_symmetry_space_group_name_H-M   'P 1'
_cell_length_a   14.38034100
_cell_length_b   7.14393400
_cell_length_c   7.24361112
_cell_angle_alpha   65.04590997
_cell_angle_beta   90.00000000
_cell_angle_gamma   90.00000000
_symmetry_Int_Tables_number   1
_chemical_formula_structural   LaMoI4O15
_chemical_formula_sum   'La2 Mo2 I8 O30'
_cell_volume   674.68267440
_cell_formula_units_Z   2
loop_
 _symmetry_equiv_pos_site_id
 _symmetry_equiv_pos_as_xyz
  1  'x, y, z'
loop_
 _atom_site_type_symbol
 _atom_site_label
 _atom_site_symmetry_multiplicity
 _atom_site_fract_x
 _atom_site_fract_y
 _atom_site_fract_z
 _atom_site_occupancy
  La  La0  1  0.37436300  0.92756800  0.91323200  1
  La  La1  1  0.87436300  0.07243200  0.08676800  1
  Mo  Mo2  1  0.03712300  0.59262900  0.70553100  1
  Mo  Mo3  1  0.53712300  0.40737100  0.29446900  1
  I  I4  1  0.12518600  0.76436900  0.18842100  1
  I  I5  1  0.62518600  0.23563100  0.81157900  1
  I  I6  1  0.50254800  0.84365800  0.45227900  1
  I  I7  1  0.00254800  0.15634200  0.54772100  1
  I  I8  1  0.27729500  0.52726600  0.73374700  1
  I  I9  1  0.77729500  0.47273400  0.26625300  1
  I  I10  1  0.27917100  0.24371200  0.34975100  1
  I  I11  1  0.77917100  0.75628800  0.65024900  1
  O  O12  1  0.13082900  0.76513700  0.44675200  1
  O  O13  1  0.63082900  0.23486300  0.55324800  1
  O  O14  1  0.22477800  0.93118100  0.08112600  1
  O  O15  1  0.72477800  0.06881900  0.91887400  1
  O  O16  1  0.03255900  0.95439500  0.09022800  1
  O  O17  1  0.53255900  0.04560500  0.90977200  1
  O  O18  1  0.52729000  0.57311800  0.49544400  1
  O  O19  1  0.02729000  0.42688200  0.50455600  1
  O  O20  1  0.40530700  0.90484100  0.27367100  1
  O  O21  1  0.90530700  0.09515900  0.72632900  1
  O  O22  1  0.43602600  0.76531700  0.68712500  1
  O  O23  1  0.93602600  0.23468300  0.31287500  1
  O  O24  1  0.15959400  0.40788700  0.79112500  1
  O  O25  1  0.65959400  0.59211300  0.20887500  1
  O  O26  1  0.34540100  0.29240400  0.85009900  1
  O  O27  1  0.84540100  0.70759600  0.14990100  1
  O  O28  1  0.28303400  0.60478500  0.94589400  1
  O  O29  1  0.78303400  0.39521500  0.05410600  1
  O  O30  1  0.27087100  0.47875800  0.39475000  1
  O  O31  1  0.77087100  0.52124200  0.60525000  1
  O  O32  1  0.15596200  0.25316300  0.27297000  1
  O  O33  1  0.65596200  0.74683700  0.72703000  1
  O  O34  1  0.26987600  0.03868700  0.60707300  1
  O  O35  1  0.76987600  0.96131300  0.39292700  1
  O  O36  1  0.94403800  0.77137200  0.54766900  1
  O  O37  1  0.44403800  0.22862800  0.45233100  1
  O  O38  1  0.96795800  0.39698000  0.88627200  1
  O  O39  1  0.46795800  0.60302000  0.11372800  1
  O  O40  1  0.07809000  0.74234900  0.83007400  1
  O  O41  1  0.57809000  0.25765100  0.16992600  1
