# generated using pymatgen
data_V2Co2Se2O11
_symmetry_space_group_name_H-M   'P 1'
_cell_length_a   9.01918300
_cell_length_b   4.89101000
_cell_length_c   10.72991957
_cell_angle_alpha   78.84313622
_cell_angle_beta   90.00000000
_cell_angle_gamma   90.00000000
_symmetry_Int_Tables_number   1
_chemical_formula_structural   V2Co2Se2O11
_chemical_formula_sum   'V4 Co4 Se4 O22'
_cell_volume   464.38264761
_cell_formula_units_Z   2
loop_
 _symmetry_equiv_pos_site_id
 _symmetry_equiv_pos_as_xyz
  1  'x, y, z'
loop_
 _atom_site_type_symbol
 _atom_site_label
 _atom_site_symmetry_multiplicity
 _atom_site_fract_x
 _atom_site_fract_y
 _atom_site_fract_z
 _atom_site_occupancy
  V  V0  1  0.06136700  0.46712100  0.84991000  1
  V  V1  1  0.56136700  0.53287900  0.15009000  1
  V  V2  1  0.93863300  0.53287900  0.15009000  1
  V  V3  1  0.43863300  0.46712100  0.84991000  1
  Co  Co4  1  0.92813600  0.04229800  0.63265100  1
  Co  Co5  1  0.42813600  0.95770200  0.36734900  1
  Co  Co6  1  0.07186400  0.95770200  0.36734900  1
  Co  Co7  1  0.57186400  0.04229800  0.63265100  1
  Se  Se8  1  0.75000000  0.61376700  0.45319400  1
  Se  Se9  1  0.25000000  0.38623300  0.54680600  1
  Se  Se10  1  0.75000000  0.85842400  0.89873300  1
  Se  Se11  1  0.25000000  0.14157600  0.10126700  1
  O  O12  1  0.75000000  0.30755600  0.56839400  1
  O  O13  1  0.25000000  0.69244400  0.43160600  1
  O  O14  1  0.95965600  0.23820400  0.78742300  1
  O  O15  1  0.45965600  0.76179600  0.21257700  1
  O  O16  1  0.04034400  0.76179600  0.21257700  1
  O  O17  1  0.54034400  0.23820400  0.78742300  1
  O  O18  1  0.90032100  0.62340200  0.95303400  1
  O  O19  1  0.40032100  0.37659800  0.04696600  1
  O  O20  1  0.09967900  0.37659800  0.04696600  1
  O  O21  1  0.59967900  0.62340200  0.95303400  1
  O  O22  1  0.59777900  0.79222100  0.49820800  1
  O  O23  1  0.09777900  0.20777900  0.50179200  1
  O  O24  1  0.40222100  0.20777900  0.50179200  1
  O  O25  1  0.90222100  0.79222100  0.49820800  1
  O  O26  1  0.75000000  0.82936700  0.74432500  1
  O  O27  1  0.25000000  0.17063300  0.25567500  1
  O  O28  1  0.07562700  0.75829800  0.73975600  1
  O  O29  1  0.57562700  0.24170200  0.26024400  1
  O  O30  1  0.92437300  0.24170200  0.26024400  1
  O  O31  1  0.42437300  0.75829800  0.73975600  1
  O  O32  1  0.25000000  0.32188000  0.85036200  1
  O  O33  1  0.75000000  0.67812000  0.14963800  1
