# generated using pymatgen
data_Sb2C9(NCl3)3
_symmetry_space_group_name_H-M   'P 1'
_cell_length_a   8.89229300
_cell_length_b   11.24710000
_cell_length_c   14.90216561
_cell_angle_alpha   87.51218930
_cell_angle_beta   90.00000000
_cell_angle_gamma   90.00000000
_symmetry_Int_Tables_number   1
_chemical_formula_structural   Sb2C9(NCl3)3
_chemical_formula_sum   'Sb4 C18 N6 Cl18'
_cell_volume   1488.99822954
_cell_formula_units_Z   2
loop_
 _symmetry_equiv_pos_site_id
 _symmetry_equiv_pos_as_xyz
  1  'x, y, z'
loop_
 _atom_site_type_symbol
 _atom_site_label
 _atom_site_symmetry_multiplicity
 _atom_site_fract_x
 _atom_site_fract_y
 _atom_site_fract_z
 _atom_site_occupancy
  Sb  Sb0  1  0.78763300  0.97334800  0.50184500  1
  Sb  Sb1  1  0.21236700  0.97334800  0.00184500  1
  Sb  Sb2  1  0.67049800  0.29208300  0.16587700  1
  Sb  Sb3  1  0.32950200  0.29208300  0.66587700  1
  C  C4  1  0.83786500  0.48217100  0.46711700  1
  C  C5  1  0.16213500  0.48217100  0.96711700  1
  C  C6  1  0.87055200  0.47579000  0.38820400  1
  C  C7  1  0.12944800  0.47579000  0.88820400  1
  C  C8  1  0.79964200  0.50778000  0.63083900  1
  C  C9  1  0.20035800  0.50778000  0.13083900  1
  C  C10  1  0.59407200  0.02376000  0.92241100  1
  C  C11  1  0.40592800  0.02376000  0.42241100  1
  C  C12  1  0.67216500  0.07645700  0.86457400  1
  C  C13  1  0.32783500  0.07645700  0.36457400  1
  C  C14  1  0.83864800  0.21156800  0.77150300  1
  C  C15  1  0.16135200  0.21156800  0.27150300  1
  C  C16  1  0.65996100  0.79540100  0.19398700  1
  C  C17  1  0.34003900  0.79540100  0.69398700  1
  C  C18  1  0.78010500  0.81687600  0.12162000  1
  C  C19  1  0.21989500  0.81687600  0.62162000  1
  C  C20  1  0.58567800  0.72224400  0.25011700  1
  C  C21  1  0.41432200  0.72224400  0.75011700  1
  N  N22  1  0.81270800  0.49344900  0.55238300  1
  N  N23  1  0.18729200  0.49344900  0.05238300  1
  N  N24  1  0.76021200  0.14713300  0.81677400  1
  N  N25  1  0.23978800  0.14713300  0.31677400  1
  N  N26  1  0.70878300  0.90417300  0.15525200  1
  N  N27  1  0.29121700  0.90417300  0.65525200  1
  Cl  Cl28  1  0.97375900  0.87801200  0.41855700  1
  Cl  Cl29  1  0.02624100  0.87801200  0.91855700  1
  Cl  Cl30  1  0.81748300  0.86352500  0.63875900  1
  Cl  Cl31  1  0.18251700  0.86352500  0.13875900  1
  Cl  Cl32  1  0.57860800  0.85665700  0.44554700  1
  Cl  Cl33  1  0.42139200  0.85665700  0.94554700  1
  Cl  Cl34  1  0.92967100  0.47337500  0.28590700  1
  Cl  Cl35  1  0.07032900  0.47337500  0.78590700  1
  Cl  Cl36  1  0.52822700  0.41171100  0.25954700  1
  Cl  Cl37  1  0.47177300  0.41171100  0.75954700  1
  Cl  Cl38  1  0.69631400  0.45834200  0.06496700  1
  Cl  Cl39  1  0.30368600  0.45834200  0.56496700  1
  Cl  Cl40  1  0.52407800  0.18451700  0.60446600  1
  Cl  Cl41  1  0.47592200  0.18451700  0.10446600  1
  Cl  Cl42  1  0.87661300  0.20667200  0.09050900  1
  Cl  Cl43  1  0.12338700  0.20667200  0.59050900  1
  Cl  Cl44  1  0.74063900  0.17325700  0.29463800  1
  Cl  Cl45  1  0.25936100  0.17325700  0.79463800  1
