# generated using pymatgen
data_H3CSe
_symmetry_space_group_name_H-M   'P 1'
_cell_length_a   5.68439600
_cell_length_b   10.06453165
_cell_length_c   12.44799344
_cell_angle_alpha   86.30308249
_cell_angle_beta   76.80147567
_cell_angle_gamma   73.59665617
_symmetry_Int_Tables_number   1
_chemical_formula_structural   H3CSe
_chemical_formula_sum   'H24 C8 Se8'
_cell_volume   665.12662636
_cell_formula_units_Z   8
loop_
 _symmetry_equiv_pos_site_id
 _symmetry_equiv_pos_as_xyz
  1  'x, y, z'
loop_
 _atom_site_type_symbol
 _atom_site_label
 _atom_site_symmetry_multiplicity
 _atom_site_fract_x
 _atom_site_fract_y
 _atom_site_fract_z
 _atom_site_occupancy
  H  H0  1  0.95756200  0.99557100  0.24065600  1
  H  H1  1  0.19378900  0.00442900  0.75934400  1
  H  H2  1  0.44821800  0.49557100  0.25934400  1
  H  H3  1  0.20313300  0.50442900  0.74065600  1
  H  H4  1  0.66735400  0.11914400  0.22286500  1
  H  H5  1  0.00936300  0.88085600  0.77713500  1
  H  H6  1  0.14021900  0.61914400  0.27713500  1
  H  H7  1  0.03649800  0.38085600  0.72286500  1
  H  H8  1  0.92984300  0.07103900  0.10797200  1
  H  H9  1  0.10885400  0.92896100  0.89202800  1
  H  H10  1  0.28781500  0.57103900  0.39202800  1
  H  H11  1  0.25088200  0.42896100  0.60797200  1
  H  H12  1  0.18194200  0.03850800  0.44698600  1
  H  H13  1  0.66743700  0.96149200  0.55301400  1
  H  H14  1  0.87892900  0.53850800  0.05301400  1
  H  H15  1  0.47045100  0.46149200  0.94698600  1
  H  H16  1  0.35325800  0.16756000  0.43354800  1
  H  H17  1  0.95436700  0.83244000  0.56645200  1
  H  H18  1  0.03680700  0.66756000  0.06645200  1
  H  H19  1  0.77081800  0.33244000  0.93354800  1
  H  H20  1  0.11809900  0.16082700  0.55608200  1
  H  H21  1  0.83500800  0.83917300  0.44391800  1
  H  H22  1  0.92418100  0.66082700  0.94391800  1
  H  H23  1  0.52892500  0.33917300  0.05608200  1
  C  C24  1  0.87241400  0.08905400  0.19759600  1
  C  C25  1  0.15906400  0.91094600  0.80240400  1
  C  C26  1  0.32001000  0.58905400  0.30240400  1
  C  C27  1  0.21146800  0.41094600  0.69759600  1
  C  C28  1  0.17297100  0.14476400  0.46625100  1
  C  C29  1  0.78398600  0.85523600  0.53374900  1
  C  C30  1  0.88922200  0.64476400  0.03374900  1
  C  C31  1  0.56773400  0.35523600  0.96625100  1
  Se  Se32  1  0.01067800  0.24214000  0.21956400  1
  Se  Se33  1  0.47238200  0.75786000  0.78043600  1
  Se  Se34  1  0.48024200  0.74214000  0.28043600  1
  Se  Se35  1  0.50281800  0.25786000  0.71956400  1
  Se  Se36  1  0.90013300  0.27901100  0.41055200  1
  Se  Se37  1  0.58969700  0.72098900  0.58944800  1
  Se  Se38  1  0.56068600  0.77901100  0.08944800  1
  Se  Se39  1  0.42914400  0.22098900  0.91055200  1
