# generated using pymatgen
data_NaGa2P2O9
_symmetry_space_group_name_H-M   'P 1'
_cell_length_a   9.12281100
_cell_length_b   9.06720000
_cell_length_c   9.93316872
_cell_angle_alpha   59.10007327
_cell_angle_beta   90.00000000
_cell_angle_gamma   90.00000000
_symmetry_Int_Tables_number   1
_chemical_formula_structural   NaGa2P2O9
_chemical_formula_sum   'Na4 Ga8 P8 O36'
_cell_volume   705.03415593
_cell_formula_units_Z   4
loop_
 _symmetry_equiv_pos_site_id
 _symmetry_equiv_pos_as_xyz
  1  'x, y, z'
loop_
 _atom_site_type_symbol
 _atom_site_label
 _atom_site_symmetry_multiplicity
 _atom_site_fract_x
 _atom_site_fract_y
 _atom_site_fract_z
 _atom_site_occupancy
  Na  Na0  1  0.62054600  0.70731400  0.02105900  1
  Na  Na1  1  0.87945400  0.70731400  0.52105900  1
  Na  Na2  1  0.37945400  0.29268600  0.97894100  1
  Na  Na3  1  0.12054600  0.29268600  0.47894100  1
  Ga  Ga4  1  0.91330700  0.97258600  0.87931800  1
  Ga  Ga5  1  0.58669300  0.97258600  0.37931800  1
  Ga  Ga6  1  0.08669300  0.02741400  0.12068200  1
  Ga  Ga7  1  0.41330700  0.02741400  0.62068200  1
  Ga  Ga8  1  0.73286200  0.33773300  0.43013700  1
  Ga  Ga9  1  0.76713800  0.33773300  0.93013700  1
  Ga  Ga10  1  0.26713800  0.66226700  0.56986300  1
  Ga  Ga11  1  0.23286200  0.66226700  0.06986300  1
  P  P12  1  0.88745600  0.16890900  0.26926100  1
  P  P13  1  0.61254400  0.16890900  0.76926100  1
  P  P14  1  0.11254400  0.83109100  0.73073900  1
  P  P15  1  0.38745600  0.83109100  0.23073900  1
  P  P16  1  0.45267900  0.33720400  0.26672000  1
  P  P17  1  0.04732100  0.33720400  0.76672000  1
  P  P18  1  0.54732100  0.66279600  0.73328000  1
  P  P19  1  0.95267900  0.66279600  0.23328000  1
  O  O20  1  0.11007000  0.90817100  0.98935300  1
  O  O21  1  0.38993000  0.90817100  0.48935300  1
  O  O22  1  0.88993000  0.09182900  0.01064700  1
  O  O23  1  0.61007000  0.09182900  0.51064700  1
  O  O24  1  0.86412900  0.74769400  0.07759300  1
  O  O25  1  0.63587100  0.74769400  0.57759300  1
  O  O26  1  0.13587100  0.25230600  0.92240700  1
  O  O27  1  0.36412900  0.25230600  0.42240700  1
  O  O28  1  0.99073800  0.20333900  0.72613800  1
  O  O29  1  0.50926200  0.20333900  0.22613800  1
  O  O30  1  0.00926200  0.79666100  0.27386200  1
  O  O31  1  0.49073800  0.79666100  0.77386200  1
  O  O32  1  0.70884200  0.00588700  0.82813100  1
  O  O33  1  0.79115800  0.00588700  0.32813100  1
  O  O34  1  0.29115800  0.99411300  0.17186900  1
  O  O35  1  0.20884200  0.99411300  0.67186900  1
  O  O36  1  0.95457100  0.87368900  0.75161000  1
  O  O37  1  0.54542900  0.87368900  0.25161000  1
  O  O38  1  0.04542900  0.12631100  0.24839000  1
  O  O39  1  0.45457100  0.12631100  0.74839000  1
  O  O40  1  0.89027500  0.22702200  0.39276100  1
  O  O41  1  0.60972500  0.22702200  0.89276100  1
  O  O42  1  0.10972500  0.77297800  0.60723900  1
  O  O43  1  0.39027500  0.77297800  0.10723900  1
  O  O44  1  0.85375000  0.53888800  0.37246900  1
  O  O45  1  0.64625000  0.53888800  0.87246900  1
  O  O46  1  0.14625000  0.46111200  0.62753100  1
  O  O47  1  0.35375000  0.46111200  0.12753100  1
  O  O48  1  0.67797000  0.32213800  0.61646600  1
  O  O49  1  0.82203000  0.32213800  0.11646600  1
  O  O50  1  0.32203000  0.67786200  0.38353400  1
  O  O51  1  0.17797000  0.67786200  0.88353400  1
  O  O52  1  0.58554900  0.44167100  0.27621300  1
  O  O53  1  0.91445100  0.44167100  0.77621300  1
  O  O54  1  0.41445100  0.55832900  0.72378700  1
  O  O55  1  0.08554900  0.55832900  0.22378700  1
