# generated using pymatgen
data_FeSO10
_symmetry_space_group_name_H-M   'P 1'
_cell_length_a   14.09479580
_cell_length_b   14.09479580
_cell_length_c   14.09479480
_cell_angle_alpha   116.97587195
_cell_angle_beta   116.97587195
_cell_angle_gamma   116.97587046
_symmetry_Int_Tables_number   1
_chemical_formula_structural   FeSO10
_chemical_formula_sum   'Fe6 S6 O60'
_cell_volume   1239.73388612
_cell_formula_units_Z   6
loop_
 _symmetry_equiv_pos_site_id
 _symmetry_equiv_pos_as_xyz
  1  'x, y, z'
loop_
 _atom_site_type_symbol
 _atom_site_label
 _atom_site_symmetry_multiplicity
 _atom_site_fract_x
 _atom_site_fract_y
 _atom_site_fract_z
 _atom_site_occupancy
  Fe  Fe0  1  0.27105100  0.70074200  0.98830100  1
  Fe  Fe1  1  0.70074200  0.98830100  0.27105100  1
  Fe  Fe2  1  0.98830100  0.27105100  0.70074200  1
  Fe  Fe3  1  0.72894900  0.29925800  0.01169900  1
  Fe  Fe4  1  0.29925800  0.01169900  0.72894900  1
  Fe  Fe5  1  0.01169900  0.72894900  0.29925800  1
  S  S6  1  0.25347500  0.58642200  0.13372000  1
  S  S7  1  0.58642200  0.13372000  0.25347500  1
  S  S8  1  0.13372000  0.25347500  0.58642200  1
  S  S9  1  0.74652500  0.41357800  0.86628000  1
  S  S10  1  0.41357800  0.86628000  0.74652500  1
  S  S11  1  0.86628000  0.74652500  0.41357800  1
  O  O12  1  0.12088000  0.39601800  0.93844100  1
  O  O13  1  0.39601800  0.93844100  0.12088000  1
  O  O14  1  0.93844100  0.12088000  0.39601800  1
  O  O15  1  0.87912000  0.60398200  0.06155900  1
  O  O16  1  0.60398200  0.06155900  0.87912000  1
  O  O17  1  0.06155900  0.87912000  0.60398200  1
  O  O18  1  0.43943200  0.69207000  0.28115100  1
  O  O19  1  0.69207000  0.28115100  0.43943200  1
  O  O20  1  0.28115100  0.43943200  0.69207000  1
  O  O21  1  0.56056800  0.30793000  0.71884900  1
  O  O22  1  0.30793000  0.71884900  0.56056800  1
  O  O23  1  0.71884900  0.56056800  0.30793000  1
  O  O24  1  0.16700100  0.55185600  0.16677400  1
  O  O25  1  0.55185600  0.16677400  0.16700100  1
  O  O26  1  0.16677400  0.16700100  0.55185600  1
  O  O27  1  0.83299900  0.44814400  0.83322600  1
  O  O28  1  0.44814400  0.83322600  0.83299900  1
  O  O29  1  0.83322600  0.83299900  0.44814400  1
  O  O30  1  0.27117100  0.69626200  0.12420300  1
  O  O31  1  0.69626200  0.12420300  0.27117100  1
  O  O32  1  0.12420300  0.27117100  0.69626200  1
  O  O33  1  0.72882900  0.30373800  0.87579700  1
  O  O34  1  0.30373800  0.87579700  0.72882900  1
  O  O35  1  0.87579700  0.72882900  0.30373800  1
  O  O36  1  0.44445800  0.74850400  0.04390000  1
  O  O37  1  0.74850400  0.04390000  0.44445800  1
  O  O38  1  0.04390000  0.44445800  0.74850400  1
  O  O39  1  0.55554200  0.25149600  0.95610000  1
  O  O40  1  0.25149600  0.95610000  0.55554200  1
  O  O41  1  0.95610000  0.55554200  0.25149600  1
  O  O42  1  0.02400900  0.70702700  0.88851100  1
  O  O43  1  0.70702700  0.88851100  0.02400900  1
  O  O44  1  0.88851100  0.02400900  0.70702700  1
  O  O45  1  0.97599100  0.29297300  0.11148900  1
  O  O46  1  0.29297300  0.11148900  0.97599100  1
  O  O47  1  0.11148900  0.97599100  0.29297300  1
  O  O48  1  0.09817600  0.64275200  0.70181000  1
  O  O49  1  0.64275200  0.70181000  0.09817600  1
  O  O50  1  0.70181000  0.09817600  0.64275200  1
  O  O51  1  0.90182400  0.35724800  0.29819000  1
  O  O52  1  0.35724800  0.29819000  0.90182400  1
  O  O53  1  0.29819000  0.90182400  0.35724800  1
  O  O54  1  0.09384500  0.85428500  0.98825300  1
  O  O55  1  0.85428500  0.98825300  0.09384500  1
  O  O56  1  0.98825300  0.09384500  0.85428500  1
  O  O57  1  0.90615500  0.14571500  0.01174700  1
  O  O58  1  0.14571500  0.01174700  0.90615500  1
  O  O59  1  0.01174700  0.90615500  0.14571500  1
  O  O60  1  0.51679900  0.40725900  0.45442600  1
  O  O61  1  0.40725900  0.45442600  0.51679900  1
  O  O62  1  0.45442600  0.51679900  0.40725900  1
  O  O63  1  0.48320100  0.59274100  0.54557400  1
  O  O64  1  0.59274100  0.54557400  0.48320100  1
  O  O65  1  0.54557400  0.48320100  0.59274100  1
  O  O66  1  0.99911900  0.36000500  0.36188700  1
  O  O67  1  0.36000500  0.36188700  0.99911900  1
  O  O68  1  0.36188700  0.99911900  0.36000500  1
  O  O69  1  0.00088100  0.63999500  0.63811300  1
  O  O70  1  0.63999500  0.63811300  0.00088100  1
  O  O71  1  0.63811300  0.00088100  0.63999500  1
