# generated using pymatgen
data_C9F5
_symmetry_space_group_name_H-M   'P 1'
_cell_length_a   13.53191386
_cell_length_b   13.69815895
_cell_length_c   23.56488122
_cell_angle_alpha   90.00000000
_cell_angle_beta   90.00000000
_cell_angle_gamma   110.40492881
_symmetry_Int_Tables_number   1
_chemical_formula_structural   C9F5
_chemical_formula_sum   'C216 F120'
_cell_volume   4093.95492520
_cell_formula_units_Z   24
loop_
 _symmetry_equiv_pos_site_id
 _symmetry_equiv_pos_as_xyz
  1  'x, y, z'
loop_
 _atom_site_type_symbol
 _atom_site_label
 _atom_site_symmetry_multiplicity
 _atom_site_fract_x
 _atom_site_fract_y
 _atom_site_fract_z
 _atom_site_occupancy
  C  C0  1  0.99373486  0.84110401  0.96644595  1
  C  C1  1  0.00626514  0.15889599  0.46644595  1
  C  C2  1  0.03535932  0.93035529  0.00280104  1
  C  C3  1  0.96464068  0.06964471  0.50280104  1
  C  C4  1  0.12017367  0.02252653  0.98274849  1
  C  C5  1  0.87982633  0.97747347  0.48274849  1
  C  C6  1  0.16315324  0.02332296  0.92676441  1
  C  C7  1  0.83684676  0.97667704  0.42676441  1
  C  C8  1  0.11974791  0.93327613  0.88916886  1
  C  C9  1  0.88025209  0.06672387  0.38916886  1
  C  C10  1  0.03537916  0.84285367  0.90914308  1
  C  C11  1  0.96462084  0.15714633  0.40914308  1
  C  C12  1  0.02368884  0.74628859  0.88249356  1
  C  C13  1  0.97631116  0.25371141  0.38249356  1
  C  C14  1  0.98589785  0.65076880  0.91382655  1
  C  C15  1  0.01410215  0.34923120  0.41382655  1
  C  C16  1  0.94764716  0.64955860  0.96831027  1
  C  C17  1  0.05235284  0.35044140  0.46831027  1
  C  C18  1  0.94405132  0.74335572  0.99338920  1
  C  C19  1  0.05594868  0.25664428  0.49338920  1
  C  C20  1  0.93970426  0.72805887  0.05308673  1
  C  C21  1  0.06029574  0.27194113  0.55308673  1
  C  C22  1  0.97824407  0.81270617  0.08769494  1
  C  C23  1  0.02175593  0.18729383  0.58769494  1
  C  C24  1  0.02133639  0.91297846  0.06235677  1
  C  C25  1  0.97866361  0.08702154  0.56235677  1
  C  C26  1  0.09230038  0.97969864  0.10229840  1
  C  C27  1  0.90769962  0.02030136  0.60229840  1
  C  C28  1  0.17309473  0.06780380  0.08329375  1
  C  C29  1  0.82690527  0.93219620  0.58329375  1
  C  C30  1  0.18522920  0.09193068  0.02387717  1
  C  C31  1  0.81477080  0.90806932  0.52387717  1
  C  C32  1  0.29336876  0.15256620  0.01423328  1
  C  C33  1  0.70663124  0.84743380  0.51423328  1
  C  C34  1  0.33409391  0.15173003  0.96140853  1
  C  C35  1  0.66590609  0.84826997  0.46140853  1
  C  C36  1  0.26842031  0.09140291  0.91780348  1
  C  C37  1  0.73157969  0.90859709  0.41780348  1
  C  C38  1  0.33563286  0.06512888  0.87795901  1
  C  C39  1  0.66436714  0.93487112  0.37795901  1
  C  C40  1  0.29379593  0.98052385  0.84148006  1
  C  C41  1  0.70620407  0.01947615  0.34148006  1
  C  C42  1  0.18342250  0.91816159  0.84433284  1
  C  C43  1  0.81657750  0.08183841  0.34433284  1
  C  C44  1  0.17188723  0.81938601  0.82012692  1
  C  C45  1  0.82811277  0.18061399  0.32012692  1
  C  C46  1  0.09207292  0.73360442  0.83968597  1
  C  C47  1  0.90792708  0.26639558  0.33968597  1
  C  C48  1  0.09750383  0.62344892  0.84138746  1
  C  C49  1  0.90249617  0.37655108  0.34138746  1
  C  C50  1  0.04018341  0.58343590  0.89830450  1
  C  C51  1  0.95981659  0.41656410  0.39830450  1
  C  C52  1  0.06661598  0.52489975  0.94021706  1
  C  C53  1  0.93338402  0.47510025  0.44021706  1
  C  C54  1  0.02773013  0.52494729  0.99767901  1
  C  C55  1  0.97226987  0.47505271  0.49767901  1
  C  C56  1  0.96397339  0.58290663  0.00997687  1
  C  C57  1  0.03602661  0.41709337  0.50997687  1
  C  C58  1  0.94087014  0.62015037  0.06904793  1
  C  C59  1  0.05912986  0.37984963  0.56904793  1
  C  C60  1  0.03841413  0.63744587  0.10788517  1
  C  C61  1  0.96158587  0.36255413  0.60788517  1
  C  C62  1  0.08478819  0.72895715  0.14230094  1
  C  C63  1  0.91521181  0.27104285  0.64230094  1
  C  C64  1  0.02693180  0.80952817  0.14622506  1
  C  C65  1  0.97306820  0.19047183  0.64622506  1
  C  C66  1  0.10733690  0.91961809  0.14869949  1
  C  C67  1  0.89266310  0.08038191  0.64869949  1
  C  C68  1  0.20611915  0.94375914  0.17095459  1
  C  C69  1  0.79388085  0.05624086  0.67095459  1
  C  C70  1  0.28994100  0.03116172  0.14868148  1
  C  C71  1  0.71005900  0.96883828  0.64868148  1
  C  C72  1  0.27305280  0.09823183  0.10931287  1
  C  C73  1  0.72694720  0.90176817  0.60931287  1
  C  C74  1  0.35869569  0.16455982  0.06915610  1
  C  C75  1  0.64130431  0.83544018  0.56915610  1
  C  C76  1  0.44212469  0.11242367  0.05811338  1
  C  C77  1  0.55787531  0.88757633  0.55811338  1
  C  C78  1  0.48600111  0.11655189  0.00362924  1
  C  C79  1  0.51399889  0.88344811  0.50362924  1
  C  C80  1  0.44954966  0.16302885  0.95146851  1
  C  C81  1  0.55045034  0.83697115  0.45146851  1
  C  C82  1  0.43770094  0.09119289  0.89972478  1
  C  C83  1  0.56229906  0.90880711  0.39972478  1
  C  C84  1  0.49334733  0.02295345  0.89032771  1
  C  C85  1  0.50665267  0.97704655  0.39032771  1
  C  C86  1  0.45069132  0.93574072  0.85148375  1
  C  C87  1  0.54930868  0.06425928  0.35148375  1
  C  C88  1  0.35316742  0.92007593  0.82471139  1
  C  C89  1  0.64683258  0.07992407  0.32471139  1
  C  C90  1  0.27900500  0.81613786  0.80022384  1
  C  C91  1  0.72099500  0.18386214  0.30022384  1
  C  C92  1  0.29750733  0.72369403  0.82927819  1
  C  C93  1  0.70249267  0.27630597  0.32927819  1
  C  C94  1  0.21344221  0.63250991  0.84716388  1
  C  C95  1  0.78655779  0.36749009  0.34716388  1
  C  C96  1  0.23546073  0.56374635  0.88499588  1
  C  C97  1  0.76453927  0.43625365  0.38499588  1
  C  C98  1  0.15761755  0.48618602  0.92632651  1
  C  C99  1  0.84238245  0.51381398  0.42632651  1
  C  C100  1  0.22836302  0.50039857  0.97895305  1
  C  C101  1  0.77163698  0.49960143  0.47895305  1
  C  C102  1  0.19150235  0.50301772  0.03393406  1
  C  C103  1  0.80849765  0.49698228  0.53393406  1
  C  C104  1  0.07805547  0.49118112  0.04894784  1
  C  C105  1  0.92194453  0.50881888  0.54894784  1
  C  C106  1  0.09813105  0.57482306  0.09620518  1
  C  C107  1  0.90186895  0.42517694  0.59620518  1
  C  C108  1  0.20350869  0.60495502  0.11407542  1
  C  C109  1  0.79649131  0.39504498  0.61407542  1
  C  C110  1  0.25039348  0.69270295  0.14788408  1
  C  C111  1  0.74960652  0.30729705  0.64788408  1
  C  C112  1  0.19034752  0.75539881  0.16345622  1
  C  C113  1  0.80965248  0.24460119  0.66345622  1
  C  C114  1  0.24881520  0.86182562  0.19373533  1
  C  C115  1  0.75118480  0.13817438  0.69373533  1
  C  C116  1  0.36243174  0.90636986  0.17097448  1
  C  C117  1  0.63756826  0.09363014  0.67097448  1
  C  C118  1  0.38382719  0.00454024  0.14561332  1
  C  C119  1  0.61617281  0.99545976  0.64561332  1
  C  C120  1  0.45639446  0.04093134  0.09969236  1
  C  C121  1  0.54360554  0.95906866  0.59969236  1
  C  C122  1  0.51771424  0.97685456  0.08558641  1
  C  C123  1  0.48228576  0.02314544  0.58558641  1
  C  C124  1  0.56546587  0.98788709  0.03214081  1
  C  C125  1  0.43453413  0.01211291  0.53214081  1
  C  C126  1  0.54650561  0.05257985  0.99152626  1
  C  C127  1  0.45349439  0.94742015  0.49152626  1
  C  C128  1  0.55799775  0.01153431  0.93562206  1
  C  C129  1  0.44200225  0.98846569  0.43562206  1
  C  C130  1  0.58670410  0.92309765  0.94213176  1
  C  C131  1  0.41329590  0.07690235  0.44213176  1
  C  C132  1  0.54608100  0.83912445  0.90462146  1
  C  C133  1  0.45391900  0.16087555  0.40462146  1
  C  C134  1  0.47820900  0.84571977  0.86074007  1
  C  C135  1  0.52179100  0.15428023  0.36074007  1
  C  C136  1  0.39977786  0.74277112  0.85039121  1
  C  C137  1  0.60022214  0.25722888  0.35039121  1
  C  C138  1  0.42090508  0.67307403  0.88791702  1
  C  C139  1  0.57909492  0.32692597  0.38791702  1
  C  C140  1  0.33870304  0.58857992  0.90691302  1
  C  C141  1  0.66129696  0.41142008  0.40691302  1
  C  C142  1  0.33389625  0.55755262  0.96587702  1
  C  C143  1  0.66610375  0.44244738  0.46587702  1
  C  C144  1  0.40694820  0.62316124  0.00556994  1
  C  C145  1  0.59305180  0.37683876  0.50556994  1
  C  C146  1  0.36897021  0.61921567  0.06296437  1
  C  C147  1  0.63102979  0.38078433  0.56296437  1
  C  C148  1  0.26127542  0.56170708  0.07495048  1
  C  C149  1  0.73872458  0.43829292  0.57495048  1
  C  C150  1  0.41980879  0.70169446  0.09986376  1
  C  C151  1  0.58019121  0.29830554  0.59986376  1
  C  C152  1  0.37084680  0.72516963  0.15475576  1
  C  C153  1  0.62915320  0.27483037  0.65475576  1
  C  C154  1  0.41909649  0.84362619  0.15519370  1
  C  C155  1  0.58090351  0.15637381  0.65519370  1
  C  C156  1  0.49591522  0.87907291  0.11304359  1
  C  C157  1  0.50408478  0.12092709  0.61304359  1
  C  C158  1  0.49845896  0.79020878  0.07971937  1
  C  C159  1  0.50154104  0.20979122  0.57971937  1
  C  C160  1  0.53828150  0.79740571  0.02358092  1
  C  C161  1  0.46171850  0.20259429  0.52358092  1
  C  C162  1  0.60718120  0.90795686  0.00472041  1
  C  C163  1  0.39281880  0.09204314  0.50472041  1
  C  C164  1  0.49446217  0.71308970  0.98646222  1
  C  C165  1  0.50553783  0.28691030  0.48646222  1
  C  C166  1  0.52101389  0.72490268  0.92230779  1
  C  C167  1  0.47898611  0.27509732  0.42230779  1
  C  C168  1  0.04360658  0.55844590  0.78770713  1
  C  C169  1  0.95639342  0.44155410  0.28770713  1
  C  C170  1  0.92053764  0.51418655  0.78566596  1
  C  C171  1  0.07946236  0.48581345  0.28566596  1
  C  C172  1  0.83104651  0.54129215  0.09254360  1
  C  C173  1  0.16895349  0.45870785  0.59254360  1
  C  C174  1  0.73125214  0.57363304  0.08422617  1
  C  C175  1  0.26874786  0.42636696  0.58422617  1
  C  C176  1  0.94882333  0.78753908  0.19768576  1
  C  C177  1  0.05117667  0.21246092  0.69768576  1
  C  C178  1  0.88889170  0.86573196  0.20703343  1
  C  C179  1  0.11110830  0.13426804  0.70703343  1
  C  C180  1  0.41113320  0.28094911  0.09087283  1
  C  C181  1  0.58886680  0.71905089  0.59087283  1
  C  C182  1  0.40453849  0.30075297  0.15603869  1
  C  C183  1  0.59546151  0.69924703  0.65603869  1
  C  C184  1  0.51795549  0.27825838  0.93533331  1
  C  C185  1  0.48204451  0.72174162  0.43533331  1
  C  C186  1  0.64042736  0.30743207  0.93435941  1
  C  C187  1  0.35957264  0.69256793  0.43435941  1
  C  C188  1  0.29980103  0.81288822  0.73447610  1
  C  C189  1  0.70019897  0.18711178  0.23447610  1
  C  C190  1  0.25445614  0.87887597  0.69519224  1
  C  C191  1  0.74554386  0.12112403  0.19519224  1
  C  C192  1  0.11408783  0.36988981  0.90496335  1
  C  C193  1  0.88591217  0.63011019  0.40496335  1
  C  C194  1  0.19090039  0.32865154  0.87126478  1
  C  C195  1  0.80909961  0.67134846  0.37126478  1
  C  C196  1  0.00976320  0.37947819  0.07283110  1
  C  C197  1  0.99023680  0.62052181  0.57283110  1
  C  C198  1  0.07066209  0.31365202  0.10120054  1
  C  C199  1  0.92933791  0.68634798  0.60120054  1
  C  C200  1  0.25052644  0.85356646  0.26083498  1
  C  C201  1  0.74947356  0.14643354  0.76083498  1
  C  C202  1  0.24237270  0.94794857  0.29532797  1
  C  C203  1  0.75762730  0.05205143  0.79532797  1
  C  C204  1  0.39656669  0.66358021  0.20576501  1
  C  C205  1  0.60343331  0.33641979  0.70576501  1
  C  C206  1  0.51302434  0.70027302  0.22765715  1
  C  C207  1  0.48697566  0.29972698  0.72765715  1
  C  C208  1  0.72521874  0.93420001  0.02409541  1
  C  C209  1  0.27478126  0.06579999  0.52409541  1
  C  C210  1  0.81025464  0.03480034  0.99912608  1
  C  C211  1  0.18974536  0.96519966  0.49912608  1
  C  C212  1  0.60551459  0.67398272  0.90766030  1
  C  C213  1  0.39448541  0.32601728  0.40766030  1
  C  C214  1  0.64120257  0.67458223  0.84446086  1
  C  C215  1  0.35879743  0.32541777  0.34446086  1
  F  F216  1  0.88129633  0.59248593  0.78936722  1
  F  F217  1  0.11870367  0.40751407  0.28936722  1
  F  F218  1  0.87920173  0.44522962  0.82785482  1
  F  F219  1  0.12079827  0.55477038  0.32785482  1
  F  F220  1  0.88954496  0.46510691  0.73542109  1
  F  F221  1  0.11045504  0.53489309  0.23542109  1
  F  F222  1  0.07289914  0.62012324  0.74034829  1
  F  F223  1  0.92710086  0.37987676  0.24034829  1
  F  F224  1  0.07651636  0.47554953  0.77998643  1
  F  F225  1  0.92348364  0.52445047  0.27998643  1
  F  F226  1  0.71217276  0.57655288  0.02774439  1
  F  F227  1  0.28782724  0.42344712  0.52774439  1
  F  F228  1  0.74081467  0.66728493  0.10676190  1
  F  F229  1  0.25918533  0.33271507  0.60676190  1
  F  F230  1  0.64693796  0.50191160  0.10869080  1
  F  F231  1  0.35306204  0.49808840  0.60869080  1
  F  F232  1  0.80404088  0.44851469  0.06330411  1
  F  F233  1  0.19595912  0.55148531  0.56330411  1
  F  F234  1  0.83665838  0.51842185  0.14844896  1
  F  F235  1  0.16334162  0.48157815  0.64844896  1
  F  F236  1  0.83843205  0.87630022  0.15914526  1
  F  F237  1  0.16156795  0.12369978  0.65914526  1
  F  F238  1  0.81615684  0.83069273  0.24867500  1
  F  F239  1  0.18384316  0.16930727  0.74867500  1
  F  F240  1  0.95667292  0.96080401  0.22266511  1
  F  F241  1  0.04332708  0.03919599  0.72266511  1
  F  F242  1  0.00200615  0.78798975  0.24721938  1
  F  F243  1  0.99799385  0.21201025  0.74721938  1
  F  F244  1  0.87339762  0.69100475  0.19310043  1
  F  F245  1  0.12660238  0.30899525  0.69310043  1
  F  F246  1  0.44430457  0.23867958  0.18631003  1
  F  F247  1  0.55569543  0.76132042  0.68631003  1
  F  F248  1  0.30347911  0.28206650  0.17238074  1
  F  F249  1  0.69652089  0.71793350  0.67238074  1
  F  F250  1  0.46127172  0.40077283  0.16879133  1
  F  F251  1  0.53872828  0.59922717  0.66879133  1
  F  F252  1  0.51637069  0.31694165  0.07822037  1
  F  F253  1  0.48362931  0.68305835  0.57822037  1
  F  F254  1  0.36580749  0.34482788  0.06481658  1
  F  F255  1  0.63419251  0.65517212  0.56481658  1
  F  F256  1  0.67700020  0.29687785  0.98664928  1
  F  F257  1  0.32299980  0.70312215  0.48664928  1
  F  F258  1  0.68724249  0.40734938  0.91752536  1
  F  F259  1  0.31275751  0.59265062  0.41752536  1
  F  F260  1  0.66854048  0.24519270  0.89778870  1
  F  F261  1  0.33145952  0.75480730  0.39778870  1
  F  F262  1  0.49761320  0.34700573  0.97153781  1
  F  F263  1  0.50238680  0.65299427  0.47153781  1
  F  F264  1  0.48914708  0.29923252  0.88201871  1
  F  F265  1  0.51085292  0.70076748  0.38201871  1
  F  F266  1  0.14910441  0.85157242  0.70209860  1
  F  F267  1  0.85089559  0.14842758  0.20209860  1
  F  F268  1  0.30016911  0.98206852  0.70671574  1
  F  F269  1  0.69983089  0.01793148  0.20671574  1
  F  F270  1  0.27387557  0.86301969  0.64023204  1
  F  F271  1  0.72612443  0.13698031  0.14023204  1
  F  F272  1  0.40740255  0.84917635  0.72559809  1
  F  F273  1  0.59259745  0.15082365  0.22559809  1
  F  F274  1  0.26246602  0.71358872  0.71390563  1
  F  F275  1  0.73753398  0.28641128  0.21390563  1
  F  F276  1  0.21765148  0.37716957  0.82073898  1
  F  F277  1  0.78234852  0.62283043  0.32073898  1
  F  F278  1  0.28014871  0.34256951  0.90155790  1
  F  F279  1  0.71985129  0.65743049  0.40155790  1
  F  F280  1  0.14316209  0.22526173  0.86164884  1
  F  F281  1  0.85683791  0.77473827  0.36164884  1
  F  F282  1  0.02770188  0.35323544  0.87099111  1
  F  F283  1  0.97229812  0.64676456  0.37099111  1
  F  F284  1  0.08159780  0.30415212  0.95075660  1
  F  F285  1  0.91840220  0.69584788  0.45075660  1
  F  F286  1  0.13479511  0.28967945  0.06387963  1
  F  F287  1  0.86520489  0.71032055  0.56387963  1
  F  F288  1  0.12937778  0.36703737  0.14528000  1
  F  F289  1  0.87062222  0.63296263  0.64528000  1
  F  F290  1  0.00156688  0.22328989  0.12144296  1
  F  F291  1  0.99843312  0.77671011  0.62144296  1
  F  F292  1  0.94809814  0.31915689  0.03097591  1
  F  F293  1  0.05190186  0.68084311  0.53097591  1
  F  F294  1  0.94363609  0.38977295  0.11473771  1
  F  F295  1  0.05636391  0.61022705  0.61473771  1
  F  F296  1  0.25333626  0.93123040  0.35117562  1
  F  F297  1  0.74666374  0.06876960  0.85117562  1
  F  F298  1  0.32152439  0.03650271  0.27980909  1
  F  F299  1  0.67847561  0.96349729  0.77980909  1
  F  F300  1  0.14948695  0.96244123  0.28821616  1
  F  F301  1  0.85051305  0.03755877  0.78821616  1
  F  F302  1  0.34601432  0.84813645  0.27795494  1
  F  F303  1  0.65398568  0.15186355  0.77795494  1
  F  F304  1  0.17376839  0.76639352  0.28072619  1
  F  F305  1  0.82623161  0.23360648  0.78072619  1
  F  F306  1  0.54130241  0.79668621  0.25095691  1
  F  F307  1  0.45869759  0.20331379  0.75095691  1
  F  F308  1  0.52238225  0.63329816  0.26761650  1
  F  F309  1  0.47761775  0.36670184  0.76761650  1
  F  F310  1  0.58078156  0.70276571  0.18483553  1
  F  F311  1  0.41921844  0.29723429  0.68483553  1
  F  F312  1  0.33503551  0.66329199  0.25180348  1
  F  F313  1  0.66496449  0.33670801  0.75180348  1
  F  F314  1  0.37225150  0.56123713  0.18966851  1
  F  F315  1  0.62774850  0.43876287  0.68966851  1
  F  F316  1  0.83432684  0.01791688  0.94512748  1
  F  F317  1  0.16567316  0.98208312  0.44512748  1
  F  F318  1  0.77694983  0.11708168  -0.00001509  1
  F  F319  1  0.22305017  0.88291832  0.49998491  1
  F  F320  1  0.89965276  0.06018410  0.03046678  1
  F  F321  1  0.10034724  0.93981590  0.53046678  1
  F  F322  1  0.72948002  0.94638112  0.08209167  1
  F  F323  1  0.27051998  0.05361888  0.58209167  1
  F  F324  1  0.76077895  0.85446110  0.01247262  1
  F  F325  1  0.23922105  0.14553890  0.51247262  1
  F  F326  1  0.71722162  0.63170501  0.84116456  1
  F  F327  1  0.28277838  0.36829499  0.34116456  1
  F  F328  1  0.55962457  0.61828474  0.81123061  1
  F  F329  1  0.44037543  0.38171526  0.31123061  1
  F  F330  1  0.68137670  0.77309546  0.82393590  1
  F  F331  1  0.31862330  0.22690454  0.32393590  1
  F  F332  1  0.69600450  0.72039942  0.93791930  1
  F  F333  1  0.30399550  0.27960058  0.43791930  1
  F  F334  1  0.56623482  0.57062874  0.92311354  1
  F  F335  1  0.43376518  0.42937126  0.42311354  1
