# generated using pymatgen
data_KBH4C4(N2O)4
_symmetry_space_group_name_H-M   'P 1'
_cell_length_a   10.35832871
_cell_length_b   10.74120148
_cell_length_c   11.78981900
_cell_angle_alpha   90.00000000
_cell_angle_beta   90.00000000
_cell_angle_gamma   107.34137242
_symmetry_Int_Tables_number   1
_chemical_formula_structural   KBH4C4(N2O)4
_chemical_formula_sum   'K4 B4 H16 C16 N32 O16'
_cell_volume   1252.12149195
_cell_formula_units_Z   4
loop_
 _symmetry_equiv_pos_site_id
 _symmetry_equiv_pos_as_xyz
  1  'x, y, z'
loop_
 _atom_site_type_symbol
 _atom_site_label
 _atom_site_symmetry_multiplicity
 _atom_site_fract_x
 _atom_site_fract_y
 _atom_site_fract_z
 _atom_site_occupancy
  K  K0  1  0.05897000  0.80730400  0.62827800  1
  K  K1  1  0.44103000  0.19269600  0.12827800  1
  K  K2  1  0.94103000  0.19269600  0.37172200  1
  K  K3  1  0.55897000  0.80730400  0.87172200  1
  B  B4  1  0.42783200  0.71683200  0.50932900  1
  B  B5  1  0.07216800  0.28316800  0.00932900  1
  B  B6  1  0.57216800  0.28316800  0.49067100  1
  B  B7  1  0.92783200  0.71683200  0.99067100  1
  H  H8  1  0.50732500  0.67994200  0.45358600  1
  H  H9  1  0.99267500  0.32005800  0.95358600  1
  H  H10  1  0.49267500  0.32005800  0.54641400  1
  H  H11  1  0.00732500  0.67994200  0.04641400  1
  H  H12  1  0.51291000  0.83904100  0.28934400  1
  H  H13  1  0.98709000  0.16095900  0.78934400  1
  H  H14  1  0.48709000  0.16095900  0.71065600  1
  H  H15  1  0.01291000  0.83904100  0.21065600  1
  H  H16  1  0.46893900  0.76034800  0.60138400  1
  H  H17  1  0.03106100  0.23965200  0.10138400  1
  H  H18  1  0.53106100  0.23965200  0.39861600  1
  H  H19  1  0.96893900  0.76034800  0.89861600  1
  H  H20  1  0.33036300  0.45489400  0.41331100  1
  H  H21  1  0.16963700  0.54510600  0.91331100  1
  H  H22  1  0.66963700  0.54510600  0.58668900  1
  H  H23  1  0.83036300  0.45489400  0.08668900  1
  C  C24  1  0.44072300  0.87435500  0.33650700  1
  C  C25  1  0.05927700  0.12564500  0.83650700  1
  C  C26  1  0.55927700  0.12564500  0.66349300  1
  C  C27  1  0.94072300  0.87435500  0.16349300  1
  C  C28  1  0.30851900  0.97232300  0.39239300  1
  C  C29  1  0.19148100  0.02767700  0.89239300  1
  C  C30  1  0.69148100  0.02767700  0.60760700  1
  C  C31  1  0.80851900  0.97232300  0.10760700  1
  C  C32  1  0.26729400  0.47956800  0.47777300  1
  C  C33  1  0.23270700  0.52043200  0.97777300  1
  C  C34  1  0.73270700  0.52043200  0.52222700  1
  C  C35  1  0.76729300  0.47956800  0.02222700  1
  C  C36  1  0.12014100  0.47811000  0.59656600  1
  C  C37  1  0.37985900  0.52189000  0.09656600  1
  C  C38  1  0.87985900  0.52189000  0.40343400  1
  C  C39  1  0.62014100  0.47811000  0.90343400  1
  N  N40  1  0.39048400  0.82405400  0.43881300  1
  N  N41  1  0.10951600  0.17594600  0.93881300  1
  N  N42  1  0.60951600  0.17594600  0.56118700  1
  N  N43  1  0.89048400  0.82405400  0.06118700  1
  N  N44  1  0.30417800  0.88740000  0.47591300  1
  N  N45  1  0.19582200  0.11260000  0.97591300  1
  N  N46  1  0.69582200  0.11260000  0.52408700  1
  N  N47  1  0.80417800  0.88740000  0.02408700  1
  N  N48  1  0.39106900  0.96973400  0.30422500  1
  N  N49  1  0.10893100  0.03026600  0.80422500  1
  N  N50  1  0.60893100  0.03026600  0.69577500  1
  N  N51  1  0.89106900  0.96973400  0.19577500  1
  N  N52  1  0.30003400  0.59858800  0.52817300  1
  N  N53  1  0.19996600  0.40141200  0.02817300  1
  N  N54  1  0.69996600  0.40141200  0.47182700  1
  N  N55  1  0.80003400  0.59858800  0.97182700  1
  N  N56  1  0.20457300  0.59877800  0.60598700  1
  N  N57  1  0.29542700  0.40122200  0.10598700  1
  N  N58  1  0.79542700  0.40122200  0.39401300  1
  N  N59  1  0.70457300  0.59877800  0.89401300  1
  N  N60  1  0.15239700  0.39994300  0.51871800  1
  N  N61  1  0.34760300  0.60005700  0.01871800  1
  N  N62  1  0.84760300  0.60005700  0.48128200  1
  N  N63  1  0.65239700  0.39994300  0.98128200  1
  N  N64  1  0.22502200  0.05827200  0.39584900  1
  N  N65  1  0.27497800  0.94172800  0.89584900  1
  N  N66  1  0.77497800  0.94172800  0.60415100  1
  N  N67  1  0.72502200  0.05827200  0.10415100  1
  N  N68  1  0.99923000  0.43561200  0.66489900  1
  N  N69  1  0.50077000  0.56438800  0.16489900  1
  N  N70  1  0.00077000  0.56438800  0.33510100  1
  N  N71  1  0.49923000  0.43561200  0.83510100  1
  O  O72  1  0.23334500  0.13510000  0.31531600  1
  O  O73  1  0.26665500  0.86490000  0.81531600  1
  O  O74  1  0.76665500  0.86490000  0.68468400  1
  O  O75  1  0.73334500  0.13510000  0.18468400  1
  O  O76  1  0.14717700  0.04983500  0.47801800  1
  O  O77  1  0.35282300  0.95016500  0.97801800  1
  O  O78  1  0.85282300  0.95016500  0.52198200  1
  O  O79  1  0.64717700  0.04983500  0.02198200  1
  O  O80  1  0.97577700  0.51489200  0.73247300  1
  O  O81  1  0.52422300  0.48510800  0.23247300  1
  O  O82  1  0.02422300  0.48510800  0.26752700  1
  O  O83  1  0.47577700  0.51489200  0.76752700  1
  O  O84  1  0.92528800  0.32177000  0.65066000  1
  O  O85  1  0.57471200  0.67823000  0.15066000  1
  O  O86  1  0.07471200  0.67823000  0.34934000  1
  O  O87  1  0.42528800  0.32177000  0.84934000  1
