# generated using pymatgen
data_Cr4Xe5F44
_symmetry_space_group_name_H-M   'P 1'
_cell_length_a   12.31784263
_cell_length_b   16.39501777
_cell_length_c   17.24208860
_cell_angle_alpha   90.00000000
_cell_angle_beta   90.00000000
_cell_angle_gamma   90.00000000
_symmetry_Int_Tables_number   1
_chemical_formula_structural   Cr4Xe5F44
_chemical_formula_sum   'Cr16 Xe20 F176'
_cell_volume   3482.06132481
_cell_formula_units_Z   4
loop_
 _symmetry_equiv_pos_site_id
 _symmetry_equiv_pos_as_xyz
  1  'x, y, z'
loop_
 _atom_site_type_symbol
 _atom_site_label
 _atom_site_symmetry_multiplicity
 _atom_site_fract_x
 _atom_site_fract_y
 _atom_site_fract_z
 _atom_site_occupancy
  Cr  Cr0  1  0.84425656  0.60722608  0.36118381  1
  Cr  Cr1  1  0.34425656  0.89277392  0.63881619  1
  Cr  Cr2  1  0.15574344  0.10722608  0.13881619  1
  Cr  Cr3  1  0.65574344  0.39277392  0.86118381  1
  Cr  Cr4  1  0.15574344  0.39277392  0.63881619  1
  Cr  Cr5  1  0.65574344  0.10722608  0.36118381  1
  Cr  Cr6  1  0.84425656  0.89277392  0.86118381  1
  Cr  Cr7  1  0.34425656  0.60722608  0.13881619  1
  Cr  Cr8  1  0.07945495  0.63708163  0.22874970  1
  Cr  Cr9  1  0.57945495  0.86291837  0.77125030  1
  Cr  Cr10  1  0.92054505  0.13708163  0.27125030  1
  Cr  Cr11  1  0.42054505  0.36291837  0.72874970  1
  Cr  Cr12  1  0.92054505  0.36291837  0.77125030  1
  Cr  Cr13  1  0.42054505  0.13708163  0.22874970  1
  Cr  Cr14  1  0.07945495  0.86291837  0.72874970  1
  Cr  Cr15  1  0.57945495  0.63708163  0.27125030  1
  Xe  Xe16  1  0.50000000  0.50000000  0.50000000  1
  Xe  Xe17  1  -0.00000000  0.00000000  0.50000000  1
  Xe  Xe18  1  0.50000000  0.00000000  -0.00000000  1
  Xe  Xe19  1  0.00000000  0.50000000  -0.00000000  1
  Xe  Xe20  1  0.66682909  0.42238084  0.22981718  1
  Xe  Xe21  1  0.16682909  0.07761916  0.77018282  1
  Xe  Xe22  1  0.33317091  0.92238084  0.27018282  1
  Xe  Xe23  1  0.83317091  0.57761916  0.72981718  1
  Xe  Xe24  1  0.33317091  0.57761916  0.77018282  1
  Xe  Xe25  1  0.83317091  0.92238084  0.22981718  1
  Xe  Xe26  1  0.66682909  0.07761916  0.72981718  1
  Xe  Xe27  1  0.16682909  0.42238084  0.27018282  1
  Xe  Xe28  1  0.10992171  0.66666972  0.45296714  1
  Xe  Xe29  1  0.60992171  0.83333028  0.54703286  1
  Xe  Xe30  1  0.89007829  0.16666972  0.04703286  1
  Xe  Xe31  1  0.39007829  0.33333028  0.95296714  1
  Xe  Xe32  1  0.89007829  0.33333028  0.54703286  1
  Xe  Xe33  1  0.39007829  0.16666972  0.45296714  1
  Xe  Xe34  1  0.10992171  0.83333028  0.95296714  1
  Xe  Xe35  1  0.60992171  0.66666972  0.04703286  1
  F  F36  1  0.63650229  0.30699503  0.20511449  1
  F  F37  1  0.13650229  0.19300497  0.79488551  1
  F  F38  1  0.36349771  0.80699503  0.29488551  1
  F  F39  1  0.86349771  0.69300497  0.70511449  1
  F  F40  1  0.36349771  0.69300497  0.79488551  1
  F  F41  1  0.86349771  0.80699503  0.20511449  1
  F  F42  1  0.63650229  0.19300497  0.70511449  1
  F  F43  1  0.13650229  0.30699503  0.29488551  1
  F  F44  1  0.64857278  0.37855014  0.33650661  1
  F  F45  1  0.14857278  0.12144986  0.66349339  1
  F  F46  1  0.35142722  0.87855014  0.16349339  1
  F  F47  1  0.85142722  0.62144986  0.83650661  1
  F  F48  1  0.35142722  0.62144986  0.66349339  1
  F  F49  1  0.85142722  0.87855014  0.33650661  1
  F  F50  1  0.64857278  0.12144986  0.83650661  1
  F  F51  1  0.14857278  0.37855014  0.16349339  1
  F  F52  1  0.81689534  0.37826074  0.22781012  1
  F  F53  1  0.31689534  0.12173926  0.77218988  1
  F  F54  1  0.18310466  0.87826074  0.27218988  1
  F  F55  1  0.68310466  0.62173926  0.72781012  1
  F  F56  1  0.18310466  0.62173926  0.77218988  1
  F  F57  1  0.68310466  0.87826074  0.22781012  1
  F  F58  1  0.81689534  0.12173926  0.72781012  1
  F  F59  1  0.31689534  0.37826074  0.27218988  1
  F  F60  1  0.67894806  0.42653408  0.11523648  1
  F  F61  1  0.17894806  0.07346592  0.88476352  1
  F  F62  1  0.32105194  0.92653408  0.38476352  1
  F  F63  1  0.82105194  0.57346592  0.61523648  1
  F  F64  1  0.32105194  0.57346592  0.88476352  1
  F  F65  1  0.82105194  0.92653408  0.11523648  1
  F  F66  1  0.67894806  0.07346592  0.61523648  1
  F  F67  1  0.17894806  0.42653408  0.38476352  1
  F  F68  1  0.50716474  0.42673839  0.21660691  1
  F  F69  1  0.00716474  0.07326161  0.78339309  1
  F  F70  1  0.49283526  0.92673839  0.28339309  1
  F  F71  1  0.99283526  0.57326161  0.71660691  1
  F  F72  1  0.49283526  0.57326161  0.78339309  1
  F  F73  1  0.99283526  0.92673839  0.21660691  1
  F  F74  1  0.50716474  0.07326161  0.71660691  1
  F  F75  1  0.00716474  0.42673839  0.28339309  1
  F  F76  1  0.19769629  0.69809944  0.54411580  1
  F  F77  1  0.69769629  0.80190056  0.45588420  1
  F  F78  1  0.80230371  0.19809944  0.95588420  1
  F  F79  1  0.30230371  0.30190056  0.04411580  1
  F  F80  1  0.80230371  0.30190056  0.45588420  1
  F  F81  1  0.30230371  0.19809944  0.54411580  1
  F  F82  1  0.19769629  0.80190056  0.04411580  1
  F  F83  1  0.69769629  0.69809944  0.95588420  1
  F  F84  1  0.16255593  0.55765067  0.48504081  1
  F  F85  1  0.66255593  0.94234933  0.51495919  1
  F  F86  1  0.83744407  0.05765067  0.01495919  1
  F  F87  1  0.33744407  0.44234933  0.98504081  1
  F  F88  1  0.83744407  0.44234933  0.51495919  1
  F  F89  1  0.33744407  0.05765067  0.48504081  1
  F  F90  1  0.16255593  0.94234933  0.98504081  1
  F  F91  1  0.66255593  0.55765067  0.01495919  1
  F  F92  1  0.99869528  0.66224202  0.53596521  1
  F  F93  1  0.49869528  0.83775798  0.46403479  1
  F  F94  1  0.00130472  0.16224202  0.96403479  1
  F  F95  1  0.50130472  0.33775798  0.03596521  1
  F  F96  1  0.00130472  0.33775798  0.46403479  1
  F  F97  1  0.50130472  0.16224202  0.53596521  1
  F  F98  1  0.99869528  0.83775798  0.03596521  1
  F  F99  1  0.49869528  0.66224202  0.96403479  1
  F  F100  1  0.08937293  0.78660152  0.44898813  1
  F  F101  1  0.58937293  0.71339848  0.55101187  1
  F  F102  1  0.91062707  0.28660152  0.05101187  1
  F  F103  1  0.41062707  0.21339848  0.94898813  1
  F  F104  1  0.91062707  0.21339848  0.55101187  1
  F  F105  1  0.41062707  0.28660152  0.44898813  1
  F  F106  1  0.08937293  0.71339848  0.94898813  1
  F  F107  1  0.58937293  0.78660152  0.05101187  1
  F  F108  1  0.25384257  0.68351000  0.40287111  1
  F  F109  1  0.75384257  0.81649000  0.59712889  1
  F  F110  1  0.74615743  0.18351000  0.09712889  1
  F  F111  1  0.24615743  0.31649000  0.90287111  1
  F  F112  1  0.74615743  0.31649000  0.59712889  1
  F  F113  1  0.24615743  0.18351000  0.40287111  1
  F  F114  1  0.25384257  0.81649000  0.90287111  1
  F  F115  1  0.75384257  0.68351000  0.09712889  1
  F  F116  1  0.40029477  0.46332599  0.41224358  1
  F  F117  1  0.90029477  0.03667401  0.58775642  1
  F  F118  1  0.59970523  0.96332599  0.08775642  1
  F  F119  1  0.09970523  0.53667401  0.91224358  1
  F  F120  1  0.59970523  0.53667401  0.58775642  1
  F  F121  1  0.09970523  0.96332599  0.41224358  1
  F  F122  1  0.40029477  0.03667401  0.91224358  1
  F  F123  1  0.90029477  0.46332599  0.08775642  1
  F  F124  1  0.41287344  0.60502505  0.51078757  1
  F  F125  1  0.91287344  0.89497495  0.48921243  1
  F  F126  1  0.58712656  0.10502505  0.98921243  1
  F  F127  1  0.08712656  0.39497495  0.01078757  1
  F  F128  1  0.58712656  0.39497495  0.48921243  1
  F  F129  1  0.08712656  0.10502505  0.51078757  1
  F  F130  1  0.41287344  0.89497495  0.01078757  1
  F  F131  1  0.91287344  0.60502505  0.98921243  1
  F  F132  1  0.75997157  0.59415901  0.44290886  1
  F  F133  1  0.25997157  0.90584099  0.55709114  1
  F  F134  1  0.24002843  0.09415901  0.05709114  1
  F  F135  1  0.74002843  0.40584099  0.94290886  1
  F  F136  1  0.24002843  0.40584099  0.55709114  1
  F  F137  1  0.74002843  0.09415901  0.44290886  1
  F  F138  1  0.75997157  0.90584099  0.94290886  1
  F  F139  1  0.25997157  0.59415901  0.05709114  1
  F  F140  1  0.96772072  0.56346966  0.41167764  1
  F  F141  1  0.46772072  0.93653034  0.58832236  1
  F  F142  1  0.03227928  0.06346966  0.08832236  1
  F  F143  1  0.53227928  0.43653034  0.91167764  1
  F  F144  1  0.03227928  0.43653034  0.58832236  1
  F  F145  1  0.53227928  0.06346966  0.41167764  1
  F  F146  1  0.96772072  0.93653034  0.91167764  1
  F  F147  1  0.46772072  0.56346966  0.08832236  1
  F  F148  1  0.80328851  0.50976828  0.31547460  1
  F  F149  1  0.30328851  0.99023172  0.68452540  1
  F  F150  1  0.19671149  0.00976828  0.18452540  1
  F  F151  1  0.69671149  0.49023172  0.81547460  1
  F  F152  1  0.19671149  0.49023172  0.68452540  1
  F  F153  1  0.69671149  0.00976828  0.31547460  1
  F  F154  1  0.80328851  0.99023172  0.81547460  1
  F  F155  1  0.30328851  0.50976828  0.18452540  1
  F  F156  1  0.72584851  0.66233197  0.30531767  1
  F  F157  1  0.22584851  0.83766803  0.69468233  1
  F  F158  1  0.27415149  0.16233197  0.19468233  1
  F  F159  1  0.77415149  0.33766803  0.80531767  1
  F  F160  1  0.27415149  0.33766803  0.69468233  1
  F  F161  1  0.77415149  0.16233197  0.30531767  1
  F  F162  1  0.72584851  0.83766803  0.80531767  1
  F  F163  1  0.22584851  0.66233197  0.19468233  1
  F  F164  1  0.89959269  0.70507305  0.38827229  1
  F  F165  1  0.39959269  0.79492695  0.61172771  1
  F  F166  1  0.10040731  0.20507305  0.11172771  1
  F  F167  1  0.60040731  0.29492695  0.88827229  1
  F  F168  1  0.10040731  0.29492695  0.61172771  1
  F  F169  1  0.60040731  0.20507305  0.38827229  1
  F  F170  1  0.89959269  0.79492695  0.88827229  1
  F  F171  1  0.39959269  0.70507305  0.11172771  1
  F  F172  1  0.93276561  0.61694106  0.26495572  1
  F  F173  1  0.43276561  0.88305894  0.73504428  1
  F  F174  1  0.06723439  0.11694106  0.23504428  1
  F  F175  1  0.56723439  0.38305894  0.76495572  1
  F  F176  1  0.06723439  0.38305894  0.73504428  1
  F  F177  1  0.56723439  0.11694106  0.26495572  1
  F  F178  1  0.93276561  0.88305894  0.76495572  1
  F  F179  1  0.43276561  0.61694106  0.23504428  1
  F  F180  1  0.09145832  0.71575581  0.30276185  1
  F  F181  1  0.59145832  0.78424419  0.69723815  1
  F  F182  1  0.90854168  0.21575581  0.19723815  1
  F  F183  1  0.40854168  0.28424419  0.80276185  1
  F  F184  1  0.90854168  0.28424419  0.69723815  1
  F  F185  1  0.40854168  0.21575581  0.30276185  1
  F  F186  1  0.09145832  0.78424419  0.80276185  1
  F  F187  1  0.59145832  0.71575581  0.19723815  1
  F  F188  1  0.08209523  0.53876594  0.17767498  1
  F  F189  1  0.58209523  0.96123406  0.82232502  1
  F  F190  1  0.91790477  0.03876594  0.32232502  1
  F  F191  1  0.41790477  0.46123406  0.67767498  1
  F  F192  1  0.91790477  0.46123406  0.82232502  1
  F  F193  1  0.41790477  0.03876594  0.17767498  1
  F  F194  1  0.08209523  0.96123406  0.67767498  1
  F  F195  1  0.58209523  0.53876594  0.32232502  1
  F  F196  1  0.14147464  0.56767650  0.31070342  1
  F  F197  1  0.64147464  0.93232350  0.68929658  1
  F  F198  1  0.85852536  0.06767650  0.18929658  1
  F  F199  1  0.35852536  0.43232350  0.81070342  1
  F  F200  1  0.85852536  0.43232350  0.68929658  1
  F  F201  1  0.35852536  0.06767650  0.31070342  1
  F  F202  1  0.14147464  0.93232350  0.81070342  1
  F  F203  1  0.64147464  0.56767650  0.18929658  1
  F  F204  1  0.02621446  0.69390069  0.15115589  1
  F  F205  1  0.52621446  0.80609931  0.84884411  1
  F  F206  1  0.97378554  0.19390069  0.34884411  1
  F  F207  1  0.47378554  0.30609931  0.65115589  1
  F  F208  1  0.97378554  0.30609931  0.84884411  1
  F  F209  1  0.47378554  0.19390069  0.15115589  1
  F  F210  1  0.02621446  0.80609931  0.65115589  1
  F  F211  1  0.52621446  0.69390069  0.34884411  1
