# generated using pymatgen
data_RePtN5Cl8O
_symmetry_space_group_name_H-M   'P 1'
_cell_length_a   8.16398700
_cell_length_b   8.56190000
_cell_length_c   25.49276900
_cell_angle_alpha   90.00000000
_cell_angle_beta   90.00000000
_cell_angle_gamma   90.00000000
_symmetry_Int_Tables_number   1
_chemical_formula_structural   RePtN5Cl8O
_chemical_formula_sum   'Re4 Pt4 N20 Cl32 O4'
_cell_volume   1781.92518612
_cell_formula_units_Z   4
loop_
 _symmetry_equiv_pos_site_id
 _symmetry_equiv_pos_as_xyz
  1  'x, y, z'
loop_
 _atom_site_type_symbol
 _atom_site_label
 _atom_site_symmetry_multiplicity
 _atom_site_fract_x
 _atom_site_fract_y
 _atom_site_fract_z
 _atom_site_occupancy
  Re  Re0  1  0.25000000  0.76205900  0.08009000  1
  Re  Re1  1  0.25000000  0.73794100  0.58009000  1
  Re  Re2  1  0.75000000  0.23794100  0.91991000  1
  Re  Re3  1  0.75000000  0.26205900  0.41991000  1
  Pt  Pt4  1  0.25000000  0.81960000  0.84105400  1
  Pt  Pt5  1  0.25000000  0.68040000  0.34105400  1
  Pt  Pt6  1  0.75000000  0.18040000  0.15894600  1
  Pt  Pt7  1  0.75000000  0.31960000  0.65894600  1
  N  N8  1  0.25000000  0.99102900  0.88602900  1
  N  N9  1  0.25000000  0.50897100  0.38602900  1
  N  N10  1  0.75000000  0.00897100  0.11397100  1
  N  N11  1  0.75000000  0.49102900  0.61397100  1
  N  N12  1  0.09367100  0.95555700  0.78492900  1
  N  N13  1  0.40632900  0.54444300  0.28492900  1
  N  N14  1  0.59367100  0.04444300  0.21507100  1
  N  N15  1  0.90632900  0.45555700  0.71507100  1
  N  N16  1  0.90632900  0.04444300  0.21507100  1
  N  N17  1  0.59367100  0.45555700  0.71507100  1
  N  N18  1  0.40632900  0.95555700  0.78492900  1
  N  N19  1  0.09367100  0.54444300  0.28492900  1
  N  N20  1  0.11729900  0.66728300  0.88299500  1
  N  N21  1  0.38270100  0.83271700  0.38299500  1
  N  N22  1  0.61729900  0.33271700  0.11700500  1
  N  N23  1  0.88270100  0.16728300  0.61700500  1
  N  N24  1  0.88270100  0.33271700  0.11700500  1
  N  N25  1  0.61729900  0.16728300  0.61700500  1
  N  N26  1  0.38270100  0.66728300  0.88299500  1
  N  N27  1  0.11729900  0.83271700  0.38299500  1
  Cl  Cl28  1  0.25000000  0.49980300  0.06144700  1
  Cl  Cl29  1  0.25000000  0.00019700  0.56144700  1
  Cl  Cl30  1  0.75000000  0.50019700  0.93855300  1
  Cl  Cl31  1  0.75000000  0.99980300  0.43855300  1
  Cl  Cl32  1  0.05120200  0.72243300  0.14249300  1
  Cl  Cl33  1  0.44879800  0.77756700  0.64249300  1
  Cl  Cl34  1  0.55120200  0.27756700  0.85750700  1
  Cl  Cl35  1  0.94879800  0.22243300  0.35750700  1
  Cl  Cl36  1  0.94879800  0.27756700  0.85750700  1
  Cl  Cl37  1  0.55120200  0.22243300  0.35750700  1
  Cl  Cl38  1  0.44879800  0.72243300  0.14249300  1
  Cl  Cl39  1  0.05120200  0.77756700  0.64249300  1
  Cl  Cl40  1  0.05125600  0.80181900  0.01767300  1
  Cl  Cl41  1  0.44874400  0.69818100  0.51767300  1
  Cl  Cl42  1  0.55125600  0.19818100  0.98232700  1
  Cl  Cl43  1  0.94874400  0.30181900  0.48232700  1
  Cl  Cl44  1  0.94874400  0.19818100  0.98232700  1
  Cl  Cl45  1  0.55125600  0.30181900  0.48232700  1
  Cl  Cl46  1  0.44874400  0.80181900  0.01767300  1
  Cl  Cl47  1  0.05125600  0.69818100  0.51767300  1
  Cl  Cl48  1  0.25000000  0.02463600  0.09953300  1
  Cl  Cl49  1  0.25000000  0.47536400  0.59953300  1
  Cl  Cl50  1  0.75000000  0.97536400  0.90046700  1
  Cl  Cl51  1  0.75000000  0.52463600  0.40046700  1
  Cl  Cl52  1  0.25000000  0.63113700  0.77107000  1
  Cl  Cl53  1  0.25000000  0.86886300  0.27107000  1
  Cl  Cl54  1  0.75000000  0.36886300  0.22893000  1
  Cl  Cl55  1  0.75000000  0.13113700  0.72893000  1
  Cl  Cl56  1  0.75000000  0.98379200  0.24198900  1
  Cl  Cl57  1  0.75000000  0.51620800  0.74198900  1
  Cl  Cl58  1  0.25000000  0.01620800  0.75801100  1
  Cl  Cl59  1  0.25000000  0.48379200  0.25801100  1
  O  O60  1  0.25000000  0.59126400  0.90151400  1
  O  O61  1  0.25000000  0.90873600  0.40151400  1
  O  O62  1  0.75000000  0.40873600  0.09848600  1
  O  O63  1  0.75000000  0.09126400  0.59848600  1
