# generated using pymatgen
data_AlSnPH18(C3Cl2)2
_symmetry_space_group_name_H-M   'P 1'
_cell_length_a   9.19312900
_cell_length_b   11.35710100
_cell_length_c   18.88850900
_cell_angle_alpha   90.00000000
_cell_angle_beta   90.00000000
_cell_angle_gamma   90.00000000
_symmetry_Int_Tables_number   1
_chemical_formula_structural   AlSnPH18(C3Cl2)2
_chemical_formula_sum   'Al4 Sn4 P4 H72 C24 Cl16'
_cell_volume   1972.09812294
_cell_formula_units_Z   4
loop_
 _symmetry_equiv_pos_site_id
 _symmetry_equiv_pos_as_xyz
  1  'x, y, z'
loop_
 _atom_site_type_symbol
 _atom_site_label
 _atom_site_symmetry_multiplicity
 _atom_site_fract_x
 _atom_site_fract_y
 _atom_site_fract_z
 _atom_site_occupancy
  Al  Al0  1  0.18937000  0.75000000  0.62462900  1
  Al  Al1  1  0.31063000  0.75000000  0.12462900  1
  Al  Al2  1  0.81063000  0.25000000  0.37537100  1
  Al  Al3  1  0.68937000  0.25000000  0.87537100  1
  Sn  Sn4  1  0.67931600  0.75000000  0.80257500  1
  Sn  Sn5  1  0.82068400  0.75000000  0.30257500  1
  Sn  Sn6  1  0.32068400  0.25000000  0.19742500  1
  Sn  Sn7  1  0.17931600  0.25000000  0.69742500  1
  P  P8  1  0.85916600  0.75000000  0.91243900  1
  P  P9  1  0.64083400  0.75000000  0.41243800  1
  P  P10  1  0.14083400  0.25000000  0.08756100  1
  P  P11  1  0.35916600  0.25000000  0.58756100  1
  H  H12  1  0.04642000  0.62862500  0.96448100  1
  H  H13  1  0.45358000  0.87137500  0.46448100  1
  H  H14  1  0.95358000  0.12862500  0.03551900  1
  H  H15  1  0.54642000  0.37137500  0.53551900  1
  H  H16  1  0.95358000  0.37137500  0.03551900  1
  H  H17  1  0.54642000  0.12862500  0.53551900  1
  H  H18  1  0.04642000  0.87137500  0.96448100  1
  H  H19  1  0.45358000  0.62862500  0.46448100  1
  H  H20  1  0.04966000  0.62255100  0.86980500  1
  H  H21  1  0.45034000  0.87744900  0.36980500  1
  H  H22  1  0.95034000  0.12255100  0.13019500  1
  H  H23  1  0.54966000  0.37744900  0.63019500  1
  H  H24  1  0.95034000  0.37744900  0.13019500  1
  H  H25  1  0.54966000  0.12255100  0.63019500  1
  H  H26  1  0.04966000  0.87744900  0.86980500  1
  H  H27  1  0.45034000  0.62255100  0.36980500  1
  H  H28  1  0.91447300  0.54166000  0.91784400  1
  H  H29  1  0.58552700  0.95834000  0.41784400  1
  H  H30  1  0.08552700  0.04166000  0.08215600  1
  H  H31  1  0.41447300  0.45834000  0.58215600  1
  H  H32  1  0.08552700  0.45834000  0.08215600  1
  H  H33  1  0.41447300  0.04166000  0.58215600  1
  H  H34  1  0.91447300  0.95834000  0.91784400  1
  H  H35  1  0.58552700  0.54166000  0.41784400  1
  H  H36  1  0.83498900  0.75000000  0.03944900  1
  H  H37  1  0.66501100  0.75000000  0.53944900  1
  H  H38  1  0.16501100  0.25000000  0.96055100  1
  H  H39  1  0.33498900  0.25000000  0.46055100  1
  H  H40  1  0.68916900  0.67131500  0.99738500  1
  H  H41  1  0.81083100  0.82868500  0.49738500  1
  H  H42  1  0.31083100  0.17131500  0.00261500  1
  H  H43  1  0.18916900  0.32868500  0.50261500  1
  H  H44  1  0.31083100  0.32868500  0.00261500  1
  H  H45  1  0.18916900  0.17131500  0.50261500  1
  H  H46  1  0.68916900  0.82868500  0.99738500  1
  H  H47  1  0.81083100  0.67131500  0.49738500  1
  H  H48  1  0.62707800  0.53810000  0.74119900  1
  H  H49  1  0.87292200  0.96190000  0.24119900  1
  H  H50  1  0.37292200  0.03810000  0.25880100  1
  H  H51  1  0.12707800  0.46190000  0.75880100  1
  H  H52  1  0.37292200  0.46190000  0.25880100  1
  H  H53  1  0.12707800  0.03810000  0.75880100  1
  H  H54  1  0.62707800  0.96190000  0.74119900  1
  H  H55  1  0.87292200  0.53810000  0.24119900  1
  H  H56  1  0.80838900  0.53812600  0.77495100  1
  H  H57  1  0.69161100  0.96187400  0.27495100  1
  H  H58  1  0.19161100  0.03812600  0.22504900  1
  H  H59  1  0.30838900  0.46187400  0.72504900  1
  H  H60  1  0.19161100  0.46187400  0.22504900  1
  H  H61  1  0.30838900  0.03812600  0.72504900  1
  H  H62  1  0.80838900  0.96187400  0.77495100  1
  H  H63  1  0.69161100  0.53812600  0.27495100  1
  H  H64  1  0.76956000  0.61298700  0.69390600  1
  H  H65  1  0.73044000  0.88701300  0.19390600  1
  H  H66  1  0.23044000  0.11298700  0.30609400  1
  H  H67  1  0.26956000  0.38701300  0.80609400  1
  H  H68  1  0.23044000  0.38701300  0.30609400  1
  H  H69  1  0.26956000  0.11298700  0.80609400  1
  H  H70  1  0.76956000  0.88701300  0.69390600  1
  H  H71  1  0.73044000  0.61298700  0.19390600  1
  H  H72  1  0.38699100  0.75000000  0.81273700  1
  H  H73  1  0.11300900  0.75000000  0.31273700  1
  H  H74  1  0.61300900  0.25000000  0.18726300  1
  H  H75  1  0.88699100  0.25000000  0.68726300  1
  H  H76  1  0.46012500  0.82921500  0.88672500  1
  H  H77  1  0.03987500  0.67078500  0.38672500  1
  H  H78  1  0.53987500  0.32921500  0.11327500  1
  H  H79  1  0.96012500  0.17078500  0.61327500  1
  H  H80  1  0.53987500  0.17078500  0.11327500  1
  H  H81  1  0.96012500  0.32921500  0.61327500  1
  H  H82  1  0.46012500  0.67078500  0.88672500  1
  H  H83  1  0.03987500  0.82921500  0.38672500  1
  C  C84  1  0.97883300  0.62302900  0.91646900  1
  C  C85  1  0.52116700  0.87697100  0.41646900  1
  C  C86  1  0.02116700  0.12302900  0.08353100  1
  C  C87  1  0.47883300  0.37697100  0.58353100  1
  C  C88  1  0.02116700  0.37697100  0.08353100  1
  C  C89  1  0.47883300  0.12302900  0.58353100  1
  C  C90  1  0.97883300  0.87697100  0.91646900  1
  C  C91  1  0.52116700  0.62302900  0.41646900  1
  C  C92  1  0.75804200  0.75000000  0.99466300  1
  C  C93  1  0.74195800  0.75000000  0.49466300  1
  C  C94  1  0.24195800  0.25000000  0.00533700  1
  C  C95  1  0.25804200  0.25000000  0.50533700  1
  C  C96  1  0.72703100  0.58982900  0.74622700  1
  C  C97  1  0.77296900  0.91017100  0.24622700  1
  C  C98  1  0.27296900  0.08982900  0.25377300  1
  C  C99  1  0.22703100  0.41017100  0.75377300  1
  C  C100  1  0.27296900  0.41017100  0.25377300  1
  C  C101  1  0.22703100  0.08982900  0.75377300  1
  C  C102  1  0.72703100  0.91017100  0.74622700  1
  C  C103  1  0.77296900  0.58982900  0.24622700  1
  C  C104  1  0.47084200  0.75000000  0.85400300  1
  C  C105  1  0.02915800  0.75000000  0.35400300  1
  C  C106  1  0.52915800  0.25000000  0.14599700  1
  C  C107  1  0.97084200  0.25000000  0.64599700  1
  Cl  Cl108  1  0.08886100  0.75000000  0.72827200  1
  Cl  Cl109  1  0.41113900  0.75000000  0.22827200  1
  Cl  Cl110  1  0.91113900  0.25000000  0.27172800  1
  Cl  Cl111  1  0.58886100  0.25000000  0.77172800  1
  Cl  Cl112  1  0.42453000  0.75000000  0.63754900  1
  Cl  Cl113  1  0.07547000  0.75000000  0.13754900  1
  Cl  Cl114  1  0.57547000  0.25000000  0.36245100  1
  Cl  Cl115  1  0.92453000  0.25000000  0.86245100  1
  Cl  Cl116  1  0.12646800  0.59359100  0.56710000  1
  Cl  Cl117  1  0.37353200  0.90640900  0.06710000  1
  Cl  Cl118  1  0.87353200  0.09359100  0.43290000  1
  Cl  Cl119  1  0.62646800  0.40640900  0.93290000  1
  Cl  Cl120  1  0.87353200  0.40640900  0.43290000  1
  Cl  Cl121  1  0.62646800  0.09359100  0.93290000  1
  Cl  Cl122  1  0.12646800  0.90640900  0.56710000  1
  Cl  Cl123  1  0.37353200  0.59359100  0.06710000  1
