# generated using pymatgen
data_NaP3H24(N2O7)2
_symmetry_space_group_name_H-M   'P 1'
_cell_length_a   6.99857397
_cell_length_b   6.99857397
_cell_length_c   19.91810588
_cell_angle_alpha   94.12219441
_cell_angle_beta   96.86742882
_cell_angle_gamma   117.07207273
_symmetry_Int_Tables_number   1
_chemical_formula_structural   NaP3H24(N2O7)2
_chemical_formula_sum   'Na2 P6 H48 N8 O28'
_cell_volume   853.61886885
_cell_formula_units_Z   2
loop_
 _symmetry_equiv_pos_site_id
 _symmetry_equiv_pos_as_xyz
  1  'x, y, z'
loop_
 _atom_site_type_symbol
 _atom_site_label
 _atom_site_symmetry_multiplicity
 _atom_site_fract_x
 _atom_site_fract_y
 _atom_site_fract_z
 _atom_site_occupancy
  Na  Na0  1  0.00000000  0.00000000  0.00000000  1
  Na  Na1  1  0.50000000  0.00000000  0.50000000  1
  P  P2  1  0.82513500  0.07513500  0.75000000  1
  P  P3  1  0.17486500  0.92486500  0.25000000  1
  P  P4  1  0.00109200  0.28994900  0.63051700  1
  P  P5  1  0.15943200  0.37057500  0.86948300  1
  P  P6  1  0.99890800  0.71005100  0.36948300  1
  P  P7  1  0.84056800  0.62942500  0.13051700  1
  H  H8  1  0.34516900  0.64196200  0.40096200  1
  H  H9  1  0.74100000  0.94420700  0.09903800  1
  H  H10  1  0.65483100  0.35803800  0.59903800  1
  H  H11  1  0.25900000  0.05579300  0.90096200  1
  H  H12  1  0.57959000  0.65552200  0.41476800  1
  H  H13  1  0.74075300  0.16482100  0.08523200  1
  H  H14  1  0.42041000  0.34447800  0.58523200  1
  H  H15  1  0.25924700  0.83517900  0.91476800  1
  H  H16  1  0.66931900  0.31942400  0.39679500  1
  H  H17  1  0.42262900  0.27252300  0.10320500  1
  H  H18  1  0.33068100  0.68057600  0.60320500  1
  H  H19  1  0.57737100  0.72747700  0.89679500  1
  H  H20  1  0.21800500  0.17587600  0.13814500  1
  H  H21  1  0.53773100  0.07986000  0.36185500  1
  H  H22  1  0.78199500  0.82412400  0.86185500  1
  H  H23  1  0.46226900  0.92014000  0.63814500  1
  H  H24  1  0.58003900  0.58677900  0.29822800  1
  H  H25  1  0.78855100  0.28181100  0.20177200  1
  H  H26  1  0.41996100  0.41322100  0.70177200  1
  H  H27  1  0.21144900  0.71818900  0.79822800  1
  H  H28  1  0.35512700  0.41087300  0.24207700  1
  H  H29  1  0.66879600  0.11305000  0.25792300  1
  H  H30  1  0.64487300  0.58912700  0.75792300  1
  H  H31  1  0.33120400  0.88695000  0.74207700  1
  H  H32  1  0.55682300  0.62745600  0.21423300  1
  H  H33  1  0.91322300  0.34259000  0.28576700  1
  H  H34  1  0.44317700  0.37254400  0.78576700  1
  H  H35  1  0.08677700  0.65741000  0.71423300  1
  H  H36  1  0.40014600  0.67184900  0.26507600  1
  H  H37  1  0.90677400  0.13507000  0.23492400  1
  H  H38  1  0.59985400  0.32815100  0.73492400  1
  H  H39  1  0.09322600  0.86493000  0.76507600  1
  H  H40  1  0.77998600  0.46798500  0.00241200  1
  H  H41  1  0.96557200  0.77757400  0.49758800  1
  H  H42  1  0.22001400  0.53201500  0.99758800  1
  H  H43  1  0.03442800  0.22242600  0.50241200  1
  H  H44  1  0.16803600  0.67983100  0.05711900  1
  H  H45  1  0.12271200  0.11091700  0.44288100  1
  H  H46  1  0.83196400  0.32016900  0.94288100  1
  H  H47  1  0.87728800  0.88908300  0.55711900  1
  H  H48  1  0.24697700  0.38919500  0.46241400  1
  H  H49  1  0.42678100  0.78456300  0.03758600  1
  H  H50  1  0.75302300  0.61080500  0.53758600  1
  H  H51  1  0.57321900  0.21543700  0.96241400  1
  H  H52  1  0.33269800  0.56571300  0.07908700  1
  H  H53  1  0.98662600  0.25361100  0.42091300  1
  H  H54  1  0.66730200  0.43428700  0.92091300  1
  H  H55  1  0.01337400  0.74638900  0.57908700  1
  N  N56  1  0.47085300  0.57318100  0.25471300  1
  N  N57  1  0.81846800  0.21614000  0.24528700  1
  N  N58  1  0.52914700  0.42681900  0.74528700  1
  N  N59  1  0.18153200  0.78386000  0.75471300  1
  N  N60  1  0.28999300  0.64381400  0.04291800  1
  N  N61  1  0.10089500  0.24707500  0.45708200  1
  N  N62  1  0.71000700  0.35618600  0.95708200  1
  N  N63  1  0.89910500  0.75292500  0.54291800  1
  O  O64  1  0.05831900  0.71512800  0.19190800  1
  O  O65  1  0.02322000  0.86641100  0.30809200  1
  O  O66  1  0.94168100  0.28487200  0.80809200  1
  O  O67  1  0.97678000  0.13358900  0.69190800  1
  O  O68  1  0.39569900  0.94438700  0.27655400  1
  O  O69  1  0.16783400  0.11914500  0.22344600  1
  O  O70  1  0.60430100  0.05561300  0.72344600  1
  O  O71  1  0.83216600  0.88085500  0.77655400  1
  O  O72  1  0.93323000  0.68879600  0.06469900  1
  O  O73  1  0.12409700  0.86853100  0.43530100  1
  O  O74  1  0.06677000  0.31120400  0.93530100  1
  O  O75  1  0.87590300  0.13146900  0.56469900  1
  O  O76  1  0.72212600  0.38310100  0.13077400  1
  O  O77  1  0.75232700  0.59135200  0.36922600  1
  O  O78  1  0.27787400  0.61689900  0.86922600  1
  O  O79  1  0.24767300  0.40864800  0.63077400  1
  O  O80  1  0.09205400  0.55867100  0.35003600  1
  O  O81  1  0.70863500  0.74201800  0.14996400  1
  O  O82  1  0.90794600  0.44132900  0.64996400  1
  O  O83  1  0.29136500  0.25798200  0.85003600  1
  O  O84  1  0.46701400  0.66692900  0.43803000  1
  O  O85  1  0.72889900  0.02898500  0.06197000  1
  O  O86  1  0.53298600  0.33307100  0.56197000  1
  O  O87  1  0.27110100  0.97101500  0.93803000  1
  O  O88  1  0.26629200  0.23343500  0.09581900  1
  O  O89  1  0.63761500  0.17047300  0.40418100  1
  O  O90  1  0.73370800  0.76656500  0.90418100  1
  O  O91  1  0.36238500  0.82952700  0.59581900  1
