# generated using pymatgen
data_H16AuC12S2N3O4
_symmetry_space_group_name_H-M   'P 1'
_cell_length_a   6.26793063
_cell_length_b   10.08265064
_cell_length_c   17.14564886
_cell_angle_alpha   100.83225553
_cell_angle_beta   98.29237555
_cell_angle_gamma   105.61371776
_symmetry_Int_Tables_number   1
_chemical_formula_structural   H16AuC12S2N3O4
_chemical_formula_sum   'H32 Au2 C24 S4 N6 O8'
_cell_volume   1003.00848111
_cell_formula_units_Z   2
loop_
 _symmetry_equiv_pos_site_id
 _symmetry_equiv_pos_as_xyz
  1  'x, y, z'
loop_
 _atom_site_type_symbol
 _atom_site_label
 _atom_site_symmetry_multiplicity
 _atom_site_fract_x
 _atom_site_fract_y
 _atom_site_fract_z
 _atom_site_occupancy
  H  H0  1  0.93457800  0.91141000  0.29534000  1
  H  H1  1  0.06542200  0.08859000  0.70466000  1
  H  H2  1  0.89506300  0.93937700  0.39614500  1
  H  H3  1  0.10493700  0.06062300  0.60385500  1
  H  H4  1  0.28276200  0.77517500  0.94556400  1
  H  H5  1  0.71723800  0.22482500  0.05443600  1
  H  H6  1  0.07774700  0.62242300  0.95239500  1
  H  H7  1  0.92225300  0.37757700  0.04760500  1
  H  H8  1  0.35668300  0.41760600  0.35565500  1
  H  H9  1  0.64331700  0.58239400  0.64434500  1
  H  H10  1  0.32487200  0.54451600  0.43912400  1
  H  H11  1  0.67512800  0.45548400  0.56087600  1
  H  H12  1  0.11890900  0.37144100  0.40398200  1
  H  H13  1  0.88109100  0.62855900  0.59601800  1
  H  H14  1  0.09314100  0.36018500  0.22336300  1
  H  H15  1  0.90685900  0.63981500  0.77663700  1
  H  H16  1  0.86365900  0.30951000  0.27522500  1
  H  H17  1  0.13634100  0.69049000  0.72477500  1
  H  H18  1  0.86867100  0.43905600  0.21562100  1
  H  H19  1  0.13132900  0.56094400  0.78437900  1
  H  H20  1  0.82740200  0.48026900  0.38827500  1
  H  H21  1  0.17259800  0.51973100  0.61172500  1
  H  H22  1  0.03459400  0.65259400  0.42366200  1
  H  H23  1  0.96540600  0.34740600  0.57633800  1
  H  H24  1  0.84037400  0.60902300  0.32682700  1
  H  H25  1  0.15962600  0.39097700  0.67317300  1
  H  H26  1  0.15183500  0.67424400  0.26392100  1
  H  H27  1  0.84816500  0.32575600  0.73607900  1
  H  H28  1  0.35830500  0.71091300  0.35691800  1
  H  H29  1  0.64169500  0.28908700  0.64308200  1
  H  H30  1  0.36532000  0.58650200  0.26768000  1
  H  H31  1  0.63468000  0.41349800  0.73232000  1
  Au  Au32  1  0.10343300  0.98037700  0.15634900  1
  Au  Au33  1  0.89656700  0.01962300  0.84365100  1
  C  C34  1  0.39278600  0.08951900  0.34215900  1
  C  C35  1  0.60721400  0.91048100  0.65784100  1
  C  C36  1  0.21003100  0.04103000  0.38107600  1
  C  C37  1  0.78996900  0.95897000  0.61892400  1
  C  C38  1  0.60381300  0.77104400  0.07620900  1
  C  C39  1  0.39618700  0.22895600  0.92379100  1
  C  C40  1  0.38160600  0.68564900  0.03468200  1
  C  C41  1  0.61839400  0.31435100  0.96531800  1
  C  C42  1  0.54118100  0.17446200  0.42028400  1
  C  C43  1  0.45881900  0.82553800  0.57971600  1
  C  C44  1  0.34941300  0.12056800  0.46211000  1
  C  C45  1  0.65058700  0.87943200  0.53789000  1
  C  C46  1  0.60210200  0.68615000  0.13776000  1
  C  C47  1  0.39789800  0.31385000  0.86224000  1
  C  C48  1  0.36680100  0.59345300  0.09216500  1
  C  C49  1  0.63319900  0.40654700  0.90783500  1
  C  C50  1  0.23615400  0.45704000  0.38615400  1
  C  C51  1  0.76384600  0.54296000  0.61384600  1
  C  C52  1  0.97184300  0.39604300  0.25514700  1
  C  C53  1  0.02815700  0.60395700  0.74485300  1
  C  C54  1  0.93723000  0.56860100  0.37003300  1
  C  C55  1  0.06277000  0.43139900  0.62996700  1
  C  C56  1  0.25632300  0.63048600  0.30240900  1
  C  C57  1  0.74367700  0.36951400  0.69759100  1
  S  S58  1  0.44528800  0.06731400  0.24726900  1
  S  S59  1  0.55471200  0.93268600  0.75273100  1
  S  S60  1  0.77964300  0.91502300  0.05707500  1
  S  S61  1  0.22035700  0.08497700  0.94292500  1
  N  N62  1  0.99783000  0.95889700  0.35555700  1
  N  N63  1  0.00217000  0.04110300  0.64444300  1
  N  N64  1  0.24079400  0.69035100  0.97048100  1
  N  N65  1  0.75920600  0.30964900  0.02951900  1
  N  N66  1  0.10086200  0.51280100  0.32820800  1
  N  N67  1  0.89913800  0.48719900  0.67179200  1
  O  O68  1  0.73585400  0.25876000  0.44166400  1
  O  O69  1  0.26414600  0.74124000  0.55833600  1
  O  O70  1  0.32001900  0.13737800  0.53294500  1
  O  O71  1  0.67998100  0.86262200  0.46705500  1
  O  O72  1  0.73238000  0.69267900  0.20104400  1
  O  O73  1  0.26762000  0.30732100  0.79895600  1
  O  O74  1  0.22076200  0.48893300  0.10038500  1
  O  O75  1  0.77923800  0.51106700  0.89961500  1
