# generated using pymatgen
data_RhN5Cl3
_symmetry_space_group_name_H-M   'P 1'
_cell_length_a   6.72275300
_cell_length_b   7.23462600
_cell_length_c   14.33028700
_cell_angle_alpha   90.00000000
_cell_angle_beta   90.00000000
_cell_angle_gamma   90.00000000
_symmetry_Int_Tables_number   1
_chemical_formula_structural   RhN5Cl3
_chemical_formula_sum   'Rh4 N20 Cl12'
_cell_volume   696.97648894
_cell_formula_units_Z   4
loop_
 _symmetry_equiv_pos_site_id
 _symmetry_equiv_pos_as_xyz
  1  'x, y, z'
loop_
 _atom_site_type_symbol
 _atom_site_label
 _atom_site_symmetry_multiplicity
 _atom_site_fract_x
 _atom_site_fract_y
 _atom_site_fract_z
 _atom_site_occupancy
  Rh  Rh0  1  0.25000000  0.29509000  0.59229200  1
  Rh  Rh1  1  0.25000000  0.20491000  0.09229200  1
  Rh  Rh2  1  0.75000000  0.70491000  0.40770800  1
  Rh  Rh3  1  0.75000000  0.79509000  0.90770800  1
  N  N4  1  0.56318400  0.29850400  0.62606800  1
  N  N5  1  0.93681600  0.20149600  0.12606800  1
  N  N6  1  0.06318400  0.70149600  0.37393200  1
  N  N7  1  0.43681600  0.79850400  0.87393200  1
  N  N8  1  0.43681600  0.70149600  0.37393200  1
  N  N9  1  0.06318400  0.79850400  0.87393200  1
  N  N10  1  0.93681600  0.29850400  0.62606800  1
  N  N11  1  0.56318400  0.20149600  0.12606800  1
  N  N12  1  0.25000000  0.18578100  0.45395800  1
  N  N13  1  0.25000000  0.31421900  0.95395800  1
  N  N14  1  0.75000000  0.81421900  0.54604200  1
  N  N15  1  0.75000000  0.68578100  0.04604200  1
  N  N16  1  0.25000000  0.13253400  0.68345800  1
  N  N17  1  0.25000000  0.36746600  0.18345800  1
  N  N18  1  0.75000000  0.86746600  0.31654200  1
  N  N19  1  0.75000000  0.63253400  0.81654200  1
  N  N20  1  0.25000000  0.53409300  0.61253300  1
  N  N21  1  0.25000000  0.96590700  0.11253300  1
  N  N22  1  0.75000000  0.46590700  0.38746700  1
  N  N23  1  0.75000000  0.03409300  0.88746700  1
  Cl  Cl24  1  0.25000000  0.73535300  0.43148900  1
  Cl  Cl25  1  0.25000000  0.76464700  0.93148900  1
  Cl  Cl26  1  0.75000000  0.26464700  0.56851100  1
  Cl  Cl27  1  0.75000000  0.23535300  0.06851100  1
  Cl  Cl28  1  0.53879900  0.75751600  0.60977100  1
  Cl  Cl29  1  0.96120100  0.74248400  0.10977100  1
  Cl  Cl30  1  0.03879900  0.24248400  0.39022900  1
  Cl  Cl31  1  0.46120100  0.25751600  0.89022900  1
  Cl  Cl32  1  0.46120100  0.24248400  0.39022900  1
  Cl  Cl33  1  0.03879900  0.25751600  0.89022900  1
  Cl  Cl34  1  0.96120100  0.75751600  0.60977100  1
  Cl  Cl35  1  0.53879900  0.74248400  0.10977100  1
