# generated using pymatgen
data_Sb2H42C15(BrN)9
_symmetry_space_group_name_H-M   'P 1'
_cell_length_a   11.19949000
_cell_length_b   12.51089658
_cell_length_c   15.47157501
_cell_angle_alpha   71.23195900
_cell_angle_beta   88.12613657
_cell_angle_gamma   84.96727419
_symmetry_Int_Tables_number   1
_chemical_formula_structural   Sb2H42C15(BrN)9
_chemical_formula_sum   'Sb4 H84 C30 Br18 N18'
_cell_volume   2044.60897691
_cell_formula_units_Z   2
loop_
 _symmetry_equiv_pos_site_id
 _symmetry_equiv_pos_as_xyz
  1  'x, y, z'
loop_
 _atom_site_type_symbol
 _atom_site_label
 _atom_site_symmetry_multiplicity
 _atom_site_fract_x
 _atom_site_fract_y
 _atom_site_fract_z
 _atom_site_occupancy
  Sb  Sb0  1  0.75410700  0.41534900  0.82506000  1
  Sb  Sb1  1  0.24589300  0.58465100  0.17494000  1
  Sb  Sb2  1  0.78403600  0.20189500  0.68411100  1
  Sb  Sb3  1  0.21596400  0.79810500  0.31588900  1
  H  H4  1  0.58200900  0.45169300  0.27065900  1
  H  H5  1  0.41799100  0.54830700  0.72934100  1
  H  H6  1  0.50351300  0.36283500  0.23335700  1
  H  H7  1  0.49648700  0.63716500  0.76664300  1
  H  H8  1  0.97679100  0.72770600  0.51537600  1
  H  H9  1  0.02320900  0.27229400  0.48462400  1
  H  H10  1  0.90843000  0.60100500  0.54630100  1
  H  H11  1  0.09157000  0.39899500  0.45369900  1
  H  H12  1  0.91614400  0.86801400  0.16532800  1
  H  H13  1  0.08385600  0.13198600  0.83467200  1
  H  H14  1  0.98696300  0.81654700  0.08480200  1
  H  H15  1  0.01303700  0.18345300  0.91519800  1
  H  H16  1  0.54732400  0.16957500  0.30158900  1
  H  H17  1  0.45267600  0.83042500  0.69841100  1
  H  H18  1  0.51440400  0.20518100  0.18283700  1
  H  H19  1  0.48559600  0.79481900  0.81716300  1
  H  H20  1  0.61096200  0.08292700  0.23810400  1
  H  H21  1  0.38903800  0.91707300  0.76189600  1
  H  H22  1  0.82978000  0.27314900  0.11483400  1
  H  H23  1  0.17022000  0.72685100  0.88516600  1
  H  H24  1  0.83253500  0.12677700  0.18392700  1
  H  H25  1  0.16746500  0.87322300  0.81607300  1
  H  H26  1  0.72331200  0.18826200  0.09526700  1
  H  H27  1  0.27668800  0.81173800  0.90473300  1
  H  H28  1  0.71131500  0.55523900  0.17544300  1
  H  H29  1  0.28868500  0.44476100  0.82455700  1
  H  H30  1  0.76965400  0.51464300  0.28942500  1
  H  H31  1  0.23034600  0.48535700  0.71057500  1
  H  H32  1  0.86893100  0.54038700  0.19371900  1
  H  H33  1  0.13106900  0.45961300  0.80628100  1
  H  H34  1  0.89735400  0.23391600  0.27886800  1
  H  H35  1  0.10264600  0.76608400  0.72113200  1
  H  H36  1  0.96837400  0.34047000  0.18980100  1
  H  H37  1  0.03162600  0.65953000  0.81019900  1
  H  H38  1  0.94830700  0.35349400  0.30057600  1
  H  H39  1  0.05169300  0.64650600  0.69942400  1
  H  H40  1  0.89440000  0.83225100  0.61760300  1
  H  H41  1  0.10560000  0.16774900  0.38239700  1
  H  H42  1  0.94588100  0.91910200  0.50809700  1
  H  H43  1  0.05411900  0.08089800  0.49190300  1
  H  H44  1  0.82607700  0.97093800  0.56699600  1
  H  H45  1  0.17392300  0.02906200  0.43300400  1
  H  H46  1  0.64906500  0.90399900  0.40285700  1
  H  H47  1  0.35093500  0.09600100  0.59714300  1
  H  H48  1  0.62710400  0.97356500  0.48741000  1
  H  H49  1  0.37289600  0.02643500  0.51259000  1
  H  H50  1  0.74582900  0.00850800  0.40630200  1
  H  H51  1  0.25417100  0.99149200  0.59369800  1
  H  H52  1  0.80266300  0.58646000  0.42803400  1
  H  H53  1  0.19733700  0.41354000  0.57196600  1
  H  H54  1  0.72639500  0.51322900  0.53127500  1
  H  H55  1  0.27360500  0.48677100  0.46872500  1
  H  H56  1  0.64394900  0.57908800  0.42847600  1
  H  H57  1  0.35605100  0.42091200  0.57152400  1
  H  H58  1  0.57474700  0.77563400  0.55604900  1
  H  H59  1  0.42525300  0.22436600  0.44395100  1
  H  H60  1  0.51725700  0.75616100  0.45539700  1
  H  H61  1  0.48274300  0.24383900  0.54460300  1
  H  H62  1  0.54106800  0.63898900  0.55759300  1
  H  H63  1  0.45893200  0.36101100  0.44240700  1
  H  H64  1  0.79055400  0.75101900  0.25951900  1
  H  H65  1  0.20944600  0.24898100  0.74048100  1
  H  H66  1  0.73315500  0.89396000  0.24271300  1
  H  H67  1  0.26684500  0.10604000  0.75728700  1
  H  H68  1  0.63275500  0.78462200  0.26475900  1
  H  H69  1  0.36724500  0.21537800  0.73524100  1
  H  H70  1  0.59232600  0.91582900  0.01992400  1
  H  H71  1  0.40767400  0.08417100  0.98007600  1
  H  H72  1  0.51564300  0.82790300  0.11738600  1
  H  H73  1  0.48435700  0.17209700  0.88261400  1
  H  H74  1  0.56434200  0.95973100  0.11766200  1
  H  H75  1  0.43565800  0.04026900  0.88233800  1
  H  H76  1  0.93888700  0.91135000  0.93824500  1
  H  H77  1  0.06111300  0.08865000  0.06175500  1
  H  H78  1  0.94441300  0.77183600  0.92782800  1
  H  H79  1  0.05558700  0.22816400  0.07217200  1
  H  H80  1  0.84317100  0.88441400  0.86005100  1
  H  H81  1  0.15682900  0.11558600  0.13994900  1
  H  H82  1  0.64233500  0.71915100  0.03427700  1
  H  H83  1  0.35766500  0.28084900  0.96572300  1
  H  H84  1  0.64511800  0.80813800  0.91759800  1
  H  H85  1  0.35488200  0.19186200  0.08240200  1
  H  H86  1  0.74452900  0.68338500  0.95510400  1
  H  H87  1  0.25547100  0.31661500  0.04489600  1
  C  C88  1  0.68896100  0.33533700  0.22850700  1
  C  C89  1  0.31103900  0.66466300  0.77149300  1
  C  C90  1  0.58458100  0.17054600  0.23499600  1
  C  C91  1  0.41541900  0.82945400  0.76500400  1
  C  C92  1  0.77469300  0.20347000  0.14885100  1
  C  C93  1  0.22530700  0.79653000  0.85114900  1
  C  C94  1  0.78360700  0.50606600  0.22101500  1
  C  C95  1  0.21639300  0.49393400  0.77898500  1
  C  C96  1  0.90781400  0.32466700  0.24916900  1
  C  C97  1  0.09218600  0.67533300  0.75083100  1
  C  C98  1  0.79184300  0.74439800  0.50739300  1
  C  C99  1  0.20815700  0.25560200  0.49260700  1
  C  C100  1  0.86708000  0.89559500  0.55255200  1
  C  C101  1  0.13292000  0.10440500  0.44744800  1
  C  C102  1  0.69448500  0.93877700  0.44812700  1
  C  C103  1  0.30551500  0.06122300  0.55187300  1
  C  C104  1  0.72030300  0.58656600  0.46838000  1
  C  C105  1  0.27969700  0.41343400  0.53162000  1
  C  C106  1  0.57574700  0.71867300  0.51515000  1
  C  C107  1  0.42425300  0.28132700  0.48485000  1
  C  C108  1  0.80133700  0.83076500  0.07919300  1
  C  C109  1  0.19866300  0.16923500  0.92080700  1
  C  C110  1  0.71648800  0.81456800  0.23017300  1
  C  C111  1  0.28351200  0.18543200  0.76982700  1
  C  C112  1  0.58694700  0.88597800  0.09448600  1
  C  C113  1  0.41305300  0.11402200  0.90551300  1
  C  C114  1  0.88589600  0.84754400  0.92722400  1
  C  C115  1  0.11410400  0.15245600  0.07277600  1
  C  C116  1  0.70008300  0.75377700  0.97527900  1
  C  C117  1  0.29991700  0.24622300  0.02472100  1
  Br  Br118  1  0.58616800  0.40792300  0.94944200  1
  Br  Br119  1  0.41383200  0.59207700  0.05055800  1
  Br  Br120  1  0.93902600  0.39060300  0.67132700  1
  Br  Br121  1  0.06097400  0.60939700  0.32867300  1
  Br  Br122  1  0.92771100  0.42466700  0.93577400  1
  Br  Br123  1  0.07228900  0.57533300  0.06422600  1
  Br  Br124  1  0.57357700  0.37223300  0.69365100  1
  Br  Br125  1  0.42642300  0.62776700  0.30634900  1
  Br  Br126  1  0.72074300  0.64641600  0.75457900  1
  Br  Br127  1  0.27925700  0.35358400  0.24542100  1
  Br  Br128  1  0.78318200  0.16104500  0.88881900  1
  Br  Br129  1  0.21681800  0.83895500  0.11118100  1
  Br  Br130  1  0.63815700  0.03358000  0.70545200  1
  Br  Br131  1  0.36184300  0.96642000  0.29454800  1
  Br  Br132  1  0.78470000  0.25412500  0.49872800  1
  Br  Br133  1  0.21530000  0.74587500  0.50127200  1
  Br  Br134  1  0.98972900  0.06166600  0.70228100  1
  Br  Br135  1  0.01027100  0.93833400  0.29771900  1
  N  N136  1  0.58465800  0.38248400  0.24971100  1
  N  N137  1  0.41534200  0.61751600  0.75028900  1
  N  N138  1  0.69062800  0.23440600  0.21321800  1
  N  N139  1  0.30937200  0.76559400  0.78678200  1
  N  N140  1  0.79044100  0.38753200  0.22472000  1
  N  N141  1  0.20955900  0.61246800  0.77528000  1
  N  N142  1  0.89998100  0.68722100  0.52560300  1
  N  N143  1  0.10001900  0.31277900  0.47439700  1
  N  N144  1  0.77747700  0.85250800  0.50852400  1
  N  N145  1  0.22252300  0.14749200  0.49147600  1
  N  N146  1  0.69909300  0.69322600  0.48868200  1
  N  N147  1  0.30090700  0.30677400  0.51131800  1
  N  N148  1  0.90866900  0.84368600  0.10913200  1
  N  N149  1  0.09133100  0.15631400  0.89086800  1
  N  N150  1  0.70323700  0.83117800  0.13296000  1
  N  N151  1  0.29676300  0.16882200  0.86704000  1
  N  N152  1  0.79188700  0.81774200  0.99643800  1
  N  N153  1  0.20811300  0.18225800  0.00356200  1
