# generated using pymatgen
data_H7C2S2N4ClO3
_symmetry_space_group_name_H-M   'P 1'
_cell_length_a   5.35892700
_cell_length_b   10.15908300
_cell_length_c   17.22471800
_cell_angle_alpha   90.00000000
_cell_angle_beta   90.00000000
_cell_angle_gamma   90.00000000
_symmetry_Int_Tables_number   1
_chemical_formula_structural   H7C2S2N4ClO3
_chemical_formula_sum   'H28 C8 S8 N16 Cl4 O12'
_cell_volume   937.74437999
_cell_formula_units_Z   4
loop_
 _symmetry_equiv_pos_site_id
 _symmetry_equiv_pos_as_xyz
  1  'x, y, z'
loop_
 _atom_site_type_symbol
 _atom_site_label
 _atom_site_symmetry_multiplicity
 _atom_site_fract_x
 _atom_site_fract_y
 _atom_site_fract_z
 _atom_site_occupancy
  H  H0  1  0.28591600  0.02855000  0.70190500  1
  H  H1  1  0.21408400  0.97145000  0.20190500  1
  H  H2  1  0.71408400  0.52855000  0.79809500  1
  H  H3  1  0.78591600  0.47145000  0.29809500  1
  H  H4  1  0.45734200  0.16720700  0.73634300  1
  H  H5  1  0.04265800  0.83279300  0.23634300  1
  H  H6  1  0.54265800  0.66720700  0.76365700  1
  H  H7  1  0.95734200  0.33279300  0.26365700  1
  H  H8  1  0.90225500  0.08501300  0.61602900  1
  H  H9  1  0.59774500  0.91498700  0.11602900  1
  H  H10  1  0.09774500  0.58501300  0.88397100  1
  H  H11  1  0.40225500  0.41498700  0.38397100  1
  H  H12  1  0.19666100  0.68866200  0.59061700  1
  H  H13  1  0.30333900  0.31133800  0.09061700  1
  H  H14  1  0.80333900  0.18866200  0.90938300  1
  H  H15  1  0.69666100  0.81133800  0.40938300  1
  H  H16  1  0.23007000  0.62302100  0.49486700  1
  H  H17  1  0.26993000  0.37697900  0.99486700  1
  H  H18  1  0.76993000  0.12302100  0.00513300  1
  H  H19  1  0.73007000  0.87697900  0.50513300  1
  H  H20  1  0.13968900  0.59908500  0.35548200  1
  H  H21  1  0.36031100  0.40091500  0.85548200  1
  H  H22  1  0.86031100  0.09908500  0.14451800  1
  H  H23  1  0.63968900  0.90091500  0.64451800  1
  H  H24  1  0.43185500  0.62266400  0.35462300  1
  H  H25  1  0.06814500  0.37733600  0.85462300  1
  H  H26  1  0.56814500  0.12266400  0.14537700  1
  H  H27  1  0.93185500  0.87733600  0.64537700  1
  C  C28  1  0.18922400  0.21081300  0.65841500  1
  C  C29  1  0.31077600  0.78918700  0.15841500  1
  C  C30  1  0.81077600  0.71081300  0.84158500  1
  C  C31  1  0.68922400  0.28918700  0.34158500  1
  C  C32  1  0.99230300  0.38845200  0.58890900  1
  C  C33  1  0.50769700  0.61154800  0.08890900  1
  C  C34  1  0.00769700  0.88845200  0.91109100  1
  C  C35  1  0.49230300  0.11154800  0.41109100  1
  S  S36  1  0.25550500  0.37690000  0.64807100  1
  S  S37  1  0.24449500  0.62310000  0.14807100  1
  S  S38  1  0.74449500  0.87690000  0.85192900  1
  S  S39  1  0.75550500  0.12310000  0.35192900  1
  S  S40  1  0.88372300  0.54563500  0.55391200  1
  S  S41  1  0.61627700  0.45436500  0.05391200  1
  S  S42  1  0.11627700  0.04563500  0.94608800  1
  S  S43  1  0.38372300  0.95436500  0.44608800  1
  N  N44  1  0.32204200  0.12893100  0.70065100  1
  N  N45  1  0.17795800  0.87106900  0.20065100  1
  N  N46  1  0.67795800  0.62893100  0.79934900  1
  N  N47  1  0.82204200  0.37106900  0.29934900  1
  N  N48  1  0.98511200  0.17948400  0.61607700  1
  N  N49  1  0.51488800  0.82051600  0.11607700  1
  N  N50  1  0.01488800  0.67948400  0.88392300  1
  N  N51  1  0.48511200  0.32051600  0.38392300  1
  N  N52  1  0.87330600  0.27921300  0.57701200  1
  N  N53  1  0.62669400  0.72078700  0.07701200  1
  N  N54  1  0.12669400  0.77921300  0.92298800  1
  N  N55  1  0.37330600  0.22078700  0.42298800  1
  N  N56  1  0.12583900  0.63632900  0.54422100  1
  N  N57  1  0.37416100  0.36367100  0.04422100  1
  N  N58  1  0.87416100  0.13632900  0.95577900  1
  N  N59  1  0.62583900  0.86367100  0.45577900  1
  Cl  Cl60  1  0.79384600  0.68401200  0.29910200  1
  Cl  Cl61  1  0.70615400  0.31598800  0.79910200  1
  Cl  Cl62  1  0.20615400  0.18401200  0.20089800  1
  Cl  Cl63  1  0.29384600  0.81598800  0.70089800  1
  O  O64  1  0.73377200  0.59959600  0.61582200  1
  O  O65  1  0.76622800  0.40040400  0.11582200  1
  O  O66  1  0.26622800  0.09959600  0.88417800  1
  O  O67  1  0.23377200  0.90040400  0.38417800  1
  O  O68  1  0.77897700  0.51863600  0.47880600  1
  O  O69  1  0.72102300  0.48136400  0.97880600  1
  O  O70  1  0.22102300  0.01863600  0.02119400  1
  O  O71  1  0.27897700  0.98136400  0.52119400  1
  O  O72  1  0.29883800  0.56871800  0.37848000  1
  O  O73  1  0.20116200  0.43128200  0.87848000  1
  O  O74  1  0.70116200  0.06871800  0.12152000  1
  O  O75  1  0.79883800  0.93128200  0.62152000  1
