# generated using pymatgen
data_CdH5N2F3
_symmetry_space_group_name_H-M   'P 1'
_cell_length_a   14.41158600
_cell_length_b   4.48153700
_cell_length_c   6.98107300
_cell_angle_alpha   90.00000000
_cell_angle_beta   90.00000000
_cell_angle_gamma   90.00000000
_symmetry_Int_Tables_number   1
_chemical_formula_structural   CdH5N2F3
_chemical_formula_sum   'Cd4 H20 N8 F12'
_cell_volume   450.87997093
_cell_formula_units_Z   4
loop_
 _symmetry_equiv_pos_site_id
 _symmetry_equiv_pos_as_xyz
  1  'x, y, z'
loop_
 _atom_site_type_symbol
 _atom_site_label
 _atom_site_symmetry_multiplicity
 _atom_site_fract_x
 _atom_site_fract_y
 _atom_site_fract_z
 _atom_site_occupancy
  Cd  Cd0  1  0.45776300  0.25000000  0.68014900  1
  Cd  Cd1  1  0.95776300  0.25000000  0.81985100  1
  Cd  Cd2  1  0.54223700  0.75000000  0.31985100  1
  Cd  Cd3  1  0.04223700  0.75000000  0.18014900  1
  H  H4  1  0.60832100  0.43939900  0.91770100  1
  H  H5  1  0.10832100  0.06060100  0.58229900  1
  H  H6  1  0.39167900  0.93939900  0.08229900  1
  H  H7  1  0.89167900  0.56060100  0.41770100  1
  H  H8  1  0.39167900  0.56060100  0.08229900  1
  H  H9  1  0.89167900  0.93939900  0.41770100  1
  H  H10  1  0.60832100  0.06060100  0.91770100  1
  H  H11  1  0.10832100  0.43939900  0.58229900  1
  H  H12  1  0.68265300  0.44147500  0.62056600  1
  H  H13  1  0.18265300  0.05852500  0.87943400  1
  H  H14  1  0.31734700  0.94147500  0.37943400  1
  H  H15  1  0.81734700  0.55852500  0.12056600  1
  H  H16  1  0.31734700  0.55852500  0.37943400  1
  H  H17  1  0.81734700  0.94147500  0.12056600  1
  H  H18  1  0.68265300  0.05852500  0.62056600  1
  H  H19  1  0.18265300  0.44147500  0.87943400  1
  H  H20  1  0.74366900  0.25000000  0.79350600  1
  H  H21  1  0.24366900  0.25000000  0.70649400  1
  H  H22  1  0.25633100  0.75000000  0.20649400  1
  H  H23  1  0.75633100  0.75000000  0.29350600  1
  N  N24  1  0.60232600  0.25000000  0.83073700  1
  N  N25  1  0.10232600  0.25000000  0.66926300  1
  N  N26  1  0.39767400  0.75000000  0.16926300  1
  N  N27  1  0.89767400  0.75000000  0.33073700  1
  N  N28  1  0.68378700  0.25000000  0.70872800  1
  N  N29  1  0.18378700  0.25000000  0.79127200  1
  N  N30  1  0.31621300  0.75000000  0.29127200  1
  N  N31  1  0.81621300  0.75000000  0.20872800  1
  F  F32  1  0.46377200  0.75000000  0.61573900  1
  F  F33  1  0.96377200  0.75000000  0.88426100  1
  F  F34  1  0.53622800  0.25000000  0.38426100  1
  F  F35  1  0.03622800  0.25000000  0.11573900  1
  F  F36  1  0.32121300  0.25000000  0.51237600  1
  F  F37  1  0.82121300  0.25000000  0.98762400  1
  F  F38  1  0.67878700  0.75000000  0.48762400  1
  F  F39  1  0.17878700  0.75000000  0.01237600  1
  F  F40  1  0.37791400  0.25000000  0.95147900  1
  F  F41  1  0.87791400  0.25000000  0.54852100  1
  F  F42  1  0.62208600  0.75000000  0.04852100  1
  F  F43  1  0.12208600  0.75000000  0.45147900  1
