# generated using pymatgen
data_SnH6Cl2O11
_symmetry_space_group_name_H-M   'P 1'
_cell_length_a   7.26600482
_cell_length_b   7.26600482
_cell_length_c   9.98416800
_cell_angle_alpha   90.00000000
_cell_angle_beta   90.00000000
_cell_angle_gamma   120.00000751
_symmetry_Int_Tables_number   1
_chemical_formula_structural   SnH6Cl2O11
_chemical_formula_sum   'Sn2 H12 Cl4 O22'
_cell_volume   456.49270613
_cell_formula_units_Z   2
loop_
 _symmetry_equiv_pos_site_id
 _symmetry_equiv_pos_as_xyz
  1  'x, y, z'
loop_
 _atom_site_type_symbol
 _atom_site_label
 _atom_site_symmetry_multiplicity
 _atom_site_fract_x
 _atom_site_fract_y
 _atom_site_fract_z
 _atom_site_occupancy
  Sn  Sn0  1  0.00000000  0.00000000  0.52385100  1
  Sn  Sn1  1  0.00000000  0.00000000  0.02385100  1
  H  H2  1  0.81905500  0.21687700  0.66181200  1
  H  H3  1  0.78312300  0.60217800  0.66181200  1
  H  H4  1  0.39782200  0.18094500  0.66181200  1
  H  H5  1  0.18094500  0.78312300  0.16181200  1
  H  H6  1  0.21687700  0.39782200  0.16181200  1
  H  H7  1  0.60217800  0.81905500  0.16181200  1
  H  H8  1  0.04808600  0.29664800  0.72459800  1
  H  H9  1  0.70335200  0.75143900  0.72459800  1
  H  H10  1  0.24856100  0.95191400  0.72459800  1
  H  H11  1  0.95191400  0.70335200  0.22459800  1
  H  H12  1  0.29664800  0.24856100  0.22459800  1
  H  H13  1  0.75143900  0.04808600  0.22459800  1
  Cl  Cl14  1  0.66666700  0.33333300  0.40715800  1
  Cl  Cl15  1  0.33333300  0.66666700  0.90715800  1
  Cl  Cl16  1  0.33333300  0.66666700  0.47945600  1
  Cl  Cl17  1  0.66666700  0.33333300  0.97945600  1
  O  O18  1  0.92226600  0.17225800  0.68576200  1
  O  O19  1  0.82774200  0.75000800  0.68576200  1
  O  O20  1  0.24999200  0.07773400  0.68576200  1
  O  O21  1  0.07773400  0.82774200  0.18576200  1
  O  O22  1  0.17225800  0.24999200  0.18576200  1
  O  O23  1  0.75000800  0.92226600  0.18576200  1
  O  O24  1  0.15977400  0.69538600  0.52937300  1
  O  O25  1  0.30461400  0.46438800  0.52937300  1
  O  O26  1  0.53561200  0.84022600  0.52937300  1
  O  O27  1  0.84022600  0.30461400  0.02937300  1
  O  O28  1  0.69538600  0.53561200  0.02937300  1
  O  O29  1  0.46438800  0.15977400  0.02937300  1
  O  O30  1  0.33333300  0.66666700  0.33350300  1
  O  O31  1  0.66666700  0.33333300  0.83350300  1
  O  O32  1  0.74305600  0.54977800  0.36025600  1
  O  O33  1  0.45022200  0.19327800  0.36025600  1
  O  O34  1  0.80672200  0.25694400  0.36025600  1
  O  O35  1  0.25694400  0.45022200  0.86025600  1
  O  O36  1  0.54977800  0.80672200  0.86025600  1
  O  O37  1  0.19327800  0.74305600  0.86025600  1
  O  O38  1  0.66666700  0.33333300  0.55591100  1
  O  O39  1  0.33333300  0.66666700  0.05591100  1
