# generated using pymatgen
data_NiP2N2(O6F)2
_symmetry_space_group_name_H-M   'P 1'
_cell_length_a   13.45687900
_cell_length_b   5.99757700
_cell_length_c   7.23261380
_cell_angle_alpha   86.16553097
_cell_angle_beta   90.00000000
_cell_angle_gamma   90.00000000
_symmetry_Int_Tables_number   1
_chemical_formula_structural   NiP2N2(O6F)2
_chemical_formula_sum   'Ni2 P4 N4 O24 F4'
_cell_volume   582.42788793
_cell_formula_units_Z   2
loop_
 _symmetry_equiv_pos_site_id
 _symmetry_equiv_pos_as_xyz
  1  'x, y, z'
loop_
 _atom_site_type_symbol
 _atom_site_label
 _atom_site_symmetry_multiplicity
 _atom_site_fract_x
 _atom_site_fract_y
 _atom_site_fract_z
 _atom_site_occupancy
  Ni  Ni0  1  0.00000000  0.00000000  0.00000000  1
  Ni  Ni1  1  0.50000000  0.00000000  0.50000000  1
  P  P2  1  0.12519200  0.75553800  0.60076500  1
  P  P3  1  0.62519200  0.24446200  0.89923500  1
  P  P4  1  0.87480800  0.24446200  0.39923500  1
  P  P5  1  0.37480800  0.75553800  0.10076500  1
  N  N6  1  0.17443400  0.40908900  0.40986100  1
  N  N7  1  0.67443400  0.59091100  0.09013900  1
  N  N8  1  0.82556600  0.59091100  0.59013900  1
  N  N9  1  0.32556600  0.40908900  0.90986100  1
  O  O10  1  0.04697400  0.65466500  0.75191900  1
  O  O11  1  0.54697400  0.34533500  0.74808100  1
  O  O12  1  0.95302600  0.34533500  0.24808100  1
  O  O13  1  0.45302600  0.65466500  0.25191900  1
  O  O14  1  0.18941600  0.94237300  0.63851700  1
  O  O15  1  0.68941600  0.05762700  0.86148300  1
  O  O16  1  0.81058400  0.05762700  0.36148300  1
  O  O17  1  0.31058400  0.94237300  0.13851700  1
  O  O18  1  0.19375100  0.53427900  0.54575200  1
  O  O19  1  0.69375100  0.46572100  0.95424800  1
  O  O20  1  0.80624900  0.46572100  0.45424800  1
  O  O21  1  0.30624900  0.53427900  0.04575200  1
  O  O22  1  0.07118800  0.72283600  0.93546200  1
  O  O23  1  0.57118800  0.27716400  0.56453800  1
  O  O24  1  0.92881200  0.27716400  0.06453800  1
  O  O25  1  0.42881200  0.72283600  0.43546200  1
  O  O26  1  0.12277400  0.11952500  0.07965200  1
  O  O27  1  0.62277400  0.88047500  0.42034800  1
  O  O28  1  0.87722600  0.88047500  0.92034800  1
  O  O29  1  0.37722600  0.11952500  0.57965200  1
  O  O30  1  0.88988300  0.81326300  0.09277100  1
  O  O31  1  0.38988300  0.18673700  0.40722900  1
  O  O32  1  0.11011700  0.18673700  0.90722900  1
  O  O33  1  0.61011700  0.81326300  0.59277100  1
  F  F34  1  0.05546700  0.78097100  0.42725900  1
  F  F35  1  0.55546700  0.21902900  0.07274100  1
  F  F36  1  0.94453300  0.21902900  0.57274100  1
  F  F37  1  0.44453300  0.78097100  0.92725900  1
