# generated using pymatgen
data_Fe3Se3O10
_symmetry_space_group_name_H-M   'P 1'
_cell_length_a   8.33236000
_cell_length_b   8.33301073
_cell_length_c   8.61283187
_cell_angle_alpha   62.51336247
_cell_angle_beta   70.05119625
_cell_angle_gamma   68.91737176
_symmetry_Int_Tables_number   1
_chemical_formula_structural   Fe3Se3O10
_chemical_formula_sum   'Fe6 Se6 O20'
_cell_volume   483.79386927
_cell_formula_units_Z   2
loop_
 _symmetry_equiv_pos_site_id
 _symmetry_equiv_pos_as_xyz
  1  'x, y, z'
loop_
 _atom_site_type_symbol
 _atom_site_label
 _atom_site_symmetry_multiplicity
 _atom_site_fract_x
 _atom_site_fract_y
 _atom_site_fract_z
 _atom_site_occupancy
  Fe  Fe0  1  0.47092400  0.33729200  0.70318200  1
  Fe  Fe1  1  0.52907600  0.66270800  0.29681800  1
  Fe  Fe2  1  0.63794200  0.27313100  0.10142900  1
  Fe  Fe3  1  0.36205800  0.72686900  0.89857100  1
  Fe  Fe4  1  0.00000000  0.50000000  0.00000000  1
  Fe  Fe5  1  0.50000000  0.00000000  0.50000000  1
  Se  Se6  1  0.26938500  0.43316400  0.27042500  1
  Se  Se7  1  0.73061500  0.56683600  0.72957500  1
  Se  Se8  1  0.17096200  0.17801200  0.80349100  1
  Se  Se9  1  0.82903800  0.82198800  0.19650900  1
  Se  Se10  1  0.82349600  0.20615500  0.44359700  1
  Se  Se11  1  0.17650400  0.79384500  0.55640300  1
  O  O12  1  0.19432800  0.55072300  0.07180500  1
  O  O13  1  0.80567200  0.44927700  0.92819500  1
  O  O14  1  0.65395600  0.40757000  0.46941600  1
  O  O15  1  0.34604400  0.59243000  0.53058400  1
  O  O16  1  0.71726600  0.12977600  0.35880100  1
  O  O17  1  0.28273400  0.87022400  0.64119900  1
  O  O18  1  0.38808900  0.21673600  0.26910300  1
  O  O19  1  0.61191100  0.78326400  0.73089700  1
  O  O20  1  0.35684600  0.20188400  0.62295300  1
  O  O21  1  0.64315400  0.79811600  0.37704700  1
  O  O22  1  0.22643000  0.30757700  0.88135600  1
  O  O23  1  0.77357000  0.69242300  0.11864400  1
  O  O24  1  0.21898800  0.95561100  0.95123000  1
  O  O25  1  0.78101200  0.04438900  0.04877000  1
  O  O26  1  0.60860600  0.13372000  0.79002100  1
  O  O27  1  0.39139400  0.86628000  0.20997900  1
  O  O28  1  0.97451500  0.30057700  0.26442800  1
  O  O29  1  0.02548500  0.69942300  0.73557200  1
  O  O30  1  0.45626200  0.53068500  0.17571300  1
  O  O31  1  0.54373800  0.46931500  0.82428700  1
