# generated using pymatgen
data_UB8O17
_symmetry_space_group_name_H-M   'P 1'
_cell_length_a   8.97706869
_cell_length_b   8.97706869
_cell_length_c   11.12518335
_cell_angle_alpha   89.98961474
_cell_angle_beta   89.98961474
_cell_angle_gamma   136.85945971
_symmetry_Int_Tables_number   1
_chemical_formula_structural   UB8O17
_chemical_formula_sum   'U2 B16 O34'
_cell_volume   613.05454557
_cell_formula_units_Z   2
loop_
 _symmetry_equiv_pos_site_id
 _symmetry_equiv_pos_as_xyz
  1  'x, y, z'
loop_
 _atom_site_type_symbol
 _atom_site_label
 _atom_site_symmetry_multiplicity
 _atom_site_fract_x
 _atom_site_fract_y
 _atom_site_fract_z
 _atom_site_occupancy
  U  U0  1  0.00818500  0.47127700  0.24597200  1
  U  U1  1  0.47127700  0.00818500  0.74597200  1
  B  B2  1  0.49093900  0.89308100  0.31043100  1
  B  B3  1  0.89308100  0.49093900  0.81043100  1
  B  B4  1  0.20600500  0.66712000  0.94740000  1
  B  B5  1  0.66712000  0.20600500  0.44740000  1
  B  B6  1  0.87027100  0.27374100  0.98330800  1
  B  B7  1  0.27374100  0.87027100  0.48330800  1
  B  B8  1  0.54195400  0.92595000  0.08236700  1
  B  B9  1  0.92595000  0.54195400  0.58236700  1
  B  B10  1  0.83902200  0.96453900  0.99365000  1
  B  B11  1  0.96453900  0.83902200  0.49365000  1
  B  B12  1  0.74466800  0.88647900  0.41550200  1
  B  B13  1  0.88647900  0.74466800  0.91550200  1
  B  B14  1  0.11471200  0.99445300  0.07714800  1
  B  B15  1  0.99445300  0.11471200  0.57714800  1
  B  B16  1  0.40106500  0.28473800  0.21356100  1
  B  B17  1  0.28473800  0.40106500  0.71356100  1
  O  O18  1  0.86463600  0.41475000  0.47078200  1
  O  O19  1  0.41475000  0.86463600  0.97078200  1
  O  O20  1  0.07447600  0.49562700  0.02705500  1
  O  O21  1  0.49562700  0.07447600  0.52705500  1
  O  O22  1  0.09829900  0.35191800  0.27627800  1
  O  O23  1  0.35191800  0.09829900  0.77627800  1
  O  O24  1  0.63622200  0.84436900  0.06351900  1
  O  O25  1  0.84436900  0.63622200  0.56351900  1
  O  O26  1  0.40480800  0.83026000  0.18823800  1
  O  O27  1  0.83026000  0.40480800  0.68823800  1
  O  O28  1  0.64861300  0.13438000  0.33280700  1
  O  O29  1  0.13438000  0.64861300  0.83280700  1
  O  O30  1  0.28902000  0.77127400  0.38528200  1
  O  O31  1  0.77127400  0.28902000  0.88528200  1
  O  O32  1  0.73073700  0.16645500  0.09026000  1
  O  O33  1  0.16645500  0.73073700  0.59026000  1
  O  O34  1  0.81610700  0.79423300  0.40814900  1
  O  O35  1  0.79423300  0.81610700  0.90814900  1
  O  O36  1  0.90630400  0.57926100  0.21751500  1
  O  O37  1  0.57926100  0.90630400  0.71751500  1
  O  O38  1  0.58518600  0.82011000  0.34066900  1
  O  O39  1  0.82011000  0.58518600  0.84066900  1
  O  O40  1  0.91720500  0.16105900  0.93474700  1
  O  O41  1  0.16105900  0.91720500  0.43474700  1
  O  O42  1  0.05299000  0.83835100  0.99883400  1
  O  O43  1  0.83835100  0.05299000  0.49883400  1
  O  O44  1  0.28354400  0.09180000  0.15456000  1
  O  O45  1  0.09180000  0.28354400  0.65456000  1
  O  O46  1  0.00913900  0.05367400  0.08094500  1
  O  O47  1  0.05367400  0.00913900  0.58094500  1
  O  O48  1  0.45943200  0.33356600  0.33117500  1
  O  O49  1  0.33356600  0.45943200  0.83117500  1
  O  O50  1  0.50531900  0.48085800  0.16404500  1
  O  O51  1  0.48085800  0.50531900  0.66404500  1
