# generated using pymatgen
data_MgSc2
_symmetry_space_group_name_H-M   'P 1'
_cell_length_a   6.18761572
_cell_length_b   6.18761572
_cell_length_c   7.68694024
_cell_angle_alpha   76.25559973
_cell_angle_beta   76.25559973
_cell_angle_gamma   30.58705878
_symmetry_Int_Tables_number   1
_chemical_formula_structural   MgSc2
_chemical_formula_sum   'Mg2 Sc4'
_cell_volume   145.14309786
_cell_formula_units_Z   2
loop_
 _symmetry_equiv_pos_site_id
 _symmetry_equiv_pos_as_xyz
  1  'x, y, z'
loop_
 _atom_site_type_symbol
 _atom_site_label
 _atom_site_symmetry_multiplicity
 _atom_site_fract_x
 _atom_site_fract_y
 _atom_site_fract_z
 _atom_site_occupancy
  Mg  Mg0  1  0.36036400  0.36036400  0.02524900  1
  Mg  Mg1  1  0.63963600  0.63963600  0.97475100  1
  Sc  Sc2  1  0.02536900  0.02536900  0.69331200  1
  Sc  Sc3  1  0.30380000  0.30380000  0.63403500  1
  Sc  Sc4  1  0.69620000  0.69620000  0.36596500  1
  Sc  Sc5  1  0.97463100  0.97463100  0.30668800  1
