# generated using pymatgen
data_V3(PO10)2
_symmetry_space_group_name_H-M   'P 1'
_cell_length_a   6.18087207
_cell_length_b   7.89930302
_cell_length_c   17.17805800
_cell_angle_alpha   90.00000000
_cell_angle_beta   90.00000000
_cell_angle_gamma   89.77646426
_symmetry_Int_Tables_number   1
_chemical_formula_structural   V3(PO10)2
_chemical_formula_sum   'V6 P4 O40'
_cell_volume   838.70510873
_cell_formula_units_Z   2
loop_
 _symmetry_equiv_pos_site_id
 _symmetry_equiv_pos_as_xyz
  1  'x, y, z'
loop_
 _atom_site_type_symbol
 _atom_site_label
 _atom_site_symmetry_multiplicity
 _atom_site_fract_x
 _atom_site_fract_y
 _atom_site_fract_z
 _atom_site_occupancy
  V  V0  1  0.00266700  0.37878100  0.76064800  1
  V  V1  1  0.50266700  0.87878100  0.73935200  1
  V  V2  1  0.99733300  0.62121900  0.23935200  1
  V  V3  1  0.49733300  0.12121900  0.26064800  1
  V  V4  1  0.00000000  0.00000000  0.00000000  1
  V  V5  1  0.50000000  0.50000000  0.50000000  1
  P  P6  1  0.99943800  0.95465900  0.80556800  1
  P  P7  1  0.49943800  0.45465900  0.69443200  1
  P  P8  1  0.00056200  0.04534100  0.19443200  1
  P  P9  1  0.50056200  0.54534100  0.30556800  1
  O  O10  1  0.98571400  0.17972000  0.60191700  1
  O  O11  1  0.48571400  0.67972000  0.89808300  1
  O  O12  1  0.01428600  0.82028000  0.39808300  1
  O  O13  1  0.51428600  0.32028000  0.10191700  1
  O  O14  1  0.99929500  0.14688100  0.79132400  1
  O  O15  1  0.49929500  0.64688100  0.70867600  1
  O  O16  1  0.00070500  0.85311900  0.20867600  1
  O  O17  1  0.50070500  0.35311900  0.29132400  1
  O  O18  1  0.69957200  0.37023700  0.73363400  1
  O  O19  1  0.19957200  0.87023700  0.76636600  1
  O  O20  1  0.30042800  0.62976300  0.26636600  1
  O  O21  1  0.80042800  0.12976300  0.23363400  1
  O  O22  1  0.30491500  0.37017400  0.73634500  1
  O  O23  1  0.80491500  0.87017400  0.76365500  1
  O  O24  1  0.69508500  0.62982600  0.26365500  1
  O  O25  1  0.19508500  0.12982600  0.23634500  1
  O  O26  1  0.00120000  0.50220600  0.83532600  1
  O  O27  1  0.50120000  0.00220600  0.66467400  1
  O  O28  1  0.99880000  0.49779400  0.16467400  1
  O  O29  1  0.49880000  0.99779400  0.33532600  1
  O  O30  1  0.99603600  0.50816200  0.67326700  1
  O  O31  1  0.49603600  0.00816200  0.82673300  1
  O  O32  1  0.00396400  0.49183800  0.32673300  1
  O  O33  1  0.50396400  0.99183800  0.17326700  1
  O  O34  1  0.74138800  0.10934400  0.98420400  1
  O  O35  1  0.24138800  0.60934400  0.51579600  1
  O  O36  1  0.25861200  0.89065600  0.01579600  1
  O  O37  1  0.75861200  0.39065600  0.48420400  1
  O  O38  1  0.86193300  0.80991100  0.03401200  1
  O  O39  1  0.36193300  0.30991100  0.46598800  1
  O  O40  1  0.13806700  0.19008900  0.96598800  1
  O  O41  1  0.63806700  0.69008900  0.53401200  1
  O  O42  1  0.99291200  0.90836600  0.89157000  1
  O  O43  1  0.49291200  0.40836600  0.60843000  1
  O  O44  1  0.00708800  0.09163400  0.10843000  1
  O  O45  1  0.50708800  0.59163400  0.39157000  1
  O  O46  1  0.34961000  0.37803400  0.07384700  1
  O  O47  1  0.84961000  0.87803400  0.42615300  1
  O  O48  1  0.65039000  0.62196600  0.92615300  1
  O  O49  1  0.15039000  0.12196600  0.57384700  1
