# generated using pymatgen
data_BaLa2WO7
_symmetry_space_group_name_H-M   'P 1'
_cell_length_a   5.89578100
_cell_length_b   9.01669300
_cell_length_c   12.99120930
_cell_angle_alpha   74.75122310
_cell_angle_beta   90.00000000
_cell_angle_gamma   90.00000000
_symmetry_Int_Tables_number   1
_chemical_formula_structural   BaLa2WO7
_chemical_formula_sum   'Ba4 La8 W4 O28'
_cell_volume   666.30384935
_cell_formula_units_Z   4
loop_
 _symmetry_equiv_pos_site_id
 _symmetry_equiv_pos_as_xyz
  1  'x, y, z'
loop_
 _atom_site_type_symbol
 _atom_site_label
 _atom_site_symmetry_multiplicity
 _atom_site_fract_x
 _atom_site_fract_y
 _atom_site_fract_z
 _atom_site_occupancy
  Ba  Ba0  1  0.00819800  0.51711500  0.63416100  1
  Ba  Ba1  1  0.50819800  0.48288500  0.86583900  1
  Ba  Ba2  1  0.99180200  0.48288500  0.36583900  1
  Ba  Ba3  1  0.49180200  0.51711500  0.13416100  1
  La  La4  1  0.51107100  0.80495400  0.58450800  1
  La  La5  1  0.01107100  0.19504600  0.91549200  1
  La  La6  1  0.48892900  0.19504600  0.41549200  1
  La  La7  1  0.98892900  0.80495400  0.08450900  1
  La  La8  1  0.01668700  0.93329700  0.36988300  1
  La  La9  1  0.51668700  0.06670300  0.13011700  1
  La  La10  1  0.98331300  0.06670300  0.63011700  1
  La  La11  1  0.48331300  0.93329700  0.86988300  1
  W  W12  1  0.02395600  0.71935000  0.83840500  1
  W  W13  1  0.52395600  0.28065000  0.66159500  1
  W  W14  1  0.97604400  0.28065000  0.16159500  1
  W  W15  1  0.47604400  0.71935000  0.33840500  1
  O  O16  1  0.02262200  0.50315500  0.84249200  1
  O  O17  1  0.52262200  0.49684500  0.65750800  1
  O  O18  1  0.97737800  0.49684500  0.15750800  1
  O  O19  1  0.47737800  0.50315500  0.34249200  1
  O  O20  1  0.04272200  0.94407100  0.82002000  1
  O  O21  1  0.54272200  0.05592900  0.67998000  1
  O  O22  1  0.95727800  0.05592900  0.17998000  1
  O  O23  1  0.45727800  0.94407100  0.32002000  1
  O  O24  1  0.76486700  0.70763200  0.93353100  1
  O  O25  1  0.26486700  0.29236800  0.56646900  1
  O  O26  1  0.23513300  0.29236800  0.06646900  1
  O  O27  1  0.73513300  0.70763200  0.43353100  1
  O  O28  1  0.30778800  0.74597800  0.75076800  1
  O  O29  1  0.80778800  0.25402200  0.74923200  1
  O  O30  1  0.69221200  0.25402200  0.24923200  1
  O  O31  1  0.19221200  0.74597800  0.25076800  1
  O  O32  1  0.23721400  0.69145100  0.95954300  1
  O  O33  1  0.73721400  0.30854900  0.54045700  1
  O  O34  1  0.76278600  0.30854900  0.04045700  1
  O  O35  1  0.26278600  0.69145100  0.45954300  1
  O  O36  1  0.84510200  0.76326900  0.70694500  1
  O  O37  1  0.34510200  0.23673100  0.79305500  1
  O  O38  1  0.15489800  0.23673100  0.29305500  1
  O  O39  1  0.65489800  0.76326900  0.20694500  1
  O  O40  1  0.23761200  0.99314300  0.50828800  1
  O  O41  1  0.73761200  0.00685700  0.99171200  1
  O  O42  1  0.76238800  0.00685700  0.49171200  1
  O  O43  1  0.26238800  0.99314300  0.00828800  1
