# generated using pymatgen
data_NaSr3CeP3O13
_symmetry_space_group_name_H-M   'P 1'
_cell_length_a   9.77434159
_cell_length_b   9.77434159
_cell_length_c   7.18271400
_cell_angle_alpha   90.00000000
_cell_angle_beta   90.00000000
_cell_angle_gamma   119.99999720
_symmetry_Int_Tables_number   1
_chemical_formula_structural   NaSr3CeP3O13
_chemical_formula_sum   'Na2 Sr6 Ce2 P6 O26'
_cell_volume   594.28428046
_cell_formula_units_Z   2
loop_
 _symmetry_equiv_pos_site_id
 _symmetry_equiv_pos_as_xyz
  1  'x, y, z'
loop_
 _atom_site_type_symbol
 _atom_site_label
 _atom_site_symmetry_multiplicity
 _atom_site_fract_x
 _atom_site_fract_y
 _atom_site_fract_z
 _atom_site_occupancy
  Na  Na0  1  0.66666700  0.33333300  0.02052700  1
  Na  Na1  1  0.33333300  0.66666700  0.97947300  1
  Sr  Sr2  1  0.76853300  0.01554600  0.24639400  1
  Sr  Sr3  1  0.98445400  0.75298700  0.24639400  1
  Sr  Sr4  1  0.24701300  0.23146700  0.24639400  1
  Sr  Sr5  1  0.23146700  0.98445400  0.75360600  1
  Sr  Sr6  1  0.01554600  0.24701300  0.75360600  1
  Sr  Sr7  1  0.75298700  0.76853300  0.75360600  1
  Ce  Ce8  1  0.66666700  0.33333300  0.52122800  1
  Ce  Ce9  1  0.33333300  0.66666700  0.47877200  1
  P  P10  1  0.62412300  0.03173500  0.74186500  1
  P  P11  1  0.96826500  0.59238800  0.74186500  1
  P  P12  1  0.40761200  0.37587700  0.74186500  1
  P  P13  1  0.37587700  0.96826500  0.25813500  1
  P  P14  1  0.03173500  0.40761200  0.25813500  1
  P  P15  1  0.59238800  0.62412300  0.25813500  1
  O  O16  1  0.50159600  0.85311200  0.71479600  1
  O  O17  1  0.14688800  0.64848400  0.71479600  1
  O  O18  1  0.35151600  0.49840400  0.71479600  1
  O  O19  1  0.49840400  0.14688800  0.28520400  1
  O  O20  1  0.85311200  0.35151600  0.28520400  1
  O  O21  1  0.64848400  0.50159600  0.28520400  1
  O  O22  1  0.54001400  0.12975700  0.77398000  1
  O  O23  1  0.87024300  0.41025700  0.77398000  1
  O  O24  1  0.58974300  0.45998600  0.77398000  1
  O  O25  1  0.45998600  0.87024300  0.22602000  1
  O  O26  1  0.12975700  0.58974300  0.22602000  1
  O  O27  1  0.41025700  0.54001400  0.22602000  1
  O  O28  1  0.73694700  0.04933300  0.90154300  1
  O  O29  1  0.95066700  0.68761500  0.90154300  1
  O  O30  1  0.31238500  0.26305300  0.90154300  1
  O  O31  1  0.26305300  0.95066700  0.09845700  1
  O  O32  1  0.04933300  0.31238500  0.09845700  1
  O  O33  1  0.68761500  0.73694700  0.09845700  1
  O  O34  1  0.72505900  0.10711100  0.56175800  1
  O  O35  1  0.89288900  0.61794800  0.56175800  1
  O  O36  1  0.38205200  0.27494100  0.56175800  1
  O  O37  1  0.27494100  0.89288900  0.43824200  1
  O  O38  1  0.10711100  0.38205200  0.43824200  1
  O  O39  1  0.61794800  0.72505900  0.43824200  1
  O  O40  1  0.00000000  0.00000000  0.31042300  1
  O  O41  1  0.00000000  0.00000000  0.68957700  1
