# generated using pymatgen
data_KNdH6C4O11
_symmetry_space_group_name_H-M   'P 1'
_cell_length_a   12.33372514
_cell_length_b   12.33372514
_cell_length_c   13.02723970
_cell_angle_alpha   81.07360696
_cell_angle_beta   81.07360696
_cell_angle_gamma   35.58143223
_symmetry_Int_Tables_number   1
_chemical_formula_structural   KNdH6C4O11
_chemical_formula_sum   'K4 Nd4 H24 C16 O44'
_cell_volume   1137.66562832
_cell_formula_units_Z   4
loop_
 _symmetry_equiv_pos_site_id
 _symmetry_equiv_pos_as_xyz
  1  'x, y, z'
loop_
 _atom_site_type_symbol
 _atom_site_label
 _atom_site_symmetry_multiplicity
 _atom_site_fract_x
 _atom_site_fract_y
 _atom_site_fract_z
 _atom_site_occupancy
  K  K0  1  0.41928500  0.42016400  0.86998400  1
  K  K1  1  0.57983600  0.58071500  0.63001600  1
  K  K2  1  0.58071500  0.57983600  0.13001600  1
  K  K3  1  0.42016400  0.41928500  0.36998400  1
  Nd  Nd4  1  0.86377600  0.86266100  0.51387000  1
  Nd  Nd5  1  0.13733900  0.13622400  0.98613000  1
  Nd  Nd6  1  0.13622400  0.13733900  0.48613000  1
  Nd  Nd7  1  0.86266100  0.86377600  0.01387000  1
  H  H8  1  0.45939400  0.17807600  0.62265200  1
  H  H9  1  0.82192400  0.54060600  0.87734800  1
  H  H10  1  0.54060600  0.82192400  0.37734800  1
  H  H11  1  0.17807600  0.45939400  0.12265200  1
  H  H12  1  0.44380100  0.15542900  0.51115500  1
  H  H13  1  0.84457100  0.55619900  0.98884500  1
  H  H14  1  0.55619900  0.84457100  0.48884500  1
  H  H15  1  0.15542900  0.44380100  0.01115500  1
  H  H16  1  0.19791900  0.43225500  0.71828300  1
  H  H17  1  0.56774500  0.80208100  0.78171700  1
  H  H18  1  0.80208100  0.56774500  0.28171700  1
  H  H19  1  0.43225500  0.19791900  0.21828300  1
  H  H20  1  0.30614900  0.26859200  0.80183100  1
  H  H21  1  0.73140800  0.69385100  0.69816900  1
  H  H22  1  0.69385100  0.73140800  0.19816900  1
  H  H23  1  0.26859200  0.30614900  0.30183100  1
  H  H24  1  0.35480000  0.54014100  0.61542800  1
  H  H25  1  0.45985900  0.64520000  0.88457200  1
  H  H26  1  0.64520000  0.45985900  0.38457200  1
  H  H27  1  0.54014100  0.35480000  0.11542800  1
  H  H28  1  0.55679300  0.32616400  0.63554700  1
  H  H29  1  0.67383600  0.44320700  0.86445300  1
  H  H30  1  0.44320700  0.67383600  0.36445300  1
  H  H31  1  0.32616400  0.55679300  0.13554700  1
  C  C32  1  0.94045300  0.75867600  0.76882900  1
  C  C33  1  0.24132400  0.05954700  0.73117100  1
  C  C34  1  0.05954700  0.24132400  0.23117100  1
  C  C35  1  0.75867600  0.94045300  0.26882900  1
  C  C36  1  0.81024300  0.96601600  0.75639900  1
  C  C37  1  0.03398400  0.18975700  0.74360100  1
  C  C38  1  0.18975700  0.03398400  0.24360100  1
  C  C39  1  0.96601600  0.81024300  0.25639900  1
  C  C40  1  0.90541500  0.09730900  0.47578500  1
  C  C41  1  0.90269100  0.09458500  0.02421500  1
  C  C42  1  0.09458500  0.90269100  0.52421500  1
  C  C43  1  0.09730900  0.90541500  0.97578500  1
  C  C44  1  0.89927600  0.55919900  0.51208100  1
  C  C45  1  0.44080100  0.10072400  0.98791900  1
  C  C46  1  0.10072400  0.44080100  0.48791900  1
  C  C47  1  0.55919900  0.89927600  0.01208100  1
  O  O48  1  0.00134600  0.67828600  0.85812700  1
  O  O49  1  0.32171400  0.99865400  0.64187300  1
  O  O50  1  0.99865400  0.32171400  0.14187300  1
  O  O51  1  0.67828600  0.00134600  0.35812700  1
  O  O52  1  0.97930600  0.68293600  0.68855500  1
  O  O53  1  0.31706400  0.02069400  0.81144500  1
  O  O54  1  0.02069400  0.31706400  0.31144500  1
  O  O55  1  0.68293600  0.97930600  0.18855500  1
  O  O56  1  0.76422400  0.04155000  0.83865300  1
  O  O57  1  0.95845000  0.23577600  0.66134700  1
  O  O58  1  0.23577600  0.95845000  0.16134700  1
  O  O59  1  0.04155000  0.76422400  0.33865300  1
  O  O60  1  0.76180600  0.04146700  0.66529400  1
  O  O61  1  0.95853300  0.23819400  0.83470600  1
  O  O62  1  0.23819400  0.95853300  0.33470600  1
  O  O63  1  0.04146700  0.76180600  0.16529400  1
  O  O64  1  0.79532700  0.11493200  0.45351000  1
  O  O65  1  0.88506800  0.20467300  0.04649000  1
  O  O66  1  0.20467300  0.88506800  0.54649000  1
  O  O67  1  0.11493200  0.79532700  0.95351000  1
  O  O68  1  0.87607100  0.22400600  0.46233400  1
  O  O69  1  0.77599400  0.12392900  0.03766600  1
  O  O70  1  0.12392900  0.77599400  0.53766600  1
  O  O71  1  0.22400600  0.87607100  0.96233400  1
  O  O72  1  0.77405100  0.72978300  0.53051000  1
  O  O73  1  0.27021700  0.22594900  0.96949000  1
  O  O74  1  0.22594900  0.27021700  0.46949000  1
  O  O75  1  0.72978300  0.77405100  0.03051000  1
  O  O76  1  0.87351600  0.47899800  0.51247400  1
  O  O77  1  0.52100200  0.12648400  0.98752600  1
  O  O78  1  0.12648400  0.52100200  0.48752600  1
  O  O79  1  0.47899800  0.87351600  0.01247400  1
  O  O80  1  0.52601400  0.12607800  0.55337100  1
  O  O81  1  0.87392200  0.47398600  0.94662900  1
  O  O82  1  0.47398600  0.87392200  0.44662900  1
  O  O83  1  0.12607800  0.52601400  0.05337100  1
  O  O84  1  0.32401300  0.30124500  0.73459400  1
  O  O85  1  0.69875500  0.67598700  0.76540600  1
  O  O86  1  0.67598700  0.69875500  0.26540600  1
  O  O87  1  0.30124500  0.32401300  0.23459400  1
  O  O88  1  0.46760400  0.45376300  0.65408000  1
  O  O89  1  0.54623700  0.53239600  0.84592000  1
  O  O90  1  0.53239600  0.54623700  0.34592000  1
  O  O91  1  0.45376300  0.46760400  0.15408000  1
