# generated using pymatgen
data_Rb2Sb2SO5F6
_symmetry_space_group_name_H-M   'P 1'
_cell_length_a   8.90412200
_cell_length_b   8.90412200
_cell_length_c   14.50636000
_cell_angle_alpha   90.00000000
_cell_angle_beta   90.00000000
_cell_angle_gamma   90.00000000
_symmetry_Int_Tables_number   1
_chemical_formula_structural   Rb2Sb2SO5F6
_chemical_formula_sum   'Rb8 Sb8 S4 O20 F24'
_cell_volume   1150.11337692
_cell_formula_units_Z   4
loop_
 _symmetry_equiv_pos_site_id
 _symmetry_equiv_pos_as_xyz
  1  'x, y, z'
loop_
 _atom_site_type_symbol
 _atom_site_label
 _atom_site_symmetry_multiplicity
 _atom_site_fract_x
 _atom_site_fract_y
 _atom_site_fract_z
 _atom_site_occupancy
  Rb  Rb0  1  0.68104600  0.15801200  0.12178000  1
  Rb  Rb1  1  0.31895400  0.84198800  0.62178000  1
  Rb  Rb2  1  0.65801200  0.81895400  0.87178000  1
  Rb  Rb3  1  0.34198800  0.18104600  0.37178000  1
  Rb  Rb4  1  0.84198800  0.31895400  0.37822000  1
  Rb  Rb5  1  0.15801200  0.68104600  0.87822000  1
  Rb  Rb6  1  0.81895400  0.65801200  0.12822000  1
  Rb  Rb7  1  0.18104600  0.34198800  0.62822000  1
  Sb  Sb8  1  0.63035600  0.17225900  0.62670200  1
  Sb  Sb9  1  0.36964400  0.82774100  0.12670200  1
  Sb  Sb10  1  0.67225900  0.86964400  0.37670200  1
  Sb  Sb11  1  0.32774100  0.13035600  0.87670200  1
  Sb  Sb12  1  0.82774100  0.36964400  0.87329800  1
  Sb  Sb13  1  0.17225900  0.63035600  0.37329800  1
  Sb  Sb14  1  0.86964400  0.67225900  0.62329800  1
  Sb  Sb15  1  0.13035600  0.32774100  0.12329800  1
  S  S16  1  0.95974100  0.04025900  0.75000000  1
  S  S17  1  0.04025900  0.95974100  0.25000000  1
  S  S18  1  0.54025900  0.54025900  0.50000000  1
  S  S19  1  0.45974100  0.45974100  0.00000000  1
  O  O20  1  0.12406000  0.07019400  0.75224500  1
  O  O21  1  0.87594000  0.92980600  0.25224500  1
  O  O22  1  0.57019400  0.37594000  0.50224500  1
  O  O23  1  0.42980600  0.62406000  0.00224500  1
  O  O24  1  0.92980600  0.87594000  0.74775500  1
  O  O25  1  0.07019400  0.12406000  0.24775500  1
  O  O26  1  0.37594000  0.57019400  0.49775500  1
  O  O27  1  0.62406000  0.42980600  0.99775500  1
  O  O28  1  0.89763400  0.11845600  0.66578400  1
  O  O29  1  0.10236600  0.88154400  0.16578400  1
  O  O30  1  0.61845600  0.60236600  0.41578400  1
  O  O31  1  0.38154400  0.39763400  0.91578400  1
  O  O32  1  0.88154400  0.10236600  0.83421600  1
  O  O33  1  0.11845600  0.89763400  0.33421600  1
  O  O34  1  0.60236600  0.61845600  0.58421600  1
  O  O35  1  0.39763400  0.38154400  0.08421600  1
  O  O36  1  0.57271400  0.42728600  0.25000000  1
  O  O37  1  0.42728600  0.57271400  0.75000000  1
  O  O38  1  0.92728600  0.92728600  0.00000000  1
  O  O39  1  0.07271400  0.07271400  0.50000000  1
  F  F40  1  0.71464500  0.08972600  0.51111800  1
  F  F41  1  0.28535500  0.91027400  0.01111800  1
  F  F42  1  0.58972600  0.78535500  0.26111800  1
  F  F43  1  0.41027400  0.21464500  0.76111800  1
  F  F44  1  0.91027400  0.28535500  0.98888200  1
  F  F45  1  0.08972600  0.71464500  0.48888200  1
  F  F46  1  0.78535500  0.58972600  0.73888200  1
  F  F47  1  0.21464500  0.41027400  0.23888200  1
  F  F48  1  0.61114800  0.96397700  0.67509500  1
  F  F49  1  0.38885200  0.03602300  0.17509500  1
  F  F50  1  0.46397700  0.88885200  0.42509500  1
  F  F51  1  0.53602300  0.11114800  0.92509500  1
  F  F52  1  0.03602300  0.38885200  0.82490500  1
  F  F53  1  0.96397700  0.61114800  0.32490500  1
  F  F54  1  0.88885200  0.46397700  0.57490500  1
  F  F55  1  0.11114800  0.53602300  0.07490500  1
  F  F56  1  0.42509100  0.13010300  0.57410700  1
  F  F57  1  0.57490900  0.86989700  0.07410700  1
  F  F58  1  0.63010300  0.07490900  0.32410700  1
  F  F59  1  0.36989700  0.92509100  0.82410700  1
  F  F60  1  0.86989700  0.57490900  0.92589300  1
  F  F61  1  0.13010300  0.42509100  0.42589300  1
  F  F62  1  0.07490900  0.63010300  0.67589300  1
  F  F63  1  0.92509100  0.36989700  0.17589300  1
