# generated using pymatgen
data_CeP5O14
_symmetry_space_group_name_H-M   'P 1'
_cell_length_a   9.25574300
_cell_length_b   8.94201800
_cell_length_c   13.17902987
_cell_angle_alpha   89.57481968
_cell_angle_beta   90.00000000
_cell_angle_gamma   90.00000000
_symmetry_Int_Tables_number   1
_chemical_formula_structural   CeP5O14
_chemical_formula_sum   'Ce4 P20 O56'
_cell_volume   1090.73264454
_cell_formula_units_Z   4
loop_
 _symmetry_equiv_pos_site_id
 _symmetry_equiv_pos_as_xyz
  1  'x, y, z'
loop_
 _atom_site_type_symbol
 _atom_site_label
 _atom_site_symmetry_multiplicity
 _atom_site_fract_x
 _atom_site_fract_y
 _atom_site_fract_z
 _atom_site_occupancy
  Ce  Ce0  1  0.18796600  0.22296400  0.99889800  1
  Ce  Ce1  1  0.68796600  0.77703600  0.50110200  1
  Ce  Ce2  1  0.81203400  0.77703600  0.00110200  1
  Ce  Ce3  1  0.31203400  0.22296400  0.49889800  1
  P  P4  1  0.24752400  0.81375300  0.99977300  1
  P  P5  1  0.74752400  0.18624700  0.50022700  1
  P  P6  1  0.75247600  0.18624700  0.00022700  1
  P  P7  1  0.25247600  0.81375300  0.49977300  1
  P  P8  1  0.54722900  0.25583800  0.83611800  1
  P  P9  1  0.04722900  0.74416200  0.66388200  1
  P  P10  1  0.45277100  0.74416200  0.16388200  1
  P  P11  1  0.95277100  0.25583800  0.33611800  1
  P  P12  1  0.00505100  0.99278000  0.20532300  1
  P  P13  1  0.50505100  0.00722000  0.29467700  1
  P  P14  1  0.99494900  0.00722000  0.79467700  1
  P  P15  1  0.49494900  0.99278000  0.70532300  1
  P  P16  1  0.55034400  0.27219500  0.16277900  1
  P  P17  1  0.05034400  0.72780500  0.33722100  1
  P  P18  1  0.44965600  0.72780500  0.83722100  1
  P  P19  1  0.94965600  0.27219500  0.66277900  1
  P  P20  1  0.00188900  0.49414700  0.17635200  1
  P  P21  1  0.50188900  0.50585300  0.32364800  1
  P  P22  1  0.99811100  0.50585300  0.82364800  1
  P  P23  1  0.49811100  0.49414700  0.67635200  1
  O  O24  1  0.31644200  0.70775200  0.91084300  1
  O  O25  1  0.81644200  0.29224800  0.58915700  1
  O  O26  1  0.68355800  0.29224800  0.08915700  1
  O  O27  1  0.18355800  0.70775200  0.41084300  1
  O  O28  1  0.31244700  0.96650300  0.99482000  1
  O  O29  1  0.81244700  0.03349700  0.50518000  1
  O  O30  1  0.68755300  0.03349700  0.00518000  1
  O  O31  1  0.18755300  0.96650300  0.49482000  1
  O  O32  1  0.31141900  0.72212800  0.09845100  1
  O  O33  1  0.81141900  0.27787200  0.40154900  1
  O  O34  1  0.68858100  0.27787200  0.90154900  1
  O  O35  1  0.18858100  0.72212800  0.59845100  1
  O  O36  1  0.58047100  0.36897500  0.74689600  1
  O  O37  1  0.08047100  0.63102500  0.75310400  1
  O  O38  1  0.41952900  0.63102500  0.25310400  1
  O  O39  1  0.91952900  0.36897500  0.24689600  1
  O  O40  1  0.57247900  0.09462400  0.79137300  1
  O  O41  1  0.07247900  0.90537600  0.70862700  1
  O  O42  1  0.42752100  0.90537600  0.20862700  1
  O  O43  1  0.92752100  0.09462400  0.29137300  1
  O  O44  1  0.40876900  0.27839200  0.88960400  1
  O  O45  1  0.90876900  0.72160800  0.61039600  1
  O  O46  1  0.59123100  0.72160800  0.11039600  1
  O  O47  1  0.09123100  0.27839200  0.38960400  1
  O  O48  1  0.11631900  0.08357700  0.15140400  1
  O  O49  1  0.61631900  0.91642300  0.34859600  1
  O  O50  1  0.88368100  0.91642300  0.84859600  1
  O  O51  1  0.38368100  0.08357700  0.65140400  1
  O  O52  1  0.09405800  0.87423600  0.27589800  1
  O  O53  1  0.59405800  0.12576400  0.22410200  1
  O  O54  1  0.90594200  0.12576400  0.72410200  1
  O  O55  1  0.40594200  0.87423600  0.77589800  1
  O  O56  1  0.40633100  0.27034700  0.11486400  1
  O  O57  1  0.90633100  0.72965300  0.38513600  1
  O  O58  1  0.59366900  0.72965300  0.88513600  1
  O  O59  1  0.09366900  0.27034700  0.61486400  1
  O  O60  1  0.58164600  0.40649500  0.23643700  1
  O  O61  1  0.08164600  0.59350500  0.26356300  1
  O  O62  1  0.41835400  0.59350500  0.76356300  1
  O  O63  1  0.91835400  0.40649500  0.73643700  1
  O  O64  1  0.11971400  0.42047600  0.11820800  1
  O  O65  1  0.61971400  0.57952400  0.38179200  1
  O  O66  1  0.88028600  0.57952400  0.88179200  1
  O  O67  1  0.38028600  0.42047600  0.61820800  1
  O  O68  1  0.91095500  0.21256400  0.00087200  1
  O  O69  1  0.41095500  0.78743600  0.49912800  1
  O  O70  1  0.08904500  0.78743600  0.99912800  1
  O  O71  1  0.58904500  0.21256400  0.50087200  1
  O  O72  1  0.11362300  0.08699600  0.84787500  1
  O  O73  1  0.61362300  0.91300400  0.65212500  1
  O  O74  1  0.88637700  0.91300400  0.15212500  1
  O  O75  1  0.38637700  0.08699600  0.34787500  1
  O  O76  1  0.11395000  0.41738200  0.87426200  1
  O  O77  1  0.61395000  0.58261800  0.62573800  1
  O  O78  1  0.88605000  0.58261800  0.12573800  1
  O  O79  1  0.38605000  0.41738200  0.37426200  1
