# generated using pymatgen
data_MnBP(HO3)2
_symmetry_space_group_name_H-M   'P 1'
_cell_length_a   7.69718633
_cell_length_b   7.69718633
_cell_length_c   12.96768200
_cell_angle_alpha   90.00000000
_cell_angle_beta   90.00000000
_cell_angle_gamma   120.00000288
_symmetry_Int_Tables_number   1
_chemical_formula_structural   MnBP(HO3)2
_chemical_formula_sum   'Mn6 B6 P6 H12 O36'
_cell_volume   665.36043344
_cell_formula_units_Z   6
loop_
 _symmetry_equiv_pos_site_id
 _symmetry_equiv_pos_as_xyz
  1  'x, y, z'
loop_
 _atom_site_type_symbol
 _atom_site_label
 _atom_site_symmetry_multiplicity
 _atom_site_fract_x
 _atom_site_fract_y
 _atom_site_fract_z
 _atom_site_occupancy
  Mn  Mn0  1  0.87729100  0.00000000  0.66666700  1
  Mn  Mn1  1  0.00000000  0.87729100  0.33333300  1
  Mn  Mn2  1  0.12270900  0.12270900  0.00000000  1
  Mn  Mn3  1  0.25434500  0.25434500  0.50000000  1
  Mn  Mn4  1  0.74565500  0.00000000  0.16666700  1
  Mn  Mn5  1  0.00000000  0.74565500  0.83333300  1
  B  B6  1  0.31276100  0.55512600  0.87252500  1
  B  B7  1  0.44487400  0.75763500  0.53919100  1
  B  B8  1  0.24236500  0.68723900  0.20585800  1
  B  B9  1  0.55512600  0.31276100  0.12747500  1
  B  B10  1  0.75763500  0.44487400  0.46080900  1
  B  B11  1  0.68723900  0.24236500  0.79414200  1
  P  P12  1  0.33005600  0.24953000  0.76521900  1
  P  P13  1  0.75047000  0.08052600  0.43188500  1
  P  P14  1  0.91947400  0.66994400  0.09855200  1
  P  P15  1  0.24953000  0.33005600  0.23478100  1
  P  P16  1  0.08052600  0.75047000  0.56811500  1
  P  P17  1  0.66994400  0.91947400  0.90144800  1
  H  H18  1  0.59464100  0.31307500  0.59426600  1
  H  H19  1  0.68692500  0.28156700  0.26093300  1
  H  H20  1  0.71843300  0.40535900  0.92759900  1
  H  H21  1  0.31307500  0.59464100  0.40573400  1
  H  H22  1  0.28156700  0.68692500  0.73906700  1
  H  H23  1  0.40535900  0.71843300  0.07240100  1
  H  H24  1  0.58137600  0.62853700  0.61874700  1
  H  H25  1  0.37146300  0.95283800  0.28541400  1
  H  H26  1  0.04716200  0.41862400  0.95208000  1
  H  H27  1  0.62853700  0.58137600  0.38125300  1
  H  H28  1  0.95283800  0.37146300  0.71458600  1
  H  H29  1  0.41862400  0.04716200  0.04792000  1
  O  O30  1  0.58091800  0.36905700  0.52821200  1
  O  O31  1  0.63094300  0.21186000  0.19487900  1
  O  O32  1  0.78814000  0.41908200  0.86154600  1
  O  O33  1  0.36905700  0.58091800  0.47178800  1
  O  O34  1  0.21186000  0.63094300  0.80512100  1
  O  O35  1  0.41908200  0.78814000  0.13845400  1
  O  O36  1  0.58719100  0.75741900  0.61383000  1
  O  O37  1  0.24258100  0.82977200  0.28049600  1
  O  O38  1  0.17022800  0.41280900  0.94716300  1
  O  O39  1  0.75741900  0.58719100  0.38617000  1
  O  O40  1  0.82977200  0.24258100  0.71950400  1
  O  O41  1  0.41280900  0.17022800  0.05283700  1
  O  O42  1  0.20862100  0.22685700  0.66648100  1
  O  O43  1  0.77314300  0.98176400  0.33314700  1
  O  O44  1  0.01823600  0.79137900  0.99981400  1
  O  O45  1  0.22685700  0.20862100  0.33351900  1
  O  O46  1  0.98176400  0.77314300  0.66685300  1
  O  O47  1  0.79137900  0.01823600  0.00018600  1
  O  O48  1  0.40919100  0.46189500  0.81328400  1
  O  O49  1  0.53810500  0.94729700  0.47995100  1
  O  O50  1  0.05270300  0.59080900  0.14661700  1
  O  O51  1  0.46189500  0.40919100  0.18671600  1
  O  O52  1  0.94729700  0.53810500  0.52004900  1
  O  O53  1  0.59080900  0.05270300  0.85338300  1
  O  O54  1  0.52261600  0.24443100  0.73088500  1
  O  O55  1  0.75556900  0.27818500  0.39755100  1
  O  O56  1  0.72181500  0.47738400  0.06421800  1
  O  O57  1  0.24443100  0.52261600  0.26911500  1
  O  O58  1  0.27818500  0.75556900  0.60244900  1
  O  O59  1  0.47738400  0.72181500  0.93578200  1
  O  O60  1  0.20779400  0.08381200  0.84371700  1
  O  O61  1  0.91618800  0.12398200  0.51038400  1
  O  O62  1  0.87601800  0.79220600  0.17705100  1
  O  O63  1  0.08381200  0.20779400  0.15628300  1
  O  O64  1  0.12398200  0.91618800  0.48961600  1
  O  O65  1  0.79220600  0.87601800  0.82294900  1
