# generated using pymatgen
data_CoH18N6(ClO)3
_symmetry_space_group_name_H-M   'P 1'
_cell_length_a   7.57960900
_cell_length_b   12.17596700
_cell_length_c   13.64962303
_cell_angle_alpha   72.09250520
_cell_angle_beta   90.00000000
_cell_angle_gamma   90.00000000
_symmetry_Int_Tables_number   1
_chemical_formula_structural   CoH18N6(ClO)3
_chemical_formula_sum   'Co4 H72 N24 Cl12 O12'
_cell_volume   1198.68328382
_cell_formula_units_Z   4
loop_
 _symmetry_equiv_pos_site_id
 _symmetry_equiv_pos_as_xyz
  1  'x, y, z'
loop_
 _atom_site_type_symbol
 _atom_site_label
 _atom_site_symmetry_multiplicity
 _atom_site_fract_x
 _atom_site_fract_y
 _atom_site_fract_z
 _atom_site_occupancy
  Co  Co0  1  0.00000000  0.00000000  0.00000000  1
  Co  Co1  1  0.50000000  0.50000000  0.00000000  1
  Co  Co2  1  0.50000000  0.00000000  0.50000000  1
  Co  Co3  1  0.00000000  0.50000000  0.50000000  1
  H  H4  1  0.19960000  0.06086600  0.12396800  1
  H  H5  1  0.69960000  0.43913400  0.87603200  1
  H  H6  1  0.80040000  0.93913400  0.87603200  1
  H  H7  1  0.30040000  0.56086600  0.12396800  1
  H  H8  1  0.32202400  0.99336000  0.06009900  1
  H  H9  1  0.82202400  0.50664000  0.93990100  1
  H  H10  1  0.67797600  0.00664000  0.93990100  1
  H  H11  1  0.17797600  0.49336000  0.06009900  1
  H  H12  1  0.26387200  0.12733700  0.00561100  1
  H  H13  1  0.76387200  0.37266300  0.99438900  1
  H  H14  1  0.73612800  0.87266300  0.99438900  1
  H  H15  1  0.23612800  0.62733700  0.00561100  1
  H  H16  1  0.79770700  0.97215700  0.15562000  1
  H  H17  1  0.29770700  0.52784300  0.84438000  1
  H  H18  1  0.20229300  0.02784300  0.84438000  1
  H  H19  1  0.70229300  0.47215700  0.15562000  1
  H  H20  1  0.88834700  0.84484800  0.16081200  1
  H  H21  1  0.38834700  0.65515200  0.83918800  1
  H  H22  1  0.11165300  0.15515200  0.83918800  1
  H  H23  1  0.61165300  0.34484800  0.16081200  1
  H  H24  1  0.99893200  0.94061600  0.19838600  1
  H  H25  1  0.49893200  0.55938400  0.80161400  1
  H  H26  1  0.00106800  0.05938400  0.80161400  1
  H  H27  1  0.50106800  0.44061600  0.19838600  1
  H  H28  1  0.80069600  0.14183800  0.05197800  1
  H  H29  1  0.30069600  0.35816200  0.94802200  1
  H  H30  1  0.19930400  0.85816200  0.94802200  1
  H  H31  1  0.69930400  0.64183800  0.05197800  1
  H  H32  1  0.97566000  0.21274700  0.99078600  1
  H  H33  1  0.47566000  0.28725300  0.00921400  1
  H  H34  1  0.02434000  0.78725300  0.00921400  1
  H  H35  1  0.52434000  0.71274700  0.99078600  1
  H  H36  1  0.81564500  0.17799000  0.92462500  1
  H  H37  1  0.31564500  0.32201000  0.07537500  1
  H  H38  1  0.18435500  0.82201000  0.07537500  1
  H  H39  1  0.68435500  0.67799000  0.92462500  1
  H  H40  1  0.71389200  0.09009000  0.35256600  1
  H  H41  1  0.21389200  0.40991000  0.64743400  1
  H  H42  1  0.28610800  0.90991000  0.64743400  1
  H  H43  1  0.78610800  0.59009000  0.35256600  1
  H  H44  1  0.65326900  0.18710300  0.40854800  1
  H  H45  1  0.15326900  0.31289700  0.59145200  1
  H  H46  1  0.34673100  0.81289700  0.59145200  1
  H  H47  1  0.84673100  0.68710300  0.40854800  1
  H  H48  1  0.80780600  0.09231900  0.46358300  1
  H  H49  1  0.30780600  0.40768100  0.53641700  1
  H  H50  1  0.19219400  0.90768100  0.53641700  1
  H  H51  1  0.69219400  0.59231900  0.46358300  1
  H  H52  1  0.32606000  0.08488900  0.33221400  1
  H  H53  1  0.82606000  0.41511100  0.66778600  1
  H  H54  1  0.67394000  0.91511100  0.66778600  1
  H  H55  1  0.17394000  0.58488900  0.33221400  1
  H  H56  1  0.20083000  0.08275100  0.43198600  1
  H  H57  1  0.70083000  0.41724900  0.56801400  1
  H  H58  1  0.79917000  0.91724900  0.56801400  1
  H  H59  1  0.29917000  0.58275100  0.43198600  1
  H  H60  1  0.35101500  0.18359700  0.38956000  1
  H  H61  1  0.85101500  0.31640300  0.61044000  1
  H  H62  1  0.64898500  0.81640300  0.61044000  1
  H  H63  1  0.14898500  0.68359700  0.38956000  1
  H  H64  1  0.53205100  0.95366000  0.33307700  1
  H  H65  1  0.03205100  0.54634000  0.66692300  1
  H  H66  1  0.46794900  0.04634000  0.66692300  1
  H  H67  1  0.96794900  0.45366000  0.33307700  1
  H  H68  1  0.64301500  0.85800600  0.42505500  1
  H  H69  1  0.14301500  0.64199400  0.57494500  1
  H  H70  1  0.35698500  0.14199400  0.57494500  1
  H  H71  1  0.85698500  0.35800600  0.42505500  1
  H  H72  1  0.42552800  0.84544300  0.41660700  1
  H  H73  1  0.92552800  0.65455700  0.58339300  1
  H  H74  1  0.57447200  0.15455700  0.58339300  1
  H  H75  1  0.07447200  0.34544300  0.41660700  1
  N  N76  1  0.21855900  0.04991200  0.05306000  1
  N  N77  1  0.71855900  0.45008800  0.94694000  1
  N  N78  1  0.78144100  0.95008800  0.94694000  1
  N  N79  1  0.28144100  0.54991200  0.05306000  1
  N  N80  1  0.91206600  0.93218500  0.14344700  1
  N  N81  1  0.41206600  0.56781500  0.85655300  1
  N  N82  1  0.08793400  0.06781500  0.85655300  1
  N  N83  1  0.58793400  0.43218500  0.14344700  1
  N  N84  1  0.88711100  0.14871900  0.99148100  1
  N  N85  1  0.38711100  0.35128100  0.00851900  1
  N  N86  1  0.11288900  0.85128100  0.00851900  1
  N  N87  1  0.61288900  0.64871900  0.99148100  1
  N  N88  1  0.69094500  0.10200100  0.42301200  1
  N  N89  1  0.19094500  0.39799900  0.57698800  1
  N  N90  1  0.30905500  0.89799900  0.57698800  1
  N  N91  1  0.80905500  0.60200100  0.42301200  1
  N  N92  1  0.32691800  0.09692900  0.40333400  1
  N  N93  1  0.82691800  0.40307100  0.59666600  1
  N  N94  1  0.67308200  0.90307100  0.59666600  1
  N  N95  1  0.17308200  0.59692900  0.40333400  1
  N  N96  1  0.52655700  0.90342100  0.40897200  1
  N  N97  1  0.02655700  0.59657900  0.59102800  1
  N  N98  1  0.47344300  0.09657900  0.59102800  1
  N  N99  1  0.97344300  0.40342100  0.40897200  1
  Cl  Cl100  1  0.02300900  0.13851800  0.57751300  1
  Cl  Cl101  1  0.52300900  0.36148200  0.42248700  1
  Cl  Cl102  1  0.97699100  0.86148200  0.42248700  1
  Cl  Cl103  1  0.47699100  0.63851800  0.57751300  1
  Cl  Cl104  1  0.59479600  0.12491200  0.18011300  1
  Cl  Cl105  1  0.09479600  0.37508800  0.81988700  1
  Cl  Cl106  1  0.40520400  0.87508800  0.81988700  1
  Cl  Cl107  1  0.90520400  0.62491200  0.18011300  1
  Cl  Cl108  1  0.02517900  0.27051400  0.20998700  1
  Cl  Cl109  1  0.52517900  0.22948600  0.79001300  1
  Cl  Cl110  1  0.97482100  0.72948600  0.79001300  1
  Cl  Cl111  1  0.47482100  0.77051400  0.20998700  1
  O  O112  1  0.18383800  0.32380700  0.24340600  1
  O  O113  1  0.68383800  0.17619300  0.75659400  1
  O  O114  1  0.81616200  0.67619300  0.75659400  1
  O  O115  1  0.31616200  0.82380700  0.24340600  1
  O  O116  1  0.07119600  0.14911200  0.21522700  1
  O  O117  1  0.57119600  0.35088800  0.78477300  1
  O  O118  1  0.92880400  0.85088800  0.78477300  1
  O  O119  1  0.42880400  0.64911200  0.21522700  1
  O  O120  1  0.99438900  0.33814000  0.09750800  1
  O  O121  1  0.49438900  0.16186000  0.90249200  1
  O  O122  1  0.00561100  0.66186000  0.90249200  1
  O  O123  1  0.50561100  0.83814000  0.09750800  1
