# generated using pymatgen
data_K2TiF5
_symmetry_space_group_name_H-M   'P 1'
_cell_length_a   7.58933900
_cell_length_b   13.09006200
_cell_length_c   20.98014800
_cell_angle_alpha   90.00000000
_cell_angle_beta   90.00000000
_cell_angle_gamma   90.00000000
_symmetry_Int_Tables_number   1
_chemical_formula_structural   K2TiF5
_chemical_formula_sum   'K32 Ti16 F80'
_cell_volume   2084.27108372
_cell_formula_units_Z   16
loop_
 _symmetry_equiv_pos_site_id
 _symmetry_equiv_pos_as_xyz
  1  'x, y, z'
loop_
 _atom_site_type_symbol
 _atom_site_label
 _atom_site_symmetry_multiplicity
 _atom_site_fract_x
 _atom_site_fract_y
 _atom_site_fract_z
 _atom_site_occupancy
  K  K0  1  0.50000000  0.92984600  0.75000000  1
  K  K1  1  0.00000000  0.57015400  0.25000000  1
  K  K2  1  0.50000000  0.07015400  0.25000000  1
  K  K3  1  0.00000000  0.42984600  0.75000000  1
  K  K4  1  0.50982300  0.73359300  0.50589500  1
  K  K5  1  0.99017700  0.76640700  0.00589500  1
  K  K6  1  0.00982300  0.76640700  0.49410500  1
  K  K7  1  0.49017700  0.73359300  0.99410500  1
  K  K8  1  0.49017700  0.26640700  0.49410500  1
  K  K9  1  0.00982300  0.23359300  0.99410500  1
  K  K10  1  0.99017700  0.23359300  0.50589500  1
  K  K11  1  0.50982300  0.26640700  0.00589500  1
  K  K12  1  0.50000000  0.46382000  0.75000000  1
  K  K13  1  0.00000000  0.03618000  0.25000000  1
  K  K14  1  0.50000000  0.53618000  0.25000000  1
  K  K15  1  0.00000000  0.96382000  0.75000000  1
  K  K16  1  0.84781800  0.48333100  0.58295500  1
  K  K17  1  0.65218200  0.01666900  0.08295500  1
  K  K18  1  0.34781800  0.01666900  0.41704500  1
  K  K19  1  0.15218200  0.48333100  0.91704500  1
  K  K20  1  0.15218200  0.51666900  0.41704500  1
  K  K21  1  0.34781800  0.98333100  0.91704500  1
  K  K22  1  0.65218200  0.98333100  0.58295500  1
  K  K23  1  0.84781800  0.51666900  0.08295500  1
  K  K24  1  0.14422600  0.71418000  0.66421100  1
  K  K25  1  0.35577400  0.78582000  0.16421100  1
  K  K26  1  0.64422600  0.78582000  0.33578900  1
  K  K27  1  0.85577400  0.71418000  0.83578900  1
  K  K28  1  0.85577400  0.28582000  0.33578900  1
  K  K29  1  0.64422600  0.21418000  0.83578900  1
  K  K30  1  0.35577400  0.21418000  0.66421100  1
  K  K31  1  0.14422600  0.28582000  0.16421100  1
  Ti  Ti32  1  0.66174300  0.69865400  0.67179000  1
  Ti  Ti33  1  0.83825700  0.80134600  0.17179000  1
  Ti  Ti34  1  0.16174300  0.80134600  0.32821000  1
  Ti  Ti35  1  0.33825700  0.69865400  0.82821000  1
  Ti  Ti36  1  0.33825700  0.30134600  0.32821000  1
  Ti  Ti37  1  0.16174300  0.19865400  0.82821000  1
  Ti  Ti38  1  0.83825700  0.19865400  0.67179000  1
  Ti  Ti39  1  0.66174300  0.30134600  0.17179000  1
  Ti  Ti40  1  0.33467300  0.50039000  0.57682600  1
  Ti  Ti41  1  0.16532700  0.99961000  0.07682600  1
  Ti  Ti42  1  0.83467300  0.99961000  0.42317400  1
  Ti  Ti43  1  0.66532700  0.50039000  0.92317400  1
  Ti  Ti44  1  0.66532700  0.49961000  0.42317400  1
  Ti  Ti45  1  0.83467300  0.00039000  0.92317400  1
  Ti  Ti46  1  0.16532700  0.00039000  0.57682600  1
  Ti  Ti47  1  0.33467300  0.49961000  0.07682600  1
  F  F48  1  0.22373900  0.62491100  0.53876300  1
  F  F49  1  0.27626100  0.87508900  0.03876300  1
  F  F50  1  0.72373900  0.87508900  0.46123700  1
  F  F51  1  0.77626100  0.62491100  0.96123700  1
  F  F52  1  0.77626100  0.37508900  0.46123700  1
  F  F53  1  0.72373900  0.12491100  0.96123700  1
  F  F54  1  0.27626100  0.12491100  0.53876300  1
  F  F55  1  0.22373900  0.37508900  0.03876300  1
  F  F56  1  0.79434300  0.58119000  0.70345900  1
  F  F57  1  0.70565700  0.91881000  0.20345900  1
  F  F58  1  0.29434300  0.91881000  0.29654100  1
  F  F59  1  0.20565700  0.58119000  0.79654100  1
  F  F60  1  0.20565700  0.41881000  0.29654100  1
  F  F61  1  0.29434300  0.08119000  0.79654100  1
  F  F62  1  0.70565700  0.08119000  0.70345900  1
  F  F63  1  0.79434300  0.41881000  0.20345900  1
  F  F64  1  0.17306600  0.41321700  0.53022000  1
  F  F65  1  0.32693400  0.08678300  0.03022000  1
  F  F66  1  0.67306600  0.08678300  0.46978000  1
  F  F67  1  0.82693400  0.41321700  0.96978000  1
  F  F68  1  0.82693400  0.58678300  0.46978000  1
  F  F69  1  0.67306600  0.91321700  0.96978000  1
  F  F70  1  0.32693400  0.91321700  0.53022000  1
  F  F71  1  0.17306600  0.58678300  0.03022000  1
  F  F72  1  0.80045100  0.79903000  0.72233500  1
  F  F73  1  0.69954900  0.70097000  0.22233500  1
  F  F74  1  0.30045100  0.70097000  0.27766500  1
  F  F75  1  0.19954900  0.79903000  0.77766500  1
  F  F76  1  0.19954900  0.20097000  0.27766500  1
  F  F77  1  0.30045100  0.29903000  0.77766500  1
  F  F78  1  0.69954900  0.29903000  0.72233500  1
  F  F79  1  0.80045100  0.20097000  0.22233500  1
  F  F80  1  0.81564000  0.70152000  0.59637300  1
  F  F81  1  0.68436000  0.79848000  0.09637300  1
  F  F82  1  0.31564000  0.79848000  0.40362700  1
  F  F83  1  0.18436000  0.70152000  0.90362700  1
  F  F84  1  0.18436000  0.29848000  0.40362700  1
  F  F85  1  0.31564000  0.20152000  0.90362700  1
  F  F86  1  0.68436000  0.20152000  0.59637300  1
  F  F87  1  0.81564000  0.29848000  0.09637300  1
  F  F88  1  0.50964300  0.80481300  0.64032500  1
  F  F89  1  0.99035700  0.69518700  0.14032500  1
  F  F90  1  0.00964300  0.69518700  0.35967500  1
  F  F91  1  0.49035700  0.80481300  0.85967500  1
  F  F92  1  0.49035700  0.19518700  0.35967500  1
  F  F93  1  0.00964300  0.30481300  0.85967500  1
  F  F94  1  0.99035700  0.30481300  0.64032500  1
  F  F95  1  0.50964300  0.19518700  0.14032500  1
  F  F96  1  0.46885800  0.38907800  0.61322300  1
  F  F97  1  0.03114200  0.11092200  0.11322300  1
  F  F98  1  0.96885800  0.11092200  0.38677700  1
  F  F99  1  0.53114200  0.38907800  0.88677700  1
  F  F100  1  0.53114200  0.61092200  0.38677700  1
  F  F101  1  0.96885800  0.88907800  0.88677700  1
  F  F102  1  0.03114200  0.88907800  0.61322300  1
  F  F103  1  0.46885800  0.61092200  0.11322300  1
  F  F104  1  0.17729000  0.51097900  0.65181000  1
  F  F105  1  0.32271000  0.98902100  0.15181000  1
  F  F106  1  0.67729000  0.98902100  0.34819000  1
  F  F107  1  0.82271000  0.51097900  0.84819000  1
  F  F108  1  0.82271000  0.48902100  0.34819000  1
  F  F109  1  0.67729000  0.01097900  0.84819000  1
  F  F110  1  0.32271000  0.01097900  0.65181000  1
  F  F111  1  0.17729000  0.48902100  0.15181000  1
  F  F112  1  0.50000000  0.68370400  0.75000000  1
  F  F113  1  0.00000000  0.81629600  0.25000000  1
  F  F114  1  0.50000000  0.31629600  0.25000000  1
  F  F115  1  0.00000000  0.18370400  0.75000000  1
  F  F116  1  0.50000000  0.50000000  0.50000000  1
  F  F117  1  0.00000000  0.00000000  0.00000000  1
  F  F118  1  0.00000000  0.00000000  0.50000000  1
  F  F119  1  0.50000000  0.50000000  0.00000000  1
  F  F120  1  0.50417200  0.59684400  0.62276600  1
  F  F121  1  0.99582800  0.90315600  0.12276600  1
  F  F122  1  0.00417200  0.90315600  0.37723400  1
  F  F123  1  0.49582800  0.59684400  0.87723400  1
  F  F124  1  0.49582800  0.40315600  0.37723400  1
  F  F125  1  0.00417200  0.09684400  0.87723400  1
  F  F126  1  0.99582800  0.09684400  0.62276600  1
  F  F127  1  0.50417200  0.40315600  0.12276600  1
