# generated using pymatgen
data_NaSb2H2OF7
_symmetry_space_group_name_H-M   'P 1'
_cell_length_a   5.57220700
_cell_length_b   9.74732600
_cell_length_c   13.70013168
_cell_angle_alpha   90.00000000
_cell_angle_beta   97.60857788
_cell_angle_gamma   90.00000000
_symmetry_Int_Tables_number   1
_chemical_formula_structural   NaSb2H2OF7
_chemical_formula_sum   'Na4 Sb8 H8 O4 F28'
_cell_volume   737.55921944
_cell_formula_units_Z   4
loop_
 _symmetry_equiv_pos_site_id
 _symmetry_equiv_pos_as_xyz
  1  'x, y, z'
loop_
 _atom_site_type_symbol
 _atom_site_label
 _atom_site_symmetry_multiplicity
 _atom_site_fract_x
 _atom_site_fract_y
 _atom_site_fract_z
 _atom_site_occupancy
  Na  Na0  1  0.24303000  0.44073600  0.92561000  1
  Na  Na1  1  0.75697000  0.94073600  0.57439000  1
  Na  Na2  1  0.75697000  0.55926400  0.07439000  1
  Na  Na3  1  0.24303000  0.05926400  0.42561000  1
  Sb  Sb4  1  0.79502000  0.16628600  0.97279000  1
  Sb  Sb5  1  0.20498000  0.66628600  0.52721000  1
  Sb  Sb6  1  0.20498000  0.83371400  0.02721000  1
  Sb  Sb7  1  0.79502000  0.33371400  0.47279000  1
  Sb  Sb8  1  0.38846200  0.19964100  0.70680400  1
  Sb  Sb9  1  0.61153800  0.69964100  0.79319600  1
  Sb  Sb10  1  0.61153800  0.80035900  0.29319600  1
  Sb  Sb11  1  0.38846200  0.30035900  0.20680400  1
  H  H12  1  0.15658100  0.91901300  0.73801300  1
  H  H13  1  0.84341900  0.41901300  0.76198700  1
  H  H14  1  0.84341900  0.08098700  0.26198700  1
  H  H15  1  0.15658100  0.58098700  0.23801300  1
  H  H16  1  0.97097100  0.03080500  0.76069800  1
  H  H17  1  0.02902900  0.53080500  0.73930200  1
  H  H18  1  0.02902900  0.96919500  0.23930200  1
  H  H19  1  0.97097100  0.46919500  0.26069800  1
  O  O20  1  0.06178500  0.99809900  0.70865200  1
  O  O21  1  0.93821500  0.49809900  0.79134800  1
  O  O22  1  0.93821500  0.00190100  0.29134800  1
  O  O23  1  0.06178500  0.50190100  0.20865200  1
  F  F24  1  0.00683800  0.17809300  0.86933600  1
  F  F25  1  0.99316200  0.67809300  0.63066400  1
  F  F26  1  0.99316200  0.82190700  0.13066400  1
  F  F27  1  0.00683800  0.32190700  0.36933600  1
  F  F28  1  0.10454500  0.10911900  0.06213000  1
  F  F29  1  0.89545500  0.60911900  0.43787000  1
  F  F30  1  0.89545500  0.89088100  0.93787000  1
  F  F31  1  0.10454500  0.39088100  0.56213000  1
  F  F32  1  0.90467800  0.35569300  0.00560600  1
  F  F33  1  0.09532200  0.85569300  0.49439400  1
  F  F34  1  0.09532200  0.64430700  0.99439400  1
  F  F35  1  0.90467800  0.14430700  0.50560600  1
  F  F36  1  0.43983700  0.10283000  0.57955800  1
  F  F37  1  0.56016300  0.60283000  0.92044200  1
  F  F38  1  0.56016300  0.89717000  0.42044200  1
  F  F39  1  0.43983700  0.39717000  0.07955800  1
  F  F40  1  0.69328000  0.29471000  0.67866800  1
  F  F41  1  0.30672000  0.79471000  0.82133200  1
  F  F42  1  0.30672000  0.70529000  0.32133200  1
  F  F43  1  0.69328000  0.20529000  0.17866800  1
  F  F44  1  0.58445800  0.04605200  0.76854500  1
  F  F45  1  0.41554200  0.54605200  0.73145500  1
  F  F46  1  0.41554200  0.95394800  0.23145500  1
  F  F47  1  0.58445800  0.45394800  0.26854500  1
  F  F48  1  0.52167500  0.28148200  0.86190700  1
  F  F49  1  0.47832500  0.78148200  0.63809300  1
  F  F50  1  0.47832500  0.71851800  0.13809300  1
  F  F51  1  0.52167500  0.21851800  0.36190700  1
