# generated using pymatgen
data_KTeO4
_symmetry_space_group_name_H-M   'P 1'
_cell_length_a   6.63475100
_cell_length_b   7.75821700
_cell_length_c   19.27607790
_cell_angle_alpha   77.83304279
_cell_angle_beta   90.00000000
_cell_angle_gamma   90.00000000
_symmetry_Int_Tables_number   1
_chemical_formula_structural   KTeO4
_chemical_formula_sum   'K8 Te8 O32'
_cell_volume   969.92621353
_cell_formula_units_Z   8
loop_
 _symmetry_equiv_pos_site_id
 _symmetry_equiv_pos_as_xyz
  1  'x, y, z'
loop_
 _atom_site_type_symbol
 _atom_site_label
 _atom_site_symmetry_multiplicity
 _atom_site_fract_x
 _atom_site_fract_y
 _atom_site_fract_z
 _atom_site_occupancy
  K  K0  1  0.45758100  0.50423500  0.60596500  1
  K  K1  1  0.95758100  0.49576500  0.89403500  1
  K  K2  1  0.54241900  0.49576500  0.39403500  1
  K  K3  1  0.04241900  0.50423500  0.10596500  1
  K  K4  1  0.89425700  0.16350400  0.73860600  1
  K  K5  1  0.39425700  0.83649600  0.76139400  1
  K  K6  1  0.10574300  0.83649600  0.26139400  1
  K  K7  1  0.60574300  0.16350400  0.23860600  1
  Te  Te8  1  0.48197700  0.96777600  0.42119200  1
  Te  Te9  1  0.98197700  0.03222400  0.07880800  1
  Te  Te10  1  0.51802300  0.03222400  0.57880800  1
  Te  Te11  1  0.01802300  0.96777600  0.92119200  1
  Te  Te12  1  0.01285900  0.68374600  0.44676700  1
  Te  Te13  1  0.51285900  0.31625400  0.05323300  1
  Te  Te14  1  0.98714100  0.31625400  0.55323300  1
  Te  Te15  1  0.48714100  0.68374600  0.94676700  1
  O  O16  1  0.42941200  0.18048000  0.36123100  1
  O  O17  1  0.92941200  0.81952000  0.13876900  1
  O  O18  1  0.57058800  0.81952000  0.63876900  1
  O  O19  1  0.07058800  0.18048000  0.86123100  1
  O  O20  1  0.33453800  0.92242400  0.51156100  1
  O  O21  1  0.83453800  0.07757600  0.98843900  1
  O  O22  1  0.66546200  0.07757600  0.48843900  1
  O  O23  1  0.16546200  0.92242400  0.01156100  1
  O  O24  1  0.29620900  0.81273800  0.38818000  1
  O  O25  1  0.79620900  0.18726200  0.11182000  1
  O  O26  1  0.70379100  0.18726200  0.61182000  1
  O  O27  1  0.20379100  0.81273800  0.88818000  1
  O  O28  1  0.19792400  0.49286300  0.49516100  1
  O  O29  1  0.69792400  0.50713700  0.00483900  1
  O  O30  1  0.80207600  0.50713700  0.50483900  1
  O  O31  1  0.30207600  0.49286300  0.99516100  1
  O  O32  1  0.97269900  0.59907600  0.36512000  1
  O  O33  1  0.47269900  0.40092400  0.13488000  1
  O  O34  1  0.02730100  0.40092400  0.63488000  1
  O  O35  1  0.52730100  0.59907600  0.86512000  1
  O  O36  1  0.00182300  0.76110900  0.65376900  1
  O  O37  1  0.50182300  0.23889100  0.84623100  1
  O  O38  1  0.99817700  0.23889100  0.34623100  1
  O  O39  1  0.49817700  0.76110900  0.15376900  1
  O  O40  1  0.29476400  0.13423500  0.61266400  1
  O  O41  1  0.79476400  0.86576500  0.88733600  1
  O  O42  1  0.70523600  0.86576500  0.38733600  1
  O  O43  1  0.20523600  0.13423500  0.11266400  1
  O  O44  1  0.96367200  0.69040400  0.71585800  1
  O  O45  1  0.46367200  0.30959600  0.78414200  1
  O  O46  1  0.03632800  0.30959600  0.28414200  1
  O  O47  1  0.53632800  0.69040400  0.21585800  1
