# generated using pymatgen
data_Tl4Cu3(B9O22)2
_symmetry_space_group_name_H-M   'P 1'
_cell_length_a   7.67394500
_cell_length_b   12.52087400
_cell_length_c   13.08644841
_cell_angle_alpha   90.00000000
_cell_angle_beta   107.04974882
_cell_angle_gamma   90.00000000
_symmetry_Int_Tables_number   1
_chemical_formula_structural   Tl4Cu3(B9O22)2
_chemical_formula_sum   'Tl4 Cu3 B18 O44'
_cell_volume   1202.14256169
_cell_formula_units_Z   1
loop_
 _symmetry_equiv_pos_site_id
 _symmetry_equiv_pos_as_xyz
  1  'x, y, z'
loop_
 _atom_site_type_symbol
 _atom_site_label
 _atom_site_symmetry_multiplicity
 _atom_site_fract_x
 _atom_site_fract_y
 _atom_site_fract_z
 _atom_site_occupancy
  Tl  Tl0  1  0.34905800  0.00000000  0.58533600  1
  Tl  Tl1  1  0.76372200  0.00000000  0.41466400  1
  Tl  Tl2  1  0.26868900  0.50000000  0.22693500  1
  Tl  Tl3  1  0.04175400  0.50000000  0.77306500  1
  Cu  Cu4  1  0.95274400  0.00000000  0.87969900  1
  Cu  Cu5  1  0.07304400  0.00000000  0.12030100  1
  Cu  Cu6  1  0.56344600  0.50000000  0.00000000  1
  B  B7  1  0.09778200  0.19369500  0.00000000  1
  B  B8  1  0.09778200  0.80630500  0.00000000  1
  B  B9  1  0.96589100  0.22652000  0.80353500  1
  B  B10  1  0.16235600  0.77348000  0.19646500  1
  B  B11  1  0.96589100  0.77348000  0.80353500  1
  B  B12  1  0.16235600  0.22652000  0.19646500  1
  B  B13  1  0.78892300  0.10223100  0.65998200  1
  B  B14  1  0.12894100  0.89776900  0.34001800  1
  B  B15  1  0.78892300  0.89776900  0.65998200  1
  B  B16  1  0.12894100  0.10223100  0.34001800  1
  B  B17  1  0.64250700  0.26006400  0.71717000  1
  B  B18  1  0.92533700  0.73993600  0.28283000  1
  B  B19  1  0.64250700  0.73993600  0.71717000  1
  B  B20  1  0.92533700  0.26006400  0.28283000  1
  B  B21  1  0.02590100  0.21598300  0.62631200  1
  B  B22  1  0.39959000  0.78401700  0.37368800  1
  B  B23  1  0.02590100  0.78401700  0.62631200  1
  B  B24  1  0.39959000  0.21598300  0.37368800  1
  O  O25  1  0.00853200  0.09419100  0.00000000  1
  O  O26  1  0.00853200  0.90580900  0.00000000  1
  O  O27  1  0.90924100  0.89029500  0.77679200  1
  O  O28  1  0.13244900  0.10970500  0.22320800  1
  O  O29  1  0.90924100  0.10970500  0.77679200  1
  O  O30  1  0.13244900  0.89029500  0.22320800  1
  O  O31  1  0.09492300  0.23824100  0.90590900  1
  O  O32  1  0.18901500  0.76175900  0.09409100  1
  O  O33  1  0.09492300  0.76175900  0.90590900  1
  O  O34  1  0.18901500  0.23824100  0.09409100  1
  O  O35  1  0.71067600  0.00000000  0.63244100  1
  O  O36  1  0.07823600  0.00000000  0.36755900  1
  O  O37  1  0.79804700  0.28739100  0.79647900  1
  O  O38  1  0.00156800  0.71260900  0.20352100  1
  O  O39  1  0.79804700  0.71260900  0.79647900  1
  O  O40  1  0.00156800  0.28739100  0.20352100  1
  O  O41  1  0.48459200  0.31638000  0.70876200  1
  O  O42  1  0.77583000  0.68362000  0.29123800  1
  O  O43  1  0.48459200  0.68362000  0.70876200  1
  O  O44  1  0.77583000  0.31638000  0.29123800  1
  O  O45  1  0.63609200  0.17808100  0.64654900  1
  O  O46  1  0.98954300  0.82191900  0.35345100  1
  O  O47  1  0.63609200  0.82191900  0.64654900  1
  O  O48  1  0.98954300  0.17808100  0.35345100  1
  O  O49  1  0.04327600  0.26903800  0.72089400  1
  O  O50  1  0.32238200  0.73096200  0.27910600  1
  O  O51  1  0.04327600  0.73096200  0.72089400  1
  O  O52  1  0.32238200  0.26903800  0.27910600  1
  O  O53  1  0.57089200  0.24822200  0.43234900  1
  O  O54  1  0.13854300  0.75177800  0.56765100  1
  O  O55  1  0.57089200  0.75177800  0.43234900  1
  O  O56  1  0.13854300  0.24822200  0.56765100  1
  O  O57  1  0.90745100  0.13183000  0.59316100  1
  O  O58  1  0.31429000  0.86817000  0.40683900  1
  O  O59  1  0.90745100  0.86817000  0.59316100  1
  O  O60  1  0.31429000  0.13183000  0.40683900  1
  O  O61  1  0.75672200  0.39976300  0.00000000  1
  O  O62  1  0.75672200  0.60023700  0.00000000  1
  O  O63  1  0.39254700  0.41560900  0.88873700  1
  O  O64  1  0.50381000  0.58439100  0.11126300  1
  O  O65  1  0.39254700  0.58439100  0.88873700  1
  O  O66  1  0.50381000  0.41560900  0.11126300  1
  O  O67  1  0.78730600  0.50000000  0.15282700  1
  O  O68  1  0.63447900  0.50000000  0.84717300  1
