# generated using pymatgen
data_Mn2Sb2H8S5N4
_symmetry_space_group_name_H-M   'P 1'
_cell_length_a   8.93081900
_cell_length_b   9.02584410
_cell_length_c   9.06493729
_cell_angle_alpha   110.66875209
_cell_angle_beta   115.21751664
_cell_angle_gamma   86.11517116
_symmetry_Int_Tables_number   1
_chemical_formula_structural   Mn2Sb2H8S5N4
_chemical_formula_sum   'Mn4 Sb4 H16 S10 N8'
_cell_volume   615.56652573
_cell_formula_units_Z   2
loop_
 _symmetry_equiv_pos_site_id
 _symmetry_equiv_pos_as_xyz
  1  'x, y, z'
loop_
 _atom_site_type_symbol
 _atom_site_label
 _atom_site_symmetry_multiplicity
 _atom_site_fract_x
 _atom_site_fract_y
 _atom_site_fract_z
 _atom_site_occupancy
  Mn  Mn0  1  0.11729900  0.95606700  0.18953100  1
  Mn  Mn1  1  0.88270100  0.04393300  0.81046900  1
  Mn  Mn2  1  0.45635400  0.59819300  0.17933900  1
  Mn  Mn3  1  0.54364600  0.40180700  0.82066100  1
  Sb  Sb4  1  0.18085400  0.69846200  0.76959600  1
  Sb  Sb5  1  0.81914600  0.30153800  0.23040400  1
  Sb  Sb6  1  0.65876800  0.84363500  0.00196300  1
  Sb  Sb7  1  0.34123200  0.15636500  0.99803700  1
  H  H8  1  0.39260100  0.03567000  0.55123000  1
  H  H9  1  0.60739900  0.96433000  0.44877000  1
  H  H10  1  0.22740500  0.12394500  0.53955500  1
  H  H11  1  0.77259500  0.87605500  0.46044500  1
  H  H12  1  0.18699100  0.51086400  0.24689900  1
  H  H13  1  0.81300900  0.48913600  0.75310100  1
  H  H14  1  0.13405300  0.57121900  0.08208000  1
  H  H15  1  0.86594700  0.42878100  0.91792000  1
  H  H16  1  0.53627000  0.76734000  0.54150600  1
  H  H17  1  0.46373000  0.23266000  0.45849400  1
  H  H18  1  0.68915400  0.67957900  0.51366600  1
  H  H19  1  0.31084600  0.32042100  0.48633400  1
  H  H20  1  0.02278100  0.71815500  0.27429600  1
  H  H21  1  0.97721900  0.28184500  0.72570400  1
  H  H22  1  0.21174800  0.77896300  0.42895100  1
  H  H23  1  0.78825200  0.22103700  0.57104900  1
  S  S24  1  0.10721400  0.93874200  0.68971000  1
  S  S25  1  0.89278600  0.06125800  0.31029000  1
  S  S26  1  0.41986800  0.63556700  0.69040800  1
  S  S27  1  0.58013200  0.36443300  0.30959200  1
  S  S28  1  0.34135300  0.83657000  0.08919000  1
  S  S29  1  0.65864700  0.16343000  0.91081000  1
  S  S30  1  0.87802700  0.79781400  0.89264700  1
  S  S31  1  0.12197300  0.20218600  0.10735300  1
  S  S32  1  0.71185000  0.62243300  0.11959200  1
  S  S33  1  0.28815000  0.37756700  0.88040800  1
  N  N34  1  0.30852000  0.09716600  0.48194000  1
  N  N35  1  0.69148000  0.90283400  0.51806000  1
  N  N36  1  0.20595300  0.60400500  0.21412200  1
  N  N37  1  0.79404700  0.39599500  0.78587800  1
  N  N38  1  0.60053000  0.75027900  0.46621000  1
  N  N39  1  0.39947000  0.24972100  0.53379000  1
  N  N40  1  0.14261100  0.74641800  0.29619000  1
  N  N41  1  0.85738900  0.25358200  0.70381000  1
