# generated using pymatgen
data_Co2P2H4PbO10
_symmetry_space_group_name_H-M   'P 1'
_cell_length_a   6.37900200
_cell_length_b   7.57391046
_cell_length_c   9.04286249
_cell_angle_alpha   114.39098559
_cell_angle_beta   90.00000000
_cell_angle_gamma   90.00000000
_symmetry_Int_Tables_number   1
_chemical_formula_structural   Co2P2H4PbO10
_chemical_formula_sum   'Co4 P4 H8 Pb2 O20'
_cell_volume   397.90313887
_cell_formula_units_Z   2
loop_
 _symmetry_equiv_pos_site_id
 _symmetry_equiv_pos_as_xyz
  1  'x, y, z'
loop_
 _atom_site_type_symbol
 _atom_site_label
 _atom_site_symmetry_multiplicity
 _atom_site_fract_x
 _atom_site_fract_y
 _atom_site_fract_z
 _atom_site_occupancy
  Co  Co0  1  0.50000000  0.50000000  0.00000000  1
  Co  Co1  1  0.00000000  0.50000000  0.00000000  1
  Co  Co2  1  0.00000000  0.50000000  0.50000000  1
  Co  Co3  1  0.50000000  0.50000000  0.50000000  1
  P  P4  1  0.25000000  0.23133400  0.67757800  1
  P  P5  1  0.75000000  0.76866600  0.32242200  1
  P  P6  1  0.75000000  0.21062500  0.16186300  1
  P  P7  1  0.25000000  0.78937500  0.83813700  1
  H  H8  1  0.25000000  0.92145700  0.62394300  1
  H  H9  1  0.75000000  0.07854300  0.37605700  1
  H  H10  1  0.75000000  0.31125500  0.60468100  1
  H  H11  1  0.25000000  0.68874500  0.39531900  1
  H  H12  1  0.75000000  0.75006200  0.96358900  1
  H  H13  1  0.25000000  0.24993800  0.03641100  1
  H  H14  1  0.75000000  0.55054600  0.78338300  1
  H  H15  1  0.25000000  0.44945400  0.21661700  1
  Pb  Pb16  1  0.75000000  0.99024800  0.76714300  1
  Pb  Pb17  1  0.25000000  0.00975100  0.23285700  1
  O  O18  1  0.25000000  0.32428100  0.55410800  1
  O  O19  1  0.75000000  0.67571900  0.44589200  1
  O  O20  1  0.25000000  0.00093000  0.56093200  1
  O  O21  1  0.75000000  0.99907000  0.43906800  1
  O  O22  1  0.45284400  0.27038300  0.77874600  1
  O  O23  1  0.95284400  0.72961700  0.22125400  1
  O  O24  1  0.54715600  0.72961700  0.22125400  1
  O  O25  1  0.04715600  0.27038300  0.77874600  1
  O  O26  1  0.75000000  0.99635300  0.03494700  1
  O  O27  1  0.25000000  0.00364700  0.96505300  1
  O  O28  1  0.75000000  0.33965100  0.06344800  1
  O  O29  1  0.25000000  0.66034900  0.93655200  1
  O  O30  1  0.55310000  0.24874800  0.27415600  1
  O  O31  1  0.05310000  0.75125200  0.72584400  1
  O  O32  1  0.44690000  0.75125200  0.72584400  1
  O  O33  1  0.94690000  0.24874800  0.27415600  1
  O  O34  1  0.75000000  0.44187800  0.60871600  1
  O  O35  1  0.25000000  0.55812200  0.39128400  1
  O  O36  1  0.75000000  0.60504400  0.91186700  1
  O  O37  1  0.25000000  0.39495600  0.08813300  1
