# generated using pymatgen
data_Sm5Bi3
_symmetry_space_group_name_H-M   'P 1'
_cell_length_a   8.43561300
_cell_length_b   9.74933200
_cell_length_c   12.38302500
_cell_angle_alpha   90.00000000
_cell_angle_beta   90.00000000
_cell_angle_gamma   90.00000000
_symmetry_Int_Tables_number   1
_chemical_formula_structural   Sm5Bi3
_chemical_formula_sum   'Sm20 Bi12'
_cell_volume   1018.39968681
_cell_formula_units_Z   4
loop_
 _symmetry_equiv_pos_site_id
 _symmetry_equiv_pos_as_xyz
  1  'x, y, z'
loop_
 _atom_site_type_symbol
 _atom_site_label
 _atom_site_symmetry_multiplicity
 _atom_site_fract_x
 _atom_site_fract_y
 _atom_site_fract_z
 _atom_site_occupancy
  Sm  Sm0  1  0.69288300  0.94200800  0.43504800  1
  Sm  Sm1  1  0.80711700  0.55799200  0.93504800  1
  Sm  Sm2  1  0.30711700  0.44200800  0.56495200  1
  Sm  Sm3  1  0.19288300  0.05799200  0.06495200  1
  Sm  Sm4  1  0.30711700  0.05799200  0.56495200  1
  Sm  Sm5  1  0.19288300  0.44200800  0.06495200  1
  Sm  Sm6  1  0.69288300  0.55799200  0.43504800  1
  Sm  Sm7  1  0.80711700  0.94200800  0.93504800  1
  Sm  Sm8  1  0.02269300  0.75000000  0.49548000  1
  Sm  Sm9  1  0.47730700  0.75000000  0.99548000  1
  Sm  Sm10  1  0.97730700  0.25000000  0.50452000  1
  Sm  Sm11  1  0.52269300  0.25000000  0.00452000  1
  Sm  Sm12  1  0.33634200  0.75000000  0.27106000  1
  Sm  Sm13  1  0.16365800  0.75000000  0.77106000  1
  Sm  Sm14  1  0.66365800  0.25000000  0.72894000  1
  Sm  Sm15  1  0.83634200  0.25000000  0.22894000  1
  Sm  Sm16  1  0.84287100  0.75000000  0.21008300  1
  Sm  Sm17  1  0.65712900  0.75000000  0.71008300  1
  Sm  Sm18  1  0.15712900  0.25000000  0.78991700  1
  Sm  Sm19  1  0.34287100  0.25000000  0.28991700  1
  Bi  Bi20  1  0.56714700  0.99376500  0.17478900  1
  Bi  Bi21  1  0.93285300  0.50623500  0.67478900  1
  Bi  Bi22  1  0.43285300  0.49376500  0.82521100  1
  Bi  Bi23  1  0.06714700  0.00623500  0.32521100  1
  Bi  Bi24  1  0.43285300  0.00623500  0.82521100  1
  Bi  Bi25  1  0.06714700  0.49376500  0.32521100  1
  Bi  Bi26  1  0.56714700  0.50623500  0.17478900  1
  Bi  Bi27  1  0.93285300  0.99376500  0.67478900  1
  Bi  Bi28  1  0.09449100  0.75000000  0.02445500  1
  Bi  Bi29  1  0.40550900  0.75000000  0.52445500  1
  Bi  Bi30  1  0.90550900  0.25000000  0.97554500  1
  Bi  Bi31  1  0.59449100  0.25000000  0.47554500  1
