# generated using pymatgen
data_Pr6CdFe13
_symmetry_space_group_name_H-M   'P 1'
_cell_length_a   8.11746100
_cell_length_b   8.11746100
_cell_length_c   13.13292948
_cell_angle_alpha   108.00198449
_cell_angle_beta   108.00198449
_cell_angle_gamma   90.00000000
_symmetry_Int_Tables_number   1
_chemical_formula_structural   Pr6CdFe13
_chemical_formula_sum   'Pr12 Cd2 Fe26'
_cell_volume   778.34103287
_cell_formula_units_Z   2
loop_
 _symmetry_equiv_pos_site_id
 _symmetry_equiv_pos_as_xyz
  1  'x, y, z'
loop_
 _atom_site_type_symbol
 _atom_site_label
 _atom_site_symmetry_multiplicity
 _atom_site_fract_x
 _atom_site_fract_y
 _atom_site_fract_z
 _atom_site_occupancy
  Pr  Pr0  1  0.97828600  0.47828600  0.63089900  1
  Pr  Pr1  1  0.65261200  0.15261200  0.63089900  1
  Pr  Pr2  1  0.15261200  0.97828600  0.63089900  1
  Pr  Pr3  1  0.47828600  0.65261200  0.63089900  1
  Pr  Pr4  1  0.02171400  0.52171400  0.36910100  1
  Pr  Pr5  1  0.34738800  0.84738800  0.36910100  1
  Pr  Pr6  1  0.84738800  0.02171400  0.36910100  1
  Pr  Pr7  1  0.52171400  0.34738800  0.36910100  1
  Pr  Pr8  1  0.60472100  0.60472100  0.20944200  1
  Pr  Pr9  1  0.10472100  0.10472100  0.20944200  1
  Pr  Pr10  1  0.39527900  0.39527900  0.79055800  1
  Pr  Pr11  1  0.89527900  0.89527900  0.79055800  1
  Cd  Cd12  1  0.25000000  0.25000000  0.50000000  1
  Cd  Cd13  1  0.75000000  0.75000000  0.50000000  1
  Fe  Fe14  1  0.12050800  0.62050800  0.88369200  1
  Fe  Fe15  1  0.76318400  0.26318400  0.88369200  1
  Fe  Fe16  1  0.26318400  0.12050800  0.88369200  1
  Fe  Fe17  1  0.62050800  0.76318400  0.88369200  1
  Fe  Fe18  1  0.87949200  0.37949200  0.11630800  1
  Fe  Fe19  1  0.23681600  0.73681600  0.11630800  1
  Fe  Fe20  1  0.73681600  0.87949200  0.11630800  1
  Fe  Fe21  1  0.37949200  0.23681600  0.11630800  1
  Fe  Fe22  1  0.71102900  0.56631200  0.00000000  1
  Fe  Fe23  1  0.28897100  0.43368800  0.00000000  1
  Fe  Fe24  1  0.78897100  0.06631200  0.00000000  1
  Fe  Fe25  1  0.21102900  0.93368800  0.00000000  1
  Fe  Fe26  1  0.56631200  0.28897100  0.00000000  1
  Fe  Fe27  1  0.43368800  0.71102900  0.00000000  1
  Fe  Fe28  1  0.06631200  0.21102900  0.00000000  1
  Fe  Fe29  1  0.93368800  0.78897100  0.00000000  1
  Fe  Fe30  1  0.29351300  0.79351300  0.81337000  1
  Fe  Fe31  1  0.51985700  0.01985700  0.81337000  1
  Fe  Fe32  1  0.01985700  0.29351300  0.81337000  1
  Fe  Fe33  1  0.79351300  0.51985700  0.81337000  1
  Fe  Fe34  1  0.70648700  0.20648700  0.18663000  1
  Fe  Fe35  1  0.48014300  0.98014300  0.18663000  1
  Fe  Fe36  1  0.98014300  0.70648700  0.18663000  1
  Fe  Fe37  1  0.20648700  0.48014300  0.18663000  1
  Fe  Fe38  1  0.00000000  0.50000000  0.00000000  1
  Fe  Fe39  1  0.50000000  0.00000000  0.00000000  1
