# generated using pymatgen
data_K2InBr5O
_symmetry_space_group_name_H-M   'P 1'
_cell_length_a   8.35185800
_cell_length_b   10.76391000
_cell_length_c   13.27520500
_cell_angle_alpha   90.00000000
_cell_angle_beta   90.00000000
_cell_angle_gamma   90.00000000
_symmetry_Int_Tables_number   1
_chemical_formula_structural   K2InBr5O
_chemical_formula_sum   'K8 In4 Br20 O4'
_cell_volume   1193.42297936
_cell_formula_units_Z   4
loop_
 _symmetry_equiv_pos_site_id
 _symmetry_equiv_pos_as_xyz
  1  'x, y, z'
loop_
 _atom_site_type_symbol
 _atom_site_label
 _atom_site_symmetry_multiplicity
 _atom_site_fract_x
 _atom_site_fract_y
 _atom_site_fract_z
 _atom_site_occupancy
  K  K0  1  0.13854000  0.48698800  0.35393900  1
  K  K1  1  0.36146000  0.01301200  0.85393900  1
  K  K2  1  0.86146000  0.98698800  0.64606100  1
  K  K3  1  0.63854000  0.51301200  0.14606100  1
  K  K4  1  0.86146000  0.51301200  0.64606100  1
  K  K5  1  0.63854000  0.98698800  0.14606100  1
  K  K6  1  0.13854000  0.01301200  0.35393900  1
  K  K7  1  0.36146000  0.48698800  0.85393900  1
  In  In8  1  0.22562400  0.75000000  0.10324100  1
  In  In9  1  0.27437600  0.75000000  0.60324100  1
  In  In10  1  0.77437600  0.25000000  0.89675900  1
  In  In11  1  0.72562400  0.25000000  0.39675900  1
  Br  Br12  1  0.89609300  0.75000000  0.19753300  1
  Br  Br13  1  0.60390700  0.75000000  0.69753300  1
  Br  Br14  1  0.10390700  0.25000000  0.80246700  1
  Br  Br15  1  0.39609300  0.25000000  0.30246700  1
  Br  Br16  1  0.37698600  0.75000000  0.27815100  1
  Br  Br17  1  0.12301400  0.75000000  0.77815100  1
  Br  Br18  1  0.62301400  0.25000000  0.72184900  1
  Br  Br19  1  0.87698600  0.25000000  0.22184900  1
  Br  Br20  1  0.48410000  0.75000000  0.98620900  1
  Br  Br21  1  0.01590000  0.75000000  0.48620900  1
  Br  Br22  1  0.51590000  0.25000000  0.01379100  1
  Br  Br23  1  0.98410000  0.25000000  0.51379100  1
  Br  Br24  1  0.20116400  0.50270200  0.09653400  1
  Br  Br25  1  0.29883600  0.99729800  0.59653400  1
  Br  Br26  1  0.79883600  0.00270200  0.90346600  1
  Br  Br27  1  0.70116400  0.49729800  0.40346600  1
  Br  Br28  1  0.79883600  0.49729800  0.90346600  1
  Br  Br29  1  0.70116400  0.00270200  0.40346600  1
  Br  Br30  1  0.20116400  0.99729800  0.09653400  1
  Br  Br31  1  0.29883600  0.50270200  0.59653400  1
  O  O32  1  0.00051800  0.75000000  0.02466300  1
  O  O33  1  0.49948200  0.75000000  0.52466300  1
  O  O34  1  0.99948200  0.25000000  0.97533700  1
  O  O35  1  0.50051800  0.25000000  0.47533700  1
