# generated using pymatgen
data_MgTa3
_symmetry_space_group_name_H-M   'P 1'
_cell_length_a   5.95167547
_cell_length_b   5.95167547
_cell_length_c   4.83739600
_cell_angle_alpha   90.00000000
_cell_angle_beta   90.00000000
_cell_angle_gamma   119.99999412
_symmetry_Int_Tables_number   1
_chemical_formula_structural   MgTa3
_chemical_formula_sum   'Mg2 Ta6'
_cell_volume   148.39551765
_cell_formula_units_Z   2
loop_
 _symmetry_equiv_pos_site_id
 _symmetry_equiv_pos_as_xyz
  1  'x, y, z'
loop_
 _atom_site_type_symbol
 _atom_site_label
 _atom_site_symmetry_multiplicity
 _atom_site_fract_x
 _atom_site_fract_y
 _atom_site_fract_z
 _atom_site_occupancy
  Mg  Mg0  1  0.66666700  0.33333300  0.25000000  1
  Mg  Mg1  1  0.33333300  0.66666700  0.75000000  1
  Ta  Ta2  1  0.16238300  0.32476600  0.25000000  1
  Ta  Ta3  1  0.16238300  0.83761700  0.25000000  1
  Ta  Ta4  1  0.67523400  0.83761700  0.25000000  1
  Ta  Ta5  1  0.32476600  0.16238300  0.75000000  1
  Ta  Ta6  1  0.83761700  0.16238300  0.75000000  1
  Ta  Ta7  1  0.83761700  0.67523400  0.75000000  1
