# generated using pymatgen
data_Be3SiO6
_symmetry_space_group_name_H-M   'P 1'
_cell_length_a   4.69468200
_cell_length_b   5.26673800
_cell_length_c   17.37395040
_cell_angle_alpha   73.37528194
_cell_angle_beta   90.00000000
_cell_angle_gamma   90.00000000
_symmetry_Int_Tables_number   1
_chemical_formula_structural   Be3SiO6
_chemical_formula_sum   'Be12 Si4 O24'
_cell_volume   411.62551979
_cell_formula_units_Z   4
loop_
 _symmetry_equiv_pos_site_id
 _symmetry_equiv_pos_as_xyz
  1  'x, y, z'
loop_
 _atom_site_type_symbol
 _atom_site_label
 _atom_site_symmetry_multiplicity
 _atom_site_fract_x
 _atom_site_fract_y
 _atom_site_fract_z
 _atom_site_occupancy
  Be  Be0  1  0.09773400  0.04759900  0.61707200  1
  Be  Be1  1  0.59773400  0.95240100  0.88292800  1
  Be  Be2  1  0.90226600  0.95240100  0.38292800  1
  Be  Be3  1  0.40226600  0.04759900  0.11707200  1
  Be  Be4  1  0.40947500  0.69206600  0.46023500  1
  Be  Be5  1  0.90947500  0.30793400  0.03976500  1
  Be  Be6  1  0.59052500  0.30793400  0.53976500  1
  Be  Be7  1  0.09052500  0.69206600  0.96023500  1
  Be  Be8  1  0.58271700  0.50220000  0.79617400  1
  Be  Be9  1  0.08271700  0.49780000  0.70382600  1
  Be  Be10  1  0.41728300  0.49780000  0.20382600  1
  Be  Be11  1  0.91728300  0.50220000  0.29617400  1
  Si  Si12  1  0.08358100  0.26229500  0.87655100  1
  Si  Si13  1  0.58358100  0.73770500  0.62344900  1
  Si  Si14  1  0.91641900  0.73770500  0.12344900  1
  Si  Si15  1  0.41641900  0.26229500  0.37655100  1
  O  O16  1  0.92533200  0.75929800  0.64337100  1
  O  O17  1  0.42533200  0.24070200  0.85662900  1
  O  O18  1  0.07466800  0.24070200  0.35662900  1
  O  O19  1  0.57466800  0.75929800  0.14337100  1
  O  O20  1  0.92570000  0.43410100  0.79228700  1
  O  O21  1  0.42570000  0.56589900  0.70771300  1
  O  O22  1  0.07430000  0.56589900  0.20771300  1
  O  O23  1  0.57430000  0.43410100  0.29228700  1
  O  O24  1  0.43383200  0.03395400  0.59457300  1
  O  O25  1  0.93383200  0.96604600  0.90542700  1
  O  O26  1  0.56616800  0.96604600  0.40542700  1
  O  O27  1  0.06616800  0.03395400  0.09457300  1
  O  O28  1  0.51407200  0.59165400  0.55494100  1
  O  O29  1  0.01407200  0.40834600  0.94505900  1
  O  O30  1  0.48592800  0.40834600  0.44505900  1
  O  O31  1  0.98592800  0.59165400  0.05494100  1
  O  O32  1  0.92269200  0.24883800  0.54935000  1
  O  O33  1  0.42269200  0.75116200  0.95065000  1
  O  O34  1  0.07730800  0.75116200  0.45065000  1
  O  O35  1  0.57730800  0.24883800  0.04935000  1
  O  O36  1  0.05620700  0.23267600  0.67453400  1
  O  O37  1  0.55620700  0.76732400  0.82546600  1
  O  O38  1  0.94379300  0.76732400  0.32546600  1
  O  O39  1  0.44379300  0.23267600  0.17453400  1
