# generated using pymatgen
data_Rb9Al(HO2)4
_symmetry_space_group_name_H-M   'P 1'
_cell_length_a   7.09500300
_cell_length_b   13.22176800
_cell_length_c   19.80013094
_cell_angle_alpha   89.95951993
_cell_angle_beta   90.00000000
_cell_angle_gamma   90.00000000
_symmetry_Int_Tables_number   1
_chemical_formula_structural   Rb9Al(HO2)4
_chemical_formula_sum   'Rb36 Al4 H16 O32'
_cell_volume   1857.41979565
_cell_formula_units_Z   4
loop_
 _symmetry_equiv_pos_site_id
 _symmetry_equiv_pos_as_xyz
  1  'x, y, z'
loop_
 _atom_site_type_symbol
 _atom_site_label
 _atom_site_symmetry_multiplicity
 _atom_site_fract_x
 _atom_site_fract_y
 _atom_site_fract_z
 _atom_site_occupancy
  Rb  Rb0  1  0.24913600  0.03905400  0.99898800  1
  Rb  Rb1  1  0.74913600  0.96094600  0.50101200  1
  Rb  Rb2  1  0.75086400  0.96094600  0.00101200  1
  Rb  Rb3  1  0.25086400  0.03905400  0.49898800  1
  Rb  Rb4  1  0.13172600  0.03948600  0.83423700  1
  Rb  Rb5  1  0.63172600  0.96051400  0.66576300  1
  Rb  Rb6  1  0.86827400  0.96051400  0.16576300  1
  Rb  Rb7  1  0.36827400  0.03948600  0.33423700  1
  Rb  Rb8  1  0.82844000  0.25543300  0.69541200  1
  Rb  Rb9  1  0.32844000  0.74456700  0.80458800  1
  Rb  Rb10  1  0.17156000  0.74456700  0.30458800  1
  Rb  Rb11  1  0.67156000  0.25543300  0.19541200  1
  Rb  Rb12  1  0.88489900  0.23330100  0.50170900  1
  Rb  Rb13  1  0.38489900  0.76669900  0.99829100  1
  Rb  Rb14  1  0.11510100  0.76669900  0.49829100  1
  Rb  Rb15  1  0.61510100  0.23330100  0.00170900  1
  Rb  Rb16  1  0.40725200  0.28007200  0.59012600  1
  Rb  Rb17  1  0.90725200  0.71992800  0.90987400  1
  Rb  Rb18  1  0.59274800  0.71992800  0.40987400  1
  Rb  Rb19  1  0.09274800  0.28007200  0.09012600  1
  Rb  Rb20  1  0.29631400  0.32958200  0.78780200  1
  Rb  Rb21  1  0.79631400  0.67041800  0.71219800  1
  Rb  Rb22  1  0.70368600  0.67041800  0.21219800  1
  Rb  Rb23  1  0.20368600  0.32958200  0.28780200  1
  Rb  Rb24  1  0.21935800  0.48070600  0.95214200  1
  Rb  Rb25  1  0.71935800  0.51929400  0.54785800  1
  Rb  Rb26  1  0.78064200  0.51929400  0.04785800  1
  Rb  Rb27  1  0.28064200  0.48070600  0.45214200  1
  Rb  Rb28  1  0.26764800  0.56450500  0.65257600  1
  Rb  Rb29  1  0.76764800  0.43549500  0.84742400  1
  Rb  Rb30  1  0.73235200  0.43549500  0.34742400  1
  Rb  Rb31  1  0.23235200  0.56450500  0.15257600  1
  Rb  Rb32  1  0.13424900  0.87536200  0.65282600  1
  Rb  Rb33  1  0.63424900  0.12463800  0.84717400  1
  Rb  Rb34  1  0.86575100  0.12463800  0.34717400  1
  Rb  Rb35  1  0.36575100  0.87536200  0.15282600  1
  Al  Al36  1  0.02683300  0.24368600  0.91508000  1
  Al  Al37  1  0.52683300  0.75631400  0.58492000  1
  Al  Al38  1  0.97316700  0.75631400  0.08492000  1
  Al  Al39  1  0.47316700  0.24368600  0.41508000  1
  H  H40  1  0.05977600  0.10053600  0.63346300  1
  H  H41  1  0.55977600  0.89946400  0.86653700  1
  H  H42  1  0.94022400  0.89946400  0.36653700  1
  H  H43  1  0.44022400  0.10053600  0.13346300  1
  H  H44  1  0.33308200  0.13906100  0.72804800  1
  H  H45  1  0.83308200  0.86093900  0.77195200  1
  H  H46  1  0.66691800  0.86093900  0.27195200  1
  H  H47  1  0.16691800  0.13906100  0.22804800  1
  H  H48  1  0.03609400  0.38605500  0.56313500  1
  H  H49  1  0.53609400  0.61394500  0.93686500  1
  H  H50  1  0.96390600  0.61394500  0.43686500  1
  H  H51  1  0.46390600  0.38605500  0.06313500  1
  H  H52  1  0.17133800  0.54087900  0.79936000  1
  H  H53  1  0.67133800  0.45912100  0.70064000  1
  H  H54  1  0.82866200  0.45912100  0.20064000  1
  H  H55  1  0.32866200  0.54087900  0.29936000  1
  O  O56  1  0.92909900  0.12608500  0.94680200  1
  O  O57  1  0.42909900  0.87391500  0.55319800  1
  O  O58  1  0.07090100  0.87391500  0.05319800  1
  O  O59  1  0.57090100  0.12608500  0.44680200  1
  O  O60  1  0.28362300  0.24307700  0.91928000  1
  O  O61  1  0.78362300  0.75692300  0.58072000  1
  O  O62  1  0.71637700  0.75692300  0.08072000  1
  O  O63  1  0.21637700  0.24307700  0.41928000  1
  O  O64  1  0.95656700  0.25039900  0.82603000  1
  O  O65  1  0.45656700  0.74960100  0.67397000  1
  O  O66  1  0.04343300  0.74960100  0.17397000  1
  O  O67  1  0.54343300  0.25039900  0.32603000  1
  O  O68  1  0.42731600  0.65118400  0.53677100  1
  O  O69  1  0.92731600  0.34881600  0.96322900  1
  O  O70  1  0.57268400  0.34881600  0.46322900  1
  O  O71  1  0.07268400  0.65118400  0.03677100  1
  O  O72  1  0.95473900  0.07428800  0.60704100  1
  O  O73  1  0.45473900  0.92571200  0.89295900  1
  O  O74  1  0.04526100  0.92571200  0.39295900  1
  O  O75  1  0.54526100  0.07428800  0.10704100  1
  O  O76  1  0.46470900  0.14128100  0.71419400  1
  O  O77  1  0.96470900  0.85871900  0.78580600  1
  O  O78  1  0.53529100  0.85871900  0.28580600  1
  O  O79  1  0.03529100  0.14128100  0.21419400  1
  O  O80  1  0.05802600  0.38831500  0.61156300  1
  O  O81  1  0.55802600  0.61168500  0.88843700  1
  O  O82  1  0.94197400  0.61168500  0.38843700  1
  O  O83  1  0.44197400  0.38831500  0.11156300  1
  O  O84  1  0.05542900  0.57434900  0.81222900  1
  O  O85  1  0.55542900  0.42565100  0.68777100  1
  O  O86  1  0.94457100  0.42565100  0.18777100  1
  O  O87  1  0.44457100  0.57434900  0.31222900  1
