# generated using pymatgen
data_Mg2As2O9
_symmetry_space_group_name_H-M   'P 1'
_cell_length_a   14.55080400
_cell_length_b   6.52685000
_cell_length_c   9.71435512
_cell_angle_alpha   52.87337813
_cell_angle_beta   90.00000000
_cell_angle_gamma   90.00000000
_symmetry_Int_Tables_number   1
_chemical_formula_structural   Mg2As2O9
_chemical_formula_sum   'Mg8 As8 O36'
_cell_volume   735.57727892
_cell_formula_units_Z   4
loop_
 _symmetry_equiv_pos_site_id
 _symmetry_equiv_pos_as_xyz
  1  'x, y, z'
loop_
 _atom_site_type_symbol
 _atom_site_label
 _atom_site_symmetry_multiplicity
 _atom_site_fract_x
 _atom_site_fract_y
 _atom_site_fract_z
 _atom_site_occupancy
  Mg  Mg0  1  0.74341200  0.69738900  0.85327600  1
  Mg  Mg1  1  0.75658800  0.69738900  0.35327600  1
  Mg  Mg2  1  0.25658800  0.30261100  0.14672400  1
  Mg  Mg3  1  0.24341200  0.30261100  0.64672400  1
  Mg  Mg4  1  0.87666700  0.18679500  0.58306800  1
  Mg  Mg5  1  0.62333300  0.18679500  0.08306800  1
  Mg  Mg6  1  0.12333300  0.81320500  0.41693200  1
  Mg  Mg7  1  0.37666700  0.81320500  0.91693200  1
  As  As8  1  0.82174300  0.11176800  0.94610700  1
  As  As9  1  0.67825700  0.11176800  0.44610700  1
  As  As10  1  0.17825700  0.88823200  0.05389300  1
  As  As11  1  0.32174300  0.88823200  0.55389300  1
  As  As12  1  0.92131000  0.61104500  0.65527100  1
  As  As13  1  0.57869000  0.61104500  0.15527100  1
  As  As14  1  0.07869000  0.38895500  0.34472900  1
  As  As15  1  0.42131000  0.38895500  0.84472900  1
  O  O16  1  0.79776000  0.02978500  0.81228900  1
  O  O17  1  0.70224000  0.02978500  0.31228900  1
  O  O18  1  0.20224000  0.97021500  0.18771100  1
  O  O19  1  0.29776000  0.97021500  0.68771100  1
  O  O20  1  0.84469100  0.85610700  0.14964700  1
  O  O21  1  0.65530900  0.85610700  0.64964700  1
  O  O22  1  0.15530900  0.14389300  0.85035300  1
  O  O23  1  0.34469100  0.14389300  0.35035300  1
  O  O24  1  0.73906400  0.31773400  0.92529900  1
  O  O25  1  0.76093600  0.31773400  0.42529900  1
  O  O26  1  0.26093600  0.68226600  0.07470100  1
  O  O27  1  0.23906400  0.68226600  0.57470100  1
  O  O28  1  0.92516200  0.30187900  0.86417700  1
  O  O29  1  0.57483800  0.30187900  0.36417700  1
  O  O30  1  0.07483800  0.69812100  0.13582300  1
  O  O31  1  0.42516200  0.69812100  0.63582300  1
  O  O32  1  0.02916200  0.71364700  0.59827300  1
  O  O33  1  0.47083800  0.71364700  0.09827300  1
  O  O34  1  0.97083800  0.28635300  0.40172700  1
  O  O35  1  0.52916200  0.28635300  0.90172700  1
  O  O36  1  0.86479500  0.54849300  0.52939300  1
  O  O37  1  0.63520500  0.54849300  0.02939300  1
  O  O38  1  0.13520500  0.45150700  0.47060700  1
  O  O39  1  0.36479500  0.45150700  0.97060700  1
  O  O40  1  0.85627200  0.80384500  0.68165400  1
  O  O41  1  0.64372800  0.80384500  0.18165400  1
  O  O42  1  0.14372800  0.19615500  0.31834600  1
  O  O43  1  0.35627200  0.19615500  0.81834600  1
  O  O44  1  0.83708900  0.49639000  0.06600400  1
  O  O45  1  0.66291100  0.49639000  0.56600400  1
  O  O46  1  0.16291100  0.50361000  0.93399600  1
  O  O47  1  0.33708900  0.50361000  0.43399600  1
  O  O48  1  0.99153900  0.99766700  0.75218200  1
  O  O49  1  0.50846100  0.99766700  0.25218200  1
  O  O50  1  0.00846100  0.00233300  0.24781800  1
  O  O51  1  0.49153900  0.00233300  0.74781800  1
