# generated using pymatgen
data_K4Cd3(PO4)6
_symmetry_space_group_name_H-M   'P 1'
_cell_length_a   6.76311100
_cell_length_b   9.28131800
_cell_length_c   20.72533682
_cell_angle_alpha   65.88509076
_cell_angle_beta   90.00000000
_cell_angle_gamma   90.00000000
_symmetry_Int_Tables_number   1
_chemical_formula_structural   K4Cd3(PO4)6
_chemical_formula_sum   'K8 Cd6 P12 O48'
_cell_volume   1187.40558726
_cell_formula_units_Z   2
loop_
 _symmetry_equiv_pos_site_id
 _symmetry_equiv_pos_as_xyz
  1  'x, y, z'
loop_
 _atom_site_type_symbol
 _atom_site_label
 _atom_site_symmetry_multiplicity
 _atom_site_fract_x
 _atom_site_fract_y
 _atom_site_fract_z
 _atom_site_occupancy
  K  K0  1  0.99142200  0.30110300  0.68762700  1
  K  K1  1  0.50857800  0.30110300  0.18762700  1
  K  K2  1  0.00857800  0.69889700  0.31237300  1
  K  K3  1  0.49142200  0.69889700  0.81237300  1
  K  K4  1  0.00882100  0.10684500  0.37316900  1
  K  K5  1  0.49117900  0.10684500  0.87316900  1
  K  K6  1  0.99117900  0.89315500  0.62683100  1
  K  K7  1  0.50882100  0.89315500  0.12683100  1
  Cd  Cd8  1  0.50000000  0.00000000  0.50000000  1
  Cd  Cd9  1  0.00000000  0.00000000  0.00000000  1
  Cd  Cd10  1  0.68311800  0.62875300  0.50701900  1
  Cd  Cd11  1  0.81688200  0.62875300  0.00701900  1
  Cd  Cd12  1  0.31688200  0.37124700  0.49298100  1
  Cd  Cd13  1  0.18311800  0.37124700  0.99298100  1
  P  P14  1  0.57385600  0.91540200  0.34871400  1
  P  P15  1  0.92614400  0.91540200  0.84871400  1
  P  P16  1  0.42614400  0.08459800  0.65128600  1
  P  P17  1  0.07385600  0.08459800  0.15128600  1
  P  P18  1  0.60522300  0.62712800  0.65276300  1
  P  P19  1  0.89477700  0.62712800  0.15276300  1
  P  P20  1  0.39477700  0.37287200  0.34723700  1
  P  P21  1  0.10522300  0.37287200  0.84723700  1
  P  P22  1  0.16340400  0.69639900  0.51489400  1
  P  P23  1  0.33659600  0.69639900  0.01489400  1
  P  P24  1  0.83659600  0.30360100  0.48510600  1
  P  P25  1  0.66340400  0.30360100  0.98510600  1
  O  O26  1  0.21498900  0.87026400  0.49871400  1
  O  O27  1  0.28501100  0.87026400  0.99871400  1
  O  O28  1  0.78501100  0.12973600  0.50128600  1
  O  O29  1  0.71498900  0.12973600  0.00128600  1
  O  O30  1  0.63130400  0.89845600  0.42481700  1
  O  O31  1  0.86869600  0.89845600  0.92481700  1
  O  O32  1  0.36869600  0.10154400  0.57518300  1
  O  O33  1  0.13130400  0.10154400  0.07518300  1
  O  O34  1  0.63896100  0.76879500  0.57923300  1
  O  O35  1  0.86103900  0.76879500  0.07923300  1
  O  O36  1  0.36103900  0.23120500  0.42076700  1
  O  O37  1  0.13896100  0.23120500  0.92076700  1
  O  O38  1  0.99130700  0.69211700  0.46598800  1
  O  O39  1  0.50869300  0.69211700  0.96598800  1
  O  O40  1  0.00869300  0.30788300  0.53401200  1
  O  O41  1  0.49130700  0.30788300  0.03401200  1
  O  O42  1  0.65635700  0.39263100  0.49921500  1
  O  O43  1  0.84364300  0.39263100  0.99921500  1
  O  O44  1  0.34364300  0.60736900  0.50078500  1
  O  O45  1  0.15635700  0.60736900  0.00078500  1
  O  O46  1  0.65713200  0.47878500  0.64059700  1
  O  O47  1  0.84286800  0.47878500  0.14059700  1
  O  O48  1  0.34286800  0.52121500  0.35940300  1
  O  O49  1  0.15713200  0.52121500  0.85940300  1
  O  O50  1  0.62325600  0.75916400  0.34253400  1
  O  O51  1  0.87674400  0.75916400  0.84253400  1
  O  O52  1  0.37674400  0.24083600  0.65746600  1
  O  O53  1  0.12325600  0.24083600  0.15746600  1
  O  O54  1  0.35545400  0.96445000  0.33563600  1
  O  O55  1  0.14454600  0.96445000  0.83563600  1
  O  O56  1  0.64454600  0.03555000  0.66436400  1
  O  O57  1  0.85545400  0.03555000  0.16436400  1
  O  O58  1  0.71372000  0.03709600  0.29458800  1
  O  O59  1  0.78628000  0.03709600  0.79458800  1
  O  O60  1  0.28628000  0.96290400  0.70541200  1
  O  O61  1  0.21372000  0.96290400  0.20541200  1
  O  O62  1  0.39135800  0.63063800  0.67939700  1
  O  O63  1  0.10864200  0.63063800  0.17939700  1
  O  O64  1  0.60864200  0.36936200  0.32060300  1
  O  O65  1  0.89135800  0.36936200  0.82060300  1
  O  O66  1  0.73706500  0.64739200  0.70932000  1
  O  O67  1  0.76293500  0.64739200  0.20932000  1
  O  O68  1  0.26293500  0.35260800  0.29068000  1
  O  O69  1  0.23706500  0.35260800  0.79068000  1
  O  O70  1  0.09067100  0.61549000  0.59225000  1
  O  O71  1  0.40932900  0.61549000  0.09225000  1
  O  O72  1  0.90932900  0.38451000  0.40775000  1
  O  O73  1  0.59067100  0.38451000  0.90775000  1
