# generated using pymatgen
data_Rb2Nb2Si2O11
_symmetry_space_group_name_H-M   'P 1'
_cell_length_a   7.43909300
_cell_length_b   7.43909300
_cell_length_c   39.69082800
_cell_angle_alpha   90.00000000
_cell_angle_beta   90.00000000
_cell_angle_gamma   90.00000000
_symmetry_Int_Tables_number   1
_chemical_formula_structural   Rb2Nb2Si2O11
_chemical_formula_sum   'Rb16 Nb16 Si16 O88'
_cell_volume   2196.49457567
_cell_formula_units_Z   8
loop_
 _symmetry_equiv_pos_site_id
 _symmetry_equiv_pos_as_xyz
  1  'x, y, z'
loop_
 _atom_site_type_symbol
 _atom_site_label
 _atom_site_symmetry_multiplicity
 _atom_site_fract_x
 _atom_site_fract_y
 _atom_site_fract_z
 _atom_site_occupancy
  Rb  Rb0  1  0.01233500  0.53511400  0.57269100  1
  Rb  Rb1  1  0.98766500  0.46488600  0.07269100  1
  Rb  Rb2  1  0.46488600  0.01233500  0.32269100  1
  Rb  Rb3  1  0.53511400  0.98766500  0.82269100  1
  Rb  Rb4  1  0.98766500  0.53511400  0.42730900  1
  Rb  Rb5  1  0.01233500  0.46488600  0.92730900  1
  Rb  Rb6  1  0.53511400  0.01233500  0.67730900  1
  Rb  Rb7  1  0.46488600  0.98766500  0.17730900  1
  Rb  Rb8  1  0.03360000  0.03360000  0.62500000  1
  Rb  Rb9  1  0.96640000  0.96640000  0.12500000  1
  Rb  Rb10  1  0.96640000  0.03360000  0.37500000  1
  Rb  Rb11  1  0.03360000  0.96640000  0.87500000  1
  Rb  Rb12  1  0.62990300  0.50000000  0.75000000  1
  Rb  Rb13  1  0.37009700  0.50000000  0.25000000  1
  Rb  Rb14  1  0.50000000  0.62990300  0.50000000  1
  Rb  Rb15  1  0.50000000  0.37009700  0.00000000  1
  Nb  Nb16  1  0.27515600  0.49987300  0.66157800  1
  Nb  Nb17  1  0.72484400  0.50012700  0.16157800  1
  Nb  Nb18  1  0.50012700  0.27515600  0.41157800  1
  Nb  Nb19  1  0.49987300  0.72484400  0.91157800  1
  Nb  Nb20  1  0.72484400  0.49987300  0.33842200  1
  Nb  Nb21  1  0.27515600  0.50012700  0.83842200  1
  Nb  Nb22  1  0.49987300  0.27515600  0.58842200  1
  Nb  Nb23  1  0.50012700  0.72484400  0.08842200  1
  Nb  Nb24  1  0.76999800  0.50004500  0.65596300  1
  Nb  Nb25  1  0.23000200  0.49995500  0.15596300  1
  Nb  Nb26  1  0.49995500  0.76999800  0.40596300  1
  Nb  Nb27  1  0.50004500  0.23000200  0.90596300  1
  Nb  Nb28  1  0.23000200  0.50004500  0.34403700  1
  Nb  Nb29  1  0.76999800  0.49995500  0.84403700  1
  Nb  Nb30  1  0.50004500  0.76999800  0.59403700  1
  Nb  Nb31  1  0.49995500  0.23000200  0.09403700  1
  Si  Si32  1  0.00492400  0.77988000  0.70955400  1
  Si  Si33  1  0.99507600  0.22012000  0.20955400  1
  Si  Si34  1  0.22012000  0.00492400  0.45955400  1
  Si  Si35  1  0.77988000  0.99507600  0.95955400  1
  Si  Si36  1  0.99507600  0.77988000  0.29044600  1
  Si  Si37  1  0.00492400  0.22012000  0.79044600  1
  Si  Si38  1  0.77988000  0.00492400  0.54044600  1
  Si  Si39  1  0.22012000  0.99507600  0.04044600  1
  Si  Si40  1  0.00503300  0.21457500  0.70875400  1
  Si  Si41  1  0.99496700  0.78542500  0.20875400  1
  Si  Si42  1  0.78542500  0.00503300  0.45875400  1
  Si  Si43  1  0.21457500  0.99496700  0.95875400  1
  Si  Si44  1  0.99496700  0.21457500  0.29124600  1
  Si  Si45  1  0.00503300  0.78542500  0.79124600  1
  Si  Si46  1  0.21457500  0.00503300  0.54124600  1
  Si  Si47  1  0.78542500  0.99496700  0.04124600  1
  O  O48  1  0.82392200  0.69393400  0.69306800  1
  O  O49  1  0.17607800  0.30606600  0.19306800  1
  O  O50  1  0.30606600  0.82392200  0.44306800  1
  O  O51  1  0.69393400  0.17607800  0.94306800  1
  O  O52  1  0.17607800  0.69393400  0.30693200  1
  O  O53  1  0.82392200  0.30606600  0.80693200  1
  O  O54  1  0.69393400  0.82392200  0.55693200  1
  O  O55  1  0.30606600  0.17607800  0.05693200  1
  O  O56  1  0.18946600  0.69196800  0.69491200  1
  O  O57  1  0.81053400  0.30803200  0.19491200  1
  O  O58  1  0.30803200  0.18946600  0.44491200  1
  O  O59  1  0.69196800  0.81053400  0.94491200  1
  O  O60  1  0.81053400  0.69196800  0.30508800  1
  O  O61  1  0.18946600  0.30803200  0.80508800  1
  O  O62  1  0.69196800  0.18946600  0.55508800  1
  O  O63  1  0.30803200  0.81053400  0.05508800  1
  O  O64  1  0.99144000  0.75536000  0.75051700  1
  O  O65  1  0.00856000  0.24464000  0.25051700  1
  O  O66  1  0.24464000  0.99144000  0.50051700  1
  O  O67  1  0.75536000  0.00856000  0.00051700  1
  O  O68  1  0.00856000  0.75536000  0.24948300  1
  O  O69  1  0.99144000  0.24464000  0.74948300  1
  O  O70  1  0.75536000  0.99144000  0.49948300  1
  O  O71  1  0.24464000  0.00856000  0.99948300  1
  O  O72  1  0.00782400  0.99670600  0.70060200  1
  O  O73  1  0.99217600  0.00329400  0.20060200  1
  O  O74  1  0.00329400  0.00782400  0.45060200  1
  O  O75  1  0.99670600  0.99217600  0.95060200  1
  O  O76  1  0.99217600  0.99670600  0.29939800  1
  O  O77  1  0.00782400  0.00329400  0.79939800  1
  O  O78  1  0.99670600  0.00782400  0.54939800  1
  O  O79  1  0.00329400  0.99217600  0.04939800  1
  O  O80  1  0.82445300  0.29640700  0.69127000  1
  O  O81  1  0.17554700  0.70359300  0.19127000  1
  O  O82  1  0.70359300  0.82445300  0.44127000  1
  O  O83  1  0.29640700  0.17554700  0.94127000  1
  O  O84  1  0.17554700  0.29640700  0.30873000  1
  O  O85  1  0.82445300  0.70359300  0.80873000  1
  O  O86  1  0.29640700  0.82445300  0.55873000  1
  O  O87  1  0.70359300  0.17554700  0.05873000  1
  O  O88  1  0.18929800  0.29905500  0.69318200  1
  O  O89  1  0.81070200  0.70094500  0.19318200  1
  O  O90  1  0.70094500  0.18929800  0.44318200  1
  O  O91  1  0.29905500  0.81070200  0.94318200  1
  O  O92  1  0.81070200  0.29905500  0.30681800  1
  O  O93  1  0.18929800  0.70094500  0.80681800  1
  O  O94  1  0.29905500  0.18929800  0.55681800  1
  O  O95  1  0.70094500  0.81070200  0.05681800  1
  O  O96  1  0.69498100  0.32300400  0.62233700  1
  O  O97  1  0.30501900  0.67699600  0.12233700  1
  O  O98  1  0.67699600  0.69498100  0.37233700  1
  O  O99  1  0.32300400  0.30501900  0.87233700  1
  O  O100  1  0.30501900  0.32300400  0.37766300  1
  O  O101  1  0.69498100  0.67699600  0.87766300  1
  O  O102  1  0.32300400  0.69498100  0.62766300  1
  O  O103  1  0.67699600  0.30501900  0.12766300  1
  O  O104  1  0.51439300  0.49547900  0.67776800  1
  O  O105  1  0.48560700  0.50452100  0.17776800  1
  O  O106  1  0.50452100  0.51439300  0.42776800  1
  O  O107  1  0.49547900  0.48560700  0.92776800  1
  O  O108  1  0.48560700  0.49547900  0.32223200  1
  O  O109  1  0.51439300  0.50452100  0.82223200  1
  O  O110  1  0.49547900  0.51439300  0.57223200  1
  O  O111  1  0.50452100  0.48560700  0.07223200  1
  O  O112  1  0.32380900  0.32380900  0.62500000  1
  O  O113  1  0.67619100  0.67619100  0.12500000  1
  O  O114  1  0.67619100  0.32380900  0.37500000  1
  O  O115  1  0.32380900  0.67619100  0.87500000  1
  O  O116  1  0.01279000  0.49941900  0.64282800  1
  O  O117  1  0.98721000  0.50058100  0.14282800  1
  O  O118  1  0.50058100  0.01279000  0.39282800  1
  O  O119  1  0.49941900  0.98721000  0.89282800  1
  O  O120  1  0.98721000  0.49941900  0.35717200  1
  O  O121  1  0.01279000  0.50058100  0.85717200  1
  O  O122  1  0.49941900  0.01279000  0.60717200  1
  O  O123  1  0.50058100  0.98721000  0.10717200  1
  O  O124  1  0.69444000  0.69444000  0.62500000  1
  O  O125  1  0.30556000  0.30556000  0.12500000  1
  O  O126  1  0.30556000  0.69444000  0.37500000  1
  O  O127  1  0.69444000  0.30556000  0.87500000  1
  O  O128  1  0.39509100  0.91658000  0.74955200  1
  O  O129  1  0.60490900  0.08342000  0.24955200  1
  O  O130  1  0.08342000  0.39509100  0.49955200  1
  O  O131  1  0.91658000  0.60490900  0.99955200  1
  O  O132  1  0.60490900  0.91658000  0.25044800  1
  O  O133  1  0.39509100  0.08342000  0.75044800  1
  O  O134  1  0.91658000  0.39509100  0.50044800  1
  O  O135  1  0.08342000  0.60490900  0.00044800  1
