# generated using pymatgen
data_SnH12C6S2(NO)2
_symmetry_space_group_name_H-M   'P 1'
_cell_length_a   8.45780100
_cell_length_b   7.87554000
_cell_length_c   21.31995984
_cell_angle_alpha   90.00000000
_cell_angle_beta   108.35313657
_cell_angle_gamma   90.00000000
_symmetry_Int_Tables_number   1
_chemical_formula_structural   SnH12C6S2(NO)2
_chemical_formula_sum   'Sn4 H48 C24 S8 N8 O8'
_cell_volume   1347.88133146
_cell_formula_units_Z   4
loop_
 _symmetry_equiv_pos_site_id
 _symmetry_equiv_pos_as_xyz
  1  'x, y, z'
loop_
 _atom_site_type_symbol
 _atom_site_label
 _atom_site_symmetry_multiplicity
 _atom_site_fract_x
 _atom_site_fract_y
 _atom_site_fract_z
 _atom_site_occupancy
  Sn  Sn0  1  0.58437500  0.32136200  0.79281900  1
  Sn  Sn1  1  0.41562500  0.82136200  0.70718100  1
  Sn  Sn2  1  0.41562500  0.67863800  0.20718100  1
  Sn  Sn3  1  0.58437500  0.17863800  0.29281900  1
  H  H4  1  0.49556000  0.81775700  0.88037800  1
  H  H5  1  0.50444000  0.31775700  0.61962200  1
  H  H6  1  0.50444000  0.18224300  0.11962200  1
  H  H7  1  0.49556000  0.68224300  0.38037800  1
  H  H8  1  0.44567300  0.81918900  0.95644100  1
  H  H9  1  0.55432700  0.31918900  0.54355900  1
  H  H10  1  0.55432700  0.18081100  0.04355900  1
  H  H11  1  0.44567300  0.68081100  0.45644100  1
  H  H12  1  0.63178600  0.91827100  0.95209600  1
  H  H13  1  0.36821400  0.41827100  0.54790400  1
  H  H14  1  0.36821400  0.08172900  0.04790400  1
  H  H15  1  0.63178600  0.58172900  0.45209600  1
  H  H16  1  0.75386800  0.50134600  0.03619500  1
  H  H17  1  0.24613200  0.00134600  0.46380500  1
  H  H18  1  0.24613200  0.49865400  0.96380500  1
  H  H19  1  0.75386800  0.99865400  0.53619500  1
  H  H20  1  0.84882300  0.70320700  0.03515900  1
  H  H21  1  0.15117700  0.20320700  0.46484100  1
  H  H22  1  0.15117700  0.29679300  0.96484100  1
  H  H23  1  0.84882300  0.79679300  0.53515900  1
  H  H24  1  0.65554700  0.69014400  0.05271600  1
  H  H25  1  0.34445300  0.19014400  0.44728400  1
  H  H26  1  0.34445300  0.30985600  0.94728400  1
  H  H27  1  0.65554700  0.80985600  0.55271600  1
  H  H28  1  0.98823600  0.11307000  0.74351600  1
  H  H29  1  0.01176400  0.61307000  0.75648400  1
  H  H30  1  0.01176400  0.88693000  0.25648400  1
  H  H31  1  0.98823600  0.38693000  0.24351600  1
  H  H32  1  0.83371800  0.18222700  0.67001600  1
  H  H33  1  0.16628200  0.68222700  0.82998400  1
  H  H34  1  0.16628200  0.81777300  0.32998400  1
  H  H35  1  0.83371800  0.31777300  0.17001600  1
  H  H36  1  0.97772900  0.02006200  0.66595100  1
  H  H37  1  0.02227100  0.52006200  0.83404900  1
  H  H38  1  0.02227100  0.97993800  0.33404900  1
  H  H39  1  0.97772900  0.47993800  0.16595100  1
  H  H40  1  0.11199500  0.45529400  0.61727600  1
  H  H41  1  0.88800500  0.95529400  0.88272400  1
  H  H42  1  0.88800500  0.54470600  0.38272400  1
  H  H43  1  0.11199500  0.04470600  0.11727600  1
  H  H44  1  0.97969600  0.28258800  0.57742300  1
  H  H45  1  0.02030400  0.78258800  0.92257700  1
  H  H46  1  0.02030400  0.71741200  0.42257700  1
  H  H47  1  0.97969600  0.21741200  0.07742300  1
  H  H48  1  0.90269900  0.44236800  0.61977900  1
  H  H49  1  0.09730100  0.94236800  0.88022100  1
  H  H50  1  0.09730100  0.55763200  0.38022100  1
  H  H51  1  0.90269900  0.05763200  0.11977900  1
  C  C52  1  0.62937900  0.52729200  0.90874300  1
  C  C53  1  0.37062100  0.02729200  0.59125700  1
  C  C54  1  0.37062100  0.47270800  0.09125700  1
  C  C55  1  0.62937900  0.97270800  0.40874300  1
  C  C56  1  0.22948400  0.29610400  0.72330600  1
  C  C57  1  0.77051600  0.79610400  0.77669400  1
  C  C58  1  0.77051600  0.70389600  0.27669400  1
  C  C59  1  0.22948400  0.20389600  0.22330600  1
  C  C60  1  0.54653000  0.81072000  0.93412800  1
  C  C61  1  0.45347000  0.31072000  0.56587200  1
  C  C62  1  0.45347000  0.18928000  0.06587200  1
  C  C63  1  0.54653000  0.68928000  0.43412800  1
  C  C64  1  0.72901800  0.63540200  0.02334200  1
  C  C65  1  0.27098200  0.13540200  0.47665800  1
  C  C66  1  0.27098200  0.36459800  0.97665800  1
  C  C67  1  0.72901800  0.86459800  0.52334200  1
  C  C68  1  0.96307400  0.13892600  0.69084000  1
  C  C69  1  0.03692600  0.63892600  0.80916000  1
  C  C70  1  0.03692600  0.86107400  0.30916000  1
  C  C71  1  0.96307400  0.36107400  0.19084000  1
  C  C72  1  0.01372100  0.36874400  0.62027100  1
  C  C73  1  0.98627900  0.86874400  0.87972900  1
  C  C74  1  0.98627900  0.63125600  0.37972900  1
  C  C75  1  0.01372100  0.13125600  0.12027100  1
  S  S76  1  0.73103400  0.33449700  0.93091000  1
  S  S77  1  0.26896600  0.83449700  0.56909000  1
  S  S78  1  0.26896600  0.66550300  0.06909000  1
  S  S79  1  0.73103400  0.16550300  0.43091000  1
  S  S80  1  0.30487500  0.16952900  0.79454500  1
  S  S81  1  0.69512500  0.66952900  0.70545500  1
  S  S82  1  0.69512500  0.83047100  0.20545500  1
  S  S83  1  0.30487500  0.33047100  0.29454500  1
  N  N84  1  0.63574800  0.65100200  0.95347100  1
  N  N85  1  0.36425200  0.15100200  0.54652900  1
  N  N86  1  0.36425200  0.34899800  0.04652900  1
  N  N87  1  0.63574800  0.84899800  0.45347100  1
  N  N88  1  0.07366000  0.27122400  0.68131700  1
  N  N89  1  0.92634000  0.77122400  0.81868300  1
  N  N90  1  0.92634000  0.72877600  0.31868300  1
  N  N91  1  0.07366000  0.22877600  0.18131700  1
  O  O92  1  0.54312500  0.55351300  0.84751900  1
  O  O93  1  0.45687500  0.05351300  0.65248100  1
  O  O94  1  0.45687500  0.44648700  0.15248100  1
  O  O95  1  0.54312500  0.94648700  0.34751900  1
  O  O96  1  0.32478500  0.40962900  0.71204400  1
  O  O97  1  0.67521500  0.90962900  0.78795600  1
  O  O98  1  0.67521500  0.59037100  0.28795600  1
  O  O99  1  0.32478500  0.09037100  0.21204400  1
