# generated using pymatgen
data_Na3Fe(SO5)3
_symmetry_space_group_name_H-M   'P 1'
_cell_length_a   15.46909144
_cell_length_b   15.46909144
_cell_length_c   8.81180200
_cell_angle_alpha   90.00000000
_cell_angle_beta   90.00000000
_cell_angle_gamma   119.99999761
_symmetry_Int_Tables_number   1
_chemical_formula_structural   Na3Fe(SO5)3
_chemical_formula_sum   'Na18 Fe6 S18 O90'
_cell_volume   1826.10180416
_cell_formula_units_Z   6
loop_
 _symmetry_equiv_pos_site_id
 _symmetry_equiv_pos_as_xyz
  1  'x, y, z'
loop_
 _atom_site_type_symbol
 _atom_site_label
 _atom_site_symmetry_multiplicity
 _atom_site_fract_x
 _atom_site_fract_y
 _atom_site_fract_z
 _atom_site_occupancy
  Na  Na0  1  0.79413700  0.75870600  0.09702200  1
  Na  Na1  1  0.24129400  0.03543100  0.09702200  1
  Na  Na2  1  0.96456900  0.20586300  0.09702200  1
  Na  Na3  1  0.20586300  0.24129400  0.90297800  1
  Na  Na4  1  0.75870600  0.96456900  0.90297800  1
  Na  Na5  1  0.03543100  0.79413700  0.90297800  1
  Na  Na6  1  0.88860700  0.57929600  0.19964400  1
  Na  Na7  1  0.42070400  0.30931100  0.19964400  1
  Na  Na8  1  0.69068900  0.11139300  0.19964400  1
  Na  Na9  1  0.11139300  0.42070400  0.80035600  1
  Na  Na10  1  0.57929600  0.69068900  0.80035600  1
  Na  Na11  1  0.30931100  0.88860700  0.80035600  1
  Na  Na12  1  0.64085800  0.55111900  0.42595600  1
  Na  Na13  1  0.44888100  0.08973900  0.42595600  1
  Na  Na14  1  0.91026100  0.35914200  0.42595600  1
  Na  Na15  1  0.35914200  0.44888100  0.57404400  1
  Na  Na16  1  0.55111900  0.91026100  0.57404400  1
  Na  Na17  1  0.08973900  0.64085800  0.57404400  1
  Fe  Fe18  1  0.00000000  0.00000000  0.00000000  1
  Fe  Fe19  1  0.00000000  0.00000000  0.50000000  1
  Fe  Fe20  1  0.66666700  0.33333300  0.31133100  1
  Fe  Fe21  1  0.33333300  0.66666700  0.68866900  1
  Fe  Fe22  1  0.66666700  0.33333300  0.81022000  1
  Fe  Fe23  1  0.33333300  0.66666700  0.18978000  1
  S  S24  1  0.83076200  0.97768900  0.24702700  1
  S  S25  1  0.02231100  0.85307300  0.24702700  1
  S  S26  1  0.14692700  0.16923800  0.24702700  1
  S  S27  1  0.16923800  0.02231100  0.75297300  1
  S  S28  1  0.97768900  0.14692700  0.75297300  1
  S  S29  1  0.85307300  0.83076200  0.75297300  1
  S  S30  1  0.50733200  0.32846600  0.55207500  1
  S  S31  1  0.67153400  0.17886600  0.55207500  1
  S  S32  1  0.82113400  0.49266800  0.55207500  1
  S  S33  1  0.49266800  0.67153400  0.44792500  1
  S  S34  1  0.32846600  0.82113400  0.44792500  1
  S  S35  1  0.17886600  0.50733200  0.44792500  1
  S  S36  1  0.17409700  0.66439900  0.92937000  1
  S  S37  1  0.33560100  0.50969800  0.92937000  1
  S  S38  1  0.49030200  0.82590300  0.92937000  1
  S  S39  1  0.82590300  0.33560100  0.07063000  1
  S  S40  1  0.66439900  0.49030200  0.07063000  1
  S  S41  1  0.50969800  0.17409700  0.07063000  1
  O  O42  1  0.87258600  0.93690600  0.12552600  1
  O  O43  1  0.06309400  0.93567900  0.12552600  1
  O  O44  1  0.06432100  0.12741400  0.12552600  1
  O  O45  1  0.12741400  0.06309400  0.87447400  1
  O  O46  1  0.93690600  0.06432100  0.87447400  1
  O  O47  1  0.93567900  0.87258600  0.87447400  1
  O  O48  1  0.90814000  0.02701400  0.36824200  1
  O  O49  1  0.97298600  0.88112600  0.36824200  1
  O  O50  1  0.11887400  0.09186000  0.36824200  1
  O  O51  1  0.09186000  0.97298600  0.63175700  1
  O  O52  1  0.02701400  0.11887400  0.63175700  1
  O  O53  1  0.88112600  0.90814000  0.63175700  1
  O  O54  1  0.81502200  0.05434000  0.17119900  1
  O  O55  1  0.94566000  0.76068200  0.17119900  1
  O  O56  1  0.23931800  0.18497800  0.17119900  1
  O  O57  1  0.18497800  0.94566000  0.82880100  1
  O  O58  1  0.05434000  0.23931800  0.82880100  1
  O  O59  1  0.76068200  0.81502200  0.82880100  1
  O  O60  1  0.73801200  0.89406100  0.30465400  1
  O  O61  1  0.10593900  0.84395100  0.30465400  1
  O  O62  1  0.15604900  0.26198800  0.30465400  1
  O  O63  1  0.26198800  0.10593900  0.69534600  1
  O  O64  1  0.89406100  0.15604900  0.69534600  1
  O  O65  1  0.84395100  0.73801200  0.69534600  1
  O  O66  1  0.59484700  0.38384700  0.44213900  1
  O  O67  1  0.61615300  0.21099900  0.44213900  1
  O  O68  1  0.78900100  0.40515300  0.44213900  1
  O  O69  1  0.40515300  0.61615300  0.55786100  1
  O  O70  1  0.38384700  0.78900100  0.55786100  1
  O  O71  1  0.21099900  0.59484700  0.55786100  1
  O  O72  1  0.54229700  0.29293400  0.68402700  1
  O  O73  1  0.70706600  0.24936300  0.68402700  1
  O  O74  1  0.75063700  0.45770300  0.68402700  1
  O  O75  1  0.45770300  0.70706600  0.31597300  1
  O  O76  1  0.29293400  0.75063700  0.31597300  1
  O  O77  1  0.24936300  0.54229700  0.31597300  1
  O  O78  1  0.48038000  0.40297500  0.60172400  1
  O  O79  1  0.59702500  0.07740500  0.60172400  1
  O  O80  1  0.92259500  0.51962000  0.60172400  1
  O  O81  1  0.51962000  0.59702500  0.39827600  1
  O  O82  1  0.40297500  0.92259500  0.39827600  1
  O  O83  1  0.07740500  0.48038000  0.39827600  1
  O  O84  1  0.42669700  0.24410000  0.47094700  1
  O  O85  1  0.75590000  0.18259800  0.47094700  1
  O  O86  1  0.81740200  0.57330300  0.47094700  1
  O  O87  1  0.57330300  0.75590000  0.52905300  1
  O  O88  1  0.24410000  0.81740200  0.52905300  1
  O  O89  1  0.18259800  0.42669700  0.52905300  1
  O  O90  1  0.26100700  0.71830400  0.81815100  1
  O  O91  1  0.28169600  0.54270300  0.81815100  1
  O  O92  1  0.45729700  0.73899300  0.81815100  1
  O  O93  1  0.73899300  0.28169600  0.18184900  1
  O  O94  1  0.71830400  0.45729700  0.18184900  1
  O  O95  1  0.54270300  0.26100700  0.18184900  1
  O  O96  1  0.20940200  0.62976500  0.06141100  1
  O  O97  1  0.37023500  0.57963700  0.06141100  1
  O  O98  1  0.42036300  0.79059800  0.06141100  1
  O  O99  1  0.79059800  0.37023500  0.93858900  1
  O  O100  1  0.62976500  0.42036300  0.93858900  1
  O  O101  1  0.57963700  0.20940200  0.93858900  1
  O  O102  1  0.14609700  0.73889600  0.97566100  1
  O  O103  1  0.26110400  0.40720100  0.97566100  1
  O  O104  1  0.59279900  0.85390300  0.97566100  1
  O  O105  1  0.85390300  0.26110400  0.02433900  1
  O  O106  1  0.73889600  0.59279900  0.02433900  1
  O  O107  1  0.40720100  0.14609700  0.02433900  1
  O  O108  1  0.09226400  0.57882700  0.85066700  1
  O  O109  1  0.42117300  0.51343600  0.85066700  1
  O  O110  1  0.48656400  0.90773600  0.85066700  1
  O  O111  1  0.90773600  0.42117300  0.14933300  1
  O  O112  1  0.57882700  0.48656400  0.14933300  1
  O  O113  1  0.51343600  0.09226400  0.14933300  1
  O  O114  1  0.61302900  0.68252900  0.07385100  1
  O  O115  1  0.31747100  0.93050100  0.07385100  1
  O  O116  1  0.06949900  0.38697100  0.07385100  1
  O  O117  1  0.38697100  0.31747100  0.92614900  1
  O  O118  1  0.68252900  0.06949900  0.92614900  1
  O  O119  1  0.93050100  0.61302900  0.92614900  1
  O  O120  1  0.64645500  0.59523000  0.68608100  1
  O  O121  1  0.40477000  0.05122500  0.68608100  1
  O  O122  1  0.94877500  0.35354500  0.68608100  1
  O  O123  1  0.35354500  0.40477000  0.31391900  1
  O  O124  1  0.59523000  0.94877500  0.31391900  1
  O  O125  1  0.05122500  0.64645500  0.31391900  1
  O  O126  1  0.74479100  0.72828800  0.35692500  1
  O  O127  1  0.27171200  0.01650300  0.35692500  1
  O  O128  1  0.98349700  0.25520900  0.35692500  1
  O  O129  1  0.25520900  0.27171200  0.64307500  1
  O  O130  1  0.72828800  0.98349700  0.64307500  1
  O  O131  1  0.01650300  0.74479100  0.64307500  1
