# generated using pymatgen
data_YbN3O14
_symmetry_space_group_name_H-M   'P 1'
_cell_length_a   6.33214400
_cell_length_b   9.44627171
_cell_length_c   10.06128744
_cell_angle_alpha   115.32253239
_cell_angle_beta   88.13601423
_cell_angle_gamma   103.30039687
_symmetry_Int_Tables_number   1
_chemical_formula_structural   YbN3O14
_chemical_formula_sum   'Yb2 N6 O28'
_cell_volume   527.91379371
_cell_formula_units_Z   2
loop_
 _symmetry_equiv_pos_site_id
 _symmetry_equiv_pos_as_xyz
  1  'x, y, z'
loop_
 _atom_site_type_symbol
 _atom_site_label
 _atom_site_symmetry_multiplicity
 _atom_site_fract_x
 _atom_site_fract_y
 _atom_site_fract_z
 _atom_site_occupancy
  Yb  Yb0  1  0.25164100  0.86053200  0.21348700  1
  Yb  Yb1  1  0.74835900  0.13946800  0.78651300  1
  N  N2  1  0.04466400  0.77121900  0.93000000  1
  N  N3  1  0.95533600  0.22878100  0.07000000  1
  N  N4  1  0.00036700  0.71603800  0.38521100  1
  N  N5  1  0.99963300  0.28396200  0.61478900  1
  N  N6  1  0.48838500  0.19389000  0.37004300  1
  N  N7  1  0.51161500  0.80611000  0.62995700  1
  O  O8  1  0.20578300  0.89367500  0.99049300  1
  O  O9  1  0.79421700  0.10632500  0.00950700  1
  O  O10  1  0.97944600  0.69113000  0.00506400  1
  O  O11  1  0.02055400  0.30887000  0.99493600  1
  O  O12  1  0.95738400  0.73439100  0.80845100  1
  O  O13  1  0.04261600  0.26560900  0.19154900  1
  O  O14  1  0.00582900  0.64074800  0.24514900  1
  O  O15  1  0.99417100  0.35925200  0.75485100  1
  O  O16  1  0.11828400  0.86031200  0.44495900  1
  O  O17  1  0.88171600  0.13968800  0.55504100  1
  O  O18  1  0.88672000  0.65372300  0.45656000  1
  O  O19  1  0.11328000  0.34627700  0.54344000  1
  O  O20  1  0.42358800  0.10104900  0.43365900  1
  O  O21  1  0.57641200  0.89895100  0.56634100  1
  O  O22  1  0.41903800  0.13733800  0.23535900  1
  O  O23  1  0.58096200  0.86266200  0.76464100  1
  O  O24  1  0.61232200  0.32804900  0.43442800  1
  O  O25  1  0.38767800  0.67195100  0.56557200  1
  O  O26  1  0.39034600  0.56140400  0.93494100  1
  O  O27  1  0.60965400  0.43859600  0.06505900  1
  O  O28  1  0.46882300  0.63298800  0.22162900  1
  O  O29  1  0.53117700  0.36701200  0.77837100  1
  O  O30  1  0.68579500  0.91174200  0.17124100  1
  O  O31  1  0.31420500  0.08825800  0.82875900  1
  O  O32  1  0.86301500  0.95910000  0.24157900  1
  O  O33  1  0.13698500  0.04090000  0.75842100  1
  O  O34  1  0.50334200  0.49088300  0.17969000  1
  O  O35  1  0.49665800  0.50911700  0.82031000  1
