# generated using pymatgen
data_NaZn(BH4)3
_symmetry_space_group_name_H-M   'P 1'
_cell_length_a   4.77677300
_cell_length_b   8.44091791
_cell_length_c   18.00634874
_cell_angle_alpha   98.84594893
_cell_angle_beta   90.00000000
_cell_angle_gamma   90.00000000
_symmetry_Int_Tables_number   1
_chemical_formula_structural   NaZn(BH4)3
_chemical_formula_sum   'Na4 Zn4 B12 H48'
_cell_volume   717.38649848
_cell_formula_units_Z   4
loop_
 _symmetry_equiv_pos_site_id
 _symmetry_equiv_pos_as_xyz
  1  'x, y, z'
loop_
 _atom_site_type_symbol
 _atom_site_label
 _atom_site_symmetry_multiplicity
 _atom_site_fract_x
 _atom_site_fract_y
 _atom_site_fract_z
 _atom_site_occupancy
  Na  Na0  1  0.13594300  0.31570800  0.15847500  1
  Na  Na1  1  0.63594300  0.68429200  0.34152500  1
  Na  Na2  1  0.86405700  0.68429200  0.84152500  1
  Na  Na3  1  0.36405700  0.31570800  0.65847500  1
  Zn  Zn4  1  0.74545600  0.79367200  0.10484300  1
  Zn  Zn5  1  0.24545600  0.20632800  0.39515700  1
  Zn  Zn6  1  0.25454400  0.20632800  0.89515700  1
  Zn  Zn7  1  0.75454400  0.79367200  0.60484300  1
  B  B8  1  0.11912600  0.24852700  0.51274600  1
  B  B9  1  0.61912600  0.75147400  0.98725400  1
  B  B10  1  0.88087400  0.75147400  0.48725400  1
  B  B11  1  0.38087400  0.24852700  0.01274600  1
  B  B12  1  0.76939300  0.57833600  0.66700100  1
  B  B13  1  0.26939300  0.42166400  0.83299900  1
  B  B14  1  0.23060700  0.42166400  0.33299900  1
  B  B15  1  0.73060700  0.57833600  0.16700100  1
  B  B16  1  0.00091300  0.00547200  0.15816400  1
  B  B17  1  0.50091300  0.99452800  0.34183600  1
  B  B18  1  0.99908700  0.99452800  0.84183600  1
  B  B19  1  0.49908700  0.00547200  0.65816400  1
  H  H20  1  0.01655100  0.18954800  0.56409400  1
  H  H21  1  0.51655100  0.81045200  0.93590600  1
  H  H22  1  0.98344900  0.81045200  0.43590600  1
  H  H23  1  0.48344900  0.18954800  0.06409400  1
  H  H24  1  0.99929100  0.36878300  0.50207300  1
  H  H25  1  0.49929100  0.63121700  0.99792700  1
  H  H26  1  0.00070900  0.63121700  0.49792700  1
  H  H27  1  0.50070900  0.36878300  0.00207300  1
  H  H28  1  0.37476700  0.26518500  0.52033500  1
  H  H29  1  0.87476700  0.73481500  0.97966500  1
  H  H30  1  0.62523300  0.73481500  0.47966500  1
  H  H31  1  0.12523300  0.26518500  0.02033500  1
  H  H32  1  0.06289200  0.12680400  0.46398300  1
  H  H33  1  0.56289200  0.87319600  0.03601700  1
  H  H34  1  0.93710800  0.87319600  0.53601700  1
  H  H35  1  0.43710800  0.12680400  0.96398300  1
  H  H36  1  0.96205800  0.67862100  0.67831300  1
  H  H37  1  0.46205800  0.32137900  0.82168700  1
  H  H38  1  0.03794200  0.32137900  0.32168700  1
  H  H39  1  0.53794200  0.67862100  0.17831300  1
  H  H40  1  0.60537500  0.59849400  0.71961700  1
  H  H41  1  0.10537500  0.40150600  0.78038300  1
  H  H42  1  0.39462500  0.40150600  0.28038300  1
  H  H43  1  0.89462500  0.59849400  0.21961700  1
  H  H44  1  0.63297600  0.58753100  0.60846700  1
  H  H45  1  0.13297600  0.41246900  0.89153300  1
  H  H46  1  0.36702400  0.41246900  0.39153300  1
  H  H47  1  0.86702400  0.58753100  0.10846700  1
  H  H48  1  0.87574700  0.44610100  0.65519000  1
  H  H49  1  0.37574700  0.55389900  0.84481000  1
  H  H50  1  0.12425300  0.55389900  0.34481000  1
  H  H51  1  0.62425300  0.44610100  0.15519000  1
  H  H52  1  0.19833800  0.95750400  0.11830100  1
  H  H53  1  0.69833800  0.04249600  0.38170000  1
  H  H54  1  0.80166200  0.04249600  0.88169900  1
  H  H55  1  0.30166200  0.95750400  0.61830100  1
  H  H56  1  0.07758000  0.08141500  0.21753600  1
  H  H57  1  0.57758000  0.91858500  0.28246400  1
  H  H58  1  0.92242000  0.91858500  0.78246400  1
  H  H59  1  0.42242000  0.08141500  0.71753600  1
  H  H60  1  0.83189800  0.08044600  0.12659500  1
  H  H61  1  0.33189800  0.91955400  0.37340500  1
  H  H62  1  0.16810200  0.91955400  0.87340500  1
  H  H63  1  0.66810200  0.08044600  0.62659500  1
  H  H64  1  0.89023600  0.89524700  0.18829000  1
  H  H65  1  0.39023600  0.10475300  0.31171000  1
  H  H66  1  0.10976400  0.10475300  0.81171000  1
  H  H67  1  0.60976400  0.89524700  0.68829000  1
