# generated using pymatgen
data_KPH6C2(NO)4
_symmetry_space_group_name_H-M   'P 1'
_cell_length_a   7.76125977
_cell_length_b   7.76125977
_cell_length_c   8.27755445
_cell_angle_alpha   114.97022821
_cell_angle_beta   114.97022821
_cell_angle_gamma   95.71275569
_symmetry_Int_Tables_number   1
_chemical_formula_structural   KPH6C2(NO)4
_chemical_formula_sum   'K2 P2 H12 C4 N8 O8'
_cell_volume   385.64570742
_cell_formula_units_Z   2
loop_
 _symmetry_equiv_pos_site_id
 _symmetry_equiv_pos_as_xyz
  1  'x, y, z'
loop_
 _atom_site_type_symbol
 _atom_site_label
 _atom_site_symmetry_multiplicity
 _atom_site_fract_x
 _atom_site_fract_y
 _atom_site_fract_z
 _atom_site_occupancy
  K  K0  1  0.67877000  0.32123000  0.00000000  1
  K  K1  1  0.42877000  0.57123000  0.50000000  1
  P  P2  1  0.10897500  0.89102500  0.50000000  1
  P  P3  1  0.35897500  0.64102500  0.00000000  1
  H  H4  1  0.82336700  0.91794100  0.97070600  1
  H  H5  1  0.08205900  0.17663300  0.02929400  1
  H  H6  1  0.80276500  0.39733900  0.47070600  1
  H  H7  1  0.60266100  0.19723500  0.52929400  1
  H  H8  1  0.87218400  0.78606300  0.10466100  1
  H  H9  1  0.21393700  0.12781600  0.89533900  1
  H  H10  1  0.06859800  0.48247700  0.60466100  1
  H  H11  1  0.51752300  0.93140200  0.39533900  1
  H  H12  1  0.22135500  0.22991800  0.58880500  1
  H  H13  1  0.77008200  0.77864500  0.41119500  1
  H  H14  1  0.10888700  0.61745000  0.08880500  1
  H  H15  1  0.38255000  0.89111300  0.91119500  1
  C  C16  1  0.02403900  0.09138100  0.27962500  1
  C  C17  1  0.90861900  0.97596100  0.72037500  1
  C  C18  1  0.93824500  0.50558600  0.77962500  1
  C  C19  1  0.49441400  0.06175500  0.22037500  1
  N  N20  1  0.12759900  0.08855400  0.46049600  1
  N  N21  1  0.91144600  0.87240100  0.53950400  1
  N  N22  1  0.12194200  0.58289700  0.96049600  1
  N  N23  1  0.41710300  0.87805800  0.03950400  1
  N  N24  1  0.87917700  0.91935900  0.10785900  1
  N  N25  1  0.08064100  0.12082300  0.89214100  1
  N  N26  1  0.93850000  0.47868100  0.60785900  1
  N  N27  1  0.52131900  0.06150000  0.39214100  1
  O  O28  1  0.06289600  0.25226700  0.27704500  1
  O  O29  1  0.74773300  0.93710400  0.72295500  1
  O  O30  1  0.77477800  0.46414900  0.77704500  1
  O  O31  1  0.53585100  0.22522200  0.22295500  1
  O  O32  1  0.30308900  0.95544100  0.69803000  1
  O  O33  1  0.04455900  0.69691100  0.30197000  1
  O  O34  1  0.49258900  0.64494100  0.19803000  1
  O  O35  1  0.35505900  0.50741100  0.80197000  1
