# generated using pymatgen
data_Cs2Mo4O13
_symmetry_space_group_name_H-M   'P 1'
_cell_length_a   8.66724700
_cell_length_b   8.96239469
_cell_length_c   10.73229236
_cell_angle_alpha   106.80165563
_cell_angle_beta   103.36380221
_cell_angle_gamma   109.61024487
_symmetry_Int_Tables_number   1
_chemical_formula_structural   Cs2Mo4O13
_chemical_formula_sum   'Cs4 Mo8 O26'
_cell_volume   700.25620895
_cell_formula_units_Z   2
loop_
 _symmetry_equiv_pos_site_id
 _symmetry_equiv_pos_as_xyz
  1  'x, y, z'
loop_
 _atom_site_type_symbol
 _atom_site_label
 _atom_site_symmetry_multiplicity
 _atom_site_fract_x
 _atom_site_fract_y
 _atom_site_fract_z
 _atom_site_occupancy
  Cs  Cs0  1  0.58252200  0.13283400  0.30448700  1
  Cs  Cs1  1  0.41747800  0.86716600  0.69551300  1
  Cs  Cs2  1  0.85340800  0.80637600  0.58904000  1
  Cs  Cs3  1  0.14659200  0.19362400  0.41096000  1
  Mo  Mo4  1  0.62567700  0.43712100  0.73600700  1
  Mo  Mo5  1  0.37432300  0.56287900  0.26399300  1
  Mo  Mo6  1  0.64863400  0.70793100  0.04908600  1
  Mo  Mo7  1  0.35136600  0.29206900  0.95091400  1
  Mo  Mo8  1  0.00297800  0.41599800  0.71542900  1
  Mo  Mo9  1  0.99702200  0.58400200  0.28457100  1
  Mo  Mo10  1  0.96674300  0.29002900  0.96724200  1
  Mo  Mo11  1  0.03325700  0.70997100  0.03275800  1
  O  O12  1  0.15029800  0.92725600  0.14260800  1
  O  O13  1  0.84970200  0.07274400  0.85739200  1
  O  O14  1  0.81126000  0.48606900  0.66333500  1
  O  O15  1  0.18874000  0.51393100  0.33666500  1
  O  O16  1  0.47925500  0.56981200  0.11239100  1
  O  O17  1  0.52074500  0.43018800  0.88760900  1
  O  O18  1  0.20081700  0.30374500  0.07023000  1
  O  O19  1  0.79918300  0.69625500  0.92977000  1
  O  O20  1  0.85168100  0.39748300  0.87245200  1
  O  O21  1  0.14831900  0.60251700  0.12754800  1
  O  O22  1  0.85194800  0.48995500  0.35711300  1
  O  O23  1  0.14805200  0.51004500  0.64288700  1
  O  O24  1  0.13920000  0.37957000  0.86305100  1
  O  O25  1  0.86080000  0.62043000  0.13694900  1
  O  O26  1  0.88770300  0.20070400  0.59191000  1
  O  O27  1  0.11229700  0.79929600  0.40809000  1
  O  O28  1  0.51808300  0.53787900  0.65898800  1
  O  O29  1  0.48191700  0.46212100  0.34101200  1
  O  O30  1  0.77229300  0.89578000  0.20107900  1
  O  O31  1  0.22770700  0.10422000  0.79892100  1
  O  O32  1  0.49810900  0.21726900  0.63183800  1
  O  O33  1  0.50189100  0.78273100  0.36816200  1
  O  O34  1  0.89245400  0.31241100  0.11007800  1
  O  O35  1  0.10754600  0.68758900  0.88992200  1
  O  O36  1  0.51857400  0.77111100  0.94849800  1
  O  O37  1  0.48142600  0.22888900  0.05150200  1
