# generated using pymatgen
data_Nb3H20C5Cl7O5
_symmetry_space_group_name_H-M   'P 1'
_cell_length_a   10.40460600
_cell_length_b   10.42056588
_cell_length_c   12.47490169
_cell_angle_alpha   89.16492471
_cell_angle_beta   67.37145785
_cell_angle_gamma   65.99049004
_symmetry_Int_Tables_number   1
_chemical_formula_structural   Nb3H20C5Cl7O5
_chemical_formula_sum   'Nb6 H40 C10 Cl14 O10'
_cell_volume   1124.12987629
_cell_formula_units_Z   2
loop_
 _symmetry_equiv_pos_site_id
 _symmetry_equiv_pos_as_xyz
  1  'x, y, z'
loop_
 _atom_site_type_symbol
 _atom_site_label
 _atom_site_symmetry_multiplicity
 _atom_site_fract_x
 _atom_site_fract_y
 _atom_site_fract_z
 _atom_site_occupancy
  Nb  Nb0  1  0.62190800  0.61294800  0.50360000  1
  Nb  Nb1  1  0.37809200  0.38705200  0.49640000  1
  Nb  Nb2  1  0.49176500  0.56819300  0.34569600  1
  Nb  Nb3  1  0.50823500  0.43180700  0.65430400  1
  Nb  Nb4  1  0.29143700  0.67948300  0.59681200  1
  Nb  Nb5  1  0.70856300  0.32051700  0.40318800  1
  H  H6  1  0.73412300  0.78655600  0.59047100  1
  H  H7  1  0.26587700  0.21344400  0.40952900  1
  H  H8  1  0.87952500  0.86061600  0.45720800  1
  H  H9  1  0.12047500  0.13938400  0.54279200  1
  H  H10  1  0.98819400  0.67285200  0.40100700  1
  H  H11  1  0.01180600  0.32714800  0.59899300  1
  H  H12  1  0.85393600  0.78513800  0.34405400  1
  H  H13  1  0.14606400  0.21486200  0.65594600  1
  H  H14  1  0.58987200  0.64046300  0.10923300  1
  H  H15  1  0.41012800  0.35953700  0.89076700  1
  H  H16  1  0.40319100  0.76299800  0.05778300  1
  H  H17  1  0.59680900  0.23700200  0.94221700  1
  H  H18  1  0.37649900  0.60362000  0.07835900  1
  H  H19  1  0.62350100  0.39638000  0.92164100  1
  H  H20  1  0.26052600  0.75720200  0.19280800  1
  H  H21  1  0.73947400  0.24279800  0.80719200  1
  H  H22  1  0.80702800  0.89032400  0.70610300  1
  H  H23  1  0.19297200  0.10967600  0.29389700  1
  H  H24  1  0.61283600  0.96619700  0.88699100  1
  H  H25  1  0.38716400  0.03380300  0.11300900  1
  H  H26  1  0.51449500  0.04014400  0.79408600  1
  H  H27  1  0.48550500  0.95985600  0.20591400  1
  H  H28  1  0.52408100  0.87525500  0.84255000  1
  H  H29  1  0.47591900  0.12474500  0.15745000  1
  H  H30  1  0.76078900  0.72894500  0.00057800  1
  H  H31  1  0.23921100  0.27105500  0.99942200  1
  H  H32  1  0.88147300  0.43031300  0.94908500  1
  H  H33  1  0.11852700  0.56968700  0.05091500  1
  H  H34  1  0.83553600  0.52445300  0.83741500  1
  H  H35  1  0.16446400  0.47554700  0.16258500  1
  H  H36  1  0.96781100  0.54552800  0.88563400  1
  H  H37  1  0.03218900  0.45447200  0.11436600  1
  H  H38  1  0.89333600  0.87274200  0.90857400  1
  H  H39  1  0.10666400  0.12725800  0.09142600  1
  H  H40  1  0.99370200  0.85708000  0.04739600  1
  H  H41  1  0.00629800  0.14292000  0.95260400  1
  H  H42  1  0.82821900  0.02593900  0.08586200  1
  H  H43  1  0.17178100  0.97406100  0.91413800  1
  H  H44  1  0.81020300  0.88089600  0.15690600  1
  H  H45  1  0.18979700  0.11910400  0.84309400  1
  C  C46  1  0.87653300  0.76588800  0.42304300  1
  C  C47  1  0.12346700  0.23411200  0.57695700  1
  C  C48  1  0.37567400  0.69485700  0.12241800  1
  C  C49  1  0.62432600  0.30514300  0.87758200  1
  C  C50  1  0.58718400  0.94087400  0.81452300  1
  C  C51  1  0.41281600  0.05912600  0.18547700  1
  C  C52  1  0.86177900  0.53062400  0.91407700  1
  C  C53  1  0.13822100  0.46937600  0.08592300  1
  C  C54  1  0.86806300  0.90961300  0.07292500  1
  C  C55  1  0.13193700  0.09038700  0.92707500  1
  Cl  Cl56  1  0.02860700  0.90088600  0.71904700  1
  Cl  Cl57  1  0.97139300  0.09911400  0.28095300  1
  Cl  Cl58  1  0.63725900  0.71344500  0.32008000  1
  Cl  Cl59  1  0.36274100  0.28655500  0.67992000  1
  Cl  Cl60  1  0.65341000  0.55362100  0.68879800  1
  Cl  Cl61  1  0.34659000  0.44637900  0.31120200  1
  Cl  Cl62  1  0.73334600  0.37135200  0.20290700  1
  Cl  Cl63  1  0.26665400  0.62864800  0.79709300  1
  Cl  Cl64  1  0.88744800  0.42533700  0.39279200  1
  Cl  Cl65  1  0.11255200  0.57466300  0.60720800  1
  Cl  Cl66  1  0.40212000  0.84327100  0.61670600  1
  Cl  Cl67  1  0.59788000  0.15672900  0.38329400  1
  Cl  Cl68  1  0.24925200  0.79080300  0.42877300  1
  Cl  Cl69  1  0.75074800  0.20919700  0.57122700  1
  O  O70  1  0.75220400  0.74350300  0.51150000  1
  O  O71  1  0.24779600  0.25649700  0.48850000  1
  O  O72  1  0.48880800  0.64737300  0.17136100  1
  O  O73  1  0.51119200  0.35262700  0.82863900  1
  O  O74  1  0.72772200  0.85861400  0.71252900  1
  O  O75  1  0.27227800  0.14138600  0.28747100  1
  O  O76  1  0.73584200  0.64618300  0.00489700  1
  O  O77  1  0.26415800  0.35381700  0.99510300  1
  O  O78  1  0.82784900  0.86356900  0.98727800  1
  O  O79  1  0.17215100  0.13643100  0.01272200  1
