# generated using pymatgen
data_LaH4C2SO8
_symmetry_space_group_name_H-M   'P 1'
_cell_length_a   11.14420600
_cell_length_b   6.66151000
_cell_length_c   11.22878590
_cell_angle_alpha   60.03631106
_cell_angle_beta   90.00000000
_cell_angle_gamma   90.00000000
_symmetry_Int_Tables_number   1
_chemical_formula_structural   LaH4C2SO8
_chemical_formula_sum   'La4 H16 C8 S4 O32'
_cell_volume   722.17764079
_cell_formula_units_Z   4
loop_
 _symmetry_equiv_pos_site_id
 _symmetry_equiv_pos_as_xyz
  1  'x, y, z'
loop_
 _atom_site_type_symbol
 _atom_site_label
 _atom_site_symmetry_multiplicity
 _atom_site_fract_x
 _atom_site_fract_y
 _atom_site_fract_z
 _atom_site_occupancy
  La  La0  1  0.65825400  0.43526600  0.39300700  1
  La  La1  1  0.84174600  0.43526600  0.89300700  1
  La  La2  1  0.34174600  0.56473400  0.60699300  1
  La  La3  1  0.15825400  0.56473400  0.10699300  1
  H  H4  1  0.69572800  0.02486600  0.70467800  1
  H  H5  1  0.80427200  0.02486600  0.20467800  1
  H  H6  1  0.30427200  0.97513400  0.29532200  1
  H  H7  1  0.19572800  0.97513400  0.79532200  1
  H  H8  1  0.59866000  0.20191000  0.69519600  1
  H  H9  1  0.90134000  0.20191000  0.19519600  1
  H  H10  1  0.40134000  0.79809000  0.30480400  1
  H  H11  1  0.09866000  0.79809000  0.80480400  1
  H  H12  1  0.60373000  0.37365400  0.13202700  1
  H  H13  1  0.89627000  0.37365400  0.63202700  1
  H  H14  1  0.39627000  0.62634600  0.86797300  1
  H  H15  1  0.10373000  0.62634600  0.36797300  1
  H  H16  1  0.47927000  0.43155400  0.17369600  1
  H  H17  1  0.02073000  0.43155400  0.67369600  1
  H  H18  1  0.52073000  0.56844600  0.82630400  1
  H  H19  1  0.97927000  0.56844600  0.32630400  1
  C  C20  1  0.52461000  0.91519500  0.10308800  1
  C  C21  1  0.97539000  0.91519500  0.60308800  1
  C  C22  1  0.47539000  0.08480500  0.89691200  1
  C  C23  1  0.02461000  0.08480500  0.39691200  1
  C  C24  1  0.55748700  0.13536900  0.98104800  1
  C  C25  1  0.94251300  0.13536900  0.48104800  1
  C  C26  1  0.44251300  0.86463100  0.01895200  1
  C  C27  1  0.05748700  0.86463100  0.51895200  1
  S  S28  1  0.67612500  0.76469100  0.53465000  1
  S  S29  1  0.82387500  0.76469100  0.03465000  1
  S  S30  1  0.32387500  0.23530900  0.46535000  1
  S  S31  1  0.17612500  0.23530900  0.96535000  1
  O  O32  1  0.76679400  0.70333800  0.45999700  1
  O  O33  1  0.73320600  0.70333800  0.95999700  1
  O  O34  1  0.23320600  0.29666200  0.54000300  1
  O  O35  1  0.26679400  0.29666200  0.04000300  1
  O  O36  1  0.56202200  0.64512200  0.53103700  1
  O  O37  1  0.93797800  0.64512200  0.03103700  1
  O  O38  1  0.43797800  0.35487800  0.46896300  1
  O  O39  1  0.06202200  0.35487800  0.96896300  1
  O  O40  1  0.65828600  0.01743500  0.46464400  1
  O  O41  1  0.84171400  0.01743500  0.96464400  1
  O  O42  1  0.34171400  0.98256500  0.53535600  1
  O  O43  1  0.15828600  0.98256500  0.03535600  1
  O  O44  1  0.71202200  0.67689100  0.67980200  1
  O  O45  1  0.78797800  0.67689100  0.17980200  1
  O  O46  1  0.28797800  0.32310900  0.32019800  1
  O  O47  1  0.21202200  0.32310900  0.82019800  1
  O  O48  1  0.55146500  0.81281500  0.22930700  1
  O  O49  1  0.94853500  0.81281500  0.72930700  1
  O  O50  1  0.44853500  0.18718500  0.77069300  1
  O  O51  1  0.05146500  0.18718500  0.27069300  1
  O  O52  1  0.62525600  0.30435600  0.95644200  1
  O  O53  1  0.87474400  0.30435600  0.45644200  1
  O  O54  1  0.37474400  0.69564400  0.04355800  1
  O  O55  1  0.12525600  0.69564400  0.54355800  1
  O  O56  1  0.67741000  0.19066400  0.65885000  1
  O  O57  1  0.82259000  0.19066400  0.15885000  1
  O  O58  1  0.32259000  0.80933600  0.34115000  1
  O  O59  1  0.17741000  0.80933600  0.84115000  1
  O  O60  1  0.55964600  0.37008100  0.20859600  1
  O  O61  1  0.94035400  0.37008100  0.70859600  1
  O  O62  1  0.44035400  0.62991900  0.79140400  1
  O  O63  1  0.05964600  0.62991900  0.29140400  1
