# generated using pymatgen
data_CoRe3H15(NO3)5
_symmetry_space_group_name_H-M   'P 1'
_cell_length_a   8.13245800
_cell_length_b   13.34906400
_cell_length_c   19.52512601
_cell_angle_alpha   90.00000000
_cell_angle_beta   114.10304211
_cell_angle_gamma   90.00000000
_symmetry_Int_Tables_number   1
_chemical_formula_structural   CoRe3H15(NO3)5
_chemical_formula_sum   'Co4 Re12 H60 N20 O60'
_cell_volume   1934.85340552
_cell_formula_units_Z   4
loop_
 _symmetry_equiv_pos_site_id
 _symmetry_equiv_pos_as_xyz
  1  'x, y, z'
loop_
 _atom_site_type_symbol
 _atom_site_label
 _atom_site_symmetry_multiplicity
 _atom_site_fract_x
 _atom_site_fract_y
 _atom_site_fract_z
 _atom_site_occupancy
  Co  Co0  1  0.51090800  0.24953500  0.64030900  1
  Co  Co1  1  0.51090800  0.25046500  0.14030900  1
  Co  Co2  1  0.48909200  0.75046500  0.35969100  1
  Co  Co3  1  0.48909200  0.74953500  0.85969100  1
  Re  Re4  1  0.80650300  0.33887400  0.93710800  1
  Re  Re5  1  0.80650300  0.16112600  0.43710800  1
  Re  Re6  1  0.19349700  0.66112600  0.06289200  1
  Re  Re7  1  0.19349700  0.83887400  0.56289200  1
  Re  Re8  1  0.21054900  0.36828400  0.83448400  1
  Re  Re9  1  0.21054900  0.13171600  0.33448400  1
  Re  Re10  1  0.78945100  0.63171600  0.16551600  1
  Re  Re11  1  0.78945100  0.86828400  0.66551600  1
  Re  Re12  1  0.00262100  0.02858600  0.88067800  1
  Re  Re13  1  0.00262100  0.47141400  0.38067800  1
  Re  Re14  1  0.99737900  0.97141400  0.11932200  1
  Re  Re15  1  0.99737900  0.52858600  0.61932200  1
  H  H16  1  0.30764400  0.14557100  0.52819500  1
  H  H17  1  0.30764400  0.35442900  0.02819500  1
  H  H18  1  0.69235600  0.85442900  0.47180500  1
  H  H19  1  0.69235600  0.64557100  0.97180500  1
  H  H20  1  0.44101500  0.07132000  0.59662300  1
  H  H21  1  0.44101500  0.42868000  0.09662300  1
  H  H22  1  0.55898500  0.92868000  0.40337700  1
  H  H23  1  0.55898500  0.57132000  0.90337700  1
  H  H24  1  0.52370400  0.13026600  0.54192200  1
  H  H25  1  0.52370400  0.36973400  0.04192200  1
  H  H26  1  0.47629600  0.86973400  0.45807800  1
  H  H27  1  0.47629600  0.63026600  0.95807800  1
  H  H28  1  0.77806000  0.19812100  0.61441600  1
  H  H29  1  0.77806000  0.30187900  0.11441600  1
  H  H30  1  0.22194000  0.80187900  0.38558400  1
  H  H31  1  0.22194000  0.69812100  0.88558400  1
  H  H32  1  0.81023900  0.16360200  0.70231600  1
  H  H33  1  0.81023900  0.33639800  0.20231600  1
  H  H34  1  0.18976100  0.83639800  0.29768400  1
  H  H35  1  0.18976100  0.66360200  0.79768400  1
  H  H36  1  0.84356600  0.28224400  0.68446200  1
  H  H37  1  0.84356600  0.21775600  0.18446200  1
  H  H38  1  0.15643400  0.71775600  0.31553800  1
  H  H39  1  0.15643400  0.78224400  0.81553800  1
  H  H40  1  0.56261200  0.43492200  0.67866300  1
  H  H41  1  0.56261200  0.06507800  0.17866300  1
  H  H42  1  0.43738800  0.56507800  0.32133700  1
  H  H43  1  0.43738800  0.93492200  0.82133700  1
  H  H44  1  0.71517000  0.36342000  0.74458000  1
  H  H45  1  0.71517000  0.13658000  0.24458000  1
  H  H46  1  0.28483000  0.63658000  0.25542000  1
  H  H47  1  0.28483000  0.86342000  0.75542000  1
  H  H48  1  0.50104200  0.36878300  0.73698000  1
  H  H49  1  0.50104200  0.13121700  0.23698000  1
  H  H50  1  0.49895800  0.63121700  0.26302000  1
  H  H51  1  0.49895800  0.86878300  0.76302000  1
  H  H52  1  0.24183300  0.36208200  0.61639500  1
  H  H53  1  0.24183300  0.13791800  0.11639500  1
  H  H54  1  0.75816700  0.63791800  0.38360500  1
  H  H55  1  0.75816700  0.86208200  0.88360500  1
  H  H56  1  0.21819000  0.24775500  0.64842900  1
  H  H57  1  0.21819000  0.25224500  0.14842900  1
  H  H58  1  0.78181000  0.75224500  0.35157100  1
  H  H59  1  0.78181000  0.74775500  0.85157100  1
  H  H60  1  0.17721800  0.26255500  0.55792400  1
  H  H61  1  0.17721800  0.23744500  0.05792400  1
  H  H62  1  0.82278200  0.73744500  0.44207600  1
  H  H63  1  0.82278200  0.76255500  0.94207600  1
  H  H64  1  0.56760900  0.40189300  0.57301200  1
  H  H65  1  0.56760900  0.09810700  0.07301200  1
  H  H66  1  0.43239100  0.59810700  0.42698800  1
  H  H67  1  0.43239100  0.90189300  0.92698800  1
  H  H68  1  0.37458100  0.34903500  0.51464100  1
  H  H69  1  0.37458100  0.15096500  0.01464100  1
  H  H70  1  0.62541900  0.65096500  0.48535900  1
  H  H71  1  0.62541900  0.84903500  0.98535900  1
  H  H72  1  0.57298700  0.30097300  0.52570400  1
  H  H73  1  0.57298700  0.19902700  0.02570400  1
  H  H74  1  0.42701300  0.69902700  0.47429600  1
  H  H75  1  0.42701300  0.80097300  0.97429600  1
  N  N76  1  0.43744100  0.13678500  0.56824900  1
  N  N77  1  0.43744100  0.36321500  0.06824900  1
  N  N78  1  0.56255900  0.86321500  0.43175100  1
  N  N79  1  0.56255900  0.63678500  0.93175100  1
  N  N80  1  0.76519200  0.21986800  0.66267500  1
  N  N81  1  0.76519200  0.28013200  0.16267500  1
  N  N82  1  0.23480800  0.78013200  0.33732500  1
  N  N83  1  0.23480800  0.71986800  0.83732500  1
  N  N84  1  0.58126900  0.36799100  0.70728800  1
  N  N85  1  0.58126900  0.13200900  0.20728800  1
  N  N86  1  0.41873100  0.63200900  0.29271200  1
  N  N87  1  0.41873100  0.86799100  0.79271200  1
  N  N88  1  0.25736500  0.28554900  0.61176400  1
  N  N89  1  0.25736500  0.21445100  0.11176400  1
  N  N90  1  0.74263500  0.71445100  0.38823600  1
  N  N91  1  0.74263500  0.78554900  0.88823600  1
  N  N92  1  0.50425500  0.33486900  0.55357300  1
  N  N93  1  0.50425500  0.16513100  0.05357300  1
  N  N94  1  0.49574500  0.66513100  0.44642700  1
  N  N95  1  0.49574500  0.83486900  0.94642700  1
  O  O96  1  0.73418100  0.24462400  0.86961600  1
  O  O97  1  0.73418100  0.25537600  0.36961600  1
  O  O98  1  0.26581900  0.75537600  0.13038400  1
  O  O99  1  0.26581900  0.74462400  0.63038400  1
  O  O100  1  0.72039200  0.31593900  0.00537900  1
  O  O101  1  0.72039200  0.18406100  0.50537900  1
  O  O102  1  0.27960800  0.68406100  0.99462100  1
  O  O103  1  0.27960800  0.81593900  0.49462100  1
  O  O104  1  0.04371400  0.33804500  0.98092900  1
  O  O105  1  0.04371400  0.16195500  0.48092900  1
  O  O106  1  0.95628600  0.66195500  0.01907100  1
  O  O107  1  0.95628600  0.83804500  0.51907100  1
  O  O108  1  0.72728200  0.45461000  0.89294400  1
  O  O109  1  0.72728200  0.04539000  0.39294400  1
  O  O110  1  0.27271800  0.54539000  0.10705600  1
  O  O111  1  0.27271800  0.95461000  0.60705600  1
  O  O112  1  0.97413100  0.35559100  0.79257300  1
  O  O113  1  0.97413100  0.14440900  0.29257300  1
  O  O114  1  0.02586900  0.64440900  0.20742700  1
  O  O115  1  0.02586900  0.85559100  0.70742700  1
  O  O116  1  0.29412500  0.36106700  0.76448300  1
  O  O117  1  0.29412500  0.13893300  0.26448300  1
  O  O118  1  0.70587500  0.63893300  0.23551700  1
  O  O119  1  0.70587500  0.86106700  0.73551700  1
  O  O120  1  0.27093200  0.48336000  0.88119300  1
  O  O121  1  0.27093200  0.01664000  0.38119300  1
  O  O122  1  0.72906800  0.51664000  0.11880700  1
  O  O123  1  0.72906800  0.98336000  0.61880700  1
  O  O124  1  0.30719400  0.27237900  0.89980100  1
  O  O125  1  0.30719400  0.22762100  0.39980100  1
  O  O126  1  0.69280600  0.72762100  0.10019900  1
  O  O127  1  0.69280600  0.77237900  0.60019900  1
  O  O128  1  0.12865300  0.10066200  0.96033100  1
  O  O129  1  0.12865300  0.39933800  0.46033100  1
  O  O130  1  0.87134700  0.89933800  0.03966900  1
  O  O131  1  0.87134700  0.60066200  0.53966900  1
  O  O132  1  0.98114200  0.09203800  0.79895400  1
  O  O133  1  0.98114200  0.40796200  0.29895400  1
  O  O134  1  0.01885800  0.90796200  0.20104600  1
  O  O135  1  0.01885800  0.59203800  0.70104600  1
  O  O136  1  0.78921500  0.99974000  0.87850800  1
  O  O137  1  0.78921500  0.50026000  0.37850800  1
  O  O138  1  0.21078500  0.00026000  0.12149200  1
  O  O139  1  0.21078500  0.49974000  0.62149200  1
  O  O140  1  0.11909200  0.91573700  0.88626300  1
  O  O141  1  0.11909200  0.58426300  0.38626300  1
  O  O142  1  0.88090800  0.08426300  0.11373700  1
  O  O143  1  0.88090800  0.41573700  0.61373700  1
  O  O144  1  0.51212100  0.17734900  0.70874400  1
  O  O145  1  0.51212100  0.32265100  0.20874400  1
  O  O146  1  0.48787900  0.82265100  0.29125600  1
  O  O147  1  0.48787900  0.67734900  0.79125600  1
  O  O148  1  0.81077600  0.59915100  0.80249900  1
  O  O149  1  0.81077600  0.90084900  0.30249900  1
  O  O150  1  0.18922400  0.40084900  0.19750100  1
  O  O151  1  0.18922400  0.09915100  0.69750100  1
  O  O152  1  0.47504500  0.06366000  0.89083300  1
  O  O153  1  0.47504500  0.43634000  0.39083300  1
  O  O154  1  0.52495500  0.93634000  0.10916700  1
  O  O155  1  0.52495500  0.56366000  0.60916700  1
