# generated using pymatgen
data_BaSe(SO2)4
_symmetry_space_group_name_H-M   'P 1'
_cell_length_a   5.27896500
_cell_length_b   10.61940100
_cell_length_c   23.12241300
_cell_angle_alpha   90.00000000
_cell_angle_beta   90.00000000
_cell_angle_gamma   90.00000000
_symmetry_Int_Tables_number   1
_chemical_formula_structural   BaSe(SO2)4
_chemical_formula_sum   'Ba4 Se4 S16 O32'
_cell_volume   1296.22966759
_cell_formula_units_Z   4
loop_
 _symmetry_equiv_pos_site_id
 _symmetry_equiv_pos_as_xyz
  1  'x, y, z'
loop_
 _atom_site_type_symbol
 _atom_site_label
 _atom_site_symmetry_multiplicity
 _atom_site_fract_x
 _atom_site_fract_y
 _atom_site_fract_z
 _atom_site_occupancy
  Ba  Ba0  1  0.71818100  0.25000000  0.54344200  1
  Ba  Ba1  1  0.21818100  0.25000000  0.95655800  1
  Ba  Ba2  1  0.28181900  0.75000000  0.45655800  1
  Ba  Ba3  1  0.78181900  0.75000000  0.04344200  1
  Se  Se4  1  0.04024200  0.25000000  0.32684900  1
  Se  Se5  1  0.54024200  0.25000000  0.17315100  1
  Se  Se6  1  0.95975800  0.75000000  0.67315100  1
  Se  Se7  1  0.45975800  0.75000000  0.82684900  1
  S  S8  1  0.79234200  0.08447300  0.32193300  1
  S  S9  1  0.29234200  0.41552700  0.17806700  1
  S  S10  1  0.20765800  0.58447300  0.67806700  1
  S  S11  1  0.70765800  0.91552700  0.82193300  1
  S  S12  1  0.20765800  0.91552700  0.67806700  1
  S  S13  1  0.70765800  0.58447300  0.82193300  1
  S  S14  1  0.79234200  0.41552700  0.32193300  1
  S  S15  1  0.29234200  0.08447300  0.17806700  1
  S  S16  1  0.81400900  0.01049100  0.41015900  1
  S  S17  1  0.31400900  0.48950900  0.08984100  1
  S  S18  1  0.18599100  0.51049100  0.58984100  1
  S  S19  1  0.68599100  0.98950900  0.91015900  1
  S  S20  1  0.18599100  0.98950900  0.58984100  1
  S  S21  1  0.68599100  0.51049100  0.91015900  1
  S  S22  1  0.81400900  0.48950900  0.41015900  1
  S  S23  1  0.31400900  0.01049100  0.08984100  1
  O  O24  1  0.08284400  0.99499100  0.42341700  1
  O  O25  1  0.58284400  0.50500900  0.07658300  1
  O  O26  1  0.91715600  0.49499100  0.57658300  1
  O  O27  1  0.41715600  0.00500900  0.92341700  1
  O  O28  1  0.91715600  0.00500900  0.57658300  1
  O  O29  1  0.41715600  0.49499100  0.92341700  1
  O  O30  1  0.08284400  0.50500900  0.42341700  1
  O  O31  1  0.58284400  0.99499100  0.07658300  1
  O  O32  1  0.67861400  0.89079400  0.40177200  1
  O  O33  1  0.17861400  0.60920600  0.09822800  1
  O  O34  1  0.32138600  0.39079400  0.59822800  1
  O  O35  1  0.82138600  0.10920600  0.90177200  1
  O  O36  1  0.32138600  0.10920600  0.59822800  1
  O  O37  1  0.82138600  0.39079400  0.90177200  1
  O  O38  1  0.67861400  0.60920600  0.40177200  1
  O  O39  1  0.17861400  0.89079400  0.09822800  1
  O  O40  1  0.68243600  0.10099300  0.44676100  1
  O  O41  1  0.18243600  0.39900700  0.05323900  1
  O  O42  1  0.31756400  0.60099300  0.55323900  1
  O  O43  1  0.81756400  0.89900700  0.94676100  1
  O  O44  1  0.31756400  0.89900700  0.55323900  1
  O  O45  1  0.81756400  0.60099300  0.94676100  1
  O  O46  1  0.68243600  0.39900700  0.44676100  1
  O  O47  1  0.18243600  0.10099300  0.05323900  1
  O  O48  1  0.22514700  0.25000000  0.49700400  1
  O  O49  1  0.72514700  0.25000000  0.00299600  1
  O  O50  1  0.77485300  0.75000000  0.50299600  1
  O  O51  1  0.27485300  0.75000000  0.99700400  1
  O  O52  1  0.82849000  0.25000000  0.66489200  1
  O  O53  1  0.32849000  0.25000000  0.83510800  1
  O  O54  1  0.17151000  0.75000000  0.33510800  1
  O  O55  1  0.67151000  0.75000000  0.16489200  1
