# generated using pymatgen
data_KVAsO5
_symmetry_space_group_name_H-M   'P 1'
_cell_length_a   6.64017500
_cell_length_b   10.83650300
_cell_length_c   13.28788300
_cell_angle_alpha   90.00000000
_cell_angle_beta   90.00000000
_cell_angle_gamma   90.00000000
_symmetry_Int_Tables_number   1
_chemical_formula_structural   KVAsO5
_chemical_formula_sum   'K8 V8 As8 O40'
_cell_volume   956.14658070
_cell_formula_units_Z   8
loop_
 _symmetry_equiv_pos_site_id
 _symmetry_equiv_pos_as_xyz
  1  'x, y, z'
loop_
 _atom_site_type_symbol
 _atom_site_label
 _atom_site_symmetry_multiplicity
 _atom_site_fract_x
 _atom_site_fract_y
 _atom_site_fract_z
 _atom_site_occupancy
  K  K0  1  0.72560700  0.53192800  0.62238100  1
  K  K1  1  0.27439300  0.03192800  0.37761900  1
  K  K2  1  0.22560700  0.03192800  0.87761900  1
  K  K3  1  0.77439300  0.53192800  0.12238100  1
  K  K4  1  0.70804800  0.77702500  0.39415900  1
  K  K5  1  0.29195200  0.27702500  0.60584100  1
  K  K6  1  0.20804800  0.27702500  0.10584100  1
  K  K7  1  0.79195200  0.77702500  0.89415900  1
  V  V8  1  0.23006900  0.59417200  0.75201000  1
  V  V9  1  0.76993100  0.09417200  0.24799000  1
  V  V10  1  0.73006900  0.09417200  0.74799000  1
  V  V11  1  0.26993100  0.59417200  0.25201000  1
  V  V12  1  0.99789400  0.34504100  0.37457500  1
  V  V13  1  0.00210600  0.84504100  0.62542500  1
  V  V14  1  0.49789400  0.84504100  0.12542500  1
  V  V15  1  0.50210600  0.34504100  0.87457500  1
  As  As16  1  0.50176200  0.33175600  0.31909100  1
  As  As17  1  0.49823800  0.83175600  0.68090900  1
  As  As18  1  0.00176200  0.83175600  0.18090900  1
  As  As19  1  0.99823800  0.33175600  0.81909100  1
  As  As20  1  0.17631200  0.58608300  0.50167500  1
  As  As21  1  0.82368800  0.08608300  0.49832500  1
  As  As22  1  0.67631200  0.08608300  0.99832500  1
  As  As23  1  0.32368800  0.58608300  0.00167500  1
  O  O24  1  0.04755200  0.45042700  0.73581500  1
  O  O25  1  0.95244800  0.95042700  0.26418500  1
  O  O26  1  0.54755200  0.95042700  0.76418500  1
  O  O27  1  0.45244800  0.45042700  0.23581500  1
  O  O28  1  0.70173200  0.36697700  0.39579900  1
  O  O29  1  0.29826800  0.86697700  0.60420100  1
  O  O30  1  0.20173200  0.86697700  0.10420100  1
  O  O31  1  0.79826800  0.36697700  0.89579900  1
  O  O32  1  0.33620300  0.60142200  0.40073000  1
  O  O33  1  0.66379700  0.10142200  0.59927000  1
  O  O34  1  0.83620300  0.10142200  0.09927000  1
  O  O35  1  0.16379700  0.60142200  0.90073000  1
  O  O36  1  0.05169200  0.45698300  0.28575500  1
  O  O37  1  0.94830800  0.95698300  0.71424500  1
  O  O38  1  0.55169200  0.95698300  0.21424500  1
  O  O39  1  0.44830800  0.45698300  0.78575500  1
  O  O40  1  0.01257900  0.70692000  0.51602800  1
  O  O41  1  0.98742100  0.20692000  0.48397200  1
  O  O42  1  0.51257900  0.20692000  0.98397200  1
  O  O43  1  0.48742100  0.70692000  0.01602800  1
  O  O44  1  0.32573000  0.56683700  0.60716300  1
  O  O45  1  0.67427000  0.06683700  0.39283700  1
  O  O46  1  0.82573000  0.06683700  0.89283700  1
  O  O47  1  0.17427000  0.56683700  0.10716300  1
  O  O48  1  0.02788500  0.45571800  0.49400400  1
  O  O49  1  0.97211500  0.95571800  0.50599600  1
  O  O50  1  0.52788500  0.95571800  0.00599600  1
  O  O51  1  0.47211500  0.45571800  0.99400400  1
  O  O52  1  0.29880100  0.29621500  0.39369500  1
  O  O53  1  0.70119900  0.79621500  0.60630500  1
  O  O54  1  0.79880100  0.79621500  0.10630500  1
  O  O55  1  0.20119900  0.29621500  0.89369500  1
  O  O56  1  0.53907200  0.21070200  0.23597600  1
  O  O57  1  0.46092800  0.71070200  0.76402400  1
  O  O58  1  0.03907200  0.71070200  0.26402400  1
  O  O59  1  0.96092800  0.21070200  0.73597600  1
  O  O60  1  0.05190700  0.70592700  0.72172000  1
  O  O61  1  0.94809300  0.20592700  0.27828000  1
  O  O62  1  0.55190700  0.20592700  0.77828000  1
  O  O63  1  0.44809300  0.70592700  0.22172000  1
