# generated using pymatgen
data_GaH18I3N7
_symmetry_space_group_name_H-M   'P 1'
_cell_length_a   13.91786900
_cell_length_b   7.84237200
_cell_length_c   15.55121800
_cell_angle_alpha   90.00000000
_cell_angle_beta   90.00000000
_cell_angle_gamma   90.00000000
_symmetry_Int_Tables_number   1
_chemical_formula_structural   GaH18I3N7
_chemical_formula_sum   'Ga4 H72 I12 N28'
_cell_volume   1697.40154417
_cell_formula_units_Z   4
loop_
 _symmetry_equiv_pos_site_id
 _symmetry_equiv_pos_as_xyz
  1  'x, y, z'
loop_
 _atom_site_type_symbol
 _atom_site_label
 _atom_site_symmetry_multiplicity
 _atom_site_fract_x
 _atom_site_fract_y
 _atom_site_fract_z
 _atom_site_occupancy
  Ga  Ga0  1  0.22457100  0.25000000  0.90194200  1
  Ga  Ga1  1  0.72457100  0.25000000  0.59805800  1
  Ga  Ga2  1  0.77542900  0.75000000  0.09805800  1
  Ga  Ga3  1  0.27542900  0.75000000  0.40194200  1
  H  H4  1  0.37264200  0.25000000  0.79396800  1
  H  H5  1  0.87264200  0.25000000  0.70603200  1
  H  H6  1  0.62735800  0.75000000  0.20603200  1
  H  H7  1  0.12735800  0.75000000  0.29396800  1
  H  H8  1  0.28366900  0.14461600  0.74816600  1
  H  H9  1  0.78366900  0.35538400  0.75183400  1
  H  H10  1  0.71633100  0.64461600  0.25183400  1
  H  H11  1  0.21633100  0.85538400  0.24816600  1
  H  H12  1  0.71633100  0.85538400  0.25183400  1
  H  H13  1  0.21633100  0.64461600  0.24816600  1
  H  H14  1  0.28366900  0.35538400  0.74816600  1
  H  H15  1  0.78366900  0.14461600  0.75183400  1
  H  H16  1  0.29681400  0.94167200  0.93609000  1
  H  H17  1  0.79681400  0.55832800  0.56391000  1
  H  H18  1  0.70318600  0.44167200  0.06391000  1
  H  H19  1  0.20318600  0.05832800  0.43609000  1
  H  H20  1  0.70318600  0.05832800  0.06391000  1
  H  H21  1  0.20318600  0.44167200  0.43609000  1
  H  H22  1  0.29681400  0.55832800  0.93609000  1
  H  H23  1  0.79681400  0.94167200  0.56391000  1
  H  H24  1  0.38733200  0.07609500  0.92487500  1
  H  H25  1  0.88733200  0.42390500  0.57512500  1
  H  H26  1  0.61266800  0.57609500  0.07512500  1
  H  H27  1  0.11266800  0.92390500  0.42487500  1
  H  H28  1  0.61266800  0.92390500  0.07512500  1
  H  H29  1  0.11266800  0.57609500  0.42487500  1
  H  H30  1  0.38733200  0.42390500  0.92487500  1
  H  H31  1  0.88733200  0.07609500  0.57512500  1
  H  H32  1  0.32803200  0.06769700  0.01624900  1
  H  H33  1  0.82803200  0.43230300  0.48375100  1
  H  H34  1  0.67196800  0.56769700  0.98375100  1
  H  H35  1  0.17196800  0.93230300  0.51624900  1
  H  H36  1  0.67196800  0.93230300  0.98375100  1
  H  H37  1  0.17196800  0.56769700  0.51624900  1
  H  H38  1  0.32803200  0.43230300  0.01624900  1
  H  H39  1  0.82803200  0.06769700  0.48375100  1
  H  H40  1  0.07602400  0.10342800  0.82112100  1
  H  H41  1  0.57602400  0.39657200  0.67887900  1
  H  H42  1  0.92397600  0.60342800  0.17887900  1
  H  H43  1  0.42397600  0.89657200  0.32112100  1
  H  H44  1  0.92397600  0.89657200  0.17887900  1
  H  H45  1  0.42397600  0.60342800  0.32112100  1
  H  H46  1  0.07602400  0.39657200  0.82112100  1
  H  H47  1  0.57602400  0.10342800  0.67887900  1
  H  H48  1  0.17039200  0.97605200  0.81445700  1
  H  H49  1  0.67039200  0.52394800  0.68554300  1
  H  H50  1  0.82960800  0.47605200  0.18554300  1
  H  H51  1  0.32960800  0.02394800  0.31445700  1
  H  H52  1  0.82960800  0.02394800  0.18554300  1
  H  H53  1  0.32960800  0.47605200  0.31445700  1
  H  H54  1  0.17039200  0.52394800  0.81445700  1
  H  H55  1  0.67039200  0.97605200  0.68554300  1
  H  H56  1  0.10763100  0.98080600  0.90418800  1
  H  H57  1  0.60763100  0.51919400  0.59581200  1
  H  H58  1  0.89236900  0.48080600  0.09581200  1
  H  H59  1  0.39236900  0.01919400  0.40418800  1
  H  H60  1  0.89236900  0.01919400  0.09581200  1
  H  H61  1  0.39236900  0.48080600  0.40418800  1
  H  H62  1  0.10763100  0.51919400  0.90418800  1
  H  H63  1  0.60763100  0.98080600  0.59581200  1
  H  H64  1  0.07451100  0.25000000  0.00631100  1
  H  H65  1  0.57451100  0.25000000  0.49368900  1
  H  H66  1  0.92548900  0.75000000  0.99368900  1
  H  H67  1  0.42548900  0.75000000  0.50631100  1
  H  H68  1  0.16088800  0.14485900  0.05570300  1
  H  H69  1  0.66088800  0.35514100  0.44429700  1
  H  H70  1  0.83911200  0.64485900  0.94429700  1
  H  H71  1  0.33911200  0.85514100  0.55570300  1
  H  H72  1  0.83911200  0.85514100  0.94429700  1
  H  H73  1  0.33911200  0.64485900  0.55570300  1
  H  H74  1  0.16088800  0.35514100  0.05570300  1
  H  H75  1  0.66088800  0.14485900  0.44429700  1
  I  I76  1  0.39004100  0.25000000  0.53918900  1
  I  I77  1  0.89004100  0.25000000  0.96081100  1
  I  I78  1  0.60995900  0.75000000  0.46081100  1
  I  I79  1  0.10995900  0.75000000  0.03918900  1
  I  I80  1  0.05175800  0.25000000  0.64036600  1
  I  I81  1  0.55175800  0.25000000  0.85963400  1
  I  I82  1  0.94824200  0.75000000  0.35963400  1
  I  I83  1  0.44824200  0.75000000  0.14036600  1
  I  I84  1  0.31667300  0.75000000  0.76482500  1
  I  I85  1  0.81667300  0.75000000  0.73517500  1
  I  I86  1  0.68332700  0.25000000  0.23517500  1
  I  I87  1  0.18332700  0.25000000  0.26482500  1
  N  N88  1  0.29888900  0.25000000  0.78482400  1
  N  N89  1  0.79888900  0.25000000  0.71517600  1
  N  N90  1  0.70111100  0.75000000  0.21517600  1
  N  N91  1  0.20111100  0.75000000  0.28482400  1
  N  N92  1  0.31934800  0.06271300  0.95069700  1
  N  N93  1  0.81934800  0.43728700  0.54930300  1
  N  N94  1  0.68065200  0.56271300  0.04930300  1
  N  N95  1  0.18065200  0.93728700  0.45069700  1
  N  N96  1  0.68065200  0.93728700  0.04930300  1
  N  N97  1  0.18065200  0.56271300  0.45069700  1
  N  N98  1  0.31934800  0.43728700  0.95069700  1
  N  N99  1  0.81934800  0.06271300  0.54930300  1
  N  N100  1  0.13355900  0.05685300  0.85522900  1
  N  N101  1  0.63355900  0.44314700  0.64477100  1
  N  N102  1  0.86644100  0.55685300  0.14477100  1
  N  N103  1  0.36644100  0.94314700  0.35522900  1
  N  N104  1  0.86644100  0.94314700  0.14477100  1
  N  N105  1  0.36644100  0.55685300  0.35522900  1
  N  N106  1  0.13355900  0.44314700  0.85522900  1
  N  N107  1  0.63355900  0.05685300  0.64477100  1
  N  N108  1  0.14775100  0.25000000  0.01811500  1
  N  N109  1  0.64775100  0.25000000  0.48188500  1
  N  N110  1  0.85224900  0.75000000  0.98188500  1
  N  N111  1  0.35224900  0.75000000  0.51811500  1
  N  N112  1  0.10041500  0.75000000  0.62442400  1
  N  N113  1  0.60041500  0.75000000  0.87557600  1
  N  N114  1  0.89958500  0.25000000  0.37557600  1
  N  N115  1  0.39958500  0.25000000  0.12442400  1
