# generated using pymatgen
data_CaZn2(H5O4)2
_symmetry_space_group_name_H-M   'P 1'
_cell_length_a   11.07487200
_cell_length_b   5.96656300
_cell_length_c   6.48817289
_cell_angle_alpha   77.62207832
_cell_angle_beta   90.00000000
_cell_angle_gamma   90.00000000
_symmetry_Int_Tables_number   1
_chemical_formula_structural   CaZn2(H5O4)2
_chemical_formula_sum   'Ca2 Zn4 H20 O16'
_cell_volume   418.76558359
_cell_formula_units_Z   2
loop_
 _symmetry_equiv_pos_site_id
 _symmetry_equiv_pos_as_xyz
  1  'x, y, z'
loop_
 _atom_site_type_symbol
 _atom_site_label
 _atom_site_symmetry_multiplicity
 _atom_site_fract_x
 _atom_site_fract_y
 _atom_site_fract_z
 _atom_site_occupancy
  Ca  Ca0  1  0.50000000  0.50000000  0.00000000  1
  Ca  Ca1  1  0.00000000  0.00000000  0.00000000  1
  Zn  Zn2  1  0.66658800  0.34325700  0.53055100  1
  Zn  Zn3  1  0.16658800  0.15674300  0.46944900  1
  Zn  Zn4  1  0.33341200  0.65674300  0.46944900  1
  Zn  Zn5  1  0.83341200  0.84325700  0.53055100  1
  H  H6  1  0.60956600  0.73180000  0.53015100  1
  H  H7  1  0.10956600  0.76820000  0.46984900  1
  H  H8  1  0.39043400  0.26820000  0.46984900  1
  H  H9  1  0.89043400  0.23180000  0.53015100  1
  H  H10  1  0.55438700  0.11226800  0.32422000  1
  H  H11  1  0.05438700  0.38773200  0.67578000  1
  H  H12  1  0.44561300  0.88773200  0.67578000  1
  H  H13  1  0.94561300  0.61226800  0.32422000  1
  H  H14  1  0.61206200  0.10913700  0.88070700  1
  H  H15  1  0.11206200  0.39086300  0.11929300  1
  H  H16  1  0.38793800  0.89086300  0.11929300  1
  H  H17  1  0.88793800  0.60913700  0.88070700  1
  H  H18  1  0.66920400  0.74942700  0.19060400  1
  H  H19  1  0.16920400  0.75057300  0.80939600  1
  H  H20  1  0.33079600  0.25057300  0.80939600  1
  H  H21  1  0.83079600  0.24942700  0.19060400  1
  H  H22  1  0.73679300  0.76514000  0.96612500  1
  H  H23  1  0.23679300  0.73486000  0.03387500  1
  H  H24  1  0.26320700  0.23486000  0.03387500  1
  H  H25  1  0.76320700  0.26514000  0.96612500  1
  O  O26  1  0.68314600  0.68994700  0.45821200  1
  O  O27  1  0.18314600  0.81005300  0.54178800  1
  O  O28  1  0.31685400  0.31005300  0.54178800  1
  O  O29  1  0.81685400  0.18994700  0.45821200  1
  O  O30  1  0.53852200  0.26798100  0.34226600  1
  O  O31  1  0.03852200  0.23201900  0.65773400  1
  O  O32  1  0.46147800  0.73201900  0.65773400  1
  O  O33  1  0.96147800  0.76798100  0.34226600  1
  O  O34  1  0.62855000  0.27380500  0.83436900  1
  O  O35  1  0.12855000  0.22619500  0.16563100  1
  O  O36  1  0.37145000  0.72619500  0.16563100  1
  O  O37  1  0.87145000  0.77380500  0.83436900  1
  O  O38  1  0.65529800  0.76688100  0.03494200  1
  O  O39  1  0.15529800  0.73311900  0.96505800  1
  O  O40  1  0.34470200  0.23311900  0.96505800  1
  O  O41  1  0.84470200  0.26688100  0.03494200  1
