# generated using pymatgen
data_Yb11(Sm2S11)2
_symmetry_space_group_name_H-M   'P 1'
_cell_length_a   20.58231669
_cell_length_b   20.58231669
_cell_length_c   11.21217454
_cell_angle_alpha   83.84690078
_cell_angle_beta   83.84690078
_cell_angle_gamma   11.38422996
_symmetry_Int_Tables_number   1
_chemical_formula_structural   Yb11(Sm2S11)2
_chemical_formula_sum   'Yb11 Sm4 S22'
_cell_volume   932.10276725
_cell_formula_units_Z   1
loop_
 _symmetry_equiv_pos_site_id
 _symmetry_equiv_pos_as_xyz
  1  'x, y, z'
loop_
 _atom_site_type_symbol
 _atom_site_label
 _atom_site_symmetry_multiplicity
 _atom_site_fract_x
 _atom_site_fract_y
 _atom_site_fract_z
 _atom_site_occupancy
  Yb  Yb0  1  0.80122600  0.80122600  0.97398800  1
  Yb  Yb1  1  0.19877400  0.19877400  0.02601200  1
  Yb  Yb2  1  0.46209100  0.46209100  0.70388300  1
  Yb  Yb3  1  0.53790900  0.53790900  0.29611700  1
  Yb  Yb4  1  0.66312100  0.66312100  0.68292500  1
  Yb  Yb5  1  0.33687900  0.33687900  0.31707500  1
  Yb  Yb6  1  0.26576400  0.26576400  0.63990900  1
  Yb  Yb7  1  0.73423600  0.73423600  0.36009100  1
  Yb  Yb8  1  0.06231000  0.06231000  0.65930900  1
  Yb  Yb9  1  0.93769000  0.93769000  0.34069100  1
  Yb  Yb10  1  0.00000000  0.00000000  0.00000000  1
  Sm  Sm11  1  0.10848300  0.10848300  0.00137600  1
  Sm  Sm12  1  0.89151700  0.89151700  0.99862400  1
  Sm  Sm13  1  0.37529600  0.37529600  0.66007200  1
  Sm  Sm14  1  0.62470400  0.62470400  0.33992800  1
  S  S15  1  0.08754500  0.08754500  0.24887100  1
  S  S16  1  0.91245500  0.91245500  0.75112900  1
  S  S17  1  0.17760700  0.17760700  0.35046200  1
  S  S18  1  0.82239300  0.82239300  0.64953800  1
  S  S19  1  0.27413900  0.27413900  0.39552700  1
  S  S20  1  0.72586100  0.72586100  0.60447300  1
  S  S21  1  0.43398900  0.43398900  0.49473100  1
  S  S22  1  0.56601100  0.56601100  0.50526900  1
  S  S23  1  0.14380700  0.14380700  0.50804800  1
  S  S24  1  0.85619300  0.85619300  0.49195200  1
  S  S25  1  0.58509600  0.58509600  0.83475800  1
  S  S26  1  0.41490400  0.41490400  0.16524200  1
  S  S27  1  0.44729200  0.44729200  0.00458000  1
  S  S28  1  0.55270800  0.55270800  0.99542000  1
  S  S29  1  0.35290600  0.35290600  0.91067900  1
  S  S30  1  0.64709400  0.64709400  0.08932100  1
  S  S31  1  0.16331000  0.16331000  0.83391500  1
  S  S32  1  0.83669000  0.83669000  0.16608500  1
  S  S33  1  0.00088700  0.00088700  0.76152200  1
  S  S34  1  0.99911300  0.99911300  0.23847800  1
  S  S35  1  0.26152600  0.26152600  0.89203700  1
  S  S36  1  0.73847400  0.73847400  0.10796300  1
