# generated using pymatgen
data_P2H10SN6
_symmetry_space_group_name_H-M   'P 1'
_cell_length_a   7.80195600
_cell_length_b   10.25620600
_cell_length_c   10.37263826
_cell_angle_alpha   72.47606367
_cell_angle_beta   90.00000000
_cell_angle_gamma   90.00000000
_symmetry_Int_Tables_number   1
_chemical_formula_structural   P2H10SN6
_chemical_formula_sum   'P8 H40 S4 N24'
_cell_volume   791.48323113
_cell_formula_units_Z   4
loop_
 _symmetry_equiv_pos_site_id
 _symmetry_equiv_pos_as_xyz
  1  'x, y, z'
loop_
 _atom_site_type_symbol
 _atom_site_label
 _atom_site_symmetry_multiplicity
 _atom_site_fract_x
 _atom_site_fract_y
 _atom_site_fract_z
 _atom_site_occupancy
  P  P0  1  0.19600200  0.69515900  0.15967400  1
  P  P1  1  0.69600200  0.30484100  0.34032600  1
  P  P2  1  0.80399800  0.30484100  0.84032600  1
  P  P3  1  0.30399800  0.69515900  0.65967400  1
  P  P4  1  0.91695900  0.86049600  0.21782500  1
  P  P5  1  0.41695900  0.13950400  0.28217500  1
  P  P6  1  0.08304100  0.13950400  0.78217500  1
  P  P7  1  0.58304100  0.86049600  0.71782500  1
  H  H8  1  0.07241800  0.55837200  0.35007900  1
  H  H9  1  0.57241800  0.44162800  0.14992100  1
  H  H10  1  0.92758200  0.44162800  0.64992100  1
  H  H11  1  0.42758200  0.55837200  0.85007900  1
  H  H12  1  0.82702600  0.04590200  0.28043400  1
  H  H13  1  0.32702600  0.95409800  0.21956600  1
  H  H14  1  0.17297400  0.95409800  0.71956600  1
  H  H15  1  0.67297400  0.04590200  0.78043400  1
  H  H16  1  0.23279800  0.47750200  0.29433000  1
  H  H17  1  0.73279800  0.52249800  0.20567000  1
  H  H18  1  0.76720200  0.52249800  0.70567000  1
  H  H19  1  0.26720200  0.47750200  0.79433000  1
  H  H20  1  0.03754600  0.00973400  0.32047100  1
  H  H21  1  0.53754600  0.99026600  0.17952900  1
  H  H22  1  0.96245400  0.99026600  0.67952900  1
  H  H23  1  0.46245400  0.00973400  0.82047100  1
  H  H24  1  0.16142800  0.59552600  0.98534500  1
  H  H25  1  0.66142800  0.40447400  0.51465500  1
  H  H26  1  0.83857200  0.40447400  0.01465500  1
  H  H27  1  0.33857200  0.59552600  0.48534500  1
  H  H28  1  0.74082500  0.84010400  0.04808200  1
  H  H29  1  0.24082500  0.15989600  0.45191800  1
  H  H30  1  0.25917500  0.15989600  0.95191800  1
  H  H31  1  0.75917500  0.84010400  0.54808200  1
  H  H32  1  0.44685200  0.73001800  0.03019700  1
  H  H33  1  0.94685200  0.26998200  0.46980300  1
  H  H34  1  0.55314800  0.26998200  0.96980300  1
  H  H35  1  0.05314800  0.73001800  0.53019700  1
  H  H36  1  0.83005800  0.99605500  0.00950500  1
  H  H37  1  0.33005800  0.00394500  0.49049500  1
  H  H38  1  0.16994200  0.00394500  0.99049500  1
  H  H39  1  0.66994200  0.99605500  0.50950500  1
  H  H40  1  0.02260400  0.72814700  0.97117300  1
  H  H41  1  0.52260400  0.27185300  0.52882700  1
  H  H42  1  0.97739600  0.27185300  0.02882700  1
  H  H43  1  0.47739600  0.72814700  0.47117300  1
  H  H44  1  0.48987500  0.70474200  0.19935600  1
  H  H45  1  0.98987500  0.29525800  0.30064400  1
  H  H46  1  0.51012500  0.29525800  0.80064400  1
  H  H47  1  0.01012500  0.70474200  0.69935600  1
  S  S48  1  0.79885200  0.70284600  0.35249900  1
  S  S49  1  0.29885200  0.29715400  0.14750100  1
  S  S50  1  0.20114800  0.29715400  0.64750100  1
  S  S51  1  0.70114800  0.70284600  0.85249900  1
  N  N52  1  0.93858900  0.00487100  0.25724000  1
  N  N53  1  0.43858900  0.99512900  0.24276000  1
  N  N54  1  0.06141100  0.99512900  0.74276000  1
  N  N55  1  0.56141100  0.00487100  0.75724000  1
  N  N56  1  0.19083400  0.56863700  0.30465800  1
  N  N57  1  0.69083400  0.43136300  0.19534200  1
  N  N58  1  0.80916600  0.43136300  0.69534200  1
  N  N59  1  0.30916600  0.56863700  0.80465800  1
  N  N60  1  0.40194300  0.70431100  0.12677700  1
  N  N61  1  0.90194300  0.29568900  0.37322300  1
  N  N62  1  0.59805700  0.29568900  0.87322300  1
  N  N63  1  0.09805700  0.70431100  0.62677700  1
  N  N64  1  0.11126900  0.82955000  0.17879600  1
  N  N65  1  0.61126900  0.17045000  0.32120400  1
  N  N66  1  0.88873100  0.17045000  0.82120400  1
  N  N67  1  0.38873100  0.82955000  0.67879600  1
  N  N68  1  0.78208600  0.91558000  0.08644400  1
  N  N69  1  0.28208600  0.08442000  0.41355600  1
  N  N70  1  0.21791400  0.08442000  0.91355600  1
  N  N71  1  0.71791400  0.91558000  0.58644400  1
  N  N72  1  0.10493900  0.65983100  0.03151500  1
  N  N73  1  0.60493900  0.34016900  0.46848500  1
  N  N74  1  0.89506100  0.34016900  0.96848500  1
  N  N75  1  0.39506100  0.65983100  0.53151500  1
