# generated using pymatgen
data_B20H42N4O3
_symmetry_space_group_name_H-M   'P 1'
_cell_length_a   11.79330400
_cell_length_b   8.90460600
_cell_length_c   24.77564716
_cell_angle_alpha   90.00000000
_cell_angle_beta   108.70208178
_cell_angle_gamma   90.00000000
_symmetry_Int_Tables_number   1
_chemical_formula_structural   B20H42N4O3
_chemical_formula_sum   'B80 H168 N16 O12'
_cell_volume   2464.42876643
_cell_formula_units_Z   4
loop_
 _symmetry_equiv_pos_site_id
 _symmetry_equiv_pos_as_xyz
  1  'x, y, z'
loop_
 _atom_site_type_symbol
 _atom_site_label
 _atom_site_symmetry_multiplicity
 _atom_site_fract_x
 _atom_site_fract_y
 _atom_site_fract_z
 _atom_site_occupancy
  B  B0  1  0.26419100  0.88735000  0.17047400  1
  B  B1  1  0.26419100  0.61265000  0.67047400  1
  B  B2  1  0.73580900  0.11265000  0.82952600  1
  B  B3  1  0.73580900  0.38735000  0.32952600  1
  B  B4  1  0.27687900  0.82569400  0.10741900  1
  B  B5  1  0.27687900  0.67430600  0.60741900  1
  B  B6  1  0.72312100  0.17430600  0.89258100  1
  B  B7  1  0.72312100  0.32569400  0.39258100  1
  B  B8  1  0.19287500  0.99410100  0.11233400  1
  B  B9  1  0.19287500  0.50589900  0.61233400  1
  B  B10  1  0.80712500  0.00589900  0.88766600  1
  B  B11  1  0.80712500  0.49410100  0.38766600  1
  B  B12  1  0.32190500  0.06358500  0.17107800  1
  B  B13  1  0.32190500  0.43641500  0.67107800  1
  B  B14  1  0.67809500  0.93641500  0.82892200  1
  B  B15  1  0.67809500  0.56358500  0.32892200  1
  B  B16  1  0.40494700  0.89515900  0.16569800  1
  B  B17  1  0.40494700  0.60484100  0.66569800  1
  B  B18  1  0.59505300  0.10484100  0.83430200  1
  B  B19  1  0.59505300  0.39515900  0.33430200  1
  B  B20  1  0.25629300  0.97395300  0.05547800  1
  B  B21  1  0.25629300  0.52604700  0.55547800  1
  B  B22  1  0.74370700  0.02604700  0.94452200  1
  B  B23  1  0.74370700  0.47395300  0.44452200  1
  B  B24  1  0.28667300  0.14198300  0.10030900  1
  B  B25  1  0.28667300  0.35801700  0.60030900  1
  B  B26  1  0.71332700  0.85801700  0.89969100  1
  B  B27  1  0.71332700  0.64198300  0.39969100  1
  B  B28  1  0.43724800  0.07177700  0.13802500  1
  B  B29  1  0.43724800  0.42822300  0.63802500  1
  B  B30  1  0.56275200  0.92822300  0.86197500  1
  B  B31  1  0.56275200  0.57177700  0.36197500  1
  B  B32  1  0.40606100  0.90330500  0.09313400  1
  B  B33  1  0.40606100  0.59669500  0.59313400  1
  B  B34  1  0.59393900  0.09669500  0.90686600  1
  B  B35  1  0.59393900  0.40330500  0.40686600  1
  B  B36  1  0.38097700  0.08040400  0.06542200  1
  B  B37  1  0.38097700  0.41959600  0.56542200  1
  B  B38  1  0.61902300  0.91959600  0.93457800  1
  B  B39  1  0.61902300  0.58040400  0.43457800  1
  B  B40  1  0.28927900  0.88661700  0.44873100  1
  B  B41  1  0.28927900  0.61338300  0.94873100  1
  B  B42  1  0.71072100  0.11338300  0.55126900  1
  B  B43  1  0.71072100  0.38661700  0.05126900  1
  B  B44  1  0.26401900  0.92897700  0.37876400  1
  B  B45  1  0.26401900  0.57102300  0.87876400  1
  B  B46  1  0.73598100  0.07102300  0.62123600  1
  B  B47  1  0.73598100  0.42897700  0.12123600  1
  B  B48  1  0.14638100  0.85926800  0.40533200  1
  B  B49  1  0.14638100  0.64073200  0.90533200  1
  B  B50  1  0.85361900  0.14073200  0.59466800  1
  B  B51  1  0.85361900  0.35926800  0.09466800  1
  B  B52  1  0.18537600  0.00252400  0.46104700  1
  B  B53  1  0.18537600  0.49747600  0.96104700  1
  B  B54  1  0.81462400  0.99747600  0.53895300  1
  B  B55  1  0.81462400  0.50252400  0.03895300  1
  B  B56  1  0.30323800  0.07212900  0.43469900  1
  B  B57  1  0.30323800  0.42787100  0.93469900  1
  B  B58  1  0.69676200  0.92787100  0.56530100  1
  B  B59  1  0.69676200  0.57212900  0.06530100  1
  B  B60  1  0.10986200  0.97147000  0.34134600  1
  B  B61  1  0.10986200  0.52853000  0.84134600  1
  B  B62  1  0.89013800  0.02853000  0.65865400  1
  B  B63  1  0.89013800  0.47147000  0.15865400  1
  B  B64  1  0.05333700  0.02376200  0.39937300  1
  B  B65  1  0.05333700  0.47623800  0.89937300  1
  B  B66  1  0.94666300  0.97623800  0.60062700  1
  B  B67  1  0.94666300  0.52376200  0.10062700  1
  B  B68  1  0.16463600  0.17355100  0.41989900  1
  B  B69  1  0.16463600  0.32644900  0.91989900  1
  B  B70  1  0.83536400  0.82644900  0.58010100  1
  B  B71  1  0.83536400  0.67355100  0.08010100  1
  B  B72  1  0.22061300  0.12219400  0.36210100  1
  B  B73  1  0.22061300  0.37780600  0.86210100  1
  B  B74  1  0.77938700  0.87780600  0.63789900  1
  B  B75  1  0.77938700  0.62219400  0.13789900  1
  B  B76  1  0.07215300  0.15203600  0.35173800  1
  B  B77  1  0.07215300  0.34796400  0.85173800  1
  B  B78  1  0.92784700  0.84796400  0.64826200  1
  B  B79  1  0.92784700  0.65203600  0.14826200  1
  H  H80  1  0.02821800  0.67401200  0.97336800  1
  H  H81  1  0.02821800  0.82598800  0.47336800  1
  H  H82  1  0.97178200  0.32598800  0.02663200  1
  H  H83  1  0.97178200  0.17401200  0.52663200  1
  H  H84  1  0.93791000  0.82355700  0.96690000  1
  H  H85  1  0.93791000  0.67644300  0.46690000  1
  H  H86  1  0.06209000  0.17644300  0.03310000  1
  H  H87  1  0.06209000  0.32355700  0.53310000  1
  H  H88  1  0.07233400  0.81655700  0.01960600  1
  H  H89  1  0.07233400  0.68344300  0.51960600  1
  H  H90  1  0.92766600  0.18344300  0.98039400  1
  H  H91  1  0.92766600  0.31655700  0.48039400  1
  H  H92  1  0.95695100  0.70508800  0.02205100  1
  H  H93  1  0.95695100  0.79491200  0.52205100  1
  H  H94  1  0.04304900  0.29491200  0.97794900  1
  H  H95  1  0.04304900  0.20508800  0.47794900  1
  H  H96  1  0.73673000  0.03096800  0.12805100  1
  H  H97  1  0.73673000  0.46903200  0.62805100  1
  H  H98  1  0.26327000  0.96903200  0.87194900  1
  H  H99  1  0.26327000  0.53096800  0.37194900  1
  H  H100  1  0.59343500  0.99064000  0.08575400  1
  H  H101  1  0.59343500  0.50936000  0.58575400  1
  H  H102  1  0.40656500  0.00936000  0.91424600  1
  H  H103  1  0.40656500  0.49064000  0.41424600  1
  H  H104  1  0.68500100  0.09067400  0.05948500  1
  H  H105  1  0.68500100  0.40932600  0.55948500  1
  H  H106  1  0.31499900  0.90932600  0.94051500  1
  H  H107  1  0.31499900  0.59067400  0.44051500  1
  H  H108  1  0.71076800  0.90626100  0.07298200  1
  H  H109  1  0.71076800  0.59373900  0.57298200  1
  H  H110  1  0.28923200  0.09373900  0.92701800  1
  H  H111  1  0.28923200  0.40626100  0.42701800  1
  H  H112  1  0.12128100  0.12320500  0.25965700  1
  H  H113  1  0.12128100  0.37679500  0.75965700  1
  H  H114  1  0.87871900  0.87679500  0.74034300  1
  H  H115  1  0.87871900  0.62320500  0.24034300  1
  H  H116  1  0.13307500  0.06666600  0.19659000  1
  H  H117  1  0.13307500  0.43333400  0.69659000  1
  H  H118  1  0.86692500  0.93333400  0.80341000  1
  H  H119  1  0.86692500  0.56666600  0.30341000  1
  H  H120  1  0.12178100  0.25140600  0.20980700  1
  H  H121  1  0.12178100  0.24859400  0.70980700  1
  H  H122  1  0.87821900  0.74859400  0.79019300  1
  H  H123  1  0.87821900  0.75140600  0.29019300  1
  H  H124  1  0.00076500  0.13355400  0.20136600  1
  H  H125  1  0.00076500  0.36644600  0.70136600  1
  H  H126  1  0.99923500  0.86644600  0.79863400  1
  H  H127  1  0.99923500  0.63355400  0.29863400  1
  H  H128  1  0.12957400  0.49878300  0.18128900  1
  H  H129  1  0.12957400  0.00121700  0.68128900  1
  H  H130  1  0.87042600  0.50121700  0.81871100  1
  H  H131  1  0.87042600  0.99878300  0.31871100  1
  H  H132  1  0.26603500  0.45980800  0.20662700  1
  H  H133  1  0.26603500  0.04019200  0.70662700  1
  H  H134  1  0.73396500  0.54019200  0.79337300  1
  H  H135  1  0.73396500  0.95980800  0.29337300  1
  H  H136  1  0.52245200  0.97295500  0.26962000  1
  H  H137  1  0.52245200  0.52704500  0.76962000  1
  H  H138  1  0.47754800  0.02704500  0.73038000  1
  H  H139  1  0.47754800  0.47295500  0.23038000  1
  H  H140  1  0.57718000  0.12451800  0.29772000  1
  H  H141  1  0.57718000  0.37548200  0.79772000  1
  H  H142  1  0.42282000  0.87548200  0.70228000  1
  H  H143  1  0.42282000  0.62451800  0.20228000  1
  H  H144  1  0.56574000  0.98546400  0.37082000  1
  H  H145  1  0.56574000  0.51453600  0.87082000  1
  H  H146  1  0.43426000  0.01453600  0.62918000  1
  H  H147  1  0.43426000  0.48546400  0.12918000  1
  H  H148  1  0.47979000  0.98200100  0.41501100  1
  H  H149  1  0.47979000  0.51799900  0.91501100  1
  H  H150  1  0.52021000  0.01799900  0.58498900  1
  H  H151  1  0.52021000  0.48200100  0.08498900  1
  H  H152  1  0.62390000  0.03514200  0.44076200  1
  H  H153  1  0.62390000  0.46485800  0.94076200  1
  H  H154  1  0.37610000  0.96485800  0.55923800  1
  H  H155  1  0.37610000  0.53514200  0.05923800  1
  H  H156  1  0.58985300  0.85457500  0.42273900  1
  H  H157  1  0.58985300  0.64542500  0.92273900  1
  H  H158  1  0.41014700  0.14542500  0.57726100  1
  H  H159  1  0.41014700  0.35457500  0.07726100  1
  H  H160  1  0.80383700  0.19711800  0.19391100  1
  H  H161  1  0.80383700  0.30288200  0.69391100  1
  H  H162  1  0.19616300  0.80288200  0.80608900  1
  H  H163  1  0.19616300  0.69711800  0.30608900  1
  H  H164  1  0.82106100  0.04216400  0.22678800  1
  H  H165  1  0.82106100  0.45783600  0.72678800  1
  H  H166  1  0.17893900  0.95783600  0.77321200  1
  H  H167  1  0.17893900  0.54216400  0.27321200  1
  H  H168  1  0.22733600  0.82511300  0.20429600  1
  H  H169  1  0.22733600  0.67488700  0.70429600  1
  H  H170  1  0.77266400  0.17488700  0.79570400  1
  H  H171  1  0.77266400  0.32511300  0.29570400  1
  H  H172  1  0.24453600  0.70090700  0.09096200  1
  H  H173  1  0.24453600  0.79909300  0.59096200  1
  H  H174  1  0.75546400  0.29909300  0.90903800  1
  H  H175  1  0.75546400  0.20090700  0.40903800  1
  H  H176  1  0.08643400  0.01644300  0.10030200  1
  H  H177  1  0.08643400  0.48355700  0.60030200  1
  H  H178  1  0.91356600  0.98355700  0.89969800  1
  H  H179  1  0.91356600  0.51644300  0.39969800  1
  H  H180  1  0.32950400  0.14780100  0.20999500  1
  H  H181  1  0.32950400  0.35219900  0.70999500  1
  H  H182  1  0.67049600  0.85219900  0.79000500  1
  H  H183  1  0.67049600  0.64780100  0.29000500  1
  H  H184  1  0.48641200  0.83003600  0.20031000  1
  H  H185  1  0.48641200  0.66996400  0.70031000  1
  H  H186  1  0.51358800  0.16996400  0.79969000  1
  H  H187  1  0.51358800  0.33003600  0.29969000  1
  H  H188  1  0.19016800  0.95427500  0.00744300  1
  H  H189  1  0.19016800  0.54572500  0.50744300  1
  H  H190  1  0.80983200  0.04572500  0.99255700  1
  H  H191  1  0.80983200  0.45427500  0.49255700  1
  H  H192  1  0.24518200  0.26685800  0.09236400  1
  H  H193  1  0.24518200  0.23314200  0.59236400  1
  H  H194  1  0.75481800  0.73314200  0.90763600  1
  H  H195  1  0.75481800  0.76685800  0.40763600  1
  H  H196  1  0.52896500  0.13594400  0.16275200  1
  H  H197  1  0.52896500  0.36405600  0.66275200  1
  H  H198  1  0.47103500  0.86405600  0.83724800  1
  H  H199  1  0.47103500  0.63594400  0.33724800  1
  H  H200  1  0.47053000  0.81841500  0.07885000  1
  H  H201  1  0.47053000  0.68158500  0.57885000  1
  H  H202  1  0.52947000  0.18158500  0.92115000  1
  H  H203  1  0.52947000  0.31841500  0.42115000  1
  H  H204  1  0.41801700  0.14298700  0.03158900  1
  H  H205  1  0.41801700  0.35701300  0.53158900  1
  H  H206  1  0.58198300  0.85701300  0.96841100  1
  H  H207  1  0.58198300  0.64298700  0.46841100  1
  H  H208  1  0.35897000  0.80226200  0.48013000  1
  H  H209  1  0.35897000  0.69773800  0.98013000  1
  H  H210  1  0.64103000  0.19773800  0.51987000  1
  H  H211  1  0.64103000  0.30226200  0.01987000  1
  H  H212  1  0.32112500  0.86829300  0.35244300  1
  H  H213  1  0.32112500  0.63170700  0.85244300  1
  H  H214  1  0.67887500  0.13170700  0.64755700  1
  H  H215  1  0.67887500  0.36829300  0.14755700  1
  H  H216  1  0.10032200  0.73770300  0.40288500  1
  H  H217  1  0.10032200  0.76229700  0.90288500  1
  H  H218  1  0.89967800  0.26229700  0.59711500  1
  H  H219  1  0.89967800  0.23770300  0.09711500  1
  H  H220  1  0.17355300  0.00602300  0.50763300  1
  H  H221  1  0.17355300  0.49397700  0.00763300  1
  H  H222  1  0.82644700  0.99397700  0.49236700  1
  H  H223  1  0.82644700  0.50602300  0.99236700  1
  H  H224  1  0.39459400  0.13853100  0.45797300  1
  H  H225  1  0.39459400  0.36146900  0.95797300  1
  H  H226  1  0.60540600  0.86146900  0.54202700  1
  H  H227  1  0.60540600  0.63853100  0.04202700  1
  H  H228  1  0.06342200  0.91096900  0.29619900  1
  H  H229  1  0.06342200  0.58903100  0.79619900  1
  H  H230  1  0.93657800  0.08903100  0.70380100  1
  H  H231  1  0.93657800  0.41096900  0.20380100  1
  H  H232  1  0.95659600  0.00960700  0.40584200  1
  H  H233  1  0.95659600  0.49039300  0.90584200  1
  H  H234  1  0.04340400  0.99039300  0.59415800  1
  H  H235  1  0.04340400  0.50960700  0.09415800  1
  H  H236  1  0.16537000  0.29081500  0.44432100  1
  H  H237  1  0.16537000  0.20918500  0.94432100  1
  H  H238  1  0.83463000  0.70918500  0.55567900  1
  H  H239  1  0.83463000  0.79081500  0.05567900  1
  H  H240  1  0.27163300  0.19367100  0.33571100  1
  H  H241  1  0.27163300  0.30632900  0.83571100  1
  H  H242  1  0.72836700  0.80632900  0.66428900  1
  H  H243  1  0.72836700  0.69367100  0.16428900  1
  H  H244  1  0.00291500  0.23757300  0.32106900  1
  H  H245  1  0.00291500  0.26242700  0.82106900  1
  H  H246  1  0.99708500  0.76242700  0.67893100  1
  H  H247  1  0.99708500  0.73757300  0.17893100  1
  N  N248  1  0.99877800  0.75488700  0.99571900  1
  N  N249  1  0.99877800  0.74511300  0.49571900  1
  N  N250  1  0.00122200  0.24511300  0.00428100  1
  N  N251  1  0.00122200  0.25488700  0.50428100  1
  N  N252  1  0.68130500  0.00402400  0.08646700  1
  N  N253  1  0.68130500  0.49597600  0.58646700  1
  N  N254  1  0.31869500  0.99597600  0.91353300  1
  N  N255  1  0.31869500  0.50402400  0.41353300  1
  N  N256  1  0.09357800  0.14361200  0.21629900  1
  N  N257  1  0.09357800  0.35638800  0.71629900  1
  N  N258  1  0.90642200  0.85638800  0.78370100  1
  N  N259  1  0.90642200  0.64361200  0.28370100  1
  N  N260  1  0.56449400  0.96479100  0.41241400  1
  N  N261  1  0.56449400  0.53520900  0.91241400  1
  N  N262  1  0.43550600  0.03520900  0.58758600  1
  N  N263  1  0.43550600  0.46479100  0.08758600  1
  O  O264  1  0.18763100  0.44507400  0.21265300  1
  O  O265  1  0.18763100  0.05492600  0.71265300  1
  O  O266  1  0.81236900  0.55492600  0.78734700  1
  O  O267  1  0.81236900  0.94507400  0.28734700  1
  O  O268  1  0.58513400  0.01511400  0.30224200  1
  O  O269  1  0.58513400  0.48488600  0.80224200  1
  O  O270  1  0.41486600  0.98488600  0.69775800  1
  O  O271  1  0.41486600  0.51511400  0.19775800  1
  O  O272  1  0.83205100  0.09396300  0.19297300  1
  O  O273  1  0.83205100  0.40603700  0.69297300  1
  O  O274  1  0.16794900  0.90603700  0.80702700  1
  O  O275  1  0.16794900  0.59396300  0.30702700  1
