# generated using pymatgen
data_VPO7
_symmetry_space_group_name_H-M   'P 1'
_cell_length_a   7.48665700
_cell_length_b   7.53274100
_cell_length_c   9.72104572
_cell_angle_alpha   78.43561568
_cell_angle_beta   90.00000000
_cell_angle_gamma   90.00000000
_symmetry_Int_Tables_number   1
_chemical_formula_structural   VPO7
_chemical_formula_sum   'V4 P4 O28'
_cell_volume   537.09002750
_cell_formula_units_Z   4
loop_
 _symmetry_equiv_pos_site_id
 _symmetry_equiv_pos_as_xyz
  1  'x, y, z'
loop_
 _atom_site_type_symbol
 _atom_site_label
 _atom_site_symmetry_multiplicity
 _atom_site_fract_x
 _atom_site_fract_y
 _atom_site_fract_z
 _atom_site_occupancy
  V  V0  1  0.15000800  0.50871300  0.28088500  1
  V  V1  1  0.65000800  0.49128700  0.21911500  1
  V  V2  1  0.84999200  0.49128700  0.71911500  1
  V  V3  1  0.34999200  0.50871300  0.78088500  1
  P  P4  1  0.15765500  0.74454900  0.52220700  1
  P  P5  1  0.65765500  0.25545100  0.97779300  1
  P  P6  1  0.84234500  0.25545100  0.47779300  1
  P  P7  1  0.34234500  0.74454900  0.02220700  1
  O  O8  1  0.14537100  0.69808200  0.36952600  1
  O  O9  1  0.64537100  0.30191800  0.13047400  1
  O  O10  1  0.85462900  0.30191800  0.63047400  1
  O  O11  1  0.35462900  0.69808200  0.86952600  1
  O  O12  1  0.31753800  0.62277600  0.59728100  1
  O  O13  1  0.81753800  0.37722400  0.90271900  1
  O  O14  1  0.68246200  0.37722400  0.40271900  1
  O  O15  1  0.18246200  0.62277600  0.09728100  1
  O  O16  1  0.98156400  0.65812900  0.59579200  1
  O  O17  1  0.48156400  0.34187100  0.90420800  1
  O  O18  1  0.01843600  0.34187100  0.40420800  1
  O  O19  1  0.51843600  0.65812900  0.09579200  1
  O  O20  1  0.18701500  0.93842300  0.51868300  1
  O  O21  1  0.68701500  0.06157700  0.98131700  1
  O  O22  1  0.81298500  0.06157700  0.48131700  1
  O  O23  1  0.31298500  0.93842300  0.01868300  1
  O  O24  1  0.10087000  0.22110300  0.14896300  1
  O  O25  1  0.60087000  0.77889700  0.35103700  1
  O  O26  1  0.89913000  0.77889700  0.85103700  1
  O  O27  1  0.39913000  0.22110300  0.64896300  1
  O  O28  1  0.14599900  0.43280600  0.80885400  1
  O  O29  1  0.64599900  0.56719400  0.69114600  1
  O  O30  1  0.85400100  0.56719400  0.19114600  1
  O  O31  1  0.35400100  0.43280600  0.30885400  1
  O  O32  1  0.50990100  0.91360800  0.30504400  1
  O  O33  1  0.00990100  0.08639200  0.19495600  1
  O  O34  1  0.49009900  0.08639200  0.69495600  1
  O  O35  1  0.99009900  0.91360800  0.80504400  1
