# generated using pymatgen
data_Mg(B3O8)2
_symmetry_space_group_name_H-M   'P 1'
_cell_length_a   9.95677600
_cell_length_b   10.89260500
_cell_length_c   10.92902684
_cell_angle_alpha   89.46421584
_cell_angle_beta   90.00000000
_cell_angle_gamma   90.00000000
_symmetry_Int_Tables_number   1
_chemical_formula_structural   Mg(B3O8)2
_chemical_formula_sum   'Mg4 B24 O64'
_cell_volume   1185.25827396
_cell_formula_units_Z   4
loop_
 _symmetry_equiv_pos_site_id
 _symmetry_equiv_pos_as_xyz
  1  'x, y, z'
loop_
 _atom_site_type_symbol
 _atom_site_label
 _atom_site_symmetry_multiplicity
 _atom_site_fract_x
 _atom_site_fract_y
 _atom_site_fract_z
 _atom_site_occupancy
  Mg  Mg0  1  0.50000000  0.00000000  0.50000000  1
  Mg  Mg1  1  0.00000000  0.50000000  0.50000000  1
  Mg  Mg2  1  0.50000000  0.50000000  0.00000000  1
  Mg  Mg3  1  0.00000000  0.00000000  0.00000000  1
  B  B4  1  0.38441100  0.79470400  0.71189700  1
  B  B5  1  0.88441100  0.70529600  0.28810300  1
  B  B6  1  0.61558900  0.20529600  0.28810300  1
  B  B7  1  0.11558900  0.29470400  0.71189700  1
  B  B8  1  0.60739000  0.73240700  0.61718800  1
  B  B9  1  0.10739000  0.76759300  0.38281200  1
  B  B10  1  0.39261000  0.26759300  0.38281200  1
  B  B11  1  0.89261000  0.23240700  0.61718800  1
  B  B12  1  0.59620900  0.90127000  0.77600800  1
  B  B13  1  0.09620900  0.59873000  0.22399200  1
  B  B14  1  0.40379100  0.09873000  0.22399200  1
  B  B15  1  0.90379100  0.40127000  0.77600800  1
  B  B16  1  0.40277000  0.60700700  0.59309500  1
  B  B17  1  0.90277000  0.89299300  0.40690500  1
  B  B18  1  0.59723000  0.39299300  0.40690500  1
  B  B19  1  0.09723000  0.10700700  0.59309500  1
  B  B20  1  0.39876100  0.89644200  0.91036700  1
  B  B21  1  0.89876100  0.60355800  0.08963300  1
  B  B22  1  0.60123900  0.10355800  0.08963300  1
  B  B23  1  0.10123900  0.39644200  0.91036700  1
  B  B24  1  0.80334100  0.80056500  0.72321300  1
  B  B25  1  0.30334100  0.69943500  0.27678700  1
  B  B26  1  0.19665900  0.19943500  0.27678700  1
  B  B27  1  0.69665900  0.30056500  0.72321300  1
  O  O28  1  0.38215700  0.89026300  0.61375200  1
  O  O29  1  0.88215700  0.60973700  0.38624800  1
  O  O30  1  0.61784300  0.10973700  0.38624800  1
  O  O31  1  0.11784300  0.39026300  0.61375200  1
  O  O32  1  0.58468700  0.83247900  0.52824900  1
  O  O33  1  0.08468700  0.66752100  0.47175100  1
  O  O34  1  0.41531300  0.16752100  0.47175100  1
  O  O35  1  0.91531300  0.33247900  0.52824900  1
  O  O36  1  0.56803500  0.98719600  0.67530000  1
  O  O37  1  0.06803500  0.51280400  0.32470000  1
  O  O38  1  0.43196500  0.01280400  0.32470000  1
  O  O39  1  0.93196500  0.48719600  0.67530000  1
  O  O40  1  0.32962900  0.51913800  0.53385700  1
  O  O41  1  0.82962900  0.98086200  0.46614300  1
  O  O42  1  0.67037100  0.48086200  0.46614300  1
  O  O43  1  0.17037100  0.01913800  0.53385700  1
  O  O44  1  0.34437600  0.90339100  0.02653100  1
  O  O45  1  0.84437600  0.59660900  0.97346900  1
  O  O46  1  0.65562400  0.09660900  0.97346900  1
  O  O47  1  0.15562400  0.40339100  0.02653100  1
  O  O48  1  0.95262300  0.79340600  0.73300000  1
  O  O49  1  0.45262300  0.70659400  0.26700000  1
  O  O50  1  0.04737700  0.20659400  0.26700000  1
  O  O51  1  0.54737700  0.29340600  0.73300000  1
  O  O52  1  0.61243100  0.61173900  0.89009100  1
  O  O53  1  0.11243100  0.88826100  0.10990900  1
  O  O54  1  0.38756900  0.38826100  0.10990900  1
  O  O55  1  0.88756900  0.11173900  0.89009100  1
  O  O56  1  0.33851900  0.60810400  0.00777400  1
  O  O57  1  0.83851900  0.89189600  0.99222600  1
  O  O58  1  0.66148100  0.39189600  0.99222600  1
  O  O59  1  0.16148100  0.10810400  0.00777400  1
  O  O60  1  0.48901500  0.35100300  0.82305300  1
  O  O61  1  0.98901500  0.14899700  0.17694700  1
  O  O62  1  0.51098500  0.64899700  0.17694700  1
  O  O63  1  0.01098500  0.85100300  0.82305300  1
  O  O64  1  0.53714700  0.77732600  0.73529200  1
  O  O65  1  0.03714700  0.72267400  0.26470800  1
  O  O66  1  0.46285300  0.22267400  0.26470800  1
  O  O67  1  0.96285300  0.27732600  0.73529200  1
  O  O68  1  0.32279000  0.84033800  0.82202700  1
  O  O69  1  0.82279000  0.65966200  0.17797300  1
  O  O70  1  0.67721000  0.15966200  0.17797300  1
  O  O71  1  0.17721000  0.34033800  0.82202700  1
  O  O72  1  0.32908500  0.68199900  0.66900300  1
  O  O73  1  0.82908500  0.81800100  0.33099700  1
  O  O74  1  0.67091500  0.31800100  0.33099700  1
  O  O75  1  0.17091500  0.18199900  0.66900300  1
  O  O76  1  0.54019900  0.62157600  0.57834900  1
  O  O77  1  0.04019900  0.87842400  0.42165100  1
  O  O78  1  0.45980100  0.37842400  0.42165100  1
  O  O79  1  0.95980100  0.12157600  0.57834900  1
  O  O80  1  0.75116800  0.72154300  0.64288800  1
  O  O81  1  0.25116800  0.77845700  0.35711200  1
  O  O82  1  0.24883200  0.27845700  0.35711200  1
  O  O83  1  0.74883200  0.22154300  0.64288800  1
  O  O84  1  0.52925400  0.93403100  0.88801800  1
  O  O85  1  0.02925400  0.56596900  0.11198200  1
  O  O86  1  0.47074600  0.06596900  0.11198200  1
  O  O87  1  0.97074600  0.43403100  0.88801800  1
  O  O88  1  0.74120500  0.88749200  0.78875700  1
  O  O89  1  0.24120500  0.61250800  0.21124300  1
  O  O90  1  0.25879500  0.11250800  0.21124300  1
  O  O91  1  0.75879500  0.38749200  0.78875700  1
