# generated using pymatgen
data_Ni3Te(MoO7)6
_symmetry_space_group_name_H-M   'P 1'
_cell_length_a   11.70030803
_cell_length_b   11.70030803
_cell_length_c   11.70030774
_cell_angle_alpha   98.41423743
_cell_angle_beta   98.41423743
_cell_angle_gamma   98.41423529
_symmetry_Int_Tables_number   1
_chemical_formula_structural   Ni3Te(MoO7)6
_chemical_formula_sum   'Ni6 Te2 Mo12 O84'
_cell_volume   1544.24397852
_cell_formula_units_Z   2
loop_
 _symmetry_equiv_pos_site_id
 _symmetry_equiv_pos_as_xyz
  1  'x, y, z'
loop_
 _atom_site_type_symbol
 _atom_site_label
 _atom_site_symmetry_multiplicity
 _atom_site_fract_x
 _atom_site_fract_y
 _atom_site_fract_z
 _atom_site_occupancy
  Ni  Ni0  1  0.75000000  0.91991000  0.58009000  1
  Ni  Ni1  1  0.58009000  0.75000000  0.91991000  1
  Ni  Ni2  1  0.91991000  0.58009000  0.75000000  1
  Ni  Ni3  1  0.08009000  0.41991000  0.25000000  1
  Ni  Ni4  1  0.25000000  0.08009000  0.41991000  1
  Ni  Ni5  1  0.41991000  0.25000000  0.08009000  1
  Te  Te6  1  0.00000000  0.00000000  0.00000000  1
  Te  Te7  1  0.50000000  0.50000000  0.50000000  1
  Mo  Mo8  1  0.82302400  0.19933100  0.96788700  1
  Mo  Mo9  1  0.96788700  0.82302400  0.19933100  1
  Mo  Mo10  1  0.19933100  0.96788700  0.82302400  1
  Mo  Mo11  1  0.46788700  0.69933100  0.32302400  1
  Mo  Mo12  1  0.32302400  0.46788700  0.69933100  1
  Mo  Mo13  1  0.69933100  0.32302400  0.46788700  1
  Mo  Mo14  1  0.17697600  0.80066900  0.03211300  1
  Mo  Mo15  1  0.03211300  0.17697600  0.80066900  1
  Mo  Mo16  1  0.80066900  0.03211300  0.17697600  1
  Mo  Mo17  1  0.53211300  0.30066900  0.67697600  1
  Mo  Mo18  1  0.67697600  0.53211300  0.30066900  1
  Mo  Mo19  1  0.30066900  0.67697600  0.53211300  1
  O  O20  1  0.83193900  0.00718700  0.98295100  1
  O  O21  1  0.98295100  0.83193900  0.00718700  1
  O  O22  1  0.00718700  0.98295100  0.83193900  1
  O  O23  1  0.48295100  0.50718700  0.33193900  1
  O  O24  1  0.33193900  0.48295100  0.50718700  1
  O  O25  1  0.50718700  0.33193900  0.48295100  1
  O  O26  1  0.16806100  0.99281300  0.01704900  1
  O  O27  1  0.01704900  0.16806100  0.99281300  1
  O  O28  1  0.99281300  0.01704900  0.16806100  1
  O  O29  1  0.51704900  0.49281300  0.66806100  1
  O  O30  1  0.66806100  0.51704900  0.49281300  1
  O  O31  1  0.49281300  0.66806100  0.51704900  1
  O  O32  1  0.86291200  0.15876800  0.81265800  1
  O  O33  1  0.81265800  0.86291200  0.15876800  1
  O  O34  1  0.15876800  0.81265800  0.86291200  1
  O  O35  1  0.31265800  0.65876800  0.36291200  1
  O  O36  1  0.36291200  0.31265800  0.65876800  1
  O  O37  1  0.65876800  0.36291200  0.31265800  1
  O  O38  1  0.13708800  0.84123200  0.18734200  1
  O  O39  1  0.18734200  0.13708800  0.84123200  1
  O  O40  1  0.84123200  0.18734200  0.13708800  1
  O  O41  1  0.68734200  0.34123200  0.63708800  1
  O  O42  1  0.63708800  0.68734200  0.34123200  1
  O  O43  1  0.34123200  0.63708800  0.68734200  1
  O  O44  1  0.67218000  0.16787200  0.93196300  1
  O  O45  1  0.93196300  0.67218000  0.16787200  1
  O  O46  1  0.16787200  0.93196300  0.67218000  1
  O  O47  1  0.43196300  0.66787200  0.17218000  1
  O  O48  1  0.17218000  0.43196300  0.66787200  1
  O  O49  1  0.66787200  0.17218000  0.43196300  1
  O  O50  1  0.32782000  0.83212800  0.06803700  1
  O  O51  1  0.06803700  0.32782000  0.83212800  1
  O  O52  1  0.83212800  0.06803700  0.32782000  1
  O  O53  1  0.56803700  0.33212800  0.82782000  1
  O  O54  1  0.82782000  0.56803700  0.33212800  1
  O  O55  1  0.33212800  0.82782000  0.56803700  1
  O  O56  1  0.86192500  0.35402300  0.99081200  1
  O  O57  1  0.99081200  0.86192500  0.35402300  1
  O  O58  1  0.35402300  0.99081200  0.86192500  1
  O  O59  1  0.49081200  0.85402300  0.36192500  1
  O  O60  1  0.36192500  0.49081200  0.85402300  1
  O  O61  1  0.85402300  0.36192500  0.49081200  1
  O  O62  1  0.13807500  0.64597700  0.00918800  1
  O  O63  1  0.00918800  0.13807500  0.64597700  1
  O  O64  1  0.64597700  0.00918800  0.13807500  1
  O  O65  1  0.50918800  0.14597700  0.63807500  1
  O  O66  1  0.63807500  0.50918800  0.14597700  1
  O  O67  1  0.14597700  0.63807500  0.50918800  1
  O  O68  1  0.65111000  0.82177500  0.64818200  1
  O  O69  1  0.64818200  0.65111000  0.82177500  1
  O  O70  1  0.82177500  0.64818200  0.65111000  1
  O  O71  1  0.14818200  0.32177500  0.15111000  1
  O  O72  1  0.15111000  0.14818200  0.32177500  1
  O  O73  1  0.32177500  0.15111000  0.14818200  1
  O  O74  1  0.34889000  0.17822500  0.35181800  1
  O  O75  1  0.35181800  0.34889000  0.17822500  1
  O  O76  1  0.17822500  0.35181800  0.34889000  1
  O  O77  1  0.85181800  0.67822500  0.84889000  1
  O  O78  1  0.84889000  0.85181800  0.67822500  1
  O  O79  1  0.67822500  0.84889000  0.85181800  1
  O  O80  1  0.79774400  0.81202500  0.47715100  1
  O  O81  1  0.47715100  0.79774400  0.81202500  1
  O  O82  1  0.81202500  0.47715100  0.79774400  1
  O  O83  1  0.97715100  0.31202500  0.29774400  1
  O  O84  1  0.29774400  0.97715100  0.31202500  1
  O  O85  1  0.31202500  0.29774400  0.97715100  1
  O  O86  1  0.20225600  0.18797500  0.52284900  1
  O  O87  1  0.52284900  0.20225600  0.18797500  1
  O  O88  1  0.18797500  0.52284900  0.20225600  1
  O  O89  1  0.02284900  0.68797500  0.70225600  1
  O  O90  1  0.70225600  0.02284900  0.68797500  1
  O  O91  1  0.68797500  0.70225600  0.02284900  1
  O  O92  1  0.63858400  0.97214000  0.48281900  1
  O  O93  1  0.48281900  0.63858400  0.97214000  1
  O  O94  1  0.97214000  0.48281900  0.63858400  1
  O  O95  1  0.98281900  0.47214000  0.13858400  1
  O  O96  1  0.13858400  0.98281900  0.47214000  1
  O  O97  1  0.47214000  0.13858400  0.98281900  1
  O  O98  1  0.36141600  0.02786000  0.51718100  1
  O  O99  1  0.51718100  0.36141600  0.02786000  1
  O  O100  1  0.02786000  0.51718100  0.36141600  1
  O  O101  1  0.01718100  0.52786000  0.86141600  1
  O  O102  1  0.86141600  0.01718100  0.52786000  1
  O  O103  1  0.52786000  0.86141600  0.01718100  1
