# generated using pymatgen
data_Ge(SeO3)2
_symmetry_space_group_name_H-M   'P 1'
_cell_length_a   7.91220300
_cell_length_b   7.91220300
_cell_length_c   7.91220300
_cell_angle_alpha   90.00000000
_cell_angle_beta   90.00000000
_cell_angle_gamma   90.00000000
_symmetry_Int_Tables_number   1
_chemical_formula_structural   Ge(SeO3)2
_chemical_formula_sum   'Ge4 Se8 O24'
_cell_volume   495.32729875
_cell_formula_units_Z   4
loop_
 _symmetry_equiv_pos_site_id
 _symmetry_equiv_pos_as_xyz
  1  'x, y, z'
loop_
 _atom_site_type_symbol
 _atom_site_label
 _atom_site_symmetry_multiplicity
 _atom_site_fract_x
 _atom_site_fract_y
 _atom_site_fract_z
 _atom_site_occupancy
  Ge  Ge0  1  0.50000000  0.50000000  0.50000000  1
  Ge  Ge1  1  0.50000000  0.00000000  0.00000000  1
  Ge  Ge2  1  0.00000000  0.50000000  0.00000000  1
  Ge  Ge3  1  0.00000000  0.00000000  0.50000000  1
  Se  Se4  1  0.82992300  0.67007700  0.32992300  1
  Se  Se5  1  0.17007700  0.17007700  0.17007700  1
  Se  Se6  1  0.67007700  0.32992300  0.82992300  1
  Se  Se7  1  0.32992300  0.82992300  0.67007700  1
  Se  Se8  1  0.17007700  0.32992300  0.67007700  1
  Se  Se9  1  0.82992300  0.82992300  0.82992300  1
  Se  Se10  1  0.32992300  0.67007700  0.17007700  1
  Se  Se11  1  0.67007700  0.17007700  0.32992300  1
  O  O12  1  0.73953400  0.52812200  0.47282100  1
  O  O13  1  0.26046600  0.02812200  0.02717900  1
  O  O14  1  0.76046600  0.47187800  0.97282100  1
  O  O15  1  0.23953400  0.97187800  0.52717900  1
  O  O16  1  0.47282100  0.73953400  0.52812200  1
  O  O17  1  0.02717900  0.26046600  0.02812200  1
  O  O18  1  0.97282100  0.76046600  0.47187800  1
  O  O19  1  0.52717900  0.23953400  0.97187800  1
  O  O20  1  0.52812200  0.47282100  0.73953400  1
  O  O21  1  0.02812200  0.02717900  0.26046600  1
  O  O22  1  0.47187800  0.97282100  0.76046600  1
  O  O23  1  0.97187800  0.52717900  0.23953400  1
  O  O24  1  0.26046600  0.47187800  0.52717900  1
  O  O25  1  0.73953400  0.97187800  0.97282100  1
  O  O26  1  0.23953400  0.52812200  0.02717900  1
  O  O27  1  0.76046600  0.02812200  0.47282100  1
  O  O28  1  0.52717900  0.26046600  0.47187800  1
  O  O29  1  0.97282100  0.73953400  0.97187800  1
  O  O30  1  0.02717900  0.23953400  0.52812200  1
  O  O31  1  0.47282100  0.76046600  0.02812200  1
  O  O32  1  0.47187800  0.52717900  0.26046600  1
  O  O33  1  0.97187800  0.97282100  0.73953400  1
  O  O34  1  0.52812200  0.02717900  0.23953400  1
  O  O35  1  0.02812200  0.47282100  0.76046600  1
