# generated using pymatgen
data_Th2BPO8
_symmetry_space_group_name_H-M   'P 1'
_cell_length_a   8.01604500
_cell_length_b   8.29988600
_cell_length_c   8.55548004
_cell_angle_alpha   76.48198328
_cell_angle_beta   90.00000000
_cell_angle_gamma   90.00000000
_symmetry_Int_Tables_number   1
_chemical_formula_structural   Th2BPO8
_chemical_formula_sum   'Th8 B4 P4 O32'
_cell_volume   553.44614038
_cell_formula_units_Z   4
loop_
 _symmetry_equiv_pos_site_id
 _symmetry_equiv_pos_as_xyz
  1  'x, y, z'
loop_
 _atom_site_type_symbol
 _atom_site_label
 _atom_site_symmetry_multiplicity
 _atom_site_fract_x
 _atom_site_fract_y
 _atom_site_fract_z
 _atom_site_occupancy
  Th  Th0  1  0.19522900  0.45778100  0.18265000  1
  Th  Th1  1  0.69522900  0.04221900  0.81735000  1
  Th  Th2  1  0.80477100  0.54221900  0.81735000  1
  Th  Th3  1  0.30477100  0.95778100  0.18265000  1
  Th  Th4  1  0.81689800  0.07737000  0.24076700  1
  Th  Th5  1  0.31689800  0.42263000  0.75923300  1
  Th  Th6  1  0.18310200  0.92263000  0.75923300  1
  Th  Th7  1  0.68310200  0.57737000  0.24076700  1
  B  B8  1  0.55839800  0.28260100  0.03159200  1
  B  B9  1  0.05839800  0.21739900  0.96840800  1
  B  B10  1  0.44160200  0.71739900  0.96840800  1
  B  B11  1  0.94160200  0.78260100  0.03159200  1
  P  P12  1  0.95420600  0.28314300  0.54389100  1
  P  P13  1  0.45420600  0.21685700  0.45610900  1
  P  P14  1  0.04579400  0.71685700  0.45610900  1
  P  P15  1  0.54579400  0.78314300  0.54389100  1
  O  O16  1  0.39242100  0.34492600  0.05616300  1
  O  O17  1  0.89242100  0.15507400  0.94383700  1
  O  O18  1  0.60757900  0.65507400  0.94383700  1
  O  O19  1  0.10757900  0.84492600  0.05616300  1
  O  O20  1  0.56578000  0.09813600  0.08863700  1
  O  O21  1  0.06578000  0.40186400  0.91136300  1
  O  O22  1  0.43422000  0.90186400  0.91136300  1
  O  O23  1  0.93422000  0.59813600  0.08863700  1
  O  O24  1  0.69868500  0.35062600  0.10928800  1
  O  O25  1  0.19868500  0.14937400  0.89071200  1
  O  O26  1  0.30131500  0.64937400  0.89071200  1
  O  O27  1  0.80131500  0.85062600  0.10928800  1
  O  O28  1  0.08660500  0.17759800  0.14503600  1
  O  O29  1  0.58660500  0.32240200  0.85496400  1
  O  O30  1  0.91339500  0.82240200  0.85496400  1
  O  O31  1  0.41339500  0.67759800  0.14503600  1
  O  O32  1  0.81080100  0.34663600  0.63359900  1
  O  O33  1  0.31080100  0.15336400  0.36640100  1
  O  O34  1  0.18919900  0.65336400  0.36640100  1
  O  O35  1  0.68919900  0.84663600  0.63359900  1
  O  O36  1  0.62638900  0.14694000  0.42905200  1
  O  O37  1  0.12638900  0.35306000  0.57094800  1
  O  O38  1  0.37361100  0.85306000  0.57094800  1
  O  O39  1  0.87361100  0.64694000  0.42905200  1
  O  O40  1  0.45189900  0.40832500  0.38884300  1
  O  O41  1  0.95189900  0.09167500  0.61115700  1
  O  O42  1  0.54810100  0.59167500  0.61115700  1
  O  O43  1  0.04810100  0.90832500  0.38884300  1
  O  O44  1  0.92433000  0.32705500  0.35761500  1
  O  O45  1  0.42433000  0.17294500  0.64238500  1
  O  O46  1  0.07567000  0.67294500  0.64238500  1
  O  O47  1  0.57567000  0.82705500  0.35761500  1
