# generated using pymatgen
data_NaZn(PO3)3
_symmetry_space_group_name_H-M   'P 1'
_cell_length_a   14.44226090
_cell_length_b   14.52646049
_cell_length_c   14.46966846
_cell_angle_alpha   90.00000000
_cell_angle_beta   90.00000000
_cell_angle_gamma   90.00000000
_symmetry_Int_Tables_number   1
_chemical_formula_structural   NaZn(PO3)3
_chemical_formula_sum   'Na16 Zn16 P48 O144'
_cell_volume   3035.66311569
_cell_formula_units_Z   16
loop_
 _symmetry_equiv_pos_site_id
 _symmetry_equiv_pos_as_xyz
  1  'x, y, z'
loop_
 _atom_site_type_symbol
 _atom_site_label
 _atom_site_symmetry_multiplicity
 _atom_site_fract_x
 _atom_site_fract_y
 _atom_site_fract_z
 _atom_site_occupancy
  Na  Na0  1  0.50000000  0.50000000  -0.00000000  1
  Na  Na1  1  -0.00000000  0.00000000  -0.00000000  1
  Na  Na2  1  -0.00000000  0.50000000  0.50000000  1
  Na  Na3  1  0.50000000  0.00000000  0.50000000  1
  Na  Na4  1  0.50000000  0.00000000  -0.00000000  1
  Na  Na5  1  -0.00000000  0.50000000  -0.00000000  1
  Na  Na6  1  -0.00000000  0.00000000  0.50000000  1
  Na  Na7  1  0.50000000  0.50000000  0.50000000  1
  Na  Na8  1  0.74177033  0.25661245  0.75313616  1
  Na  Na9  1  0.75822967  0.75661245  0.24686384  1
  Na  Na10  1  0.24177033  0.74338755  0.74686384  1
  Na  Na11  1  0.25822967  0.24338755  0.25313616  1
  Na  Na12  1  0.25822967  0.74338755  0.24686384  1
  Na  Na13  1  0.24177033  0.24338755  0.75313616  1
  Na  Na14  1  0.75822967  0.25661245  0.25313616  1
  Na  Na15  1  0.74177033  0.75661245  0.74686384  1
  Zn  Zn16  1  0.88418207  0.37272707  0.63094667  1
  Zn  Zn17  1  0.61581793  0.87272707  0.36905333  1
  Zn  Zn18  1  0.38418207  0.62727293  0.86905333  1
  Zn  Zn19  1  0.11581793  0.12727293  0.13094667  1
  Zn  Zn20  1  0.11581793  0.62727293  0.36905333  1
  Zn  Zn21  1  0.38418207  0.12727293  0.63094667  1
  Zn  Zn22  1  0.61581793  0.37272707  0.13094667  1
  Zn  Zn23  1  0.88418207  0.87272707  0.86905333  1
  Zn  Zn24  1  0.63274966  0.11956875  0.88412313  1
  Zn  Zn25  1  0.86725034  0.61956875  0.11587687  1
  Zn  Zn26  1  0.13274966  0.88043125  0.61587687  1
  Zn  Zn27  1  0.36725034  0.38043125  0.38412313  1
  Zn  Zn28  1  0.36725034  0.88043125  0.11587687  1
  Zn  Zn29  1  0.13274966  0.38043125  0.88412313  1
  Zn  Zn30  1  0.86725034  0.11956875  0.38412313  1
  Zn  Zn31  1  0.63274966  0.61956875  0.61587687  1
  P  P32  1  0.75481356  0.47429849  0.97655554  1
  P  P33  1  0.74518644  0.97429849  0.02344446  1
  P  P34  1  0.25481356  0.52570151  0.52344446  1
  P  P35  1  0.24518644  0.02570151  0.47655554  1
  P  P36  1  0.24518644  0.52570151  0.02344446  1
  P  P37  1  0.25481356  0.02570151  0.97655554  1
  P  P38  1  0.74518644  0.47429849  0.47655554  1
  P  P39  1  0.75481356  0.97429849  0.52344446  1
  P  P40  1  0.77377592  0.27288407  0.00092028  1
  P  P41  1  0.72622408  0.77288407  0.99907972  1
  P  P42  1  0.27377592  0.72711593  0.49907972  1
  P  P43  1  0.22622408  0.22711593  0.50092028  1
  P  P44  1  0.22622408  0.72711593  0.99907972  1
  P  P45  1  0.27377592  0.22711593  0.00092028  1
  P  P46  1  0.72622408  0.27288407  0.50092028  1
  P  P47  1  0.77377592  0.77288407  0.49907972  1
  P  P48  1  0.97818750  0.23935349  0.97931672  1
  P  P49  1  0.52181250  0.73935349  0.02068328  1
  P  P50  1  0.47818750  0.76064651  0.52068328  1
  P  P51  1  0.02181250  0.26064651  0.47931672  1
  P  P52  1  0.02181250  0.76064651  0.02068328  1
  P  P53  1  0.47818750  0.26064651  0.97931672  1
  P  P54  1  0.52181250  0.23935349  0.47931672  1
  P  P55  1  0.97818750  0.73935349  0.52068328  1
  P  P56  1  0.99930557  0.22701417  0.77836533  1
  P  P57  1  0.50069443  0.72701417  0.22163467  1
  P  P58  1  0.49930557  0.77298583  0.72163467  1
  P  P59  1  0.00069443  0.27298583  0.27836533  1
  P  P60  1  0.00069443  0.77298583  0.22163467  1
  P  P61  1  0.49930557  0.27298583  0.77836533  1
  P  P62  1  0.50069443  0.22701417  0.27836533  1
  P  P63  1  0.99930557  0.72701417  0.72163467  1
  P  P64  1  0.98083767  0.02504324  0.73589789  1
  P  P65  1  0.51916233  0.52504324  0.26410211  1
  P  P66  1  0.48083767  0.97495676  0.76410211  1
  P  P67  1  0.01916233  0.47495676  0.23589789  1
  P  P68  1  0.01916233  0.97495676  0.26410211  1
  P  P69  1  0.48083767  0.47495676  0.73589789  1
  P  P70  1  0.51916233  0.02504324  0.23589789  1
  P  P71  1  0.98083767  0.52504324  0.76410211  1
  P  P72  1  0.77832057  0.01262214  0.72561460  1
  P  P73  1  0.72167943  0.51262214  0.27438540  1
  P  P74  1  0.27832057  0.98737786  0.77438540  1
  P  P75  1  0.22167943  0.48737786  0.22561460  1
  P  P76  1  0.22167943  0.98737786  0.27438540  1
  P  P77  1  0.27832057  0.48737786  0.72561460  1
  P  P78  1  0.72167943  0.01262214  0.22561460  1
  P  P79  1  0.77832057  0.51262214  0.77438540  1
  O  O80  1  0.72879967  0.01075729  0.62556072  1
  O  O81  1  0.77120033  0.51075729  0.37443928  1
  O  O82  1  0.22879967  0.98924271  0.87443928  1
  O  O83  1  0.27120033  0.48924271  0.12556072  1
  O  O84  1  0.27120033  0.98924271  0.37443928  1
  O  O85  1  0.22879967  0.48924271  0.62556072  1
  O  O86  1  0.77120033  0.01075729  0.12556072  1
  O  O87  1  0.72879967  0.51075729  0.87443928  1
  O  O88  1  0.83366489  0.47234824  0.53062034  1
  O  O89  1  0.66633511  0.97234824  0.46937966  1
  O  O90  1  0.33366489  0.52765176  0.96937966  1
  O  O91  1  0.16633511  0.02765176  0.03062034  1
  O  O92  1  0.16633511  0.52765176  0.46937966  1
  O  O93  1  0.33366489  0.02765176  0.53062034  1
  O  O94  1  0.66633511  0.47234824  0.03062034  1
  O  O95  1  0.83366489  0.97234824  0.96937966  1
  O  O96  1  0.66273892  0.02571711  0.98686274  1
  O  O97  1  0.83726108  0.52571711  0.01313726  1
  O  O98  1  0.16273892  0.97428289  0.51313726  1
  O  O99  1  0.33726108  0.47428289  0.48686274  1
  O  O100  1  0.33726108  0.97428289  0.01313726  1
  O  O101  1  0.16273892  0.47428289  0.98686274  1
  O  O102  1  0.83726108  0.02571711  0.48686274  1
  O  O103  1  0.66273892  0.52571711  0.51313726  1
  O  O104  1  0.78992998  0.37151392  0.95165541  1
  O  O105  1  0.71007002  0.87151392  0.04834459  1
  O  O106  1  0.28992998  0.62848608  0.54834459  1
  O  O107  1  0.21007002  0.12848608  0.45165541  1
  O  O108  1  0.21007002  0.62848608  0.04834459  1
  O  O109  1  0.28992998  0.12848608  0.95165541  1
  O  O110  1  0.71007002  0.37151392  0.45165541  1
  O  O111  1  0.78992998  0.87151392  0.54834459  1
  O  O112  1  0.77584490  0.28291726  0.59157194  1
  O  O113  1  0.72415510  0.78291726  0.40842806  1
  O  O114  1  0.27584490  0.71708274  0.90842806  1
  O  O115  1  0.22415510  0.21708274  0.09157194  1
  O  O116  1  0.22415510  0.71708274  0.40842806  1
  O  O117  1  0.27584490  0.21708274  0.59157194  1
  O  O118  1  0.72415510  0.28291726  0.09157194  1
  O  O119  1  0.77584490  0.78291726  0.90842806  1
  O  O120  1  0.73763444  0.21062330  0.92682742  1
  O  O121  1  0.76236556  0.71062330  0.07317258  1
  O  O122  1  0.23763444  0.78937670  0.57317258  1
  O  O123  1  0.26236556  0.28937670  0.42682742  1
  O  O124  1  0.26236556  0.78937670  0.07317258  1
  O  O125  1  0.23763444  0.28937670  0.92682742  1
  O  O126  1  0.76236556  0.21062330  0.42682742  1
  O  O127  1  0.73763444  0.71062330  0.57317258  1
  O  O128  1  0.62162453  0.24500688  0.52831860  1
  O  O129  1  0.87837547  0.74500688  0.47168140  1
  O  O130  1  0.12162453  0.75499312  0.97168140  1
  O  O131  1  0.37837547  0.25499312  0.02831860  1
  O  O132  1  0.37837547  0.75499312  0.47168140  1
  O  O133  1  0.12162453  0.25499312  0.52831860  1
  O  O134  1  0.87837547  0.24500688  0.02831860  1
  O  O135  1  0.62162453  0.74500688  0.97168140  1
  O  O136  1  0.97305737  0.34077028  0.52324407  1
  O  O137  1  0.52694263  0.84077028  0.47675593  1
  O  O138  1  0.47305737  0.65922972  0.97675593  1
  O  O139  1  0.02694263  0.15922972  0.02324407  1
  O  O140  1  0.02694263  0.65922972  0.47675593  1
  O  O141  1  0.47305737  0.15922972  0.52324407  1
  O  O142  1  0.52694263  0.34077028  0.02324407  1
  O  O143  1  0.97305737  0.84077028  0.97675593  1
  O  O144  1  0.52323793  0.16760312  0.97675535  1
  O  O145  1  0.97676207  0.66760312  0.02324465  1
  O  O146  1  0.02323793  0.83239688  0.52324465  1
  O  O147  1  0.47676207  0.33239688  0.47675535  1
  O  O148  1  0.47676207  0.83239688  0.02324465  1
  O  O149  1  0.02323793  0.33239688  0.97675535  1
  O  O150  1  0.97676207  0.16760312  0.47675535  1
  O  O151  1  0.52323793  0.66760312  0.52324465  1
  O  O152  1  0.94878921  0.20732044  0.87604762  1
  O  O153  1  0.55121079  0.70732044  0.12395238  1
  O  O154  1  0.44878921  0.79267956  0.62395238  1
  O  O155  1  0.05121079  0.29267956  0.37604762  1
  O  O156  1  0.05121079  0.79267956  0.12395238  1
  O  O157  1  0.44878921  0.29267956  0.87604762  1
  O  O158  1  0.55121079  0.20732044  0.37604762  1
  O  O159  1  0.94878921  0.70732044  0.62395238  1
  O  O160  1  0.92667281  0.26620609  0.71601656  1
  O  O161  1  0.57332719  0.76620609  0.28398344  1
  O  O162  1  0.42667281  0.73379391  0.78398344  1
  O  O163  1  0.07332719  0.23379391  0.21601656  1
  O  O164  1  0.07332719  0.73379391  0.28398344  1
  O  O165  1  0.42667281  0.23379391  0.71601656  1
  O  O166  1  0.57332719  0.26620609  0.21601656  1
  O  O167  1  0.92667281  0.76620609  0.78398344  1
  O  O168  1  0.58980686  0.22388067  0.79199620  1
  O  O169  1  0.91019314  0.72388067  0.20800380  1
  O  O170  1  0.08980686  0.77611933  0.70800380  1
  O  O171  1  0.41019314  0.27611933  0.29199620  1
  O  O172  1  0.41019314  0.77611933  0.20800380  1
  O  O173  1  0.08980686  0.27611933  0.79199620  1
  O  O174  1  0.91019314  0.22388067  0.29199620  1
  O  O175  1  0.58980686  0.72388067  0.70800380  1
  O  O176  1  0.52862598  0.37508228  0.74552878  1
  O  O177  1  0.97137402  0.87508228  0.25447122  1
  O  O178  1  0.02862598  0.62491772  0.75447122  1
  O  O179  1  0.47137402  0.12491772  0.24552878  1
  O  O180  1  0.47137402  0.62491772  0.25447122  1
  O  O181  1  0.02862598  0.12491772  0.74552878  1
  O  O182  1  0.97137402  0.37508228  0.24552878  1
  O  O183  1  0.52862598  0.87508228  0.75447122  1
  O  O184  1  0.53039110  0.02322512  0.84105979  1
  O  O185  1  0.96960890  0.52322512  0.15894021  1
  O  O186  1  0.03039110  0.97677488  0.65894021  1
  O  O187  1  0.46960890  0.47677488  0.34105979  1
  O  O188  1  0.46960890  0.97677488  0.15894021  1
  O  O189  1  0.03039110  0.47677488  0.84105979  1
  O  O190  1  0.96960890  0.02322512  0.34105979  1
  O  O191  1  0.53039110  0.52322512  0.65894021  1
  O  O192  1  0.97442242  0.48027366  0.67047191  1
  O  O193  1  0.52557758  0.98027366  0.32952809  1
  O  O194  1  0.47442242  0.51972634  0.82952809  1
  O  O195  1  0.02557758  0.01972634  0.17047191  1
  O  O196  1  0.02557758  0.51972634  0.32952809  1
  O  O197  1  0.47442242  0.01972634  0.67047191  1
  O  O198  1  0.52557758  0.48027366  0.17047191  1
  O  O199  1  0.97442242  0.98027366  0.82952809  1
  O  O200  1  0.87914208  0.05378703  0.69868874  1
  O  O201  1  0.62085792  0.55378703  0.30131126  1
  O  O202  1  0.37914208  0.94621297  0.80131126  1
  O  O203  1  0.12085792  0.44621297  0.19868874  1
  O  O204  1  0.12085792  0.94621297  0.30131126  1
  O  O205  1  0.37914208  0.44621297  0.69868874  1
  O  O206  1  0.62085792  0.05378703  0.19868874  1
  O  O207  1  0.87914208  0.55378703  0.80131126  1
  O  O208  1  0.72797998  0.08446161  0.78025193  1
  O  O209  1  0.77202002  0.58446161  0.21974807  1
  O  O210  1  0.22797998  0.91553839  0.71974807  1
  O  O211  1  0.27202002  0.41553839  0.28025193  1
  O  O212  1  0.27202002  0.91553839  0.21974807  1
  O  O213  1  0.22797998  0.41553839  0.78025193  1
  O  O214  1  0.77202002  0.08446161  0.28025193  1
  O  O215  1  0.72797998  0.58446161  0.71974807  1
  O  O216  1  0.78914388  0.41614297  0.73785125  1
  O  O217  1  0.71085612  0.91614297  0.26214875  1
  O  O218  1  0.28914388  0.58385703  0.76214875  1
  O  O219  1  0.21085612  0.08385703  0.23785125  1
  O  O220  1  0.21085612  0.58385703  0.26214875  1
  O  O221  1  0.28914388  0.08385703  0.73785125  1
  O  O222  1  0.71085612  0.41614297  0.23785125  1
  O  O223  1  0.78914388  0.91614297  0.76214875  1
