# generated using pymatgen
data_Ca2Si3O11
_symmetry_space_group_name_H-M   'P 1'
_cell_length_a   11.89451558
_cell_length_b   11.89451558
_cell_length_c   6.73387167
_cell_angle_alpha   83.86220911
_cell_angle_beta   83.86220911
_cell_angle_gamma   146.99934631
_symmetry_Int_Tables_number   1
_chemical_formula_structural   Ca2Si3O11
_chemical_formula_sum   'Ca4 Si6 O22'
_cell_volume   480.71806252
_cell_formula_units_Z   2
loop_
 _symmetry_equiv_pos_site_id
 _symmetry_equiv_pos_as_xyz
  1  'x, y, z'
loop_
 _atom_site_type_symbol
 _atom_site_label
 _atom_site_symmetry_multiplicity
 _atom_site_fract_x
 _atom_site_fract_y
 _atom_site_fract_z
 _atom_site_occupancy
  Ca  Ca0  1  0.37194900  0.95592000  0.56363700  1
  Ca  Ca1  1  0.95592000  0.37194900  0.56363700  1
  Ca  Ca2  1  0.47078200  0.87621100  0.07413900  1
  Ca  Ca3  1  0.87621100  0.47078200  0.07413900  1
  Si  Si4  1  0.77695800  0.46497600  0.60990700  1
  Si  Si5  1  0.46497600  0.77695800  0.60990700  1
  Si  Si6  1  0.91261400  0.77216600  0.24022400  1
  Si  Si7  1  0.77216600  0.91261400  0.24022400  1
  Si  Si8  1  0.36395900  0.04862500  0.02661300  1
  Si  Si9  1  0.04862500  0.36395900  0.02661300  1
  O  O10  1  0.82010300  0.63072200  0.48510500  1
  O  O11  1  0.63072200  0.82010300  0.48510500  1
  O  O12  1  0.54295700  0.27516500  0.81477900  1
  O  O13  1  0.27516500  0.54295700  0.81477900  1
  O  O14  1  0.74729900  0.34637500  0.46109400  1
  O  O15  1  0.34637500  0.74729900  0.46109400  1
  O  O16  1  0.97663800  0.59378900  0.69129900  1
  O  O17  1  0.59378900  0.97663800  0.69129900  1
  O  O18  1  0.85909800  0.85909800  0.24587200  1
  O  O19  1  0.79560600  0.60108900  0.11178600  1
  O  O20  1  0.60108900  0.79560600  0.11178600  1
  O  O21  1  0.26853100  0.07191700  0.57064000  1
  O  O22  1  0.07191700  0.26853100  0.57064000  1
  O  O23  1  0.18071000  0.98646600  0.14036900  1
  O  O24  1  0.98646600  0.18071000  0.14036900  1
  O  O25  1  0.48629700  0.09651000  0.18474400  1
  O  O26  1  0.09651000  0.48629700  0.18474400  1
  O  O27  1  0.25920900  0.85699400  0.94884900  1
  O  O28  1  0.85699400  0.25920900  0.94884900  1
  O  O29  1  0.70512800  0.70512800  0.81881000  1
  O  O30  1  0.49907000  0.49907000  0.90610500  1
  O  O31  1  0.41136700  0.41136700  0.10964200  1
