# generated using pymatgen
data_H8CN5ClO3
_symmetry_space_group_name_H-M   'P 1'
_cell_length_a   7.95075200
_cell_length_b   12.88956000
_cell_length_c   7.98924154
_cell_angle_alpha   90.00000000
_cell_angle_beta   119.79975194
_cell_angle_gamma   90.00000000
_symmetry_Int_Tables_number   1
_chemical_formula_structural   H8CN5ClO3
_chemical_formula_sum   'H32 C4 N20 Cl4 O12'
_cell_volume   710.48560715
_cell_formula_units_Z   4
loop_
 _symmetry_equiv_pos_site_id
 _symmetry_equiv_pos_as_xyz
  1  'x, y, z'
loop_
 _atom_site_type_symbol
 _atom_site_label
 _atom_site_symmetry_multiplicity
 _atom_site_fract_x
 _atom_site_fract_y
 _atom_site_fract_z
 _atom_site_occupancy
  H  H0  1  0.16723700  0.34371300  0.05442700  1
  H  H1  1  0.16723700  0.15628700  0.55442700  1
  H  H2  1  0.83276300  0.65628700  0.94557300  1
  H  H3  1  0.83276300  0.84371300  0.44557300  1
  H  H4  1  0.46148400  0.38200900  0.39780100  1
  H  H5  1  0.46148400  0.11799100  0.89780100  1
  H  H6  1  0.53851600  0.61799100  0.60219900  1
  H  H7  1  0.53851600  0.88200900  0.10219900  1
  H  H8  1  0.29556900  0.46526200  0.40162800  1
  H  H9  1  0.29556900  0.03473800  0.90162800  1
  H  H10  1  0.70443100  0.53473800  0.59837200  1
  H  H11  1  0.70443100  0.96526200  0.09837200  1
  H  H12  1  0.24643700  0.33669800  0.37253200  1
  H  H13  1  0.24643700  0.16330200  0.87253200  1
  H  H14  1  0.75356300  0.66330200  0.62746800  1
  H  H15  1  0.75356300  0.83669800  0.12746800  1
  H  H16  1  0.25177600  0.55643200  0.82618200  1
  H  H17  1  0.25177600  0.94356800  0.32618200  1
  H  H18  1  0.74822400  0.44356800  0.17381800  1
  H  H19  1  0.74822400  0.05643200  0.67381800  1
  H  H20  1  0.09465600  0.45018700  0.78225800  1
  H  H21  1  0.09465600  0.04981300  0.28225800  1
  H  H22  1  0.90534400  0.54981300  0.21774200  1
  H  H23  1  0.90534400  0.95018700  0.71774200  1
  H  H24  1  0.95337600  0.21696600  0.24810700  1
  H  H25  1  0.95337600  0.28303400  0.74810700  1
  H  H26  1  0.04662400  0.78303400  0.75189300  1
  H  H27  1  0.04662400  0.71696600  0.25189300  1
  H  H28  1  0.97540300  0.29792300  0.40766900  1
  H  H29  1  0.97540300  0.20207700  0.90766900  1
  H  H30  1  0.02459700  0.70207700  0.59233100  1
  H  H31  1  0.02459700  0.79792300  0.09233100  1
  C  C32  1  0.28211000  0.49032500  0.06780100  1
  C  C33  1  0.28211000  0.00967500  0.56780100  1
  C  C34  1  0.71789000  0.50967500  0.93219900  1
  C  C35  1  0.71789000  0.99032500  0.43219900  1
  N  N36  1  0.41560400  0.55201600  0.20665100  1
  N  N37  1  0.41560400  0.94798400  0.70665100  1
  N  N38  1  0.58439600  0.44798400  0.79334900  1
  N  N39  1  0.58439600  0.05201600  0.29334900  1
  N  N40  1  0.48520000  0.63509600  0.15662200  1
  N  N41  1  0.48520000  0.86490400  0.65662200  1
  N  N42  1  0.51480000  0.36490400  0.84337800  1
  N  N43  1  0.51480000  0.13509600  0.34337800  1
  N  N44  1  0.21739100  0.41135200  0.13633900  1
  N  N45  1  0.21739100  0.08864800  0.63633900  1
  N  N46  1  0.78260900  0.58864800  0.86366100  1
  N  N47  1  0.78260900  0.91135200  0.36366100  1
  N  N48  1  0.31379900  0.39727000  0.33952500  1
  N  N49  1  0.31379900  0.10273000  0.83952500  1
  N  N50  1  0.68620100  0.60273000  0.66047500  1
  N  N51  1  0.68620100  0.89727000  0.16047500  1
  N  N52  1  0.20581300  0.49711600  0.87772000  1
  N  N53  1  0.20581300  0.00288400  0.37772000  1
  N  N54  1  0.79418700  0.50288400  0.12228000  1
  N  N55  1  0.79418700  0.99711600  0.62228000  1
  Cl  Cl56  1  0.81037400  0.10676700  0.02851400  1
  Cl  Cl57  1  0.81037400  0.39323300  0.52851400  1
  Cl  Cl58  1  0.18962600  0.89323300  0.97148600  1
  Cl  Cl59  1  0.18962600  0.60676700  0.47148600  1
  O  O60  1  0.43274200  0.65968700  0.98532400  1
  O  O61  1  0.43274200  0.84031300  0.48532400  1
  O  O62  1  0.56725800  0.34031300  0.01467600  1
  O  O63  1  0.56725800  0.15968700  0.51467600  1
  O  O64  1  0.61085200  0.68645100  0.29626200  1
  O  O65  1  0.61085200  0.81354900  0.79626200  1
  O  O66  1  0.38914800  0.31354900  0.70373800  1
  O  O67  1  0.38914800  0.18645100  0.20373800  1
  O  O68  1  0.05040800  0.25444500  0.36627700  1
  O  O69  1  0.05040800  0.24555500  0.86627700  1
  O  O70  1  0.94959200  0.74555500  0.63372300  1
  O  O71  1  0.94959200  0.75444500  0.13372300  1
