# generated using pymatgen
data_Cd8S2O23
_symmetry_space_group_name_H-M   'P 1'
_cell_length_a   9.74737968
_cell_length_b   9.75379655
_cell_length_c   12.75410600
_cell_angle_alpha   90.00000000
_cell_angle_beta   90.00000000
_cell_angle_gamma   119.99210192
_symmetry_Int_Tables_number   1
_chemical_formula_structural   Cd8S2O23
_chemical_formula_sum   'Cd16 S4 O46'
_cell_volume   1050.21154400
_cell_formula_units_Z   2
loop_
 _symmetry_equiv_pos_site_id
 _symmetry_equiv_pos_as_xyz
  1  'x, y, z'
loop_
 _atom_site_type_symbol
 _atom_site_label
 _atom_site_symmetry_multiplicity
 _atom_site_fract_x
 _atom_site_fract_y
 _atom_site_fract_z
 _atom_site_occupancy
  Cd  Cd0  1  0.93596200  0.17286200  0.47199800  1
  Cd  Cd1  1  0.82753200  0.76346400  0.47296500  1
  Cd  Cd2  1  0.23665900  0.06377500  0.47286200  1
  Cd  Cd3  1  0.06403800  0.82713800  0.97199800  1
  Cd  Cd4  1  0.17246800  0.23653600  0.97296500  1
  Cd  Cd5  1  0.76334000  0.93622500  0.97286200  1
  Cd  Cd6  1  0.05215800  0.59327500  0.46455700  1
  Cd  Cd7  1  0.40683600  0.45870200  0.46438200  1
  Cd  Cd8  1  0.54125100  0.94861900  0.46465700  1
  Cd  Cd9  1  0.94784200  0.40672500  0.96455700  1
  Cd  Cd10  1  0.59316400  0.54129800  0.96438200  1
  Cd  Cd11  1  0.45874900  0.05138100  0.96465700  1
  Cd  Cd12  1  0.66704900  0.33350200  0.34196000  1
  Cd  Cd13  1  0.33295100  0.66649800  0.84196000  1
  Cd  Cd14  1  0.66677000  0.33377700  0.57614800  1
  Cd  Cd15  1  0.33323000  0.66622300  0.07614800  1
  S  S16  1  0.33348100  0.66697100  0.32124700  1
  S  S17  1  0.66651900  0.33302900  0.82124700  1
  S  S18  1  0.00008900  0.99996200  0.72039500  1
  S  S19  1  0.99991100  0.00003800  0.22039500  1
  O  O20  1  0.33357100  0.66672200  0.44616400  1
  O  O21  1  0.66642900  0.33327800  0.94616400  1
  O  O22  1  0.40412900  0.57036200  0.28850000  1
  O  O23  1  0.42966900  0.83447900  0.28879100  1
  O  O24  1  0.16524700  0.59568000  0.28907200  1
  O  O25  1  0.59587100  0.42963800  0.78850000  1
  O  O26  1  0.57033100  0.16552100  0.78879100  1
  O  O27  1  0.83475300  0.40432000  0.78907200  1
  O  O28  1  0.00001600  0.99963400  0.60066100  1
  O  O29  1  0.99998400  0.00036600  0.10066100  1
  O  O30  1  0.00214700  0.14612700  0.25681000  1
  O  O31  1  0.85384900  0.85623400  0.25663200  1
  O  O32  1  0.14407800  0.99830800  0.25662700  1
  O  O33  1  0.99785300  0.85387300  0.75681000  1
  O  O34  1  0.14615100  0.14376600  0.75663200  1
  O  O35  1  0.85592200  0.00169200  0.75662700  1
  O  O36  1  0.74694100  0.92569700  0.43709900  1
  O  O37  1  0.07397900  0.82117200  0.43668000  1
  O  O38  1  0.17882000  0.25294300  0.43669600  1
  O  O39  1  0.25305900  0.07430300  0.93709900  1
  O  O40  1  0.92602100  0.17882800  0.93668000  1
  O  O41  1  0.82118000  0.74705700  0.93669600  1
  O  O42  1  0.86364800  0.35216100  0.43619800  1
  O  O43  1  0.64809400  0.51218100  0.43721600  1
  O  O44  1  0.48792500  0.13635800  0.43669400  1
  O  O45  1  0.13635200  0.64783900  0.93619800  1
  O  O46  1  0.35190600  0.48781900  0.93721600  1
  O  O47  1  0.51207500  0.86364200  0.93669400  1
  O  O48  1  0.73124300  0.13977700  0.57618600  1
  O  O49  1  0.86171300  0.59206100  0.57644600  1
  O  O50  1  0.40813800  0.26909900  0.57630300  1
  O  O51  1  0.26875700  0.86022300  0.07618600  1
  O  O52  1  0.13828700  0.40793900  0.07644600  1
  O  O53  1  0.59186200  0.73090100  0.07630300  1
  O  O54  1  0.16667700  0.46010000  0.62092600  1
  O  O55  1  0.53948500  0.70632300  0.62152200  1
  O  O56  1  0.29398000  0.83416400  0.62094400  1
  O  O57  1  0.83332300  0.53990000  0.12092600  1
  O  O58  1  0.46051600  0.29367700  0.12152200  1
  O  O59  1  0.70602000  0.16583600  0.12094400  1
  O  O60  1  0.44545000  0.28914700  0.21802900  1
  O  O61  1  0.71032700  0.15622500  0.21838800  1
  O  O62  1  0.84393500  0.55378600  0.21858500  1
  O  O63  1  0.55455000  0.71085300  0.71802900  1
  O  O64  1  0.28967300  0.84377500  0.71838800  1
  O  O65  1  0.15606500  0.44621400  0.71858500  1
