# generated using pymatgen
data_Ca4NbGaO8
_symmetry_space_group_name_H-M   'P 1'
_cell_length_a   5.64834900
_cell_length_b   11.29031900
_cell_length_c   14.22877602
_cell_angle_alpha   58.38797699
_cell_angle_beta   90.00000000
_cell_angle_gamma   90.00000000
_symmetry_Int_Tables_number   1
_chemical_formula_structural   Ca4NbGaO8
_chemical_formula_sum   'Ca16 Nb4 Ga4 O32'
_cell_volume   772.75101022
_cell_formula_units_Z   4
loop_
 _symmetry_equiv_pos_site_id
 _symmetry_equiv_pos_as_xyz
  1  'x, y, z'
loop_
 _atom_site_type_symbol
 _atom_site_label
 _atom_site_symmetry_multiplicity
 _atom_site_fract_x
 _atom_site_fract_y
 _atom_site_fract_z
 _atom_site_occupancy
  Ca  Ca0  1  0.74489600  0.93110800  0.59934100  1
  Ca  Ca1  1  0.24489600  0.06889200  0.90065900  1
  Ca  Ca2  1  0.25510400  0.06889200  0.40065900  1
  Ca  Ca3  1  0.75510400  0.93110800  0.09934100  1
  Ca  Ca4  1  0.27576700  0.39348400  0.93070100  1
  Ca  Ca5  1  0.77576700  0.60651600  0.56929900  1
  Ca  Ca6  1  0.72423300  0.60651600  0.06929900  1
  Ca  Ca7  1  0.22423300  0.39348400  0.43070100  1
  Ca  Ca8  1  0.77069100  0.24370600  0.62220000  1
  Ca  Ca9  1  0.27069100  0.75629400  0.87780000  1
  Ca  Ca10  1  0.22930900  0.75629400  0.37780000  1
  Ca  Ca11  1  0.72930900  0.24370600  0.12220000  1
  Ca  Ca12  1  0.72849600  0.29013300  0.35979700  1
  Ca  Ca13  1  0.22849600  0.70986700  0.14020300  1
  Ca  Ca14  1  0.27150400  0.70986700  0.64020300  1
  Ca  Ca15  1  0.77150400  0.29013300  0.85979700  1
  Nb  Nb16  1  0.25081900  0.07591900  0.13123600  1
  Nb  Nb17  1  0.75081900  0.92408100  0.36876400  1
  Nb  Nb18  1  0.74918100  0.92408100  0.86876400  1
  Nb  Nb19  1  0.24918100  0.07591900  0.63123600  1
  Ga  Ga20  1  0.21058300  0.39038700  0.17153700  1
  Ga  Ga21  1  0.71058300  0.60961300  0.32846300  1
  Ga  Ga22  1  0.78941700  0.60961300  0.82846300  1
  Ga  Ga23  1  0.28941700  0.39038700  0.67153700  1
  O  O24  1  0.68154400  0.43137800  0.93039300  1
  O  O25  1  0.18154400  0.56862200  0.56960700  1
  O  O26  1  0.31845600  0.56862200  0.06960700  1
  O  O27  1  0.81845600  0.43137800  0.43039300  1
  O  O28  1  0.32883600  0.90721600  0.63867100  1
  O  O29  1  0.82883600  0.09278400  0.86132900  1
  O  O30  1  0.67116400  0.09278400  0.36132900  1
  O  O31  1  0.17116400  0.90721600  0.13867100  1
  O  O32  1  0.31668200  0.26612400  0.12646600  1
  O  O33  1  0.81668200  0.73387600  0.37353400  1
  O  O34  1  0.68331800  0.73387600  0.87353400  1
  O  O35  1  0.18331800  0.26612400  0.62646600  1
  O  O36  1  0.67664500  0.67910100  0.68767200  1
  O  O37  1  0.17664500  0.32089900  0.81232800  1
  O  O38  1  0.32335500  0.32089900  0.31232800  1
  O  O39  1  0.82335500  0.67910100  0.18767200  1
  O  O40  1  0.12228400  0.61302800  0.82382400  1
  O  O41  1  0.62228400  0.38697200  0.67617600  1
  O  O42  1  0.87771600  0.38697200  0.17617600  1
  O  O43  1  0.37771600  0.61302800  0.32382400  1
  O  O44  1  0.57185400  0.98842600  0.22380800  1
  O  O45  1  0.07185400  0.01157400  0.27619200  1
  O  O46  1  0.42814600  0.01157400  0.77619200  1
  O  O47  1  0.92814600  0.98842600  0.72380800  1
  O  O48  1  0.48190900  0.83274600  0.46457700  1
  O  O49  1  0.98190900  0.16725400  0.03542300  1
  O  O50  1  0.51809100  0.16725400  0.53542300  1
  O  O51  1  0.01809100  0.83274600  0.96457700  1
  O  O52  1  0.47228200  0.14277500  0.00573000  1
  O  O53  1  0.97228200  0.85722500  0.49427000  1
  O  O54  1  0.52771800  0.85722500  0.99427000  1
  O  O55  1  0.02771800  0.14277500  0.50573000  1
