# generated using pymatgen
data_Rb2CeN5O19
_symmetry_space_group_name_H-M   'P 1'
_cell_length_a   7.24025767
_cell_length_b   7.24025767
_cell_length_c   18.14027890
_cell_angle_alpha   80.33217143
_cell_angle_beta   80.33217143
_cell_angle_gamma   84.09700358
_symmetry_Int_Tables_number   1
_chemical_formula_structural   Rb2CeN5O19
_chemical_formula_sum   'Rb4 Ce2 N10 O38'
_cell_volume   921.38883114
_cell_formula_units_Z   2
loop_
 _symmetry_equiv_pos_site_id
 _symmetry_equiv_pos_as_xyz
  1  'x, y, z'
loop_
 _atom_site_type_symbol
 _atom_site_label
 _atom_site_symmetry_multiplicity
 _atom_site_fract_x
 _atom_site_fract_y
 _atom_site_fract_z
 _atom_site_occupancy
  Rb  Rb0  1  0.80965900  0.63098800  0.98069400  1
  Rb  Rb1  1  0.63098800  0.80965900  0.48069400  1
  Rb  Rb2  1  0.39908500  0.19570100  0.94083200  1
  Rb  Rb3  1  0.19570100  0.39908500  0.44083200  1
  Ce  Ce4  1  0.09096900  0.91392600  0.74661700  1
  Ce  Ce5  1  0.91392600  0.09096900  0.24661700  1
  N  N6  1  0.91016900  0.12627300  0.90537600  1
  N  N7  1  0.12627300  0.91016900  0.40537600  1
  N  N8  1  0.92293700  0.05364200  0.57990200  1
  N  N9  1  0.05364200  0.92293700  0.07990200  1
  N  N10  1  0.69826800  0.29382300  0.74942200  1
  N  N11  1  0.29382300  0.69826800  0.24942200  1
  N  N12  1  0.31344900  0.65026300  0.64710400  1
  N  N13  1  0.65026300  0.31344900  0.14710400  1
  N  N14  1  0.33804400  0.70986700  0.86408100  1
  N  N15  1  0.70986700  0.33804400  0.36408100  1
  O  O16  1  0.79412900  0.02621400  0.88821700  1
  O  O17  1  0.02621400  0.79412900  0.38821700  1
  O  O18  1  0.07956900  0.11263300  0.87369100  1
  O  O19  1  0.11263300  0.07956900  0.37369100  1
  O  O20  1  0.85593700  0.23672900  0.95258200  1
  O  O21  1  0.23672900  0.85593700  0.45258200  1
  O  O22  1  0.99939900  0.17587300  0.60592600  1
  O  O23  1  0.17587300  0.99939900  0.10592600  1
  O  O24  1  0.92203800  0.88930000  0.61704500  1
  O  O25  1  0.88930000  0.92203800  0.11704500  1
  O  O26  1  0.85418700  0.09677000  0.51991100  1
  O  O27  1  0.09677000  0.85418700  0.01991100  1
  O  O28  1  0.85983500  0.33141600  0.75552100  1
  O  O29  1  0.33141600  0.85983500  0.25552100  1
  O  O30  1  0.67685600  0.14438000  0.72676800  1
  O  O31  1  0.14438000  0.67685600  0.22676800  1
  O  O32  1  0.55828100  0.40366500  0.76754700  1
  O  O33  1  0.40366500  0.55828100  0.26754700  1
  O  O34  1  0.33824600  0.82693000  0.63537100  1
  O  O35  1  0.82693000  0.33824600  0.13537100  1
  O  O36  1  0.19865500  0.59272900  0.70541900  1
  O  O37  1  0.59272900  0.19865500  0.20541900  1
  O  O38  1  0.39802900  0.54510600  0.60308400  1
  O  O39  1  0.54510600  0.39802900  0.10308400  1
  O  O40  1  0.39777300  0.83733000  0.81080800  1
  O  O41  1  0.83733000  0.39777300  0.31080800  1
  O  O42  1  0.16913900  0.66830900  0.86709400  1
  O  O43  1  0.66830900  0.16913900  0.36709400  1
  O  O44  1  0.43811800  0.62882500  0.91116000  1
  O  O45  1  0.62882500  0.43811800  0.41116000  1
  O  O46  1  0.89056500  0.77623200  0.77832200  1
  O  O47  1  0.77623200  0.89056500  0.27832200  1
  O  O48  1  0.22863400  0.11426400  0.71747500  1
  O  O49  1  0.11426400  0.22863400  0.21747500  1
  O  O50  1  0.90906500  0.49655100  0.56780500  1
  O  O51  1  0.49655100  0.90906500  0.06780500  1
  O  O52  1  0.42202800  0.20037800  0.56361600  1
  O  O53  1  0.20037800  0.42202800  0.06361600  1
