# generated using pymatgen
data_Bi6Mo2O15
_symmetry_space_group_name_H-M   'P 1'
_cell_length_a   5.74567800
_cell_length_b   8.78274100
_cell_length_c   29.43620678
_cell_angle_alpha   81.99488788
_cell_angle_beta   90.00000000
_cell_angle_gamma   90.00000000
_symmetry_Int_Tables_number   1
_chemical_formula_structural   Bi6Mo2O15
_chemical_formula_sum   'Bi24 Mo8 O60'
_cell_volume   1470.95887925
_cell_formula_units_Z   4
loop_
 _symmetry_equiv_pos_site_id
 _symmetry_equiv_pos_as_xyz
  1  'x, y, z'
loop_
 _atom_site_type_symbol
 _atom_site_label
 _atom_site_symmetry_multiplicity
 _atom_site_fract_x
 _atom_site_fract_y
 _atom_site_fract_z
 _atom_site_occupancy
  Bi  Bi0  1  0.27233000  0.42756600  0.60876800  1
  Bi  Bi1  1  0.77233000  0.57243400  0.89123200  1
  Bi  Bi2  1  0.72767000  0.57243400  0.39123200  1
  Bi  Bi3  1  0.22767000  0.42756600  0.10876800  1
  Bi  Bi4  1  0.24546700  0.76504200  0.66706600  1
  Bi  Bi5  1  0.74546700  0.23495800  0.83293400  1
  Bi  Bi6  1  0.75453300  0.23495800  0.33293400  1
  Bi  Bi7  1  0.25453300  0.76504200  0.16706600  1
  Bi  Bi8  1  0.24198200  0.18733200  0.74071800  1
  Bi  Bi9  1  0.74198200  0.81266800  0.75928200  1
  Bi  Bi10  1  0.75801800  0.81266800  0.25928200  1
  Bi  Bi11  1  0.25801800  0.18733200  0.24071800  1
  Bi  Bi12  1  0.18346400  0.53898300  0.79650100  1
  Bi  Bi13  1  0.68346400  0.46101700  0.70349900  1
  Bi  Bi14  1  0.81653600  0.46101700  0.20349900  1
  Bi  Bi15  1  0.31653600  0.53898300  0.29650100  1
  Bi  Bi16  1  0.27151200  0.29095200  0.92259900  1
  Bi  Bi17  1  0.77151200  0.70904800  0.57740100  1
  Bi  Bi18  1  0.72848800  0.70904800  0.07740100  1
  Bi  Bi19  1  0.22848800  0.29095200  0.42259900  1
  Bi  Bi20  1  0.24812200  0.63459100  0.98565800  1
  Bi  Bi21  1  0.74812200  0.36540900  0.51434200  1
  Bi  Bi22  1  0.75187800  0.36540900  0.01434200  1
  Bi  Bi23  1  0.25187800  0.63459100  0.48565800  1
  Mo  Mo24  1  0.26059700  0.03645900  0.54918800  1
  Mo  Mo25  1  0.76059700  0.96354100  0.95081200  1
  Mo  Mo26  1  0.73940300  0.96354100  0.45081200  1
  Mo  Mo27  1  0.23940300  0.03645900  0.04918800  1
  Mo  Mo28  1  0.22266900  0.91304400  0.85347300  1
  Mo  Mo29  1  0.72266900  0.08695600  0.64652700  1
  Mo  Mo30  1  0.77733100  0.08695600  0.14652700  1
  Mo  Mo31  1  0.27733100  0.91304400  0.35347300  1
  O  O32  1  0.51150000  0.65657200  0.72741000  1
  O  O33  1  0.01150000  0.34342800  0.77259000  1
  O  O34  1  0.48850000  0.34342800  0.27259000  1
  O  O35  1  0.98850000  0.65657200  0.22741000  1
  O  O36  1  0.03116000  0.69408200  0.72905300  1
  O  O37  1  0.53116000  0.30591800  0.77094700  1
  O  O38  1  0.96884000  0.30591800  0.27094700  1
  O  O39  1  0.46884000  0.69408200  0.22905300  1
  O  O40  1  0.52204600  0.59414200  0.63469000  1
  O  O41  1  0.02204600  0.40585800  0.86531000  1
  O  O42  1  0.47795400  0.40585800  0.36531000  1
  O  O43  1  0.97795400  0.59414200  0.13469000  1
  O  O44  1  0.03476200  0.60894900  0.63107100  1
  O  O45  1  0.53476200  0.39105100  0.86892900  1
  O  O46  1  0.96523800  0.39105100  0.36892900  1
  O  O47  1  0.46523800  0.60894900  0.13107100  1
  O  O48  1  0.48411300  0.52960100  0.54463300  1
  O  O49  1  0.98411300  0.47039900  0.95536700  1
  O  O50  1  0.51588700  0.47039900  0.45536700  1
  O  O51  1  0.01588700  0.52960100  0.04463300  1
  O  O52  1  0.97646700  0.54145900  0.54197300  1
  O  O53  1  0.47646700  0.45854100  0.95802700  1
  O  O54  1  0.02353300  0.45854100  0.45802700  1
  O  O55  1  0.52353300  0.54145900  0.04197300  1
  O  O56  1  0.06558900  0.16785500  0.57050900  1
  O  O57  1  0.56558900  0.83214500  0.92949100  1
  O  O58  1  0.93441100  0.83214500  0.42949100  1
  O  O59  1  0.43441100  0.16785500  0.07050900  1
  O  O60  1  0.40543900  0.15021300  0.50168800  1
  O  O61  1  0.90543900  0.84978700  0.99831200  1
  O  O62  1  0.59456100  0.84978700  0.49831200  1
  O  O63  1  0.09456100  0.15021300  0.00168800  1
  O  O64  1  0.10233700  0.87018500  0.53538000  1
  O  O65  1  0.60233700  0.12981500  0.96462000  1
  O  O66  1  0.89766300  0.12981500  0.46462000  1
  O  O67  1  0.39766300  0.87018500  0.03538000  1
  O  O68  1  0.46459200  0.96757600  0.59473400  1
  O  O69  1  0.96459200  0.03242400  0.90526600  1
  O  O70  1  0.53540800  0.03242400  0.40526600  1
  O  O71  1  0.03540800  0.96757600  0.09473400  1
  O  O72  1  0.38686300  0.08430000  0.86392700  1
  O  O73  1  0.88686300  0.91570000  0.63607300  1
  O  O74  1  0.61313700  0.91570000  0.13607300  1
  O  O75  1  0.11313700  0.08430000  0.36392700  1
  O  O76  1  0.99242600  0.97452200  0.81290000  1
  O  O77  1  0.49242600  0.02547800  0.68710000  1
  O  O78  1  0.00757400  0.02547800  0.18710000  1
  O  O79  1  0.50757400  0.97452200  0.31290000  1
  O  O80  1  0.41967600  0.82755800  0.81620400  1
  O  O81  1  0.91967600  0.17244200  0.68379600  1
  O  O82  1  0.58032400  0.17244200  0.18379600  1
  O  O83  1  0.08032400  0.82755800  0.31620400  1
  O  O84  1  0.13467100  0.74423400  0.89301500  1
  O  O85  1  0.63467100  0.25576600  0.60698500  1
  O  O86  1  0.86532900  0.25576600  0.10698500  1
  O  O87  1  0.36532900  0.74423400  0.39301500  1
  O  O88  1  0.33677600  0.36747700  0.68863800  1
  O  O89  1  0.83677600  0.63252300  0.81136200  1
  O  O90  1  0.66322400  0.63252300  0.31136200  1
  O  O91  1  0.16322400  0.36747700  0.18863800  1
