# generated using pymatgen
data_Ag6Te4W3O20
_symmetry_space_group_name_H-M   'P 1'
_cell_length_a   15.52412535
_cell_length_b   15.52412535
_cell_length_c   9.71240627
_cell_angle_alpha   88.40717391
_cell_angle_beta   88.40717391
_cell_angle_gamma   25.38658428
_symmetry_Int_Tables_number   1
_chemical_formula_structural   Ag6Te4W3O20
_chemical_formula_sum   'Ag12 Te8 W6 O40'
_cell_volume   1003.09521598
_cell_formula_units_Z   2
loop_
 _symmetry_equiv_pos_site_id
 _symmetry_equiv_pos_as_xyz
  1  'x, y, z'
loop_
 _atom_site_type_symbol
 _atom_site_label
 _atom_site_symmetry_multiplicity
 _atom_site_fract_x
 _atom_site_fract_y
 _atom_site_fract_z
 _atom_site_occupancy
  Ag  Ag0  1  0.63565800  0.42469900  0.59296700  1
  Ag  Ag1  1  0.57530100  0.36434200  0.90703300  1
  Ag  Ag2  1  0.36434200  0.57530100  0.40703300  1
  Ag  Ag3  1  0.42469900  0.63565800  0.09296700  1
  Ag  Ag4  1  0.24637200  0.54065700  0.70505000  1
  Ag  Ag5  1  0.45934300  0.75362800  0.79495000  1
  Ag  Ag6  1  0.75362800  0.45934300  0.29495000  1
  Ag  Ag7  1  0.54065700  0.24637200  0.20505100  1
  Ag  Ag8  1  0.48734400  0.14516500  0.49129800  1
  Ag  Ag9  1  0.85483500  0.51265600  0.00870200  1
  Ag  Ag10  1  0.51265600  0.85483500  0.50870200  1
  Ag  Ag11  1  0.14516500  0.48734400  0.99129800  1
  Te  Te12  1  0.06285600  0.77804800  0.03797200  1
  Te  Te13  1  0.22195200  0.93714400  0.46202800  1
  Te  Te14  1  0.93714400  0.22195200  0.96202800  1
  Te  Te15  1  0.77804800  0.06285600  0.53797200  1
  Te  Te16  1  0.90296400  0.63854500  0.64420800  1
  Te  Te17  1  0.36145500  0.09703600  0.85579200  1
  Te  Te18  1  0.09703600  0.36145500  0.35579200  1
  Te  Te19  1  0.63854500  0.90296400  0.14420800  1
  W  W20  1  0.06288200  0.93711800  0.75000000  1
  W  W21  1  0.93711800  0.06288200  0.25000000  1
  W  W22  1  0.02194200  0.64646000  0.34629200  1
  W  W23  1  0.35354000  0.97805800  0.15370800  1
  W  W24  1  0.97805800  0.35354000  0.65370800  1
  W  W25  1  0.64646000  0.02194200  0.84629200  1
  O  O26  1  0.85863300  0.68513400  0.44706000  1
  O  O27  1  0.31486600  0.14136700  0.05294000  1
  O  O28  1  0.14136700  0.31486600  0.55294000  1
  O  O29  1  0.68513400  0.85863300  0.94706000  1
  O  O30  1  0.16427900  0.77800400  0.14912400  1
  O  O31  1  0.22199600  0.83572100  0.35087600  1
  O  O32  1  0.83572100  0.22199600  0.85087600  1
  O  O33  1  0.77800400  0.16427900  0.64912400  1
  O  O34  1  0.76648500  0.65204900  0.66118400  1
  O  O35  1  0.34795100  0.23351500  0.83881600  1
  O  O36  1  0.23351500  0.34795100  0.33881600  1
  O  O37  1  0.65204900  0.76648500  0.16118400  1
  O  O38  1  0.95925900  0.94747700  0.88993000  1
  O  O39  1  0.05252300  0.04074100  0.61007000  1
  O  O40  1  0.04074100  0.05252300  0.11007000  1
  O  O41  1  0.94747700  0.95925900  0.38993000  1
  O  O42  1  0.30352300  0.53052100  0.95063000  1
  O  O43  1  0.46947900  0.69647700  0.54937000  1
  O  O44  1  0.69647700  0.46947900  0.04937000  1
  O  O45  1  0.53052100  0.30352300  0.45063000  1
  O  O46  1  0.65942800  0.92425900  0.67661200  1
  O  O47  1  0.07574100  0.34057200  0.82338800  1
  O  O48  1  0.34057200  0.07574100  0.32338800  1
  O  O49  1  0.92425900  0.65942800  0.17661200  1
  O  O50  1  0.78485400  0.91979500  0.34107100  1
  O  O51  1  0.08020500  0.21514600  0.15892900  1
  O  O52  1  0.21514600  0.08020500  0.65892900  1
  O  O53  1  0.91979500  0.78485400  0.84107100  1
  O  O54  1  0.19453800  0.73832300  0.65207700  1
  O  O55  1  0.26167700  0.80546200  0.84792300  1
  O  O56  1  0.80546200  0.26167700  0.34792300  1
  O  O57  1  0.73832300  0.19453800  0.15207700  1
  O  O58  1  0.10902300  0.59004600  0.51958300  1
  O  O59  1  0.40995400  0.89097700  0.98041700  1
  O  O60  1  0.89097700  0.40995400  0.48041700  1
  O  O61  1  0.59004600  0.10902300  0.01958300  1
  O  O62  1  0.18345400  0.56539900  0.23128200  1
  O  O63  1  0.43460100  0.81654600  0.26871800  1
  O  O64  1  0.81654600  0.43460100  0.76871800  1
  O  O65  1  0.56539900  0.18345400  0.73128200  1
