# generated using pymatgen
data_BaOsO9
_symmetry_space_group_name_H-M   'P 1'
_cell_length_a   7.95668000
_cell_length_b   5.21297100
_cell_length_c   17.25267100
_cell_angle_alpha   90.00000000
_cell_angle_beta   90.00000000
_cell_angle_gamma   90.00000000
_symmetry_Int_Tables_number   1
_chemical_formula_structural   BaOsO9
_chemical_formula_sum   'Ba4 Os4 O36'
_cell_volume   715.60528874
_cell_formula_units_Z   4
loop_
 _symmetry_equiv_pos_site_id
 _symmetry_equiv_pos_as_xyz
  1  'x, y, z'
loop_
 _atom_site_type_symbol
 _atom_site_label
 _atom_site_symmetry_multiplicity
 _atom_site_fract_x
 _atom_site_fract_y
 _atom_site_fract_z
 _atom_site_occupancy
  Ba  Ba0  1  0.68992000  0.25000000  0.66875700  1
  Ba  Ba1  1  0.18992000  0.25000000  0.83124300  1
  Ba  Ba2  1  0.31008000  0.75000000  0.33124300  1
  Ba  Ba3  1  0.81008000  0.75000000  0.16875700  1
  Os  Os4  1  0.25474500  0.25000000  0.52934900  1
  Os  Os5  1  0.75474500  0.25000000  0.97065100  1
  Os  Os6  1  0.74525500  0.75000000  0.47065100  1
  Os  Os7  1  0.24525500  0.75000000  0.02934900  1
  O  O8  1  0.61085400  0.25000000  0.25688300  1
  O  O9  1  0.11085400  0.25000000  0.24311700  1
  O  O10  1  0.38914600  0.75000000  0.74311700  1
  O  O11  1  0.88914600  0.75000000  0.75688300  1
  O  O12  1  0.21851700  0.99884800  0.46259200  1
  O  O13  1  0.71851700  0.50115200  0.03740800  1
  O  O14  1  0.78148300  0.49884800  0.53740800  1
  O  O15  1  0.28148300  0.00115200  0.96259200  1
  O  O16  1  0.78148300  0.00115200  0.53740800  1
  O  O17  1  0.28148300  0.49884800  0.96259200  1
  O  O18  1  0.21851700  0.50115200  0.46259200  1
  O  O19  1  0.71851700  0.99884800  0.03740800  1
  O  O20  1  0.41212700  0.01888800  0.58475700  1
  O  O21  1  0.91212700  0.48111200  0.91524300  1
  O  O22  1  0.58787300  0.51888800  0.41524300  1
  O  O23  1  0.08787300  0.98111200  0.08475700  1
  O  O24  1  0.58787300  0.98111200  0.41524300  1
  O  O25  1  0.08787300  0.51888800  0.08475700  1
  O  O26  1  0.41212700  0.48111200  0.58475700  1
  O  O27  1  0.91212700  0.01888800  0.91524300  1
  O  O28  1  0.08747600  0.25000000  0.59227000  1
  O  O29  1  0.58747600  0.25000000  0.90773000  1
  O  O30  1  0.91252400  0.75000000  0.40773000  1
  O  O31  1  0.41252400  0.75000000  0.09227000  1
  O  O32  1  0.96803400  0.97005100  0.73375800  1
  O  O33  1  0.46803400  0.52994900  0.76624200  1
  O  O34  1  0.03196600  0.47005100  0.26624200  1
  O  O35  1  0.53196600  0.02994900  0.23375800  1
  O  O36  1  0.03196600  0.02994900  0.26624200  1
  O  O37  1  0.53196600  0.47005100  0.23375800  1
  O  O38  1  0.96803400  0.52994900  0.73375800  1
  O  O39  1  0.46803400  0.97005100  0.76624200  1
  O  O40  1  0.52849500  0.25000000  0.44542400  1
  O  O41  1  0.02849500  0.25000000  0.05457600  1
  O  O42  1  0.47150500  0.75000000  0.55457600  1
  O  O43  1  0.97150500  0.75000000  0.94542400  1
