# generated using pymatgen
data_RbIn(PO4)2
_symmetry_space_group_name_H-M   'P 1'
_cell_length_a   8.65510700
_cell_length_b   9.76203300
_cell_length_c   9.87005253
_cell_angle_alpha   63.47111742
_cell_angle_beta   90.00000000
_cell_angle_gamma   90.00000000
_symmetry_Int_Tables_number   1
_chemical_formula_structural   RbIn(PO4)2
_chemical_formula_sum   'Rb4 In4 P8 O32'
_cell_volume   746.12937546
_cell_formula_units_Z   4
loop_
 _symmetry_equiv_pos_site_id
 _symmetry_equiv_pos_as_xyz
  1  'x, y, z'
loop_
 _atom_site_type_symbol
 _atom_site_label
 _atom_site_symmetry_multiplicity
 _atom_site_fract_x
 _atom_site_fract_y
 _atom_site_fract_z
 _atom_site_occupancy
  Rb  Rb0  1  0.36613600  0.08775200  0.82538400  1
  Rb  Rb1  1  0.86613600  0.41224800  0.17461600  1
  Rb  Rb2  1  0.63386400  0.91224800  0.17461600  1
  Rb  Rb3  1  0.13386400  0.58775200  0.82538400  1
  In  In4  1  0.62504900  0.49203300  0.74430000  1
  In  In5  1  0.12504900  0.00796700  0.25570000  1
  In  In6  1  0.37495100  0.50796700  0.25570000  1
  In  In7  1  0.87495100  0.99203300  0.74430000  1
  P  P8  1  0.67486700  0.32670100  0.51177700  1
  P  P9  1  0.17486700  0.17329900  0.48822300  1
  P  P10  1  0.32513300  0.67329900  0.48822300  1
  P  P11  1  0.82513300  0.82670100  0.51177700  1
  P  P12  1  0.56924800  0.73352100  0.90701600  1
  P  P13  1  0.06924800  0.76647900  0.09298400  1
  P  P14  1  0.43075200  0.26647900  0.09298400  1
  P  P15  1  0.93075200  0.23352100  0.90701600  1
  O  O16  1  0.58541000  0.34399800  0.63791300  1
  O  O17  1  0.08541000  0.15600200  0.36208700  1
  O  O18  1  0.41459000  0.65600200  0.36208700  1
  O  O19  1  0.91459000  0.84399800  0.63791300  1
  O  O20  1  0.58058800  0.37980000  0.36491400  1
  O  O21  1  0.08058800  0.12020000  0.63508600  1
  O  O22  1  0.41941200  0.62020000  0.63508600  1
  O  O23  1  0.91941200  0.87980000  0.36491400  1
  O  O24  1  0.73239500  0.15954900  0.56144300  1
  O  O25  1  0.23239500  0.34045100  0.43855700  1
  O  O26  1  0.26760500  0.84045100  0.43855700  1
  O  O27  1  0.76760500  0.65954900  0.56144300  1
  O  O28  1  0.66292800  0.90434400  0.47877800  1
  O  O29  1  0.16292800  0.59565600  0.52122200  1
  O  O30  1  0.33707200  0.09565600  0.52122200  1
  O  O31  1  0.83707200  0.40434400  0.47877800  1
  O  O32  1  0.66437400  0.88114400  0.85950000  1
  O  O33  1  0.16437400  0.61885600  0.14050000  1
  O  O34  1  0.33562600  0.11885600  0.14050000  1
  O  O35  1  0.83562600  0.38114400  0.85950000  1
  O  O36  1  0.52067600  0.68034400  0.07541500  1
  O  O37  1  0.02067600  0.81965600  0.92458500  1
  O  O38  1  0.47932400  0.31965600  0.92458500  1
  O  O39  1  0.97932400  0.18034400  0.07541500  1
  O  O40  1  0.65665500  0.60928100  0.88317300  1
  O  O41  1  0.15665500  0.89071900  0.11682700  1
  O  O42  1  0.34334500  0.39071900  0.11682700  1
  O  O43  1  0.84334500  0.10928100  0.88317300  1
  O  O44  1  0.59587500  0.23238200  0.16334600  1
  O  O45  1  0.09587500  0.26761800  0.83665400  1
  O  O46  1  0.40412500  0.76761800  0.83665400  1
  O  O47  1  0.90412500  0.73238200  0.16334600  1
