# generated using pymatgen
data_Sr5Pb4
_symmetry_space_group_name_H-M   'P 1'
_cell_length_a   8.61590700
_cell_length_b   9.02643000
_cell_length_c   17.70751600
_cell_angle_alpha   90.00000000
_cell_angle_beta   90.00000000
_cell_angle_gamma   90.00000000
_symmetry_Int_Tables_number   1
_chemical_formula_structural   Sr5Pb4
_chemical_formula_sum   'Sr20 Pb16'
_cell_volume   1377.12912711
_cell_formula_units_Z   4
loop_
 _symmetry_equiv_pos_site_id
 _symmetry_equiv_pos_as_xyz
  1  'x, y, z'
loop_
 _atom_site_type_symbol
 _atom_site_label
 _atom_site_symmetry_multiplicity
 _atom_site_fract_x
 _atom_site_fract_y
 _atom_site_fract_z
 _atom_site_occupancy
  Sr  Sr0  1  0.65743800  0.17644000  0.62360500  1
  Sr  Sr1  1  0.15743800  0.32356000  0.87639500  1
  Sr  Sr2  1  0.34256200  0.82356000  0.12360500  1
  Sr  Sr3  1  0.84256200  0.67644000  0.37639500  1
  Sr  Sr4  1  0.34256200  0.82356000  0.37639500  1
  Sr  Sr5  1  0.84256200  0.67644000  0.12360500  1
  Sr  Sr6  1  0.65743800  0.17644000  0.87639500  1
  Sr  Sr7  1  0.15743800  0.32356000  0.62360500  1
  Sr  Sr8  1  0.49559600  0.67833200  0.59745500  1
  Sr  Sr9  1  0.99559600  0.82166800  0.90254500  1
  Sr  Sr10  1  0.50440400  0.32166800  0.09745500  1
  Sr  Sr11  1  0.00440400  0.17833200  0.40254500  1
  Sr  Sr12  1  0.50440400  0.32166800  0.40254500  1
  Sr  Sr13  1  0.00440400  0.17833200  0.09745500  1
  Sr  Sr14  1  0.49559600  0.67833200  0.90254500  1
  Sr  Sr15  1  0.99559600  0.82166800  0.59745500  1
  Sr  Sr16  1  0.82691100  0.50452500  0.75000000  1
  Sr  Sr17  1  0.32691100  0.99547500  0.75000000  1
  Sr  Sr18  1  0.17308900  0.49547500  0.25000000  1
  Sr  Sr19  1  0.67308900  0.00452500  0.25000000  1
  Pb  Pb20  1  0.67227800  0.97522300  0.46216700  1
  Pb  Pb21  1  0.17227800  0.52477700  0.03783300  1
  Pb  Pb22  1  0.32772200  0.02477700  0.96216700  1
  Pb  Pb23  1  0.82772200  0.47522300  0.53783300  1
  Pb  Pb24  1  0.32772200  0.02477700  0.53783300  1
  Pb  Pb25  1  0.82772200  0.47522300  0.96216700  1
  Pb  Pb26  1  0.67227800  0.97522300  0.03783300  1
  Pb  Pb27  1  0.17227800  0.52477700  0.46216700  1
  Pb  Pb28  1  0.45371900  0.39270300  0.75000000  1
  Pb  Pb29  1  0.95371900  0.10729700  0.75000000  1
  Pb  Pb30  1  0.54628100  0.60729700  0.25000000  1
  Pb  Pb31  1  0.04628100  0.89270300  0.25000000  1
  Pb  Pb32  1  0.70225400  0.86367200  0.75000000  1
  Pb  Pb33  1  0.20225400  0.63632800  0.75000000  1
  Pb  Pb34  1  0.29774600  0.13632800  0.25000000  1
  Pb  Pb35  1  0.79774600  0.36367200  0.25000000  1
