# generated using pymatgen
data_TcH12C4S2(Cl2O)2
_symmetry_space_group_name_H-M   'P 1'
_cell_length_a   9.16886900
_cell_length_b   9.43655545
_cell_length_c   14.45244599
_cell_angle_alpha   105.17262721
_cell_angle_beta   101.73809370
_cell_angle_gamma   91.33239927
_symmetry_Int_Tables_number   1
_chemical_formula_structural   TcH12C4S2(Cl2O)2
_chemical_formula_sum   'Tc3 H36 C12 S6 Cl12 O6'
_cell_volume   1177.75655378
_cell_formula_units_Z   3
loop_
 _symmetry_equiv_pos_site_id
 _symmetry_equiv_pos_as_xyz
  1  'x, y, z'
loop_
 _atom_site_type_symbol
 _atom_site_label
 _atom_site_symmetry_multiplicity
 _atom_site_fract_x
 _atom_site_fract_y
 _atom_site_fract_z
 _atom_site_occupancy
  Tc  Tc0  1  0.50000000  0.50000000  0.50000000  1
  Tc  Tc1  1  0.84247300  0.79512300  0.14398500  1
  Tc  Tc2  1  0.15752700  0.20487700  0.85601500  1
  H  H3  1  0.46284500  0.83055700  0.95079700  1
  H  H4  1  0.53715500  0.16944300  0.04920300  1
  H  H5  1  0.40793000  0.69359600  0.83357500  1
  H  H6  1  0.59207000  0.30640400  0.16642500  1
  H  H7  1  0.39118600  0.64711800  0.94483000  1
  H  H8  1  0.60881400  0.35288200  0.05517000  1
  H  H9  1  0.70331900  0.41607400  0.85494000  1
  H  H10  1  0.29668100  0.58392600  0.14506000  1
  H  H11  1  0.52380800  0.41498800  0.89002900  1
  H  H12  1  0.47619200  0.58501200  0.10997100  1
  H  H13  1  0.54068100  0.46725400  0.78070400  1
  H  H14  1  0.45931900  0.53274600  0.21929600  1
  H  H15  1  0.99335700  0.33866600  0.15613600  1
  H  H16  1  0.00664300  0.66133400  0.84386400  1
  H  H17  1  0.07436700  0.34698200  0.28295500  1
  H  H18  1  0.92563300  0.65301800  0.71704500  1
  H  H19  1  0.87425300  0.34898100  0.24323100  1
  H  H20  1  0.12574700  0.65101900  0.75676900  1
  H  H21  1  0.99859500  0.73691000  0.41717500  1
  H  H22  1  0.00140500  0.26309000  0.58282500  1
  H  H23  1  0.87376500  0.57203400  0.38790900  1
  H  H24  1  0.12623500  0.42796600  0.61209100  1
  H  H25  1  0.07524500  0.56604000  0.42701500  1
  H  H26  1  0.92475500  0.43396000  0.57298500  1
  H  H27  1  0.38746700  0.99085300  0.17792700  1
  H  H28  1  0.61253300  0.00914700  0.82207300  1
  H  H29  1  0.39309700  0.87760200  0.26188700  1
  H  H30  1  0.60690300  0.12239800  0.73811300  1
  H  H31  1  0.40206100  0.07677500  0.30706500  1
  H  H32  1  0.59793900  0.92322500  0.69293500  1
  H  H33  1  0.79499300  0.98876900  0.41867400  1
  H  H34  1  0.20500700  0.01123100  0.58132600  1
  H  H35  1  0.62948800  0.07929100  0.44131700  1
  H  H36  1  0.37051200  0.92070900  0.55868300  1
  H  H37  1  0.62153800  0.87874400  0.40014600  1
  H  H38  1  0.37846200  0.12125600  0.59985400  1
  C  C39  1  0.45552800  0.71302300  0.91254900  1
  C  C40  1  0.54447200  0.28697700  0.08745100  1
  C  C41  1  0.59742200  0.46790700  0.85563700  1
  C  C42  1  0.40257800  0.53209300  0.14436300  1
  C  C43  1  0.98402900  0.38165500  0.23274800  1
  C  C44  1  0.01597100  0.61834500  0.76725200  1
  C  C45  1  0.98509800  0.61700400  0.38754500  1
  C  C46  1  0.01490200  0.38299600  0.61245500  1
  C  C47  1  0.43182100  0.98277400  0.25274900  1
  C  C48  1  0.56817900  0.01722600  0.74725100  1
  C  C49  1  0.67279800  0.98294600  0.39678000  1
  C  C50  1  0.32720200  0.01705400  0.60322000  1
  S  S51  1  0.64200700  0.65630600  0.92382300  1
  S  S52  1  0.35799300  0.34369400  0.07617700  1
  S  S53  1  0.00919100  0.57826000  0.26370800  1
  S  S54  1  0.99080900  0.42174000  0.73629200  1
  S  S55  1  0.63125200  0.99518400  0.27269700  1
  S  S56  1  0.36874800  0.00481600  0.72730300  1
  Cl  Cl57  1  0.70859400  0.67776800  0.56493300  1
  Cl  Cl58  1  0.29140600  0.32223200  0.43506700  1
  Cl  Cl59  1  0.61321100  0.37965200  0.36730400  1
  Cl  Cl60  1  0.38678900  0.62034800  0.63269600  1
  Cl  Cl61  1  0.61886600  0.34543800  0.59469500  1
  Cl  Cl62  1  0.38113400  0.65456200  0.40530500  1
  Cl  Cl63  1  0.03316400  0.71777900  0.06398600  1
  Cl  Cl64  1  0.96683600  0.28222100  0.93601400  1
  Cl  Cl65  1  0.00396900  0.94944400  0.28014100  1
  Cl  Cl66  1  0.99603100  0.05055600  0.71985900  1
  Cl  Cl67  1  0.78788100  0.98057900  0.06653900  1
  Cl  Cl68  1  0.21211900  0.01942100  0.93346100  1
  O  O69  1  0.68579100  0.64648400  0.03236600  1
  O  O70  1  0.31420900  0.35351600  0.96763400  1
  O  O71  1  0.85923800  0.61932000  0.20615800  1
  O  O72  1  0.14076200  0.38068000  0.79384200  1
  O  O73  1  0.65992800  0.83908900  0.21061200  1
  O  O74  1  0.34007200  0.16091100  0.78938800  1
