# generated using pymatgen
data_Cu3P2H2O9
_symmetry_space_group_name_H-M   'P 1'
_cell_length_a   9.49412986
_cell_length_b   9.49412986
_cell_length_c   12.31735897
_cell_angle_alpha   75.74247141
_cell_angle_beta   75.74247141
_cell_angle_gamma   38.42391791
_symmetry_Int_Tables_number   1
_chemical_formula_structural   Cu3P2H2O9
_chemical_formula_sum   'Cu12 P8 H8 O36'
_cell_volume   666.12375291
_cell_formula_units_Z   4
loop_
 _symmetry_equiv_pos_site_id
 _symmetry_equiv_pos_as_xyz
  1  'x, y, z'
loop_
 _atom_site_type_symbol
 _atom_site_label
 _atom_site_symmetry_multiplicity
 _atom_site_fract_x
 _atom_site_fract_y
 _atom_site_fract_z
 _atom_site_occupancy
  Cu  Cu0  1  0.83767400  0.66338200  0.90724600  1
  Cu  Cu1  1  0.33661800  0.16232600  0.59275400  1
  Cu  Cu2  1  0.16232600  0.33661800  0.09275400  1
  Cu  Cu3  1  0.66338200  0.83767400  0.40724600  1
  Cu  Cu4  1  0.72499600  0.09210600  0.86022600  1
  Cu  Cu5  1  0.90789400  0.27500400  0.63977400  1
  Cu  Cu6  1  0.27500400  0.90789400  0.13977400  1
  Cu  Cu7  1  0.09210600  0.72499600  0.36022600  1
  Cu  Cu8  1  0.51788400  0.70862800  0.81586100  1
  Cu  Cu9  1  0.29137200  0.48211600  0.68413900  1
  Cu  Cu10  1  0.48211600  0.29137200  0.18413900  1
  Cu  Cu11  1  0.70862800  0.51788400  0.31586100  1
  P  P12  1  0.64839200  0.86087700  0.14235100  1
  P  P13  1  0.13912300  0.35160800  0.35764900  1
  P  P14  1  0.35160800  0.13912300  0.85764900  1
  P  P15  1  0.86087700  0.64839200  0.64235100  1
  P  P16  1  0.25096700  0.60621600  0.90333800  1
  P  P17  1  0.39378400  0.74903300  0.59666200  1
  P  P18  1  0.74903300  0.39378400  0.09666200  1
  P  P19  1  0.60621600  0.25096700  0.40333800  1
  H  H20  1  0.03641400  0.01536000  0.86818600  1
  H  H21  1  0.98464000  0.96358600  0.63181400  1
  H  H22  1  0.96358600  0.98464000  0.13181400  1
  H  H23  1  0.01536000  0.03641400  0.36818600  1
  H  H24  1  0.81688200  0.27447300  0.90452000  1
  H  H25  1  0.72552700  0.18311900  0.59548000  1
  H  H26  1  0.18311800  0.72552700  0.09548000  1
  H  H27  1  0.27447300  0.81688200  0.40452000  1
  O  O28  1  0.84042000  0.65310000  0.07095400  1
  O  O29  1  0.34690000  0.15958000  0.42904600  1
  O  O30  1  0.15958000  0.34690000  0.92904600  1
  O  O31  1  0.65310000  0.84042000  0.57095400  1
  O  O32  1  0.01262700  0.76455500  0.86648600  1
  O  O33  1  0.23544500  0.98737300  0.63351400  1
  O  O34  1  0.98737300  0.23544500  0.13351400  1
  O  O35  1  0.76455500  0.01262700  0.36648600  1
  O  O36  1  0.28273800  0.74857800  0.88170800  1
  O  O37  1  0.25142200  0.71726200  0.61829200  1
  O  O38  1  0.71726200  0.25142200  0.11829200  1
  O  O39  1  0.74857800  0.28273800  0.38170800  1
  O  O40  1  0.58814800  0.99972800  0.88940700  1
  O  O41  1  0.00027200  0.41185300  0.61059300  1
  O  O42  1  0.41185300  0.00027200  0.11059300  1
  O  O43  1  0.99972800  0.58814800  0.38940700  1
  O  O44  1  0.32882700  0.99312900  0.87930100  1
  O  O45  1  0.00687100  0.67117300  0.62069900  1
  O  O46  1  0.67117300  0.00687100  0.12069900  1
  O  O47  1  0.99312900  0.32882700  0.37930100  1
  O  O48  1  0.59390500  0.57219600  0.67667700  1
  O  O49  1  0.42780400  0.40609500  0.82332300  1
  O  O50  1  0.40609500  0.42780400  0.32332300  1
  O  O51  1  0.57219600  0.59390500  0.17667700  1
  O  O52  1  0.72490200  0.48558300  0.97294700  1
  O  O53  1  0.51441700  0.27509800  0.52705300  1
  O  O54  1  0.27509800  0.51441700  0.02705300  1
  O  O55  1  0.48558300  0.72490200  0.47294700  1
  O  O56  1  0.87204600  0.16706800  0.85492700  1
  O  O57  1  0.83293200  0.12795400  0.64507300  1
  O  O58  1  0.12795400  0.83293200  0.14507300  1
  O  O59  1  0.16706800  0.87204600  0.35492700  1
  O  O60  1  0.66602800  0.76580500  0.26846300  1
  O  O61  1  0.23419500  0.33397200  0.23153700  1
  O  O62  1  0.33397200  0.23419500  0.73153700  1
  O  O63  1  0.76580500  0.66602800  0.76846300  1
