# generated using pymatgen
data_CoAs2S6(NF3)6
_symmetry_space_group_name_H-M   'P 1'
_cell_length_a   9.55481400
_cell_length_b   9.68766100
_cell_length_c   16.66842216
_cell_angle_alpha   54.99083139
_cell_angle_beta   90.00000000
_cell_angle_gamma   90.00000000
_symmetry_Int_Tables_number   1
_chemical_formula_structural   CoAs2S6(NF3)6
_chemical_formula_sum   'Co2 As4 S12 N12 F36'
_cell_volume   1263.72189647
_cell_formula_units_Z   2
loop_
 _symmetry_equiv_pos_site_id
 _symmetry_equiv_pos_as_xyz
  1  'x, y, z'
loop_
 _atom_site_type_symbol
 _atom_site_label
 _atom_site_symmetry_multiplicity
 _atom_site_fract_x
 _atom_site_fract_y
 _atom_site_fract_z
 _atom_site_occupancy
  Co  Co0  1  0.50000000  0.00000000  0.50000000  1
  Co  Co1  1  0.00000000  0.00000000  0.00000000  1
  As  As2  1  0.55113300  0.25682600  0.74647800  1
  As  As3  1  0.94886700  0.25682600  0.24647800  1
  As  As4  1  0.44886700  0.74317400  0.25352200  1
  As  As5  1  0.05113300  0.74317400  0.75352200  1
  S  S6  1  0.30506500  0.66221400  0.53620200  1
  S  S7  1  0.19493500  0.66221400  0.03620200  1
  S  S8  1  0.69493500  0.33778600  0.46379800  1
  S  S9  1  0.80506500  0.33778600  0.96379800  1
  S  S10  1  0.80404600  0.76874900  0.53714300  1
  S  S11  1  0.69595400  0.76874900  0.03714300  1
  S  S12  1  0.19595400  0.23125100  0.46285700  1
  S  S13  1  0.30404600  0.23125100  0.96285700  1
  S  S14  1  0.46599200  0.81991300  0.75096700  1
  S  S15  1  0.03400800  0.81991300  0.25096700  1
  S  S16  1  0.53400800  0.18008700  0.24903300  1
  S  S17  1  0.96599200  0.18008700  0.74903300  1
  N  N18  1  0.38808700  0.79429400  0.52671200  1
  N  N19  1  0.11191300  0.79429400  0.02671200  1
  N  N20  1  0.61191300  0.20570600  0.47328800  1
  N  N21  1  0.88808700  0.20570600  0.97328800  1
  N  N22  1  0.47908800  0.90355700  0.64699500  1
  N  N23  1  0.02091200  0.90355700  0.14699500  1
  N  N24  1  0.52091200  0.09644300  0.35300500  1
  N  N25  1  0.97908800  0.09644300  0.85300500  1
  N  N26  1  0.68375300  0.86566900  0.52839700  1
  N  N27  1  0.81624700  0.86566900  0.02839700  1
  N  N28  1  0.31624700  0.13433100  0.47160300  1
  N  N29  1  0.18375300  0.13433100  0.97160300  1
  F  F30  1  0.40549700  0.13036500  0.76337800  1
  F  F31  1  0.09450300  0.13036500  0.26337800  1
  F  F32  1  0.59450300  0.86963500  0.23662200  1
  F  F33  1  0.90549700  0.86963500  0.73662200  1
  F  F34  1  0.57265900  0.14348300  0.87558300  1
  F  F35  1  0.92734100  0.14348300  0.37558300  1
  F  F36  1  0.42734100  0.85651700  0.12441700  1
  F  F37  1  0.07265900  0.85651700  0.62441700  1
  F  F38  1  0.70076300  0.38074400  0.72981200  1
  F  F39  1  0.79923700  0.38074400  0.22981200  1
  F  F40  1  0.29923700  0.61925600  0.27018800  1
  F  F41  1  0.20076300  0.61925600  0.77018800  1
  F  F42  1  0.53252800  0.37223800  0.61701000  1
  F  F43  1  0.96747200  0.37223800  0.11701000  1
  F  F44  1  0.46747200  0.62776200  0.38299000  1
  F  F45  1  0.03252800  0.62776200  0.88299000  1
  F  F46  1  0.66346900  0.11096000  0.74527300  1
  F  F47  1  0.83653100  0.11096000  0.24527300  1
  F  F48  1  0.33653100  0.88904000  0.25472700  1
  F  F49  1  0.16346900  0.88904000  0.75472700  1
  F  F50  1  0.43990500  0.40230300  0.74764800  1
  F  F51  1  0.06009500  0.40230300  0.24764800  1
  F  F52  1  0.56009500  0.59769700  0.25235200  1
  F  F53  1  0.93990500  0.59769700  0.75235200  1
  F  F54  1  0.15389000  0.72535000  0.47390800  1
  F  F55  1  0.34611000  0.72535000  0.97390800  1
  F  F56  1  0.84611000  0.27465000  0.52609200  1
  F  F57  1  0.65389000  0.27465000  0.02609200  1
  F  F58  1  0.79909800  0.69460400  0.46837300  1
  F  F59  1  0.70090200  0.69460400  0.96837300  1
  F  F60  1  0.20090200  0.30539600  0.53162700  1
  F  F61  1  0.29909800  0.30539600  0.03162700  1
  F  F62  1  0.54545600  0.63256100  0.81825400  1
  F  F63  1  0.95454400  0.63256100  0.31825400  1
  F  F64  1  0.45454400  0.36743900  0.18174600  1
  F  F65  1  0.04545600  0.36743900  0.68174600  1
