# generated using pymatgen
data_SrP3H15(N2O5)2
_symmetry_space_group_name_H-M   'P 1'
_cell_length_a   10.64571500
_cell_length_b   10.98858300
_cell_length_c   13.07003274
_cell_angle_alpha   59.77694007
_cell_angle_beta   90.00000000
_cell_angle_gamma   90.00000000
_symmetry_Int_Tables_number   1
_chemical_formula_structural   SrP3H15(N2O5)2
_chemical_formula_sum   'Sr4 P12 H60 N16 O40'
_cell_volume   1321.12307173
_cell_formula_units_Z   4
loop_
 _symmetry_equiv_pos_site_id
 _symmetry_equiv_pos_as_xyz
  1  'x, y, z'
loop_
 _atom_site_type_symbol
 _atom_site_label
 _atom_site_symmetry_multiplicity
 _atom_site_fract_x
 _atom_site_fract_y
 _atom_site_fract_z
 _atom_site_occupancy
  Sr  Sr0  1  0.97449300  0.84678000  0.45353500  1
  Sr  Sr1  1  0.52550700  0.84678000  0.95353500  1
  Sr  Sr2  1  0.02550700  0.15322000  0.54646500  1
  Sr  Sr3  1  0.47449300  0.15322000  0.04646500  1
  P  P4  1  0.64628500  0.92680100  0.34807600  1
  P  P5  1  0.85371500  0.92680100  0.84807600  1
  P  P6  1  0.35371500  0.07319900  0.65192400  1
  P  P7  1  0.14628500  0.07319900  0.15192400  1
  P  P8  1  0.72208000  0.04767100  0.49730400  1
  P  P9  1  0.77792000  0.04767100  0.99730400  1
  P  P10  1  0.27792000  0.95232900  0.50269600  1
  P  P11  1  0.22208000  0.95232900  0.00269600  1
  P  P12  1  0.65946300  0.74341200  0.60581900  1
  P  P13  1  0.84053700  0.74341200  0.10581900  1
  P  P14  1  0.34053700  0.25658800  0.39418100  1
  P  P15  1  0.15946300  0.25658800  0.89418100  1
  H  H16  1  0.56736200  0.11418000  0.35965200  1
  H  H17  1  0.93263800  0.11418000  0.85965200  1
  H  H18  1  0.43263800  0.88582000  0.64034800  1
  H  H19  1  0.06736200  0.88582000  0.14034800  1
  H  H20  1  0.67420700  0.88719700  0.69036100  1
  H  H21  1  0.82579300  0.88719700  0.19036100  1
  H  H22  1  0.32579300  0.11280300  0.30963900  1
  H  H23  1  0.17420700  0.11280300  0.80963900  1
  H  H24  1  0.49286400  0.79574100  0.48049200  1
  H  H25  1  0.00713600  0.79574100  0.98049200  1
  H  H26  1  0.50713600  0.20425900  0.51950800  1
  H  H27  1  0.99286400  0.20425900  0.01950800  1
  H  H28  1  0.33881800  0.66398400  0.37939200  1
  H  H29  1  0.16118200  0.66398400  0.87939200  1
  H  H30  1  0.66118200  0.33601600  0.62060800  1
  H  H31  1  0.83881800  0.33601600  0.12060800  1
  H  H32  1  0.28149800  0.80872100  0.25964600  1
  H  H33  1  0.21850200  0.80872100  0.75964600  1
  H  H34  1  0.71850200  0.19127900  0.74035400  1
  H  H35  1  0.78149800  0.19127900  0.24035400  1
  H  H36  1  0.43059300  0.81510600  0.29989200  1
  H  H37  1  0.06940700  0.81510600  0.79989200  1
  H  H38  1  0.56940700  0.18489400  0.70010800  1
  H  H39  1  0.93059300  0.18489400  0.20010800  1
  H  H40  1  0.39077700  0.71189700  0.24239900  1
  H  H41  1  0.10922300  0.71189700  0.74239900  1
  H  H42  1  0.60922300  0.28810300  0.75760100  1
  H  H43  1  0.89077700  0.28810300  0.25760100  1
  H  H44  1  0.20008000  0.67184200  0.59234700  1
  H  H45  1  0.29992000  0.67184200  0.09234700  1
  H  H46  1  0.79992000  0.32815800  0.40765300  1
  H  H47  1  0.70008000  0.32815800  0.90765300  1
  H  H48  1  0.10847800  0.54566600  0.67715500  1
  H  H49  1  0.39152200  0.54566600  0.17715500  1
  H  H50  1  0.89152200  0.45433400  0.32284500  1
  H  H51  1  0.60847800  0.45433400  0.82284500  1
  H  H52  1  0.10109100  0.60541700  0.42898400  1
  H  H53  1  0.39890900  0.60541700  0.92898400  1
  H  H54  1  0.89890900  0.39458300  0.57101600  1
  H  H55  1  0.60109100  0.39458300  0.07101600  1
  H  H56  1  0.99617300  0.65656900  0.32716500  1
  H  H57  1  0.50382700  0.65656900  0.82716500  1
  H  H58  1  0.00382700  0.34343100  0.67283500  1
  H  H59  1  0.49617300  0.34343100  0.17283500  1
  H  H60  1  0.76010200  0.56978800  0.53528600  1
  H  H61  1  0.73989800  0.56978800  0.03528600  1
  H  H62  1  0.23989800  0.43021200  0.46471400  1
  H  H63  1  0.26010200  0.43021200  0.96471400  1
  H  H64  1  0.69656800  0.52954200  0.44471400  1
  H  H65  1  0.80343200  0.52954200  0.94471400  1
  H  H66  1  0.30343200  0.47045800  0.55528600  1
  H  H67  1  0.19656800  0.47045800  0.05528600  1
  H  H68  1  0.36151800  0.40781800  0.75461100  1
  H  H69  1  0.13848200  0.40781800  0.25461100  1
  H  H70  1  0.63848200  0.59218200  0.24538900  1
  H  H71  1  0.86151800  0.59218200  0.74538900  1
  H  H72  1  0.46014000  0.52299800  0.67308900  1
  H  H73  1  0.03986000  0.52299800  0.17308900  1
  H  H74  1  0.53986000  0.47700200  0.32691100  1
  H  H75  1  0.96014000  0.47700200  0.82691100  1
  N  N76  1  0.65345100  0.06604700  0.37282800  1
  N  N77  1  0.84654900  0.06604700  0.87282800  1
  N  N78  1  0.34654900  0.93395300  0.62717200  1
  N  N79  1  0.15345100  0.93395300  0.12717200  1
  N  N80  1  0.65929600  0.89629900  0.60839300  1
  N  N81  1  0.84070400  0.89629900  0.10839300  1
  N  N82  1  0.34070400  0.10370100  0.39160700  1
  N  N83  1  0.15929600  0.10370100  0.89160700  1
  N  N84  1  0.58983100  0.78879300  0.47541900  1
  N  N85  1  0.91016900  0.78879300  0.97541900  1
  N  N86  1  0.41016900  0.21120700  0.52458100  1
  N  N87  1  0.08983100  0.21120700  0.02458100  1
  N  N88  1  0.36199400  0.74979600  0.29703000  1
  N  N89  1  0.13800600  0.74979600  0.79703000  1
  N  N90  1  0.63800600  0.25020400  0.70297000  1
  N  N91  1  0.86199400  0.25020400  0.20297000  1
  O  O92  1  0.77993000  0.89497000  0.32996000  1
  O  O93  1  0.72007000  0.89497000  0.82996000  1
  O  O94  1  0.22007000  0.10503000  0.67004000  1
  O  O95  1  0.27993000  0.10503000  0.17004000  1
  O  O96  1  0.54956300  0.96233200  0.25301000  1
  O  O97  1  0.95043700  0.96233200  0.75301000  1
  O  O98  1  0.45043700  0.03766800  0.74699000  1
  O  O99  1  0.04956300  0.03766800  0.24699000  1
  O  O100  1  0.86256600  0.02997600  0.48479700  1
  O  O101  1  0.63743400  0.02997600  0.98479700  1
  O  O102  1  0.13743400  0.97002400  0.51520300  1
  O  O103  1  0.36256600  0.97002400  0.01520300  1
  O  O104  1  0.68496700  0.16911600  0.51373300  1
  O  O105  1  0.81503300  0.16911600  0.01373300  1
  O  O106  1  0.31503300  0.83088400  0.48626700  1
  O  O107  1  0.18496700  0.83088400  0.98626700  1
  O  O108  1  0.79276200  0.69511600  0.60039800  1
  O  O109  1  0.70723800  0.69511600  0.10039800  1
  O  O110  1  0.20723800  0.30488400  0.39960200  1
  O  O111  1  0.29276200  0.30488400  0.89960200  1
  O  O112  1  0.57709100  0.63860100  0.70705900  1
  O  O113  1  0.92290900  0.63860100  0.20705900  1
  O  O114  1  0.42290900  0.36139900  0.29294100  1
  O  O115  1  0.07709100  0.36139900  0.79294100  1
  O  O116  1  0.11490800  0.64917800  0.62726800  1
  O  O117  1  0.38509200  0.64917800  0.12726800  1
  O  O118  1  0.88509200  0.35082200  0.37273200  1
  O  O119  1  0.61490800  0.35082200  0.87273200  1
  O  O120  1  0.03411200  0.67530700  0.38683600  1
  O  O121  1  0.46588800  0.67530700  0.88683600  1
  O  O122  1  0.96588800  0.32469300  0.61316400  1
  O  O123  1  0.53411200  0.32469300  0.11316400  1
  O  O124  1  0.75005600  0.49385100  0.51658000  1
  O  O125  1  0.74994400  0.49385100  0.01658000  1
  O  O126  1  0.24994400  0.50614900  0.48342000  1
  O  O127  1  0.25005600  0.50614900  0.98342000  1
  O  O128  1  0.40063300  0.45338800  0.67497200  1
  O  O129  1  0.09936700  0.45338800  0.17497200  1
  O  O130  1  0.59936700  0.54661200  0.32502800  1
  O  O131  1  0.90063300  0.54661200  0.82502800  1
