# generated using pymatgen
data_KBH5N
_symmetry_space_group_name_H-M   'P 1'
_cell_length_a   8.30594900
_cell_length_b   17.48138800
_cell_length_c   9.61208500
_cell_angle_alpha   90.00000000
_cell_angle_beta   90.00000000
_cell_angle_gamma   90.00000000
_symmetry_Int_Tables_number   1
_chemical_formula_structural   KBH5N
_chemical_formula_sum   'K16 B16 H80 N16'
_cell_volume   1395.67010107
_cell_formula_units_Z   16
loop_
 _symmetry_equiv_pos_site_id
 _symmetry_equiv_pos_as_xyz
  1  'x, y, z'
loop_
 _atom_site_type_symbol
 _atom_site_label
 _atom_site_symmetry_multiplicity
 _atom_site_fract_x
 _atom_site_fract_y
 _atom_site_fract_z
 _atom_site_occupancy
  K  K0  1  0.86518700  0.89091500  0.14582900  1
  K  K1  1  0.63481300  0.10908500  0.64582900  1
  K  K2  1  0.36518700  0.60908500  0.85417100  1
  K  K3  1  0.13481300  0.39091500  0.35417100  1
  K  K4  1  0.13481300  0.10908500  0.85417100  1
  K  K5  1  0.36518700  0.89091500  0.35417100  1
  K  K6  1  0.63481300  0.39091500  0.14582900  1
  K  K7  1  0.86518700  0.60908500  0.64582900  1
  K  K8  1  0.91884300  0.17468000  0.26782000  1
  K  K9  1  0.58115700  0.82532000  0.76782000  1
  K  K10  1  0.41884300  0.32532000  0.73218000  1
  K  K11  1  0.08115700  0.67468000  0.23218000  1
  K  K12  1  0.08115700  0.82532000  0.73218000  1
  K  K13  1  0.41884300  0.17468000  0.23218000  1
  K  K14  1  0.58115700  0.67468000  0.26782000  1
  K  K15  1  0.91884300  0.32532000  0.76782000  1
  B  B16  1  0.83675200  0.77506700  0.46000000  1
  B  B17  1  0.66324800  0.22493300  0.96000000  1
  B  B18  1  0.33675200  0.72493300  0.54000000  1
  B  B19  1  0.16324800  0.27506700  0.04000000  1
  B  B20  1  0.16324800  0.22493300  0.54000000  1
  B  B21  1  0.33675200  0.77506700  0.04000000  1
  B  B22  1  0.66324800  0.27506700  0.46000000  1
  B  B23  1  0.83675200  0.72493300  0.96000000  1
  B  B24  1  0.15615500  0.03088200  0.18738700  1
  B  B25  1  0.34384500  0.96911800  0.68738700  1
  B  B26  1  0.65615500  0.46911800  0.81261300  1
  B  B27  1  0.84384500  0.53088200  0.31261300  1
  B  B28  1  0.84384500  0.96911800  0.81261300  1
  B  B29  1  0.65615500  0.03088200  0.31261300  1
  B  B30  1  0.34384500  0.53088200  0.18738700  1
  B  B31  1  0.15615500  0.46911800  0.68738700  1
  H  H32  1  0.99178300  0.87340800  0.43640900  1
  H  H33  1  0.50821700  0.12659200  0.93640900  1
  H  H34  1  0.49178300  0.62659200  0.56359100  1
  H  H35  1  0.00821700  0.37340800  0.06359100  1
  H  H36  1  0.00821700  0.12659200  0.56359100  1
  H  H37  1  0.49178300  0.87340800  0.06359100  1
  H  H38  1  0.50821700  0.37340800  0.43640900  1
  H  H39  1  0.99178300  0.62659200  0.93640900  1
  H  H40  1  0.09005800  0.79307700  0.43876000  1
  H  H41  1  0.40994200  0.20692300  0.93876000  1
  H  H42  1  0.59005800  0.70692300  0.56124000  1
  H  H43  1  0.90994200  0.29307700  0.06124000  1
  H  H44  1  0.90994200  0.20692300  0.56124000  1
  H  H45  1  0.59005800  0.79307700  0.06124000  1
  H  H46  1  0.40994200  0.29307700  0.43876000  1
  H  H47  1  0.09005800  0.70692300  0.93876000  1
  H  H48  1  0.29049200  0.99378100  0.00867000  1
  H  H49  1  0.20950800  0.00621900  0.50867000  1
  H  H50  1  0.79049200  0.50621900  0.99133000  1
  H  H51  1  0.70950800  0.49378100  0.49133000  1
  H  H52  1  0.70950800  0.00621900  0.99133000  1
  H  H53  1  0.79049200  0.99378100  0.49133000  1
  H  H54  1  0.20950800  0.49378100  0.00867000  1
  H  H55  1  0.29049200  0.50621900  0.50867000  1
  H  H56  1  0.40815800  0.02209300  0.13219400  1
  H  H57  1  0.09184200  0.97790700  0.63219400  1
  H  H58  1  0.90815800  0.47790700  0.86780600  1
  H  H59  1  0.59184200  0.52209300  0.36780600  1
  H  H60  1  0.59184200  0.97790700  0.86780600  1
  H  H61  1  0.90815800  0.02209300  0.36780600  1
  H  H62  1  0.09184200  0.52209300  0.13219400  1
  H  H63  1  0.40815800  0.47790700  0.63219400  1
  H  H64  1  0.83940400  0.70773900  0.41931000  1
  H  H65  1  0.66059600  0.29226100  0.91931000  1
  H  H66  1  0.33940400  0.79226100  0.58069000  1
  H  H67  1  0.16059600  0.20773900  0.08069000  1
  H  H68  1  0.16059600  0.29226100  0.58069000  1
  H  H69  1  0.33940400  0.70773900  0.08069000  1
  H  H70  1  0.66059600  0.20773900  0.41931000  1
  H  H71  1  0.83940400  0.79226100  0.91931000  1
  H  H72  1  0.71091600  0.80500600  0.41738400  1
  H  H73  1  0.78908400  0.19499400  0.91738400  1
  H  H74  1  0.21091600  0.69499400  0.58261600  1
  H  H75  1  0.28908400  0.30500600  0.08261600  1
  H  H76  1  0.28908400  0.19499400  0.58261600  1
  H  H77  1  0.21091600  0.80500600  0.08261600  1
  H  H78  1  0.78908400  0.30500600  0.41738400  1
  H  H79  1  0.71091600  0.69499400  0.91738400  1
  H  H80  1  0.82725800  0.77184400  0.59050900  1
  H  H81  1  0.67274200  0.22815600  0.09050900  1
  H  H82  1  0.32725800  0.72815600  0.40949100  1
  H  H83  1  0.17274200  0.27184400  0.90949100  1
  H  H84  1  0.17274200  0.22815600  0.40949100  1
  H  H85  1  0.32725800  0.77184400  0.90949100  1
  H  H86  1  0.67274200  0.27184400  0.59050900  1
  H  H87  1  0.82725800  0.72815600  0.09050900  1
  H  H88  1  0.18132300  0.07336400  0.28841600  1
  H  H89  1  0.31867700  0.92663600  0.78841600  1
  H  H90  1  0.68132300  0.42663600  0.71158400  1
  H  H91  1  0.81867700  0.57336400  0.21158400  1
  H  H92  1  0.81867700  0.92663600  0.71158400  1
  H  H93  1  0.68132300  0.07336400  0.21158400  1
  H  H94  1  0.31867700  0.57336400  0.28841600  1
  H  H95  1  0.18132300  0.42663600  0.78841600  1
  H  H96  1  0.03013900  0.05271000  0.12930000  1
  H  H97  1  0.46986100  0.94729000  0.62930000  1
  H  H98  1  0.53013900  0.44729000  0.87070000  1
  H  H99  1  0.96986100  0.55271000  0.37070000  1
  H  H100  1  0.96986100  0.94729000  0.87070000  1
  H  H101  1  0.53013900  0.05271000  0.37070000  1
  H  H102  1  0.46986100  0.55271000  0.12930000  1
  H  H103  1  0.03013900  0.44729000  0.62930000  1
  H  H104  1  0.12756600  0.96609300  0.23634900  1
  H  H105  1  0.37243400  0.03390700  0.73634900  1
  H  H106  1  0.62756600  0.53390700  0.76365100  1
  H  H107  1  0.87243400  0.46609300  0.26365100  1
  H  H108  1  0.87243400  0.03390700  0.76365100  1
  H  H109  1  0.62756600  0.96609300  0.26365100  1
  H  H110  1  0.37243400  0.46609300  0.23634900  1
  H  H111  1  0.12756600  0.53390700  0.73634900  1
  N  N112  1  0.98618000  0.81758400  0.40309600  1
  N  N113  1  0.51382000  0.18241600  0.90309600  1
  N  N114  1  0.48618000  0.68241600  0.59690400  1
  N  N115  1  0.01382000  0.31758400  0.09690400  1
  N  N116  1  0.01382000  0.18241600  0.59690400  1
  N  N117  1  0.48618000  0.81758400  0.09690400  1
  N  N118  1  0.51382000  0.31758400  0.40309600  1
  N  N119  1  0.98618000  0.68241600  0.90309600  1
  N  N120  1  0.30046000  0.03418900  0.08523700  1
  N  N121  1  0.19954000  0.96581100  0.58523700  1
  N  N122  1  0.80046000  0.46581100  0.91476300  1
  N  N123  1  0.69954000  0.53418900  0.41476300  1
  N  N124  1  0.69954000  0.96581100  0.91476300  1
  N  N125  1  0.80046000  0.03418900  0.41476300  1
  N  N126  1  0.19954000  0.53418900  0.08523700  1
  N  N127  1  0.30046000  0.46581100  0.58523700  1
