# generated using pymatgen
data_MgZnBr4O7
_symmetry_space_group_name_H-M   'P 1'
_cell_length_a   7.37257200
_cell_length_b   12.79351600
_cell_length_c   11.07058958
_cell_angle_alpha   90.00000000
_cell_angle_beta   110.36390773
_cell_angle_gamma   90.00000000
_symmetry_Int_Tables_number   1
_chemical_formula_structural   MgZnBr4O7
_chemical_formula_sum   'Mg4 Zn4 Br16 O28'
_cell_volume   978.92992551
_cell_formula_units_Z   4
loop_
 _symmetry_equiv_pos_site_id
 _symmetry_equiv_pos_as_xyz
  1  'x, y, z'
loop_
 _atom_site_type_symbol
 _atom_site_label
 _atom_site_symmetry_multiplicity
 _atom_site_fract_x
 _atom_site_fract_y
 _atom_site_fract_z
 _atom_site_occupancy
  Mg  Mg0  1  0.50000000  0.00000000  0.50000000  1
  Mg  Mg1  1  0.50000000  0.50000000  0.00000000  1
  Mg  Mg2  1  0.50000000  0.00000000  0.00000000  1
  Mg  Mg3  1  0.50000000  0.50000000  0.50000000  1
  Zn  Zn4  1  0.21051400  0.21413700  0.15104100  1
  Zn  Zn5  1  0.21051400  0.28586300  0.65104100  1
  Zn  Zn6  1  0.78948600  0.78586300  0.84895900  1
  Zn  Zn7  1  0.78948600  0.71413700  0.34895900  1
  Br  Br8  1  0.90117300  0.34035400  0.04860800  1
  Br  Br9  1  0.90117300  0.15964600  0.54860800  1
  Br  Br10  1  0.09882700  0.65964600  0.95139200  1
  Br  Br11  1  0.09882700  0.84035400  0.45139200  1
  Br  Br12  1  0.17075000  0.98854500  0.17979000  1
  Br  Br13  1  0.17075000  0.51145500  0.67979000  1
  Br  Br14  1  0.82925000  0.01145500  0.82021000  1
  Br  Br15  1  0.82925000  0.48854500  0.32021000  1
  Br  Br16  1  0.49245500  0.32454700  0.26714700  1
  Br  Br17  1  0.49245500  0.17545300  0.76714700  1
  Br  Br18  1  0.50754500  0.67545300  0.73285300  1
  Br  Br19  1  0.50754500  0.82454700  0.23285300  1
  Br  Br20  1  0.14702700  0.19212700  0.37994200  1
  Br  Br21  1  0.14702700  0.30787300  0.87994200  1
  Br  Br22  1  0.85297300  0.80787300  0.62005800  1
  Br  Br23  1  0.85297300  0.69212700  0.12005800  1
  O  O24  1  0.25323800  0.90363000  0.37115300  1
  O  O25  1  0.25323800  0.59637000  0.87115300  1
  O  O26  1  0.74676200  0.09637000  0.62884700  1
  O  O27  1  0.74676200  0.40363000  0.12884700  1
  O  O28  1  0.36113000  0.14101900  0.50312600  1
  O  O29  1  0.36113000  0.35898100  0.00312600  1
  O  O30  1  0.63887000  0.85898100  0.49687400  1
  O  O31  1  0.63887000  0.64101900  0.99687400  1
  O  O32  1  0.53880400  0.06757800  0.33070800  1
  O  O33  1  0.53880400  0.43242200  0.83070800  1
  O  O34  1  0.46119600  0.93242200  0.66929200  1
  O  O35  1  0.46119600  0.56757800  0.16929200  1
  O  O36  1  0.50019100  0.14305000  0.92366800  1
  O  O37  1  0.50019100  0.35695000  0.42366800  1
  O  O38  1  0.49980900  0.85695000  0.07633200  1
  O  O39  1  0.49980900  0.64305000  0.57633200  1
  O  O40  1  0.21121300  0.08495800  0.06198200  1
  O  O41  1  0.21121300  0.41504200  0.56198200  1
  O  O42  1  0.78878700  0.91504200  0.93801800  1
  O  O43  1  0.78878700  0.58495800  0.43801800  1
  O  O44  1  0.68110000  0.05317500  0.18056300  1
  O  O45  1  0.68110000  0.44682500  0.68056300  1
  O  O46  1  0.31890000  0.94682500  0.81943700  1
  O  O47  1  0.31890000  0.55317500  0.31943700  1
  O  O48  1  0.67870400  0.02208900  0.29498900  1
  O  O49  1  0.67870400  0.47791100  0.79498900  1
  O  O50  1  0.32129600  0.97791100  0.70501100  1
  O  O51  1  0.32129600  0.52208900  0.20501100  1
