# generated using pymatgen
data_Y2Ni7Sn3
_symmetry_space_group_name_H-M   'P 1'
_cell_length_a   7.60608000
_cell_length_b   8.63886700
_cell_length_c   12.61479383
_cell_angle_alpha   110.02377947
_cell_angle_beta   90.00000000
_cell_angle_gamma   90.00000000
_symmetry_Int_Tables_number   1
_chemical_formula_structural   Y2Ni7Sn3
_chemical_formula_sum   'Y8 Ni28 Sn12'
_cell_volume   778.78576371
_cell_formula_units_Z   4
loop_
 _symmetry_equiv_pos_site_id
 _symmetry_equiv_pos_as_xyz
  1  'x, y, z'
loop_
 _atom_site_type_symbol
 _atom_site_label
 _atom_site_symmetry_multiplicity
 _atom_site_fract_x
 _atom_site_fract_y
 _atom_site_fract_z
 _atom_site_occupancy
  Y  Y0  1  0.42717800  0.19390700  0.38781400  1
  Y  Y1  1  0.57282200  0.80609300  0.61218600  1
  Y  Y2  1  0.92717800  0.30609300  0.61218600  1
  Y  Y3  1  0.07282200  0.69390700  0.38781400  1
  Y  Y4  1  0.50000000  0.29202400  0.00000000  1
  Y  Y5  1  0.00000000  0.79202400  0.00000000  1
  Y  Y6  1  0.50000000  0.70797600  0.00000000  1
  Y  Y7  1  0.00000000  0.20797600  0.00000000  1
  Ni  Ni8  1  0.42172100  0.54916700  0.39511800  1
  Ni  Ni9  1  0.57827900  0.15405000  0.60488200  1
  Ni  Ni10  1  0.92172100  0.65405000  0.60488200  1
  Ni  Ni11  1  0.07827900  0.04916700  0.39511800  1
  Ni  Ni12  1  0.57827900  0.45083300  0.60488200  1
  Ni  Ni13  1  0.42172100  0.84595000  0.39511800  1
  Ni  Ni14  1  0.07827900  0.34595000  0.39511800  1
  Ni  Ni15  1  0.92172100  0.95083300  0.60488200  1
  Ni  Ni16  1  0.44502900  0.60063300  0.20126600  1
  Ni  Ni17  1  0.55497100  0.39936700  0.79873400  1
  Ni  Ni18  1  0.94502900  0.89936700  0.79873400  1
  Ni  Ni19  1  0.05497100  0.10063300  0.20126600  1
  Ni  Ni20  1  0.59282100  0.35749400  0.23401300  1
  Ni  Ni21  1  0.40717900  0.12348000  0.76598700  1
  Ni  Ni22  1  0.09282100  0.62348000  0.76598700  1
  Ni  Ni23  1  0.90717900  0.85749400  0.23401300  1
  Ni  Ni24  1  0.40717900  0.64250600  0.76598700  1
  Ni  Ni25  1  0.59282100  0.87652000  0.23401300  1
  Ni  Ni26  1  0.90717900  0.37652000  0.23401300  1
  Ni  Ni27  1  0.09282100  0.14250600  0.76598700  1
  Ni  Ni28  1  0.34956000  0.04691600  0.09383100  1
  Ni  Ni29  1  0.65044000  0.95308400  0.90616900  1
  Ni  Ni30  1  0.84956000  0.45308400  0.90616900  1
  Ni  Ni31  1  0.15044000  0.54691600  0.09383100  1
  Ni  Ni32  1  0.31061000  0.33482600  0.66965300  1
  Ni  Ni33  1  0.68939000  0.66517400  0.33034700  1
  Ni  Ni34  1  0.81061000  0.16517400  0.33034700  1
  Ni  Ni35  1  0.18939000  0.83482600  0.66965300  1
  Sn  Sn36  1  0.25000000  0.53126900  0.56253900  1
  Sn  Sn37  1  0.75000000  0.96873100  0.43746100  1
  Sn  Sn38  1  0.75000000  0.46873100  0.43746100  1
  Sn  Sn39  1  0.25000000  0.03126900  0.56253900  1
  Sn  Sn40  1  0.25000000  0.35604700  0.21209300  1
  Sn  Sn41  1  0.75000000  0.14395300  0.78790700  1
  Sn  Sn42  1  0.75000000  0.64395300  0.78790700  1
  Sn  Sn43  1  0.25000000  0.85604700  0.21209300  1
  Sn  Sn44  1  0.29790800  0.93768100  0.87536300  1
  Sn  Sn45  1  0.70209200  0.06231900  0.12463700  1
  Sn  Sn46  1  0.79790800  0.56231900  0.12463700  1
  Sn  Sn47  1  0.20209200  0.43768100  0.87536300  1
