# generated using pymatgen
data_Si2TeH22Pd(C4Cl)2
_symmetry_space_group_name_H-M   'P 1'
_cell_length_a   13.10561074
_cell_length_b   13.40358745
_cell_length_c   23.26545464
_cell_angle_alpha   83.38425040
_cell_angle_beta   88.10812767
_cell_angle_gamma   90.12008334
_symmetry_Int_Tables_number   1
_chemical_formula_structural   Si2TeH22Pd(C4Cl)2
_chemical_formula_sum   'Si16 Te8 H176 Pd8 C64 Cl16'
_cell_volume   4057.36256842
_cell_formula_units_Z   8
loop_
 _symmetry_equiv_pos_site_id
 _symmetry_equiv_pos_as_xyz
  1  'x, y, z'
loop_
 _atom_site_type_symbol
 _atom_site_label
 _atom_site_symmetry_multiplicity
 _atom_site_fract_x
 _atom_site_fract_y
 _atom_site_fract_z
 _atom_site_occupancy
  Si  Si0  1  0.24257081  0.35513164  0.34615987  1
  Si  Si1  1  0.75742919  0.64486836  0.65384013  1
  Si  Si2  1  0.18506350  0.41941424  0.62916606  1
  Si  Si3  1  0.81493650  0.58058576  0.37083394  1
  Si  Si4  1  0.30151436  0.91349949  0.63071987  1
  Si  Si5  1  0.69848564  0.08650051  0.36928013  1
  Si  Si6  1  0.07879233  0.82891397  0.85209256  1
  Si  Si7  1  0.92120767  0.17108603  0.14790744  1
  Si  Si8  1  0.58286815  0.72543751  0.87632511  1
  Si  Si9  1  0.41713185  0.27456249  0.12367489  1
  Si  Si10  1  0.24897261  0.88771864  0.34626633  1
  Si  Si11  1  0.75102739  0.11228136  0.65373367  1
  Si  Si12  1  0.11559293  0.70860718  0.13944569  1
  Si  Si13  1  0.88440707  0.29139282  0.86055431  1
  Si  Si14  1  0.63152023  0.70353246  0.16435481  1
  Si  Si15  1  0.36847977  0.29646754  0.83564519  1
  Te  Te16  1  0.26644828  0.84607216  0.49408498  1
  Te  Te17  1  0.73355172  0.15392784  0.50591502  1
  Te  Te18  1  0.23669219  0.33987652  0.49560400  1
  Te  Te19  1  0.76330781  0.66012348  0.50439600  1
  Te  Te20  1  0.65346852  0.73666010  0.01628179  1
  Te  Te21  1  0.34653148  0.26333990  0.98371821  1
  Te  Te22  1  0.15372678  0.76229884  0.99169475  1
  Te  Te23  1  0.84627322  0.23770116  0.00830525  1
  H  H24  1  0.32581743  0.01821469  0.53404360  1
  H  H25  1  0.67418257  0.98178531  0.46595640  1
  H  H26  1  0.42151431  0.92335398  0.54359179  1
  H  H27  1  0.57848569  0.07664602  0.45640821  1
  H  H28  1  0.39219363  0.92715078  0.40985103  1
  H  H29  1  0.60780637  0.07284922  0.59014897  1
  H  H30  1  0.28694958  0.01097847  0.41680408  1
  H  H31  1  0.71305042  0.98902153  0.58319592  1
  H  H32  1  0.07574696  0.42239911  0.54197839  1
  H  H33  1  0.92425304  0.57760089  0.45802161  1
  H  H34  1  0.17389403  0.51624798  0.53009758  1
  H  H35  1  0.82610597  0.48375202  0.46990242  1
  H  H36  1  0.23544923  0.49366255  0.41089642  1
  H  H37  1  0.76455077  0.50633745  0.58910358  1
  H  H38  1  0.11709194  0.42556301  0.41457795  1
  H  H39  1  0.88290806  0.57443699  0.58542205  1
  H  H40  1  0.55661323  0.60245329  0.09170616  1
  H  H41  1  0.44338677  0.39754671  0.90829384  1
  H  H42  1  0.49174152  0.72008032  0.09103898  1
  H  H43  1  0.50825848  0.27991968  0.90896102  1
  H  H44  1  0.47508443  0.69620880  0.96873813  1
  H  H45  1  0.52491557  0.30379120  0.03126187  1
  H  H46  1  0.56471690  0.59684633  0.96365567  1
  H  H47  1  0.43528310  0.40315367  0.03634433  1
  H  H48  1  0.99261420  0.78179838  0.06422039  1
  H  H49  1  0.00738580  0.21820162  0.93577961  1
  H  H50  1  0.09196450  0.86938657  0.07471173  1
  H  H51  1  0.90803550  0.13061343  0.92528827  1
  H  H52  1  0.05390297  0.91760424  0.94089655  1
  H  H53  1  0.94609703  0.08239576  0.05910345  1
  H  H54  1  0.97183696  0.81019874  0.94526139  1
  H  H55  1  0.02816304  0.18980126  0.05473861  1
  H  H56  1  0.38819276  0.95615524  0.27565106  1
  H  H57  1  0.61180724  0.04384476  0.72434894  1
  H  H58  1  0.26955608  0.94900220  0.24131597  1
  H  H59  1  0.73044392  0.05099780  0.75868403  1
  H  H60  1  0.29211685  0.04748592  0.28422429  1
  H  H61  1  0.70788315  0.95251408  0.71577571  1
  H  H62  1  0.36182328  0.73794042  0.33962500  1
  H  H63  1  0.63817672  0.26205958  0.66037500  1
  H  H64  1  0.24789818  0.70340060  0.38041799  1
  H  H65  1  0.75210182  0.29659940  0.61958201  1
  H  H66  1  0.24518100  0.72633862  0.30386372  1
  H  H67  1  0.75481900  0.27366138  0.69613628  1
  H  H68  1  0.08880021  0.98648507  0.35131121  1
  H  H69  1  0.91119979  0.01351493  0.64868879  1
  H  H70  1  0.07149929  0.88176321  0.31197960  1
  H  H71  1  0.92850071  0.11823679  0.68802040  1
  H  H72  1  0.07169553  0.86474331  0.38899059  1
  H  H73  1  0.92830447  0.13525669  0.61100941  1
  H  H74  1  0.24199299  0.73491767  0.63247700  1
  H  H75  1  0.75800701  0.26508233  0.36752300  1
  H  H76  1  0.37474279  0.74020708  0.64640072  1
  H  H77  1  0.62525721  0.25979292  0.35359928  1
  H  H78  1  0.28236591  0.76041221  0.70127121  1
  H  H79  1  0.71763409  0.23958779  0.29872879  1
  H  H80  1  0.17116183  0.04907469  0.63033605  1
  H  H81  1  0.82883817  0.95092531  0.36966395  1
  H  H82  1  0.11304434  0.93242749  0.62151191  1
  H  H83  1  0.88695566  0.06757251  0.37848809  1
  H  H84  1  0.15186859  0.95704812  0.69111086  1
  H  H85  1  0.84813141  0.04295188  0.30888914  1
  H  H86  1  0.40557380  0.05657183  0.65775198  1
  H  H87  1  0.59442620  0.94342817  0.34224802  1
  H  H88  1  0.38223027  0.96445467  0.71829321  1
  H  H89  1  0.61776973  0.03554533  0.28170679  1
  H  H90  1  0.47677465  0.94296677  0.66465428  1
  H  H91  1  0.52322535  0.05703323  0.33534572  1
  H  H92  1  0.31834410  0.55360844  0.62500445  1
  H  H93  1  0.68165590  0.44639156  0.37499555  1
  H  H94  1  0.33002875  0.46514041  0.68755174  1
  H  H95  1  0.66997125  0.53485959  0.31244826  1
  H  H96  1  0.37426850  0.43471503  0.61861596  1
  H  H97  1  0.62573150  0.56528497  0.38138404  1
  H  H98  1  0.00648349  0.45447355  0.66248477  1
  H  H99  1  0.99351651  0.54552645  0.33751523  1
  H  H100  1  0.09581644  0.48035956  0.71473741  1
  H  H101  1  0.90418356  0.51964044  0.28526259  1
  H  H102  1  0.08073666  0.56688948  0.65166514  1
  H  H103  1  0.91926334  0.43311052  0.34833486  1
  H  H104  1  0.10687630  0.24739184  0.65181902  1
  H  H105  1  0.89312370  0.75260816  0.34818098  1
  H  H106  1  0.23918201  0.23989336  0.63254894  1
  H  H107  1  0.76081799  0.76010664  0.36745106  1
  H  H108  1  0.20072986  0.26986026  0.70213625  1
  H  H109  1  0.79927014  0.73013974  0.29786375  1
  H  H110  1  0.17570415  0.49331736  0.27644996  1
  H  H111  1  0.82429585  0.50668264  0.72355004  1
  H  H112  1  0.30654478  0.51460462  0.28981367  1
  H  H113  1  0.69345522  0.48539538  0.71018633  1
  H  H114  1  0.27220945  0.42482783  0.24303662  1
  H  H115  1  0.72779055  0.57517217  0.75696338  1
  H  H116  1  0.07044684  0.29308729  0.32412482  1
  H  H117  1  0.92955316  0.70691271  0.67587518  1
  H  H118  1  0.16852673  0.22409237  0.29241973  1
  H  H119  1  0.83147327  0.77590763  0.70758027  1
  H  H120  1  0.13591483  0.19813682  0.36760309  1
  H  H121  1  0.86408517  0.80186318  0.63239691  1
  H  H122  1  0.37161807  0.23482440  0.39205384  1
  H  H123  1  0.62838193  0.76517560  0.60794616  1
  H  H124  1  0.39785273  0.26509849  0.31669023  1
  H  H125  1  0.60214727  0.73490151  0.68330977  1
  H  H126  1  0.42890834  0.35202456  0.36583369  1
  H  H127  1  0.57109166  0.64797544  0.63416631  1
  H  H128  1  0.72023893  0.53716223  0.17688221  1
  H  H129  1  0.27976107  0.46283777  0.82311779  1
  H  H130  1  0.79910190  0.62989280  0.13695944  1
  H  H131  1  0.20089810  0.37010720  0.86304056  1
  H  H132  1  0.78338282  0.62815235  0.21319510  1
  H  H133  1  0.21661718  0.37184765  0.78680490  1
  H  H134  1  0.50974414  0.59508946  0.22961832  1
  H  H135  1  0.49025586  0.40491054  0.77038168  1
  H  H136  1  0.56740284  0.68753997  0.26705675  1
  H  H137  1  0.43259716  0.31246003  0.73294325  1
  H  H138  1  0.46689338  0.72156636  0.21943600  1
  H  H139  1  0.53310662  0.27843364  0.78056400  1
  H  H140  1  0.72901147  0.85937191  0.12509641  1
  H  H141  1  0.27098853  0.14062809  0.87490359  1
  H  H142  1  0.61417197  0.89045052  0.16134344  1
  H  H143  1  0.38582803  0.10954948  0.83865656  1
  H  H144  1  0.72029074  0.84453716  0.20197988  1
  H  H145  1  0.27970926  0.15546284  0.79802012  1
  H  H146  1  0.74120190  0.74547835  0.81428890  1
  H  H147  1  0.25879810  0.25452165  0.18571110  1
  H  H148  1  0.76880897  0.76395137  0.88636532  1
  H  H149  1  0.23119103  0.23604863  0.11363468  1
  H  H150  1  0.75177147  0.64017227  0.86771301  1
  H  H151  1  0.24822853  0.35982773  0.13228699  1
  H  H152  1  0.52545039  0.66337297  0.78559385  1
  H  H153  1  0.47454961  0.33662703  0.21440615  1
  H  H154  1  0.54243605  0.56171233  0.84047463  1
  H  H155  1  0.45756395  0.43828767  0.15952537  1
  H  H156  1  0.43124459  0.63745842  0.84224594  1
  H  H157  1  0.56875541  0.36254158  0.15775406  1
  H  H158  1  0.55584067  0.88606909  0.81377623  1
  H  H159  1  0.44415933  0.11393091  0.18622377  1
  H  H160  1  0.45477293  0.86367507  0.86689421  1
  H  H161  1  0.54522707  0.13632493  0.13310579  1
  H  H162  1  0.57461702  0.90845371  0.88654157  1
  H  H163  1  0.42538298  0.09154629  0.11345843  1
  H  H164  1  0.96815706  0.75492901  0.20182810  1
  H  H165  1  0.03184294  0.24507099  0.79817190  1
  H  H166  1  0.07255405  0.70849684  0.24327151  1
  H  H167  1  0.92744595  0.29150316  0.75672849  1
  H  H168  1  0.07468201  0.83468611  0.20961763  1
  H  H169  1  0.92531799  0.16531389  0.79038237  1
  H  H170  1  0.10229428  0.53468211  0.10696839  1
  H  H171  1  0.89770572  0.46531789  0.89303161  1
  H  H172  1  0.08956835  0.53336623  0.18351712  1
  H  H173  1  0.91043165  0.46663377  0.81648288  1
  H  H174  1  0.98691443  0.57392674  0.13881221  1
  H  H175  1  0.01308557  0.42607326  0.86118779  1
  H  H176  1  0.30107307  0.69135769  0.10965584  1
  H  H177  1  0.69892693  0.30864231  0.89034416  1
  H  H178  1  0.27894247  0.80126944  0.14402599  1
  H  H179  1  0.72105753  0.19873056  0.85597401  1
  H  H180  1  0.28306020  0.68179180  0.18605849  1
  H  H181  1  0.71693980  0.31820820  0.81394151  1
  H  H182  1  0.00638343  0.99753564  0.81824180  1
  H  H183  1  0.99361657  0.00246436  0.18175820  1
  H  H184  1  0.00404831  0.91647421  0.76300182  1
  H  H185  1  0.99595169  0.08352579  0.23699818  1
  H  H186  1  0.91138355  0.90193485  0.82086317  1
  H  H187  1  0.08861645  0.09806515  0.17913683  1
  H  H188  1  0.23390094  0.94074940  0.84341560  1
  H  H189  1  0.76609906  0.05925060  0.15658440  1
  H  H190  1  0.26853067  0.81238642  0.85843570  1
  H  H191  1  0.73146933  0.18761358  0.14156430  1
  H  H192  1  0.23352114  0.86037351  0.78774778  1
  H  H193  1  0.76647886  0.13962649  0.21225222  1
  H  H194  1  0.97311002  0.67653906  0.84417404  1
  H  H195  1  0.02688998  0.32346094  0.15582596  1
  H  H196  1  0.06957004  0.69282282  0.78828625  1
  H  H197  1  0.93042996  0.30717718  0.21171375  1
  H  H198  1  0.10101244  0.64257727  0.85959981  1
  H  H199  1  0.89898756  0.35742273  0.14040019  1
  Pd  Pd200  1  0.07928558  0.89256789  0.50559055  1
  Pd  Pd201  1  0.92071442  0.10743211  0.49440945  1
  Pd  Pd202  1  0.42141892  0.39124396  0.50738570  1
  Pd  Pd203  1  0.57858108  0.60875604  0.49261430  1
  Pd  Pd204  1  0.60889424  0.92221062  0.00324485  1
  Pd  Pd205  1  0.39110576  0.07778938  0.99675515  1
  Pd  Pd206  1  0.10791952  0.57903224  0.98866642  1
  Pd  Pd207  1  0.89208048  0.42096776  0.01133358  1
  C  C208  1  0.33987027  0.93948402  0.55058656  1
  C  C209  1  0.66012973  0.06051598  0.44941344  1
  C  C210  1  0.30838415  0.93292976  0.41243582  1
  C  C211  1  0.69161585  0.06707024  0.58756418  1
  C  C212  1  0.15664732  0.43876929  0.54882054  1
  C  C213  1  0.84335268  0.56123071  0.45117946  1
  C  C214  1  0.20084839  0.41870678  0.41229225  1
  C  C215  1  0.79915161  0.58129322  0.58770775  1
  C  C216  1  0.56643778  0.68341325  0.09453363  1
  C  C217  1  0.43356222  0.31658675  0.90546637  1
  C  C218  1  0.55371864  0.67870576  0.95562462  1
  C  C219  1  0.44628136  0.32129424  0.04437538  1
  C  C220  1  0.07438902  0.78974083  0.07152228  1
  C  C221  1  0.92561098  0.21025917  0.92847772  1
  C  C222  1  0.04861662  0.83874652  0.93196658  1
  C  C223  1  0.95138338  0.16125348  0.06803342  1
  C  C224  1  0.30554326  0.96737661  0.28089816  1
  C  C225  1  0.69445674  0.03262339  0.71910184  1
  C  C226  1  0.27924069  0.75146133  0.34239404  1
  C  C227  1  0.72075931  0.24853867  0.65760596  1
  C  C228  1  0.10726978  0.90679089  0.34998375  1
  C  C229  1  0.89273022  0.09320911  0.65001625  1
  C  C230  1  0.30023065  0.77440436  0.65445919  1
  C  C231  1  0.69976935  0.22559564  0.34554081  1
  C  C232  1  0.17258597  0.96806426  0.64459564  1
  C  C233  1  0.82741403  0.03193574  0.35540436  1
  C  C234  1  0.40095472  0.97540686  0.67150470  1
  C  C235  1  0.59904528  0.02459314  0.32849530  1
  C  C236  1  0.31368436  0.47343185  0.64119634  1
  C  C237  1  0.68631564  0.52656815  0.35880366  1
  C  C238  1  0.08232483  0.48662846  0.66803860  1
  C  C239  1  0.91767517  0.51337154  0.33196140  1
  C  C240  1  0.18222506  0.28145327  0.65606575  1
  C  C241  1  0.81777494  0.71854673  0.34393425  1
  C  C242  1  0.25007241  0.45672194  0.28310868  1
  C  C243  1  0.74992759  0.54327806  0.71689132  1
  C  C244  1  0.14557969  0.25840998  0.33160290  1
  C  C245  1  0.85442031  0.74159002  0.66839710  1
  C  C246  1  0.37197528  0.29633204  0.35638057  1
  C  C247  1  0.62802472  0.70366796  0.64361943  1
  C  C248  1  0.74365953  0.61651479  0.17357804  1
  C  C249  1  0.25634047  0.38348521  0.82642196  1
  C  C250  1  0.53473522  0.67401316  0.22565960  1
  C  C251  1  0.46526478  0.32598684  0.77434040  1
  C  C252  1  0.67763997  0.83680630  0.16273367  1
  C  C253  1  0.32236003  0.16319370  0.83726633  1
  C  C254  1  0.72417250  0.71779373  0.86000033  1
  C  C255  1  0.27582750  0.28220627  0.13999967  1
  C  C256  1  0.51377975  0.63892869  0.83216417  1
  C  C257  1  0.48622025  0.36107131  0.16783583  1
  C  C258  1  0.53767495  0.85801925  0.85927554  1
  C  C259  1  0.46232505  0.14198075  0.14072446  1
  C  C260  1  0.05170193  0.75763379  0.20416171  1
  C  C261  1  0.94829807  0.24236621  0.79583829  1
  C  C262  1  0.07058713  0.57515076  0.14174596  1
  C  C263  1  0.92941287  0.42484924  0.85825404  1
  C  C264  1  0.25786539  0.72146594  0.14500047  1
  C  C265  1  0.74213461  0.27853406  0.85499953  1
  C  C266  1  0.99203561  0.91983119  0.80978379  1
  C  C267  1  0.00796439  0.08016881  0.19021621  1
  C  C268  1  0.21623356  0.86422149  0.83404420  1
  C  C269  1  0.78376644  0.13577851  0.16595580  1
  C  C270  1  0.05337106  0.69811901  0.83455479  1
  C  C271  1  0.94662894  0.30188099  0.16544521  1
  Cl  Cl272  1  0.10340841  0.06671373  0.48395831  1
  Cl  Cl273  1  0.89659159  0.93328627  0.51604169  1
  Cl  Cl274  1  0.05271988  0.72112453  0.52699097  1
  Cl  Cl275  1  0.94728012  0.27887547  0.47300903  1
  Cl  Cl276  1  0.40065338  0.56239466  0.47609802  1
  Cl  Cl277  1  0.59934662  0.43760534  0.52390198  1
  Cl  Cl278  1  0.44571640  0.22267212  0.53849770  1
  Cl  Cl279  1  0.55428360  0.77732788  0.46150230  1
  Cl  Cl280  1  0.43165222  0.89794450  0.01426724  1
  Cl  Cl281  1  0.56834778  0.10205550  0.98573276  1
  Cl  Cl282  1  0.78366862  0.94904656  0.99366211  1
  Cl  Cl283  1  0.21633138  0.05095344  0.00633789  1
  Cl  Cl284  1  0.93234544  0.60114778  0.00630532  1
  Cl  Cl285  1  0.06765456  0.39885222  0.99369468  1
  Cl  Cl286  1  0.28021481  0.55651292  0.96885657  1
  Cl  Cl287  1  0.71978519  0.44348708  0.03114343  1
