# generated using pymatgen
data_Na(SeO3)4
_symmetry_space_group_name_H-M   'P 1'
_cell_length_a   5.41135200
_cell_length_b   6.31127100
_cell_length_c   20.16557676
_cell_angle_alpha   80.32898065
_cell_angle_beta   90.00000000
_cell_angle_gamma   90.00000000
_symmetry_Int_Tables_number   1
_chemical_formula_structural   Na(SeO3)4
_chemical_formula_sum   'Na2 Se8 O24'
_cell_volume   678.91755462
_cell_formula_units_Z   2
loop_
 _symmetry_equiv_pos_site_id
 _symmetry_equiv_pos_as_xyz
  1  'x, y, z'
loop_
 _atom_site_type_symbol
 _atom_site_label
 _atom_site_symmetry_multiplicity
 _atom_site_fract_x
 _atom_site_fract_y
 _atom_site_fract_z
 _atom_site_occupancy
  Na  Na0  1  0.78052600  0.04559500  0.85078100  1
  Na  Na1  1  0.21947400  0.04559500  0.35078100  1
  Se  Se2  1  0.64319900  0.49756500  0.91029900  1
  Se  Se3  1  0.35680100  0.49756500  0.41029900  1
  Se  Se4  1  0.07064000  0.93360500  0.01966200  1
  Se  Se5  1  0.92936000  0.93360500  0.51966200  1
  Se  Se6  1  0.09650100  0.59917800  0.79548600  1
  Se  Se7  1  0.90349900  0.59917800  0.29548600  1
  Se  Se8  1  0.47783100  0.21156600  0.67810800  1
  Se  Se9  1  0.52216900  0.21156600  0.17810800  1
  O  O10  1  0.51105400  0.69157900  0.85407200  1
  O  O11  1  0.48894600  0.69157900  0.35407200  1
  O  O12  1  0.53235900  0.25378400  0.91142500  1
  O  O13  1  0.46764100  0.25378400  0.41142500  1
  O  O14  1  0.68629100  0.57469700  0.98255900  1
  O  O15  1  0.31370900  0.57469700  0.48255900  1
  O  O16  1  0.03138900  0.17498000  0.03671900  1
  O  O17  1  0.96861100  0.17498000  0.53671900  1
  O  O18  1  0.07876200  0.90291700  0.94084600  1
  O  O19  1  0.92123800  0.90291700  0.44084600  1
  O  O20  1  0.10230200  0.72952700  0.07975300  1
  O  O21  1  0.89769800  0.72952700  0.57975300  1
  O  O22  1  0.00497200  0.85281400  0.78271800  1
  O  O23  1  0.99502800  0.85281400  0.28271800  1
  O  O24  1  0.99634800  0.46001100  0.73747900  1
  O  O25  1  0.00365200  0.46001100  0.23747900  1
  O  O26  1  0.95477800  0.45992100  0.87467100  1
  O  O27  1  0.04522200  0.45992100  0.37467100  1
  O  O28  1  0.48076600  0.00048600  0.64155700  1
  O  O29  1  0.51923400  0.00048600  0.14155700  1
  O  O30  1  0.44551900  0.45267500  0.63621500  1
  O  O31  1  0.55448100  0.45267500  0.13621500  1
  O  O32  1  0.50853600  0.17830100  0.75985300  1
  O  O33  1  0.49146400  0.17830100  0.25985300  1
