# generated using pymatgen
data_Zn3H14C10O13
_symmetry_space_group_name_H-M   'P 1'
_cell_length_a   11.68698400
_cell_length_b   10.25059200
_cell_length_c   19.04317061
_cell_angle_alpha   90.00000000
_cell_angle_beta   126.45870167
_cell_angle_gamma   90.00000000
_symmetry_Int_Tables_number   1
_chemical_formula_structural   Zn3H14C10O13
_chemical_formula_sum   'Zn12 H56 C40 O52'
_cell_volume   1834.85114889
_cell_formula_units_Z   4
loop_
 _symmetry_equiv_pos_site_id
 _symmetry_equiv_pos_as_xyz
  1  'x, y, z'
loop_
 _atom_site_type_symbol
 _atom_site_label
 _atom_site_symmetry_multiplicity
 _atom_site_fract_x
 _atom_site_fract_y
 _atom_site_fract_z
 _atom_site_occupancy
  Zn  Zn0  1  0.87555900  0.92397800  0.13211900  1
  Zn  Zn1  1  0.12444100  0.42397800  0.36788100  1
  Zn  Zn2  1  0.12444100  0.07602200  0.86788100  1
  Zn  Zn3  1  0.87555900  0.57602200  0.63211900  1
  Zn  Zn4  1  0.06551000  0.11574700  0.30661700  1
  Zn  Zn5  1  0.93449000  0.61574700  0.19338300  1
  Zn  Zn6  1  0.93449000  0.88425300  0.69338300  1
  Zn  Zn7  1  0.06551000  0.38425300  0.80661700  1
  Zn  Zn8  1  0.00000000  0.00000000  0.00000000  1
  Zn  Zn9  1  0.00000000  0.50000000  0.50000000  1
  Zn  Zn10  1  0.50000000  0.00000000  0.00000000  1
  Zn  Zn11  1  0.50000000  0.50000000  0.50000000  1
  H  H12  1  0.02455800  0.75689100  0.37000200  1
  H  H13  1  0.97544200  0.25689100  0.12999800  1
  H  H14  1  0.97544200  0.24310900  0.62999800  1
  H  H15  1  0.02455800  0.74310900  0.87000200  1
  H  H16  1  0.28275500  0.05623500  0.26094700  1
  H  H17  1  0.71724500  0.55623500  0.23905300  1
  H  H18  1  0.71724500  0.94376500  0.73905300  1
  H  H19  1  0.28275500  0.44376500  0.76094700  1
  H  H20  1  0.00013300  0.61558200  0.05347300  1
  H  H21  1  0.99986700  0.11558200  0.44652700  1
  H  H22  1  0.99986700  0.38441800  0.94652700  1
  H  H23  1  0.00013300  0.88441800  0.55347300  1
  H  H24  1  0.74648300  0.19985700  0.22736300  1
  H  H25  1  0.25351700  0.69985700  0.27263700  1
  H  H26  1  0.25351700  0.80014300  0.77263700  1
  H  H27  1  0.74648300  0.30014300  0.72736300  1
  H  H28  1  0.73533800  0.15468500  0.92684100  1
  H  H29  1  0.26466200  0.65468500  0.57315900  1
  H  H30  1  0.26466200  0.84531500  0.07315900  1
  H  H31  1  0.73533800  0.34531500  0.42684100  1
  H  H32  1  0.51931700  0.70883900  0.02460400  1
  H  H33  1  0.48068300  0.20883900  0.47539600  1
  H  H34  1  0.48068300  0.29116100  0.97539600  1
  H  H35  1  0.51931700  0.79116100  0.52460400  1
  H  H36  1  0.35252900  0.39611200  0.27084900  1
  H  H37  1  0.64747100  0.89611200  0.22915100  1
  H  H38  1  0.64747100  0.60388800  0.72915100  1
  H  H39  1  0.35252900  0.10388800  0.77084900  1
  H  H40  1  0.23623700  0.31320500  0.16801900  1
  H  H41  1  0.76376300  0.81320500  0.33198100  1
  H  H42  1  0.76376300  0.68679500  0.83198100  1
  H  H43  1  0.23623700  0.18679500  0.66801900  1
  H  H44  1  0.54893100  0.38576800  0.26127000  1
  H  H45  1  0.45106900  0.88576800  0.23873000  1
  H  H46  1  0.45106900  0.61423200  0.73873000  1
  H  H47  1  0.54893100  0.11423200  0.76127000  1
  H  H48  1  0.46231800  0.23619800  0.20714200  1
  H  H49  1  0.53768200  0.73619800  0.29285800  1
  H  H50  1  0.53768200  0.76380200  0.79285800  1
  H  H51  1  0.46231800  0.26380200  0.70714200  1
  H  H52  1  0.50275600  0.41760600  0.11863600  1
  H  H53  1  0.49724400  0.91760600  0.38136400  1
  H  H54  1  0.49724400  0.58239400  0.88136400  1
  H  H55  1  0.50275600  0.08239400  0.61863600  1
  H  H56  1  0.33608400  0.33760200  0.06460800  1
  H  H57  1  0.66391600  0.83760200  0.43539200  1
  H  H58  1  0.66391600  0.66239800  0.93539200  1
  H  H59  1  0.33608400  0.16239800  0.56460800  1
  H  H60  1  0.25302000  0.55730400  0.04620300  1
  H  H61  1  0.74698000  0.05730400  0.45379700  1
  H  H62  1  0.74698000  0.44269600  0.95379700  1
  H  H63  1  0.25302000  0.94269600  0.54620300  1
  H  H64  1  0.41612500  0.61016400  0.14576100  1
  H  H65  1  0.58387500  0.11016400  0.35423900  1
  H  H66  1  0.58387500  0.38983600  0.85423900  1
  H  H67  1  0.41612500  0.88983600  0.64576100  1
  C  C68  1  0.32433800  0.38400300  0.20485900  1
  C  C69  1  0.67566200  0.88400300  0.29514100  1
  C  C70  1  0.67566200  0.61599700  0.79514100  1
  C  C71  1  0.32433800  0.11599700  0.70485900  1
  C  C72  1  0.44992200  0.34253900  0.20511800  1
  C  C73  1  0.55007800  0.84253900  0.29488200  1
  C  C74  1  0.55007800  0.65746100  0.79488200  1
  C  C75  1  0.44992200  0.15746100  0.70511800  1
  C  C76  1  0.41078900  0.40178600  0.11958400  1
  C  C77  1  0.58921100  0.90178600  0.38041600  1
  C  C78  1  0.58921100  0.59821400  0.88041600  1
  C  C79  1  0.41078900  0.09821400  0.61958400  1
  C  C80  1  0.33842800  0.52947800  0.11398400  1
  C  C81  1  0.66157200  0.02947800  0.38601600  1
  C  C82  1  0.66157200  0.47052200  0.88601600  1
  C  C83  1  0.33842800  0.97052200  0.61398400  1
  C  C84  1  0.01050800  0.83630500  0.32623800  1
  C  C85  1  0.98949200  0.33630500  0.17376200  1
  C  C86  1  0.98949200  0.16369500  0.67376200  1
  C  C87  1  0.01050800  0.66369500  0.82623800  1
  C  C88  1  0.17723200  0.02858100  0.20163400  1
  C  C89  1  0.82276800  0.52858100  0.29836600  1
  C  C90  1  0.82276800  0.97141900  0.79836600  1
  C  C91  1  0.17723200  0.47141900  0.70163400  1
  C  C92  1  0.98255700  0.72008200  0.05817800  1
  C  C93  1  0.01744300  0.22008200  0.44182200  1
  C  C94  1  0.01744300  0.27991800  0.94182200  1
  C  C95  1  0.98255700  0.77991800  0.55817800  1
  C  C96  1  0.72964100  0.12937900  0.17816500  1
  C  C97  1  0.27035900  0.62937900  0.32183500  1
  C  C98  1  0.27035900  0.87062100  0.82183500  1
  C  C99  1  0.72964100  0.37062100  0.67816500  1
  C  C100  1  0.72635200  0.09245200  0.97061000  1
  C  C101  1  0.27364800  0.59245200  0.52939000  1
  C  C102  1  0.27364800  0.90754800  0.02939000  1
  C  C103  1  0.72635200  0.40754800  0.47061000  1
  C  C104  1  0.63471400  0.72876600  0.06646100  1
  C  C105  1  0.36528600  0.22876600  0.43353900  1
  C  C106  1  0.36528600  0.27123400  0.93353900  1
  C  C107  1  0.63471400  0.77123400  0.56646100  1
  O  O108  1  0.27763500  0.50898300  0.16090000  1
  O  O109  1  0.72236500  0.00898300  0.33910000  1
  O  O110  1  0.72236500  0.49101700  0.83910000  1
  O  O111  1  0.27763500  0.99101700  0.66090000  1
  O  O112  1  0.94754700  0.80575300  0.24580400  1
  O  O113  1  0.05245300  0.30575300  0.25419600  1
  O  O114  1  0.05245300  0.19424700  0.75419600  1
  O  O115  1  0.94754700  0.69424700  0.74580400  1
  O  O116  1  0.05725300  0.94670900  0.36044400  1
  O  O117  1  0.94274700  0.44670900  0.13955600  1
  O  O118  1  0.94274700  0.05329100  0.63955600  1
  O  O119  1  0.05725300  0.55329100  0.86044400  1
  O  O120  1  0.07851400  0.01618700  0.21159600  1
  O  O121  1  0.92148600  0.51618700  0.28840400  1
  O  O122  1  0.92148600  0.98381300  0.78840400  1
  O  O123  1  0.07851400  0.48381300  0.71159600  1
  O  O124  1  0.16647700  0.01234300  0.13258800  1
  O  O125  1  0.83352300  0.51234300  0.36741200  1
  O  O126  1  0.83352300  0.98765700  0.86741200  1
  O  O127  1  0.16647700  0.48765700  0.63258800  1
  O  O128  1  0.95424200  0.74874900  0.11226900  1
  O  O129  1  0.04575800  0.24874900  0.38773100  1
  O  O130  1  0.04575800  0.25125100  0.88773100  1
  O  O131  1  0.95424200  0.75125100  0.61226900  1
  O  O132  1  0.99244100  0.79823100  0.01127800  1
  O  O133  1  0.00755900  0.29823100  0.48872200  1
  O  O134  1  0.00755900  0.20176900  0.98872200  1
  O  O135  1  0.99244100  0.70176900  0.51127800  1
  O  O136  1  0.84295800  0.07880300  0.19336900  1
  O  O137  1  0.15704200  0.57880300  0.30663100  1
  O  O138  1  0.15704200  0.92119700  0.80663100  1
  O  O139  1  0.84295800  0.42119700  0.69336900  1
  O  O140  1  0.60339200  0.10747500  0.11429600  1
  O  O141  1  0.39660800  0.60747500  0.38570400  1
  O  O142  1  0.39660800  0.89252500  0.88570400  1
  O  O143  1  0.60339200  0.39252500  0.61429600  1
  O  O144  1  0.83682700  0.02229600  0.02441200  1
  O  O145  1  0.16317300  0.52229600  0.47558800  1
  O  O146  1  0.16317300  0.97770400  0.97558800  1
  O  O147  1  0.83682700  0.47770400  0.52441200  1
  O  O148  1  0.61299800  0.09832800  0.96354900  1
  O  O149  1  0.38700200  0.59832800  0.53645100  1
  O  O150  1  0.38700200  0.90167200  0.03645100  1
  O  O151  1  0.61299800  0.40167200  0.46354900  1
  O  O152  1  0.66955300  0.84838100  0.06766500  1
  O  O153  1  0.33044700  0.34838100  0.43233500  1
  O  O154  1  0.33044700  0.15161900  0.93233500  1
  O  O155  1  0.66955300  0.65161900  0.56766500  1
  O  O156  1  0.71595700  0.63396700  0.10700300  1
  O  O157  1  0.28404300  0.13396700  0.39299700  1
  O  O158  1  0.28404300  0.36603300  0.89299700  1
  O  O159  1  0.71595700  0.86603300  0.60700300  1
