# generated using pymatgen
data_H10C4SN2
_symmetry_space_group_name_H-M   'P 1'
_cell_length_a   5.38610600
_cell_length_b   12.45900100
_cell_length_c   12.11615058
_cell_angle_alpha   90.00000000
_cell_angle_beta   100.24804034
_cell_angle_gamma   90.00000000
_symmetry_Int_Tables_number   1
_chemical_formula_structural   H10C4SN2
_chemical_formula_sum   'H40 C16 S4 N8'
_cell_volume   800.08941510
_cell_formula_units_Z   4
loop_
 _symmetry_equiv_pos_site_id
 _symmetry_equiv_pos_as_xyz
  1  'x, y, z'
loop_
 _atom_site_type_symbol
 _atom_site_label
 _atom_site_symmetry_multiplicity
 _atom_site_fract_x
 _atom_site_fract_y
 _atom_site_fract_z
 _atom_site_occupancy
  H  H0  1  0.86176800  0.23459800  0.57244700  1
  H  H1  1  0.86176800  0.26540200  0.07244700  1
  H  H2  1  0.13823200  0.76540200  0.42755300  1
  H  H3  1  0.13823200  0.73459800  0.92755300  1
  H  H4  1  0.66224700  0.11291100  0.89234200  1
  H  H5  1  0.66224700  0.38708900  0.39234200  1
  H  H6  1  0.33775300  0.88708900  0.10765800  1
  H  H7  1  0.33775300  0.61291100  0.60765800  1
  H  H8  1  0.38462800  0.07819300  0.79400500  1
  H  H9  1  0.38462800  0.42180700  0.29400500  1
  H  H10  1  0.61537200  0.92180700  0.20599500  1
  H  H11  1  0.61537200  0.57819300  0.70599500  1
  H  H12  1  0.42559400  0.21166200  0.84951500  1
  H  H13  1  0.42559400  0.28833800  0.34951500  1
  H  H14  1  0.57440600  0.78833800  0.15048500  1
  H  H15  1  0.57440600  0.71166200  0.65048500  1
  H  H16  1  0.49929300  0.15151400  0.55305800  1
  H  H17  1  0.49929300  0.34848600  0.05305800  1
  H  H18  1  0.50070700  0.84848600  0.44694200  1
  H  H19  1  0.50070700  0.65151400  0.94694200  1
  H  H20  1  0.45605800  0.04125600  0.64121400  1
  H  H21  1  0.45605800  0.45874400  0.14121400  1
  H  H22  1  0.54394200  0.95874400  0.35878600  1
  H  H23  1  0.54394200  0.54125600  0.85878600  1
  H  H24  1  0.75864100  0.06494500  0.60684500  1
  H  H25  1  0.75864100  0.43505500  0.10684500  1
  H  H26  1  0.24135900  0.93505500  0.39315500  1
  H  H27  1  0.24135900  0.56494500  0.89315500  1
  H  H28  1  0.99495600  0.44233600  0.64466900  1
  H  H29  1  0.99495600  0.05766400  0.14466900  1
  H  H30  1  0.00504400  0.55766400  0.35533100  1
  H  H31  1  0.00504400  0.94233600  0.85533100  1
  H  H32  1  0.15537700  0.35730400  0.56014700  1
  H  H33  1  0.15537700  0.14269600  0.06014700  1
  H  H34  1  0.84462300  0.64269600  0.43985300  1
  H  H35  1  0.84462300  0.85730400  0.93985300  1
  H  H36  1  0.24900100  0.36050700  0.70966500  1
  H  H37  1  0.24900100  0.13949300  0.20966500  1
  H  H38  1  0.75099900  0.63949300  0.29033500  1
  H  H39  1  0.75099900  0.86050700  0.79033500  1
  C  C40  1  0.80849100  0.25345900  0.73663800  1
  C  C41  1  0.80849100  0.24654100  0.23663800  1
  C  C42  1  0.19150900  0.74654100  0.26336200  1
  C  C43  1  0.19150900  0.75345900  0.76336200  1
  C  C44  1  0.52197100  0.14181000  0.82128600  1
  C  C45  1  0.52197100  0.35819000  0.32128600  1
  C  C46  1  0.47802900  0.85819000  0.17871400  1
  C  C47  1  0.47802900  0.64181000  0.67871400  1
  C  C48  1  0.58793300  0.10405400  0.62623100  1
  C  C49  1  0.58793300  0.39594600  0.12623100  1
  C  C50  1  0.41206700  0.89594600  0.37376900  1
  C  C51  1  0.41206700  0.60405400  0.87376900  1
  C  C52  1  0.08781900  0.36407700  0.64012600  1
  C  C53  1  0.08781900  0.13592300  0.14012600  1
  C  C54  1  0.91218100  0.63592300  0.35987400  1
  C  C55  1  0.91218100  0.86407700  0.85987400  1
  S  S56  1  0.88096000  0.32737700  0.85602000  1
  S  S57  1  0.88096000  0.17262300  0.35602000  1
  S  S58  1  0.11904000  0.67262300  0.14398000  1
  S  S59  1  0.11904000  0.82737700  0.64398000  1
  N  N60  1  0.64371300  0.17008300  0.72721100  1
  N  N61  1  0.64371300  0.32991700  0.22721100  1
  N  N62  1  0.35628700  0.82991700  0.27278900  1
  N  N63  1  0.35628700  0.67008300  0.77278900  1
  N  N64  1  0.91488900  0.27564900  0.64536600  1
  N  N65  1  0.91488900  0.22435100  0.14536600  1
  N  N66  1  0.08511100  0.72435100  0.35463400  1
  N  N67  1  0.08511100  0.77564900  0.85463400  1
