# generated using pymatgen
data_NdC3O11
_symmetry_space_group_name_H-M   'P 1'
_cell_length_a   9.91728600
_cell_length_b   10.16460200
_cell_length_c   11.18749900
_cell_angle_alpha   70.35902110
_cell_angle_beta   90.00000000
_cell_angle_gamma   90.00000000
_symmetry_Int_Tables_number   1
_chemical_formula_structural   NdC3O11
_chemical_formula_sum   'Nd4 C12 O44'
_cell_volume   1062.14274025
_cell_formula_units_Z   4
loop_
 _symmetry_equiv_pos_site_id
 _symmetry_equiv_pos_as_xyz
  1  'x, y, z'
loop_
 _atom_site_type_symbol
 _atom_site_label
 _atom_site_symmetry_multiplicity
 _atom_site_fract_x
 _atom_site_fract_y
 _atom_site_fract_z
 _atom_site_occupancy
  Nd  Nd0  1  0.35781800  0.14784500  0.67672300  1
  Nd  Nd1  1  0.85781800  0.35215500  0.32327700  1
  Nd  Nd2  1  0.64218200  0.85215500  0.32327700  1
  Nd  Nd3  1  0.14218200  0.64784500  0.67672300  1
  C  C4  1  0.34987600  0.50824200  0.43411400  1
  C  C5  1  0.84987600  0.99175800  0.56588600  1
  C  C6  1  0.65012400  0.49175800  0.56588600  1
  C  C7  1  0.15012400  0.00824200  0.43411400  1
  C  C8  1  0.52337900  0.07354300  0.45194200  1
  C  C9  1  0.02337900  0.42645700  0.54805800  1
  C  C10  1  0.47662100  0.92645700  0.54805800  1
  C  C11  1  0.97662100  0.57354300  0.45194200  1
  C  C12  1  0.37535500  0.86628000  0.00843500  1
  C  C13  1  0.87535500  0.63372000  0.99156500  1
  C  C14  1  0.62464500  0.13372000  0.99156500  1
  C  C15  1  0.12464500  0.36628000  0.00843500  1
  O  O16  1  0.33544700  0.38859200  0.49270500  1
  O  O17  1  0.83544700  0.11140800  0.50729500  1
  O  O18  1  0.66455300  0.61140800  0.50729500  1
  O  O19  1  0.16455300  0.88859200  0.49270500  1
  O  O20  1  0.51439600  0.17499100  0.49286300  1
  O  O21  1  0.01439600  0.32500900  0.50713700  1
  O  O22  1  0.48560400  0.82500900  0.50713700  1
  O  O23  1  0.98560400  0.67499100  0.49286300  1
  O  O24  1  0.43393200  0.92410000  0.65513300  1
  O  O25  1  0.93393200  0.57590000  0.34486700  1
  O  O26  1  0.56606800  0.07590000  0.34486700  1
  O  O27  1  0.06606800  0.42410000  0.65513300  1
  O  O28  1  0.15782000  0.08638100  0.63752900  1
  O  O29  1  0.65782000  0.41361900  0.36247100  1
  O  O30  1  0.84218000  0.91361900  0.36247100  1
  O  O31  1  0.34218000  0.58638100  0.63752900  1
  O  O32  1  0.35707800  0.93803900  0.90285900  1
  O  O33  1  0.85707800  0.56196100  0.09714100  1
  O  O34  1  0.64292200  0.06196100  0.09714100  1
  O  O35  1  0.14292200  0.43803900  0.90285900  1
  O  O36  1  0.33758800  0.25016500  0.82628400  1
  O  O37  1  0.83758800  0.24983500  0.17371600  1
  O  O38  1  0.66241200  0.74983500  0.17371600  1
  O  O39  1  0.16241200  0.75016500  0.82628400  1
  O  O40  1  0.60564800  0.20295200  0.88577400  1
  O  O41  1  0.10564800  0.29704800  0.11422600  1
  O  O42  1  0.39435200  0.79704800  0.11422600  1
  O  O43  1  0.89435200  0.70295200  0.88577400  1
  O  O44  1  0.63948100  0.37564500  0.63252500  1
  O  O45  1  0.13948100  0.12435500  0.36747500  1
  O  O46  1  0.36051900  0.62435500  0.36747500  1
  O  O47  1  0.86051900  0.87564500  0.63252500  1
  O  O48  1  0.66481300  0.98331600  0.79423300  1
  O  O49  1  0.16481300  0.51668400  0.20576700  1
  O  O50  1  0.33518700  0.01668400  0.20576700  1
  O  O51  1  0.83518700  0.48331600  0.79423300  1
  O  O52  1  0.32580100  0.11757600  0.10657400  1
  O  O53  1  0.82580100  0.38242400  0.89342600  1
  O  O54  1  0.67419900  0.88242400  0.89342600  1
  O  O55  1  0.17419900  0.61757600  0.10657400  1
  O  O56  1  0.00156100  0.95817700  0.05481100  1
  O  O57  1  0.50156100  0.54182300  0.94518900  1
  O  O58  1  0.99843900  0.04182300  0.94518900  1
  O  O59  1  0.49843900  0.45817700  0.05481100  1
