# generated using pymatgen
data_Yb4Ga21Ni10
_symmetry_space_group_name_H-M   'P 1'
_cell_length_a   10.59335959
_cell_length_b   10.59335959
_cell_length_c   15.46092737
_cell_angle_alpha   56.68457945
_cell_angle_beta   56.68457945
_cell_angle_gamma   22.16997908
_symmetry_Int_Tables_number   1
_chemical_formula_structural   Yb4Ga21Ni10
_chemical_formula_sum   'Yb4 Ga21 Ni10'
_cell_volume   542.56560241
_cell_formula_units_Z   1
loop_
 _symmetry_equiv_pos_site_id
 _symmetry_equiv_pos_as_xyz
  1  'x, y, z'
loop_
 _atom_site_type_symbol
 _atom_site_label
 _atom_site_symmetry_multiplicity
 _atom_site_fract_x
 _atom_site_fract_y
 _atom_site_fract_z
 _atom_site_occupancy
  Yb  Yb0  1  0.87956200  0.87956200  0.33288200  1
  Yb  Yb1  1  0.12043800  0.12043800  0.66711800  1
  Yb  Yb2  1  0.23013300  0.23013300  0.17488600  1
  Yb  Yb3  1  0.76986700  0.76986700  0.82511400  1
  Ga  Ga4  1  0.45939100  0.45939100  0.36830900  1
  Ga  Ga5  1  0.54060900  0.54060900  0.63169100  1
  Ga  Ga6  1  0.79855500  0.79855500  0.00247600  1
  Ga  Ga7  1  0.20144500  0.20144500  0.99752400  1
  Ga  Ga8  1  0.70299400  0.70299400  0.49647200  1
  Ga  Ga9  1  0.29700600  0.29700600  0.50352800  1
  Ga  Ga10  1  0.88313400  0.88313400  0.55159700  1
  Ga  Ga11  1  0.11686600  0.11686600  0.44840300  1
  Ga  Ga12  1  0.61656800  0.61656800  0.29622300  1
  Ga  Ga13  1  0.38343200  0.38343200  0.70377700  1
  Ga  Ga14  1  0.75253700  0.75253700  0.29344000  1
  Ga  Ga15  1  0.24746300  0.24746300  0.70656000  1
  Ga  Ga16  1  0.60315000  0.60315000  0.00142100  1
  Ga  Ga17  1  0.39685000  0.39685000  0.99857900  1
  Ga  Ga18  1  0.99255300  0.99255300  0.09277700  1
  Ga  Ga19  1  0.00744700  0.00744700  0.90722300  1
  Ga  Ga20  1  0.93486400  0.93486400  0.79375700  1
  Ga  Ga21  1  0.06513600  0.06513600  0.20624300  1
  Ga  Ga22  1  0.50000000  0.50000000  0.50000000  1
  Ga  Ga23  1  0.37179100  0.37179100  0.19719200  1
  Ga  Ga24  1  0.62820900  0.62820900  0.80280800  1
  Ni  Ni25  1  0.49838400  0.49838400  0.18520400  1
  Ni  Ni26  1  0.50161600  0.50161600  0.81479600  1
  Ni  Ni27  1  0.86719000  0.86719000  0.10326700  1
  Ni  Ni28  1  0.13281000  0.13281000  0.89673300  1
  Ni  Ni29  1  0.74933600  0.74933600  0.61497700  1
  Ni  Ni30  1  0.25066400  0.25066400  0.38502300  1
  Ni  Ni31  1  0.65212100  0.65212100  0.11384900  1
  Ni  Ni32  1  0.34787900  0.34787900  0.88615100  1
  Ni  Ni33  1  0.97597400  0.97597400  0.60589200  1
  Ni  Ni34  1  0.02402600  0.02402600  0.39410800  1
