# generated using pymatgen
data_V2Co2PbO8
_symmetry_space_group_name_H-M   'P 1'
_cell_length_a   8.58850300
_cell_length_b   9.86571957
_cell_length_c   9.86571957
_cell_angle_alpha   79.07872824
_cell_angle_beta   64.19752281
_cell_angle_gamma   64.19752281
_symmetry_Int_Tables_number   1
_chemical_formula_structural   V2Co2PbO8
_chemical_formula_sum   'V8 Co8 Pb4 O32'
_cell_volume   677.56265400
_cell_formula_units_Z   4
loop_
 _symmetry_equiv_pos_site_id
 _symmetry_equiv_pos_as_xyz
  1  'x, y, z'
loop_
 _atom_site_type_symbol
 _atom_site_label
 _atom_site_symmetry_multiplicity
 _atom_site_fract_x
 _atom_site_fract_y
 _atom_site_fract_z
 _atom_site_occupancy
  V  V0  1  0.96077900  0.31794600  0.15853400  1
  V  V1  1  0.93726000  0.84146600  0.68205400  1
  V  V2  1  0.52872500  0.65853400  0.18205400  1
  V  V3  1  0.02872500  0.18205400  0.65853400  1
  V  V4  1  0.43726000  0.68205400  0.84146600  1
  V  V5  1  0.46077900  0.15853400  0.31794600  1
  V  V6  1  0.36931300  0.34146600  0.81794600  1
  V  V7  1  0.86931300  0.81794600  0.34146600  1
  Co  Co8  1  0.89454600  0.50272800  0.83861400  1
  Co  Co9  1  0.73588800  0.16138600  0.49727200  1
  Co  Co10  1  0.64727400  0.33861400  0.99727200  1
  Co  Co11  1  0.14727400  0.99727200  0.33861400  1
  Co  Co12  1  0.23588800  0.49727200  0.16138600  1
  Co  Co13  1  0.39454600  0.83861400  0.50272800  1
  Co  Co14  1  0.98316000  0.66138600  0.00272800  1
  Co  Co15  1  0.48316000  0.00272800  0.66138600  1
  Pb  Pb16  1  0.73323900  0.50000000  0.50000000  1
  Pb  Pb17  1  0.23323900  0.50000000  0.50000000  1
  Pb  Pb18  1  0.48323900  0.00000000  0.00000000  1
  Pb  Pb19  1  0.98323900  0.00000000  0.00000000  1
  O  O20  1  0.94554800  0.84645400  0.85628600  1
  O  O21  1  0.14828800  0.14371400  0.15354600  1
  O  O22  1  0.04200200  0.35628600  0.65354600  1
  O  O23  1  0.54200200  0.65354600  0.35628600  1
  O  O24  1  0.64828800  0.15354600  0.14371400  1
  O  O25  1  0.44554800  0.85628600  0.84645400  1
  O  O26  1  0.05183300  0.64371400  0.34645400  1
  O  O27  1  0.55183300  0.34645400  0.64371400  1
  O  O28  1  0.65071600  0.83360700  0.48737400  1
  O  O29  1  0.47169800  0.51262600  0.16639300  1
  O  O30  1  0.73432400  0.98737400  0.66639300  1
  O  O31  1  0.23432400  0.66639300  0.98737400  1
  O  O32  1  0.97169800  0.16639300  0.51262600  1
  O  O33  1  0.15071600  0.48737400  0.83360700  1
  O  O34  1  0.38809000  0.01262600  0.33360700  1
  O  O35  1  0.88809000  0.33360700  0.01262600  1
  O  O36  1  0.23468100  0.02579700  0.65720000  1
  O  O37  1  0.41767700  0.34280000  0.97420300  1
  O  O38  1  0.51047700  0.15720000  0.47420300  1
  O  O39  1  0.01047700  0.47420300  0.15720000  1
  O  O40  1  0.91767700  0.97420300  0.34280000  1
  O  O41  1  0.73468100  0.65720000  0.02579700  1
  O  O42  1  0.14188100  0.84280000  0.52579700  1
  O  O43  1  0.64188100  0.52579700  0.84280000  1
  O  O44  1  0.92537600  0.67102200  0.67850700  1
  O  O45  1  0.77490500  0.32149300  0.32897800  1
  O  O46  1  0.84639800  0.17850700  0.82897800  1
  O  O47  1  0.34639800  0.82897800  0.17850700  1
  O  O48  1  0.27490500  0.32897800  0.32149300  1
  O  O49  1  0.42537600  0.67850700  0.67102200  1
  O  O50  1  0.85388300  0.82149300  0.17102200  1
  O  O51  1  0.35388300  0.17102200  0.82149300  1
