# generated using pymatgen
data_CrAsPd
_symmetry_space_group_name_H-M   'P 1'
_cell_length_a   3.66878800
_cell_length_b   6.69566613
_cell_length_c   6.69566613
_cell_angle_alpha   120.00000127
_cell_angle_beta   90.00000000
_cell_angle_gamma   90.00000000
_symmetry_Int_Tables_number   1
_chemical_formula_structural   CrAsPd
_chemical_formula_sum   'Cr3 As3 Pd3'
_cell_volume   142.44290526
_cell_formula_units_Z   3
loop_
 _symmetry_equiv_pos_site_id
 _symmetry_equiv_pos_as_xyz
  1  'x, y, z'
loop_
 _atom_site_type_symbol
 _atom_site_label
 _atom_site_symmetry_multiplicity
 _atom_site_fract_x
 _atom_site_fract_y
 _atom_site_fract_z
 _atom_site_occupancy
  Cr  Cr0  1  0.00000000  0.39660300  0.39660300  1
  Cr  Cr1  1  0.00000000  0.00000000  0.60339700  1
  Cr  Cr2  1  0.00000000  0.60339700  0.00000000  1
  As  As3  1  0.50000000  0.66666700  0.33333300  1
  As  As4  1  0.50000000  0.33333300  0.66666700  1
  As  As5  1  0.00000000  0.00000000  0.00000000  1
  Pd  Pd6  1  0.50000000  0.73287200  0.73287200  1
  Pd  Pd7  1  0.50000000  0.00000000  0.26712800  1
  Pd  Pd8  1  0.50000000  0.26712800  0.00000000  1
