# generated using pymatgen
data_Na2SiO12
_symmetry_space_group_name_H-M   'P 1'
_cell_length_a   7.49846500
_cell_length_b   13.37828500
_cell_length_c   11.55455331
_cell_angle_alpha   125.37449533
_cell_angle_beta   108.93412919
_cell_angle_gamma   90.00000000
_symmetry_Int_Tables_number   1
_chemical_formula_structural   Na2SiO12
_chemical_formula_sum   'Na8 Si4 O48'
_cell_volume   867.06477924
_cell_formula_units_Z   4
loop_
 _symmetry_equiv_pos_site_id
 _symmetry_equiv_pos_as_xyz
  1  'x, y, z'
loop_
 _atom_site_type_symbol
 _atom_site_label
 _atom_site_symmetry_multiplicity
 _atom_site_fract_x
 _atom_site_fract_y
 _atom_site_fract_z
 _atom_site_occupancy
  Na  Na0  1  0.76462200  0.44555500  0.74343000  1
  Na  Na1  1  0.73537800  0.70212500  0.25657000  1
  Na  Na2  1  0.97880800  0.79787500  0.74343000  1
  Na  Na3  1  0.52119200  0.05444500  0.25657000  1
  Na  Na4  1  0.23537800  0.55444500  0.25657000  1
  Na  Na5  1  0.26462200  0.29787500  0.74343000  1
  Na  Na6  1  0.02119200  0.20212500  0.25657000  1
  Na  Na7  1  0.47880800  0.94555500  0.74343000  1
  Si  Si8  1  0.75000000  0.91809400  0.00000000  1
  Si  Si9  1  0.25000000  0.58190600  0.00000000  1
  Si  Si10  1  0.25000000  0.08190600  0.00000000  1
  Si  Si11  1  0.75000000  0.41809400  0.00000000  1
  O  O12  1  0.55783600  0.78645800  0.92236400  1
  O  O13  1  0.94216400  0.86409500  0.07763600  1
  O  O14  1  0.36452700  0.63590500  0.92236400  1
  O  O15  1  0.13547300  0.71354200  0.07763600  1
  O  O16  1  0.44216400  0.21354200  0.07763600  1
  O  O17  1  0.05783600  0.13590500  0.92236400  1
  O  O18  1  0.63547300  0.36409500  0.07763600  1
  O  O19  1  0.86452700  0.28645800  0.92236400  1
  O  O20  1  0.75440600  0.89472600  0.85122900  1
  O  O21  1  0.74559400  0.04349700  0.14877100  1
  O  O22  1  0.09682300  0.45650300  0.85122900  1
  O  O23  1  0.40317700  0.60527400  0.14877100  1
  O  O24  1  0.24559400  0.10527400  0.14877100  1
  O  O25  1  0.25440600  0.95650300  0.85122900  1
  O  O26  1  0.90317700  0.54349700  0.14877100  1
  O  O27  1  0.59682300  0.39472600  0.85122900  1
  O  O28  1  0.95168200  0.68550800  0.05123600  1
  O  O29  1  0.54831800  0.63427300  0.94876400  1
  O  O30  1  0.09955400  0.86572700  0.05123600  1
  O  O31  1  0.40044600  0.81449200  0.94876400  1
  O  O32  1  0.04831800  0.31449200  0.94876400  1
  O  O33  1  0.45168200  0.36572700  0.05123600  1
  O  O34  1  0.90044600  0.13427300  0.94876400  1
  O  O35  1  0.59955400  0.18550800  0.05123600  1
  O  O36  1  0.35373100  0.41273200  0.55328100  1
  O  O37  1  0.14626900  0.85945200  0.44671900  1
  O  O38  1  0.19955000  0.64054800  0.55328100  1
  O  O39  1  0.30045000  0.08726800  0.44671900  1
  O  O40  1  0.64626900  0.58726800  0.44671900  1
  O  O41  1  0.85373100  0.14054800  0.55328100  1
  O  O42  1  0.80045000  0.35945200  0.44671900  1
  O  O43  1  0.69955000  0.91273200  0.55328100  1
  O  O44  1  0.34854400  0.70408900  0.56546700  1
  O  O45  1  0.15145600  0.13862200  0.43453300  1
  O  O46  1  0.21692300  0.36137800  0.56546700  1
  O  O47  1  0.28307700  0.79591100  0.43453300  1
  O  O48  1  0.65145600  0.29591100  0.43453300  1
  O  O49  1  0.84854400  0.86137800  0.56546700  1
  O  O50  1  0.78307700  0.63862200  0.43453300  1
  O  O51  1  0.71692300  0.20408900  0.56546700  1
  O  O52  1  0.69505600  0.60933800  0.58091900  1
  O  O53  1  0.80494400  0.02841900  0.41908100  1
  O  O54  1  0.88586300  0.47158100  0.58091900  1
  O  O55  1  0.61413700  0.89066200  0.41908100  1
  O  O56  1  0.30494400  0.39066200  0.41908100  1
  O  O57  1  0.19505600  0.97158100  0.58091900  1
  O  O58  1  0.11413700  0.52841900  0.41908100  1
  O  O59  1  0.38586300  0.10933800  0.58091900  1
