# generated using pymatgen
data_K3Ta4F15
_symmetry_space_group_name_H-M   'P 1'
_cell_length_a   4.17230000
_cell_length_b   19.03628100
_cell_length_c   20.82751100
_cell_angle_alpha   90.00000000
_cell_angle_beta   90.00000000
_cell_angle_gamma   90.00000000
_symmetry_Int_Tables_number   1
_chemical_formula_structural   K3Ta4F15
_chemical_formula_sum   'K12 Ta16 F60'
_cell_volume   1654.22662774
_cell_formula_units_Z   4
loop_
 _symmetry_equiv_pos_site_id
 _symmetry_equiv_pos_as_xyz
  1  'x, y, z'
loop_
 _atom_site_type_symbol
 _atom_site_label
 _atom_site_symmetry_multiplicity
 _atom_site_fract_x
 _atom_site_fract_y
 _atom_site_fract_z
 _atom_site_occupancy
  K  K0  1  0.50000000  0.65783400  0.84854700  1
  K  K1  1  0.00000000  0.34216600  0.34854700  1
  K  K2  1  0.50000000  0.14824300  0.69623600  1
  K  K3  1  0.00000000  0.85175700  0.19623600  1
  K  K4  1  0.00000000  0.85370500  0.51785300  1
  K  K5  1  0.50000000  0.14629500  0.01785300  1
  K  K6  1  0.50000000  0.65354200  0.52861500  1
  K  K7  1  0.00000000  0.34645800  0.02861500  1
  K  K8  1  0.50000000  0.45150300  0.86156300  1
  K  K9  1  0.00000000  0.54849700  0.36156300  1
  K  K10  1  0.50000000  0.93550700  0.68712100  1
  K  K11  1  0.00000000  0.06449300  0.18712100  1
  Ta  Ta12  1  0.50000000  0.02703100  0.51125800  1
  Ta  Ta13  1  0.00000000  0.97296900  0.01125800  1
  Ta  Ta14  1  0.00000000  0.03816800  0.82610500  1
  Ta  Ta15  1  0.50000000  0.96183200  0.32610500  1
  Ta  Ta16  1  0.00000000  0.82866300  0.86414200  1
  Ta  Ta17  1  0.50000000  0.17133700  0.36414200  1
  Ta  Ta18  1  0.00000000  0.46706400  0.53324900  1
  Ta  Ta19  1  0.50000000  0.53293600  0.03324900  1
  Ta  Ta20  1  0.00000000  0.54068500  0.71833300  1
  Ta  Ta21  1  0.50000000  0.45931500  0.21833300  1
  Ta  Ta22  1  0.00000000  0.32551200  0.67970100  1
  Ta  Ta23  1  0.50000000  0.67448800  0.17970100  1
  Ta  Ta24  1  0.00000000  0.74425700  0.67749300  1
  Ta  Ta25  1  0.50000000  0.25574300  0.17749300  1
  Ta  Ta26  1  0.00000000  0.25395400  0.87159100  1
  Ta  Ta27  1  0.50000000  0.74604600  0.37159100  1
  F  F28  1  0.50000000  0.07355000  0.59678400  1
  F  F29  1  0.00000000  0.92645000  0.09678400  1
  F  F30  1  0.50000000  0.93451800  0.56044200  1
  F  F31  1  0.00000000  0.06548200  0.06044200  1
  F  F32  1  0.00000000  0.14507800  0.85258900  1
  F  F33  1  0.50000000  0.85492200  0.35258900  1
  F  F34  1  0.00000000  0.02320700  0.72808900  1
  F  F35  1  0.50000000  0.97679300  0.22808900  1
  F  F36  1  0.00000000  0.92554600  0.81466200  1
  F  F37  1  0.50000000  0.07445400  0.31466200  1
  F  F38  1  0.00000000  0.03711200  0.92902600  1
  F  F39  1  0.50000000  0.96288800  0.42902600  1
  F  F40  1  0.00000000  0.77616700  0.77556500  1
  F  F41  1  0.50000000  0.22383300  0.27556500  1
  F  F42  1  0.00000000  0.84813300  0.64758300  1
  F  F43  1  0.50000000  0.15186700  0.14758300  1
  F  F44  1  0.00000000  0.72891000  0.57865800  1
  F  F45  1  0.50000000  0.27109000  0.07865800  1
  F  F46  1  0.00000000  0.72878900  0.89754200  1
  F  F47  1  0.50000000  0.27121100  0.39754200  1
  F  F48  1  0.00000000  0.65059700  0.73474800  1
  F  F49  1  0.50000000  0.34940300  0.23474800  1
  F  F50  1  0.00000000  0.52328400  0.61850900  1
  F  F51  1  0.50000000  0.47671600  0.11850900  1
  F  F52  1  0.00000000  0.54514200  0.81767300  1
  F  F53  1  0.50000000  0.45485800  0.31767300  1
  F  F54  1  0.00000000  0.43040200  0.71165800  1
  F  F55  1  0.50000000  0.56959800  0.21165800  1
  F  F56  1  0.00000000  0.37655500  0.59040200  1
  F  F57  1  0.50000000  0.62344500  0.09040200  1
  F  F58  1  0.00000000  0.22077500  0.66041700  1
  F  F59  1  0.50000000  0.77922500  0.16041700  1
  F  F60  1  0.00000000  0.28495600  0.77417100  1
  F  F61  1  0.50000000  0.71504400  0.27417100  1
  F  F62  1  0.50000000  0.43594900  0.99013200  1
  F  F63  1  0.00000000  0.56405100  0.49013200  1
  F  F64  1  0.50000000  0.57637700  0.94539900  1
  F  F65  1  0.00000000  0.42362300  0.44539900  1
  F  F66  1  0.00000000  0.88931000  0.94693800  1
  F  F67  1  0.50000000  0.11069000  0.44693800  1
  F  F68  1  0.00000000  0.22054600  0.96531600  1
  F  F69  1  0.50000000  0.77945400  0.46531600  1
  F  F70  1  0.00000000  0.36077500  0.88776200  1
  F  F71  1  0.50000000  0.63922500  0.38776200  1
  F  F72  1  0.00000000  0.02450600  0.50841400  1
  F  F73  1  0.50000000  0.97549400  0.00841400  1
  F  F74  1  0.50000000  0.74412600  0.67909500  1
  F  F75  1  0.00000000  0.25587400  0.17909500  1
  F  F76  1  0.50000000  0.03619300  0.82663300  1
  F  F77  1  0.00000000  0.96380700  0.32663300  1
  F  F78  1  0.50000000  0.82793600  0.86251900  1
  F  F79  1  0.00000000  0.17206400  0.36251900  1
  F  F80  1  0.50000000  0.53966900  0.72192800  1
  F  F81  1  0.00000000  0.46033100  0.22192800  1
  F  F82  1  0.50000000  0.32400700  0.68095000  1
  F  F83  1  0.00000000  0.67599300  0.18095000  1
  F  F84  1  0.50000000  0.25370100  0.87240800  1
  F  F85  1  0.00000000  0.74629900  0.37240800  1
  F  F86  1  0.50000000  0.46929900  0.53488000  1
  F  F87  1  0.00000000  0.53070100  0.03488000  1
