# generated using pymatgen
data_CoBrN5O4
_symmetry_space_group_name_H-M   'P 1'
_cell_length_a   11.86109400
_cell_length_b   6.69936500
_cell_length_c   12.48785472
_cell_angle_alpha   70.42180522
_cell_angle_beta   90.00000000
_cell_angle_gamma   90.00000000
_symmetry_Int_Tables_number   1
_chemical_formula_structural   CoBrN5O4
_chemical_formula_sum   'Co4 Br4 N20 O16'
_cell_volume   934.93718530
_cell_formula_units_Z   4
loop_
 _symmetry_equiv_pos_site_id
 _symmetry_equiv_pos_as_xyz
  1  'x, y, z'
loop_
 _atom_site_type_symbol
 _atom_site_label
 _atom_site_symmetry_multiplicity
 _atom_site_fract_x
 _atom_site_fract_y
 _atom_site_fract_z
 _atom_site_occupancy
  Co  Co0  1  0.48334500  0.22996200  0.28266000  1
  Co  Co1  1  0.01665500  0.22996200  0.78266000  1
  Co  Co2  1  0.51665500  0.77003800  0.71734000  1
  Co  Co3  1  0.98334500  0.77003800  0.21734000  1
  Br  Br4  1  0.38771600  0.92012900  0.37565900  1
  Br  Br5  1  0.11228400  0.92012900  0.87565900  1
  Br  Br6  1  0.61228400  0.07987100  0.62434100  1
  Br  Br7  1  0.88771600  0.07987100  0.12434100  1
  N  N8  1  0.23744600  0.26411200  0.14564000  1
  N  N9  1  0.26255400  0.26411200  0.64564000  1
  N  N10  1  0.76255400  0.73588800  0.85436000  1
  N  N11  1  0.73744600  0.73588800  0.35436000  1
  N  N12  1  0.49684300  0.52391900  0.15002000  1
  N  N13  1  0.00315700  0.52391900  0.65002000  1
  N  N14  1  0.50315700  0.47608100  0.84998000  1
  N  N15  1  0.99684300  0.47608100  0.34998000  1
  N  N16  1  0.59727100  0.23120900  0.34061100  1
  N  N17  1  0.90272900  0.23120900  0.84061100  1
  N  N18  1  0.40272900  0.76879100  0.65938900  1
  N  N19  1  0.09727100  0.76879100  0.15938900  1
  N  N20  1  0.49612400  0.12155900  0.16866600  1
  N  N21  1  0.00387600  0.12155900  0.66866600  1
  N  N22  1  0.50387600  0.87844100  0.83133400  1
  N  N23  1  0.99612400  0.87844100  0.33133400  1
  N  N24  1  0.37835500  0.35299400  0.34429600  1
  N  N25  1  0.12164500  0.35299400  0.84429600  1
  N  N26  1  0.62164500  0.64700600  0.65570400  1
  N  N27  1  0.87835500  0.64700600  0.15570400  1
  O  O28  1  0.24052200  0.15478900  0.08573700  1
  O  O29  1  0.25947800  0.15478900  0.58573700  1
  O  O30  1  0.75947800  0.84521100  0.91426300  1
  O  O31  1  0.74052200  0.84521100  0.41426300  1
  O  O32  1  0.16141600  0.34102400  0.18408600  1
  O  O33  1  0.33858400  0.34102400  0.68408600  1
  O  O34  1  0.83858400  0.65897600  0.81591400  1
  O  O35  1  0.66141600  0.65897600  0.31591400  1
  O  O36  1  0.41520400  0.63914500  0.14087900  1
  O  O37  1  0.08479600  0.63914500  0.64087900  1
  O  O38  1  0.58479600  0.36085500  0.85912100  1
  O  O39  1  0.91520400  0.36085500  0.35912100  1
  O  O40  1  0.58108300  0.55257900  0.09127200  1
  O  O41  1  0.91891700  0.55257900  0.59127200  1
  O  O42  1  0.41891700  0.44742100  0.90872800  1
  O  O43  1  0.08108300  0.44742100  0.40872800  1
