# generated using pymatgen
data_K6Zn3Cl10
_symmetry_space_group_name_H-M   'P 1'
_cell_length_a   27.15753000
_cell_length_b   12.44873500
_cell_length_c   7.22609100
_cell_angle_alpha   90.00000000
_cell_angle_beta   90.00000000
_cell_angle_gamma   90.00000000
_symmetry_Int_Tables_number   1
_chemical_formula_structural   K6Zn3Cl10
_chemical_formula_sum   'K24 Zn12 Cl40'
_cell_volume   2442.97440266
_cell_formula_units_Z   4
loop_
 _symmetry_equiv_pos_site_id
 _symmetry_equiv_pos_as_xyz
  1  'x, y, z'
loop_
 _atom_site_type_symbol
 _atom_site_label
 _atom_site_symmetry_multiplicity
 _atom_site_fract_x
 _atom_site_fract_y
 _atom_site_fract_z
 _atom_site_occupancy
  K  K0  1  0.70855900  0.91557300  0.78744000  1
  K  K1  1  0.29144100  0.08442700  0.28744000  1
  K  K2  1  0.79144100  0.41557300  0.28744000  1
  K  K3  1  0.20855900  0.58442700  0.78744000  1
  K  K4  1  0.54275100  0.57457100  0.71830000  1
  K  K5  1  0.45724900  0.42542900  0.21830000  1
  K  K6  1  0.95724900  0.07457100  0.21830000  1
  K  K7  1  0.04275100  0.92542900  0.71830000  1
  K  K8  1  0.88103300  0.58411600  0.74448700  1
  K  K9  1  0.11896700  0.41588400  0.24448700  1
  K  K10  1  0.61896700  0.08411600  0.24448700  1
  K  K11  1  0.38103300  0.91588400  0.74448700  1
  K  K12  1  0.66722600  0.32116400  0.75448000  1
  K  K13  1  0.33277400  0.67883600  0.25448000  1
  K  K14  1  0.83277400  0.82116400  0.25448000  1
  K  K15  1  0.16722600  0.17883600  0.75448000  1
  K  K16  1  0.83340200  0.18850900  0.76616400  1
  K  K17  1  0.16659800  0.81149100  0.26616400  1
  K  K18  1  0.66659800  0.68850900  0.26616400  1
  K  K19  1  0.33340200  0.31149100  0.76616400  1
  K  K20  1  0.00048900  0.32173100  0.69820000  1
  K  K21  1  0.99951100  0.67826900  0.19820000  1
  K  K22  1  0.49951100  0.82173100  0.19820000  1
  K  K23  1  0.50048900  0.17826900  0.69820000  1
  Zn  Zn24  1  0.57353200  0.90384200  0.72645500  1
  Zn  Zn25  1  0.42646800  0.09615800  0.22645500  1
  Zn  Zn26  1  0.92646800  0.40384200  0.22645500  1
  Zn  Zn27  1  0.07353200  0.59615800  0.72645500  1
  Zn  Zn28  1  0.74643200  0.58955800  0.72604800  1
  Zn  Zn29  1  0.25356800  0.41044200  0.22604800  1
  Zn  Zn30  1  0.75356800  0.08955800  0.22604800  1
  Zn  Zn31  1  0.24643200  0.91044200  0.72604800  1
  Zn  Zn32  1  0.90491800  0.92009200  0.72228100  1
  Zn  Zn33  1  0.09508200  0.07990800  0.22228100  1
  Zn  Zn34  1  0.59508200  0.42009200  0.22228100  1
  Zn  Zn35  1  0.40491800  0.57990800  0.72228100  1
  Cl  Cl36  1  0.65965400  0.57740100  0.67834500  1
  Cl  Cl37  1  0.34034600  0.42259900  0.17834500  1
  Cl  Cl38  1  0.84034600  0.07740100  0.17834500  1
  Cl  Cl39  1  0.15965400  0.92259900  0.67834500  1
  Cl  Cl40  1  0.82313000  0.93450000  0.68247400  1
  Cl  Cl41  1  0.17687000  0.06550000  0.18247400  1
  Cl  Cl42  1  0.67687000  0.43450000  0.18247400  1
  Cl  Cl43  1  0.32313000  0.56550000  0.68247400  1
  Cl  Cl44  1  0.99219800  0.55724900  0.82231400  1
  Cl  Cl45  1  0.00780200  0.44275100  0.32231400  1
  Cl  Cl46  1  0.50780200  0.05724900  0.32231400  1
  Cl  Cl47  1  0.49219800  0.94275100  0.82231400  1
  Cl  Cl48  1  0.61682200  0.07420400  0.69265400  1
  Cl  Cl49  1  0.38317800  0.92579600  0.19265400  1
  Cl  Cl50  1  0.88317800  0.57420400  0.19265400  1
  Cl  Cl51  1  0.11682200  0.42579600  0.69265400  1
  Cl  Cl52  1  0.77915300  0.42014700  0.84083900  1
  Cl  Cl53  1  0.22084700  0.57985300  0.34083900  1
  Cl  Cl54  1  0.72084700  0.92014700  0.34083900  1
  Cl  Cl55  1  0.27915300  0.07985300  0.84083900  1
  Cl  Cl56  1  0.94418100  0.08485300  0.69625700  1
  Cl  Cl57  1  0.05581900  0.91514700  0.19625700  1
  Cl  Cl58  1  0.55581900  0.58485300  0.19625700  1
  Cl  Cl59  1  0.44418100  0.41514700  0.69625700  1
  Cl  Cl60  1  0.61004700  0.85919000  0.02683500  1
  Cl  Cl61  1  0.38995300  0.14081000  0.52683500  1
  Cl  Cl62  1  0.88995300  0.35919000  0.52683500  1
  Cl  Cl63  1  0.11004700  0.64081000  0.02683500  1
  Cl  Cl64  1  0.75572900  0.70596800  0.98525900  1
  Cl  Cl65  1  0.24427100  0.29403200  0.48525900  1
  Cl  Cl66  1  0.74427100  0.20596800  0.48525900  1
  Cl  Cl67  1  0.25572900  0.79403200  0.98525900  1
  Cl  Cl68  1  0.93061000  0.85183800  0.99868700  1
  Cl  Cl69  1  0.06939000  0.14816200  0.49868700  1
  Cl  Cl70  1  0.56939000  0.35183800  0.49868700  1
  Cl  Cl71  1  0.43061000  0.64816200  0.99868700  1
  Cl  Cl72  1  0.56332900  0.30810200  0.00048200  1
  Cl  Cl73  1  0.43667100  0.69189800  0.50048200  1
  Cl  Cl74  1  0.93667100  0.80810200  0.50048200  1
  Cl  Cl75  1  0.06332900  0.19189800  0.00048200  1
