# generated using pymatgen
data_Na4P2O17
_symmetry_space_group_name_H-M   'P 1'
_cell_length_a   5.95470700
_cell_length_b   10.62562770
_cell_length_c   12.82462650
_cell_angle_alpha   73.64328392
_cell_angle_beta   76.57577845
_cell_angle_gamma   73.72755993
_symmetry_Int_Tables_number   1
_chemical_formula_structural   Na4P2O17
_chemical_formula_sum   'Na8 P4 O34'
_cell_volume   736.99636014
_cell_formula_units_Z   2
loop_
 _symmetry_equiv_pos_site_id
 _symmetry_equiv_pos_as_xyz
  1  'x, y, z'
loop_
 _atom_site_type_symbol
 _atom_site_label
 _atom_site_symmetry_multiplicity
 _atom_site_fract_x
 _atom_site_fract_y
 _atom_site_fract_z
 _atom_site_occupancy
  Na  Na0  1  0.58408600  0.83234000  0.54125500  1
  Na  Na1  1  0.04231800  0.33234000  0.04125500  1
  Na  Na2  1  0.41591400  0.16766000  0.45874500  1
  Na  Na3  1  0.95768200  0.66766000  0.95874500  1
  Na  Na4  1  0.43629100  0.04477100  0.83167900  1
  Na  Na5  1  0.68725900  0.54477100  0.33167900  1
  Na  Na6  1  0.56370900  0.95522900  0.16832100  1
  Na  Na7  1  0.31274100  0.45522900  0.66832100  1
  P  P8  1  0.16980800  0.80011600  0.35390300  1
  P  P9  1  0.67617300  0.30011600  0.85390300  1
  P  P10  1  0.83019200  0.19988400  0.64609700  1
  P  P11  1  0.32382700  0.69988400  0.14609700  1
  O  O12  1  0.13715600  0.75000000  0.25000000  1
  O  O13  1  0.86284400  0.25000000  0.75000000  1
  O  O14  1  0.39616500  0.70258000  0.39558300  1
  O  O15  1  0.50567100  0.20258000  0.89558300  1
  O  O16  1  0.60383500  0.29742000  0.60441700  1
  O  O17  1  0.49432900  0.79742000  0.10441700  1
  O  O18  1  0.94650500  0.78208800  0.43791100  1
  O  O19  1  0.83349500  0.28208800  0.93791100  1
  O  O20  1  0.05349500  0.21791200  0.56208900  1
  O  O21  1  0.16650500  0.71791200  0.06208900  1
  O  O22  1  0.20308800  0.94495900  0.30417500  1
  O  O23  1  0.54777800  0.44495900  0.80417500  1
  O  O24  1  0.79691200  0.05504100  0.69582500  1
  O  O25  1  0.45222200  0.55504100  0.19582500  1
  O  O26  1  0.36430700  0.67066400  0.57345900  1
  O  O27  1  0.39157100  0.17066400  0.07345900  1
  O  O28  1  0.63569300  0.32933600  0.42654100  1
  O  O29  1  0.60842900  0.82933600  0.92654100  1
  O  O30  1  0.78582100  0.00533600  0.54021000  1
  O  O31  1  0.66863300  0.50533600  0.04021000  1
  O  O32  1  0.21417900  0.99466400  0.45979000  1
  O  O33  1  0.33136700  0.49466400  0.95979000  1
  O  O34  1  0.20519100  0.80939300  0.78278700  1
  O  O35  1  0.20262900  0.30939300  0.28278700  1
  O  O36  1  0.79480900  0.19060700  0.21721300  1
  O  O37  1  0.79737100  0.69060700  0.71721300  1
  O  O38  1  0.36590300  0.09062900  0.64919500  1
  O  O39  1  0.89427200  0.59062900  0.14919500  1
  O  O40  1  0.63409700  0.90937100  0.35080500  1
  O  O41  1  0.10572800  0.40937100  0.85080500  1
  O  O42  1  0.16162900  0.89597800  0.83664600  1
  O  O43  1  0.10574800  0.39597800  0.33664600  1
  O  O44  1  0.83837100  0.10402200  0.16335400  1
  O  O45  1  0.89425200  0.60402200  0.66335400  1
