# generated using pymatgen
data_NaFe2(Si2O5)3
_symmetry_space_group_name_H-M   'P 1'
_cell_length_a   11.36391185
_cell_length_b   11.36391185
_cell_length_c   10.20729200
_cell_angle_alpha   90.00000000
_cell_angle_beta   90.00000000
_cell_angle_gamma   100.28031503
_symmetry_Int_Tables_number   1
_chemical_formula_structural   NaFe2(Si2O5)3
_chemical_formula_sum   'Na4 Fe8 Si24 O60'
_cell_volume   1296.99319289
_cell_formula_units_Z   4
loop_
 _symmetry_equiv_pos_site_id
 _symmetry_equiv_pos_as_xyz
  1  'x, y, z'
loop_
 _atom_site_type_symbol
 _atom_site_label
 _atom_site_symmetry_multiplicity
 _atom_site_fract_x
 _atom_site_fract_y
 _atom_site_fract_z
 _atom_site_occupancy
  Na  Na0  1  0.97016300  0.52983700  0.25000000  1
  Na  Na1  1  0.52983700  0.97016300  0.75000000  1
  Na  Na2  1  0.02983700  0.47016300  0.75000000  1
  Na  Na3  1  0.47016300  0.02983700  0.25000000  1
  Fe  Fe4  1  0.75146400  0.75146400  0.00000000  1
  Fe  Fe5  1  0.25146400  0.25146400  0.50000000  1
  Fe  Fe6  1  0.24853600  0.24853600  0.00000000  1
  Fe  Fe7  1  0.74853600  0.74853600  0.50000000  1
  Fe  Fe8  1  0.65619900  0.84380100  0.25000000  1
  Fe  Fe9  1  0.84380100  0.65619900  0.75000000  1
  Fe  Fe10  1  0.34380100  0.15619900  0.75000000  1
  Fe  Fe11  1  0.15619900  0.34380100  0.25000000  1
  Si  Si12  1  0.74060600  0.47622700  0.01140500  1
  Si  Si13  1  0.47622700  0.74060600  0.98859500  1
  Si  Si14  1  0.97622700  0.24060600  0.51140500  1
  Si  Si15  1  0.24060600  0.97622700  0.48859500  1
  Si  Si16  1  0.25939400  0.52377300  0.98859500  1
  Si  Si17  1  0.52377300  0.25939400  0.01140500  1
  Si  Si18  1  0.02377300  0.75939400  0.48859500  1
  Si  Si19  1  0.75939400  0.02377300  0.51140500  1
  Si  Si20  1  0.67991800  0.53902900  0.30434800  1
  Si  Si21  1  0.53902900  0.67991800  0.69565200  1
  Si  Si22  1  0.03902900  0.17991800  0.80434800  1
  Si  Si23  1  0.17991800  0.03902900  0.19565200  1
  Si  Si24  1  0.32008200  0.46097100  0.69565200  1
  Si  Si25  1  0.46097100  0.32008200  0.30434800  1
  Si  Si26  1  0.96097100  0.82008200  0.19565200  1
  Si  Si27  1  0.82008200  0.96097100  0.80434800  1
  Si  Si28  1  0.79789600  0.42030200  0.54248200  1
  Si  Si29  1  0.42030200  0.79789600  0.45751800  1
  Si  Si30  1  0.92030200  0.29789600  0.04248200  1
  Si  Si31  1  0.29789600  0.92030200  0.95751800  1
  Si  Si32  1  0.20210400  0.57969800  0.45751800  1
  Si  Si33  1  0.57969800  0.20210400  0.54248200  1
  Si  Si34  1  0.07969800  0.70210400  0.95751800  1
  Si  Si35  1  0.70210400  0.07969800  0.04248200  1
  O  O36  1  0.85298600  0.40673100  0.99201600  1
  O  O37  1  0.40673100  0.85298600  0.00798400  1
  O  O38  1  0.90673100  0.35298600  0.49201600  1
  O  O39  1  0.35298600  0.90673100  0.50798400  1
  O  O40  1  0.14701400  0.59326900  0.00798400  1
  O  O41  1  0.59326900  0.14701400  0.99201600  1
  O  O42  1  0.09326900  0.64701400  0.50798400  1
  O  O43  1  0.64701400  0.09326900  0.49201600  1
  O  O44  1  0.75139200  0.59071300  0.91513600  1
  O  O45  1  0.59071300  0.75139200  0.08486400  1
  O  O46  1  0.09071300  0.25139200  0.41513600  1
  O  O47  1  0.25139200  0.09071300  0.58486400  1
  O  O48  1  0.24860800  0.40928700  0.08486400  1
  O  O49  1  0.40928700  0.24860800  0.91513600  1
  O  O50  1  0.90928700  0.74860800  0.58486400  1
  O  O51  1  0.74860800  0.90928700  0.41513600  1
  O  O52  1  0.74816400  0.52694100  0.16398400  1
  O  O53  1  0.52694100  0.74816400  0.83601600  1
  O  O54  1  0.02694100  0.24816400  0.66398400  1
  O  O55  1  0.24816400  0.02694100  0.33601600  1
  O  O56  1  0.25183600  0.47305900  0.83601600  1
  O  O57  1  0.47305900  0.25183600  0.16398400  1
  O  O58  1  0.97305900  0.75183600  0.33601600  1
  O  O59  1  0.75183600  0.97305900  0.66398400  1
  O  O60  1  0.66659600  0.67543200  0.33643400  1
  O  O61  1  0.67543200  0.66659600  0.66356600  1
  O  O62  1  0.17543200  0.16659600  0.83643400  1
  O  O63  1  0.16659600  0.17543200  0.16356600  1
  O  O64  1  0.33340400  0.32456800  0.66356600  1
  O  O65  1  0.32456800  0.33340400  0.33643400  1
  O  O66  1  0.82456800  0.83340400  0.16356600  1
  O  O67  1  0.83340400  0.82456800  0.83643400  1
  O  O68  1  0.77266400  0.49888400  0.41292500  1
  O  O69  1  0.49888400  0.77266400  0.58707500  1
  O  O70  1  0.99888400  0.27266400  0.91292500  1
  O  O71  1  0.27266400  0.99888400  0.08707500  1
  O  O72  1  0.22733600  0.50111600  0.58707500  1
  O  O73  1  0.50111600  0.22733600  0.41292500  1
  O  O74  1  0.00111600  0.72733600  0.08707500  1
  O  O75  1  0.72733600  0.00111600  0.91292500  1
  O  O76  1  0.84407400  0.50099100  0.66740700  1
  O  O77  1  0.50099100  0.84407400  0.33259300  1
  O  O78  1  0.00099100  0.34407400  0.16740700  1
  O  O79  1  0.34407400  0.00099100  0.83259300  1
  O  O80  1  0.15592600  0.49900900  0.33259300  1
  O  O81  1  0.49900900  0.15592600  0.66740700  1
  O  O82  1  0.99900900  0.65592600  0.83259300  1
  O  O83  1  0.65592600  0.99900900  0.16740700  1
  O  O84  1  0.61434900  0.38565100  0.99000400  1
  O  O85  1  0.38565100  0.61434900  0.00999600  1
  O  O86  1  0.88565100  0.11434900  0.49000400  1
  O  O87  1  0.11434900  0.88565100  0.50999600  1
  O  O88  1  0.55238500  0.44761500  0.30758500  1
  O  O89  1  0.44761500  0.55238500  0.69241500  1
  O  O90  1  0.94761500  0.05238500  0.80758500  1
  O  O91  1  0.05238500  0.94761500  0.19241500  1
  O  O92  1  0.67945400  0.32054600  0.57517100  1
  O  O93  1  0.32054600  0.67945400  0.42482900  1
  O  O94  1  0.82054600  0.17945400  0.07517100  1
  O  O95  1  0.17945400  0.82054600  0.92482900  1
