# generated using pymatgen
data_BaNb8O14
_symmetry_space_group_name_H-M   'P 1'
_cell_length_a   9.58458999
_cell_length_b   10.50162382
_cell_length_c   24.06554334
_cell_angle_alpha   90.00000000
_cell_angle_beta   90.00000000
_cell_angle_gamma   90.00000000
_symmetry_Int_Tables_number   1
_chemical_formula_structural   BaNb8O14
_chemical_formula_sum   'Ba8 Nb64 O112'
_cell_volume   2422.28738857
_cell_formula_units_Z   8
loop_
 _symmetry_equiv_pos_site_id
 _symmetry_equiv_pos_as_xyz
  1  'x, y, z'
loop_
 _atom_site_type_symbol
 _atom_site_label
 _atom_site_symmetry_multiplicity
 _atom_site_fract_x
 _atom_site_fract_y
 _atom_site_fract_z
 _atom_site_occupancy
  Ba  Ba0  1  0.00665528  0.01219905  0.13536634  1
  Ba  Ba1  1  0.50665528  0.98780095  0.36463366  1
  Ba  Ba2  1  0.99334472  0.48780095  0.63536634  1
  Ba  Ba3  1  0.49334472  0.51219905  0.86463366  1
  Ba  Ba4  1  0.99334472  0.98780095  0.86463366  1
  Ba  Ba5  1  0.49334472  0.01219905  0.63536634  1
  Ba  Ba6  1  0.00665528  0.51219905  0.36463366  1
  Ba  Ba7  1  0.50665528  0.48780095  0.13536634  1
  Nb  Nb8  1  0.62546356  0.07590370  0.06707424  1
  Nb  Nb9  1  0.12546356  0.92409630  0.43292576  1
  Nb  Nb10  1  0.37453644  0.42409630  0.56707424  1
  Nb  Nb11  1  0.87453644  0.57590370  0.93292576  1
  Nb  Nb12  1  0.37453644  0.92409630  0.93292576  1
  Nb  Nb13  1  0.87453644  0.07590370  0.56707424  1
  Nb  Nb14  1  0.62546356  0.57590370  0.43292576  1
  Nb  Nb15  1  0.12546356  0.42409630  0.06707424  1
  Nb  Nb16  1  0.37576315  0.92132708  0.06619318  1
  Nb  Nb17  1  0.87576315  0.07867292  0.43380682  1
  Nb  Nb18  1  0.62423685  0.57867292  0.56619318  1
  Nb  Nb19  1  0.12423685  0.42132708  0.93380682  1
  Nb  Nb20  1  0.62423685  0.07867292  0.93380682  1
  Nb  Nb21  1  0.12423685  0.92132708  0.56619318  1
  Nb  Nb22  1  0.37576315  0.42132708  0.43380682  1
  Nb  Nb23  1  0.87576315  0.57867292  0.06619318  1
  Nb  Nb24  1  0.37642299  0.92642562  0.18225600  1
  Nb  Nb25  1  0.87642299  0.07357438  0.31774400  1
  Nb  Nb26  1  0.62357701  0.57357438  0.68225600  1
  Nb  Nb27  1  0.12357701  0.42642562  0.81774400  1
  Nb  Nb28  1  0.62357701  0.07357438  0.81774400  1
  Nb  Nb29  1  0.12357701  0.92642562  0.68225600  1
  Nb  Nb30  1  0.37642299  0.42642562  0.31774400  1
  Nb  Nb31  1  0.87642299  0.57357438  0.18225600  1
  Nb  Nb32  1  0.38169520  0.16118367  0.12037993  1
  Nb  Nb33  1  0.88169520  0.83881633  0.37962007  1
  Nb  Nb34  1  0.61830480  0.33881633  0.62037993  1
  Nb  Nb35  1  0.11830480  0.66118367  0.87962007  1
  Nb  Nb36  1  0.61830480  0.83881633  0.87962007  1
  Nb  Nb37  1  0.11830480  0.16118367  0.62037993  1
  Nb  Nb38  1  0.38169520  0.66118367  0.37962007  1
  Nb  Nb39  1  0.88169520  0.33881633  0.12037993  1
  Nb  Nb40  1  0.36173920  0.18608034  0.25320527  1
  Nb  Nb41  1  0.86173920  0.81391966  0.24679473  1
  Nb  Nb42  1  0.63826080  0.31391966  0.75320527  1
  Nb  Nb43  1  0.13826080  0.68608034  0.74679473  1
  Nb  Nb44  1  0.63826080  0.81391966  0.74679473  1
  Nb  Nb45  1  0.13826080  0.18608034  0.75320527  1
  Nb  Nb46  1  0.36173920  0.68608034  0.24679473  1
  Nb  Nb47  1  0.86173920  0.31391966  0.25320527  1
  Nb  Nb48  1  0.11670305  0.16092221  0.99908160  1
  Nb  Nb49  1  0.61670305  0.83907779  0.50091840  1
  Nb  Nb50  1  0.88329695  0.33907779  0.49908160  1
  Nb  Nb51  1  0.38329695  0.66092221  0.00091840  1
  Nb  Nb52  1  0.88329695  0.83907779  0.00091840  1
  Nb  Nb53  1  0.38329695  0.16092221  0.49908160  1
  Nb  Nb54  1  0.11670305  0.66092221  0.50091840  1
  Nb  Nb55  1  0.61670305  0.33907779  0.99908160  1
  Nb  Nb56  1  0.61699569  0.83524122  0.12379376  1
  Nb  Nb57  1  0.11699569  0.16475878  0.37620624  1
  Nb  Nb58  1  0.38300431  0.66475878  0.62379376  1
  Nb  Nb59  1  0.88300431  0.33524122  0.87620624  1
  Nb  Nb60  1  0.38300431  0.16475878  0.87620624  1
  Nb  Nb61  1  0.88300431  0.83524122  0.62379376  1
  Nb  Nb62  1  0.61699569  0.33524122  0.37620624  1
  Nb  Nb63  1  0.11699569  0.66475878  0.12379376  1
  Nb  Nb64  1  0.62406029  0.07518103  0.18290541  1
  Nb  Nb65  1  0.12406029  0.92481897  0.31709459  1
  Nb  Nb66  1  0.37593971  0.42481897  0.68290541  1
  Nb  Nb67  1  0.87593971  0.57518103  0.81709459  1
  Nb  Nb68  1  0.37593971  0.92481897  0.81709459  1
  Nb  Nb69  1  0.87593971  0.07518103  0.68290541  1
  Nb  Nb70  1  0.62406029  0.57518103  0.31709459  1
  Nb  Nb71  1  0.12406029  0.42481897  0.18290541  1
  O  O72  1  0.49261019  0.74676283  0.06357913  1
  O  O73  1  0.99261019  0.25323717  0.43642087  1
  O  O74  1  0.50738981  0.75323717  0.56357913  1
  O  O75  1  0.00738981  0.24676283  0.93642087  1
  O  O76  1  0.50738981  0.25323717  0.93642087  1
  O  O77  1  0.00738981  0.74676283  0.56357913  1
  O  O78  1  0.49261019  0.24676283  0.43642087  1
  O  O79  1  0.99261019  0.75323717  0.06357913  1
  O  O80  1  0.75045223  0.90883970  0.18797083  1
  O  O81  1  0.25045223  0.09116030  0.31202917  1
  O  O82  1  0.24954777  0.59116030  0.68797083  1
  O  O83  1  0.74954777  0.40883970  0.81202917  1
  O  O84  1  0.24954777  0.09116030  0.81202917  1
  O  O85  1  0.74954777  0.90883970  0.68797083  1
  O  O86  1  0.75045223  0.40883970  0.31202917  1
  O  O87  1  0.25045223  0.59116030  0.18797083  1
  O  O88  1  0.49095172  0.75257804  0.18739922  1
  O  O89  1  0.99095172  0.24742196  0.31260078  1
  O  O90  1  0.50904828  0.74742196  0.68739922  1
  O  O91  1  0.00904828  0.25257804  0.81260078  1
  O  O92  1  0.50904828  0.24742196  0.81260078  1
  O  O93  1  0.00904828  0.75257804  0.68739922  1
  O  O94  1  0.49095172  0.25257804  0.31260078  1
  O  O95  1  0.99095172  0.74742196  0.18739922  1
  O  O96  1  0.75611792  0.91362701  0.06289836  1
  O  O97  1  0.25611792  0.08637299  0.43710164  1
  O  O98  1  0.24388208  0.58637299  0.56289836  1
  O  O99  1  0.74388208  0.41362701  0.93710164  1
  O  O100  1  0.24388208  0.08637299  0.93710164  1
  O  O101  1  0.74388208  0.91362701  0.56289836  1
  O  O102  1  0.75611792  0.41362701  0.43710164  1
  O  O103  1  0.25611792  0.58637299  0.06289836  1
  O  O104  1  0.23980109  0.84744804  0.12447170  1
  O  O105  1  0.73980109  0.15255196  0.37552830  1
  O  O106  1  0.76019891  0.65255196  0.62447170  1
  O  O107  1  0.26019891  0.34744804  0.87552830  1
  O  O108  1  0.76019891  0.15255196  0.87552830  1
  O  O109  1  0.26019891  0.84744804  0.62447170  1
  O  O110  1  0.23980109  0.34744804  0.37552830  1
  O  O111  1  0.73980109  0.65255196  0.12447170  1
  O  O112  1  0.75588854  0.15808612  0.12513130  1
  O  O113  1  0.25588854  0.84191388  0.37486870  1
  O  O114  1  0.24411146  0.34191388  0.62513130  1
  O  O115  1  0.74411146  0.65808612  0.87486870  1
  O  O116  1  0.24411146  0.84191388  0.87486870  1
  O  O117  1  0.74411146  0.15808612  0.62513130  1
  O  O118  1  0.75588854  0.65808612  0.37486870  1
  O  O119  1  0.25588854  0.34191388  0.12513130  1
  O  O120  1  0.48740245  0.01745691  0.24686976  1
  O  O121  1  0.98740245  0.98254309  0.25313024  1
  O  O122  1  0.51259755  0.48254309  0.74686976  1
  O  O123  1  0.01259755  0.51745691  0.75313024  1
  O  O124  1  0.51259755  0.98254309  0.75313024  1
  O  O125  1  0.01259755  0.01745691  0.74686976  1
  O  O126  1  0.48740245  0.51745691  0.25313024  1
  O  O127  1  0.98740245  0.48254309  0.24686976  1
  O  O128  1  0.49333154  0.23818857  0.18870672  1
  O  O129  1  0.99333154  0.76181143  0.31129328  1
  O  O130  1  0.50666846  0.26181143  0.68870672  1
  O  O131  1  0.00666846  0.73818857  0.81129328  1
  O  O132  1  0.50666846  0.76181143  0.81129328  1
  O  O133  1  0.00666846  0.23818857  0.68870672  1
  O  O134  1  0.49333154  0.73818857  0.31129328  1
  O  O135  1  0.99333154  0.26181143  0.18870672  1
  O  O136  1  0.75437384  0.16264512  0.24853293  1
  O  O137  1  0.25437384  0.83735488  0.25146707  1
  O  O138  1  0.24562616  0.33735488  0.74853293  1
  O  O139  1  0.74562616  0.66264512  0.75146707  1
  O  O140  1  0.24562616  0.83735488  0.75146707  1
  O  O141  1  0.74562616  0.16264512  0.74853293  1
  O  O142  1  0.75437384  0.66264512  0.25146707  1
  O  O143  1  0.25437384  0.33735488  0.24853293  1
  O  O144  1  0.50000000  -0.00000000  0.00000000  1
  O  O145  1  0.00000000  -0.00000000  0.50000000  1
  O  O146  1  0.50000000  0.50000000  0.50000000  1
  O  O147  1  -0.00000000  0.50000000  0.00000000  1
  O  O148  1  0.50713208  0.25293149  0.06240400  1
  O  O149  1  0.00713208  0.74706851  0.43759600  1
  O  O150  1  0.49286792  0.24706851  0.56240400  1
  O  O151  1  0.99286792  0.75293149  0.93759600  1
  O  O152  1  0.49286792  0.74706851  0.93759600  1
  O  O153  1  0.99286792  0.25293149  0.56240400  1
  O  O154  1  0.50713208  0.75293149  0.43759600  1
  O  O155  1  0.00713208  0.24706851  0.06240400  1
  O  O156  1  0.73018742  0.18151954  0.00040301  1
  O  O157  1  0.23018742  0.81848046  0.49959699  1
  O  O158  1  0.26981258  0.31848046  0.50040301  1
  O  O159  1  0.76981258  0.68151954  0.99959699  1
  O  O160  1  0.26981258  0.81848046  0.99959699  1
  O  O161  1  0.76981258  0.18151954  0.50040301  1
  O  O162  1  0.73018742  0.68151954  0.49959699  1
  O  O163  1  0.23018742  0.31848046  0.00040301  1
  O  O164  1  0.24124627  0.08525527  0.06171048  1
  O  O165  1  0.74124627  0.91474473  0.43828952  1
  O  O166  1  0.75875373  0.41474473  0.56171048  1
  O  O167  1  0.25875373  0.58525527  0.93828952  1
  O  O168  1  0.75875373  0.91474473  0.93828952  1
  O  O169  1  0.25875373  0.08525527  0.56171048  1
  O  O170  1  0.24124627  0.58525527  0.43828952  1
  O  O171  1  0.74124627  0.41474473  0.06171048  1
  O  O172  1  0.25798664  0.09412875  0.18810011  1
  O  O173  1  0.75798664  0.90587125  0.31189989  1
  O  O174  1  0.74201336  0.40587125  0.68810011  1
  O  O175  1  0.24201336  0.59412875  0.81189989  1
  O  O176  1  0.74201336  0.90587125  0.81189989  1
  O  O177  1  0.24201336  0.09412875  0.68810011  1
  O  O178  1  0.25798664  0.59412875  0.31189989  1
  O  O179  1  0.75798664  0.40587125  0.18810011  1
  O  O180  1  -0.00000000  -0.00000000  0.00000000  1
  O  O181  1  0.50000000  -0.00000000  0.50000000  1
  O  O182  1  0.00000000  0.50000000  0.50000000  1
  O  O183  1  0.50000000  0.50000000  0.00000000  1
