# generated using pymatgen
data_Ba7Ge6
_symmetry_space_group_name_H-M   'P 1'
_cell_length_a   8.20147200
_cell_length_b   9.09507200
_cell_length_c   24.94644000
_cell_angle_alpha   90.00000000
_cell_angle_beta   90.00000000
_cell_angle_gamma   90.00000000
_symmetry_Int_Tables_number   1
_chemical_formula_structural   Ba7Ge6
_chemical_formula_sum   'Ba28 Ge24'
_cell_volume   1860.82925873
_cell_formula_units_Z   4
loop_
 _symmetry_equiv_pos_site_id
 _symmetry_equiv_pos_as_xyz
  1  'x, y, z'
loop_
 _atom_site_type_symbol
 _atom_site_label
 _atom_site_symmetry_multiplicity
 _atom_site_fract_x
 _atom_site_fract_y
 _atom_site_fract_z
 _atom_site_occupancy
  Ba  Ba0  1  0.53632800  0.31757300  0.16157300  1
  Ba  Ba1  1  0.03632800  0.18242700  0.33842700  1
  Ba  Ba2  1  0.46367200  0.68242700  0.66157300  1
  Ba  Ba3  1  0.96367200  0.81757300  0.83842700  1
  Ba  Ba4  1  0.46367200  0.68242700  0.83842700  1
  Ba  Ba5  1  0.96367200  0.81757300  0.66157300  1
  Ba  Ba6  1  0.53632800  0.31757300  0.33842700  1
  Ba  Ba7  1  0.03632800  0.18242700  0.16157300  1
  Ba  Ba8  1  0.62328500  0.18446000  0.63959900  1
  Ba  Ba9  1  0.12328500  0.31554000  0.86040100  1
  Ba  Ba10  1  0.37671500  0.81554000  0.13959900  1
  Ba  Ba11  1  0.87671500  0.68446000  0.36040100  1
  Ba  Ba12  1  0.37671500  0.81554000  0.36040100  1
  Ba  Ba13  1  0.87671500  0.68446000  0.13959900  1
  Ba  Ba14  1  0.62328500  0.18446000  0.86040100  1
  Ba  Ba15  1  0.12328500  0.31554000  0.63959900  1
  Ba  Ba16  1  0.84461200  0.32362800  0.01915400  1
  Ba  Ba17  1  0.34461200  0.17637200  0.48084600  1
  Ba  Ba18  1  0.15538800  0.67637200  0.51915400  1
  Ba  Ba19  1  0.65538800  0.82362800  0.98084600  1
  Ba  Ba20  1  0.15538800  0.67637200  0.98084600  1
  Ba  Ba21  1  0.65538800  0.82362800  0.51915400  1
  Ba  Ba22  1  0.84461200  0.32362800  0.48084600  1
  Ba  Ba23  1  0.34461200  0.17637200  0.01915400  1
  Ba  Ba24  1  0.79002000  0.46799900  0.75000000  1
  Ba  Ba25  1  0.29002000  0.03200100  0.75000000  1
  Ba  Ba26  1  0.20998000  0.53200100  0.25000000  1
  Ba  Ba27  1  0.70998000  0.96799900  0.25000000  1
  Ge  Ge28  1  0.50559500  0.46528700  0.55056200  1
  Ge  Ge29  1  0.00559500  0.03471300  0.94943800  1
  Ge  Ge30  1  0.49440500  0.53471300  0.05056200  1
  Ge  Ge31  1  0.99440500  0.96528700  0.44943800  1
  Ge  Ge32  1  0.49440500  0.53471300  0.44943800  1
  Ge  Ge33  1  0.99440500  0.96528700  0.05056200  1
  Ge  Ge34  1  0.50559500  0.46528700  0.94943800  1
  Ge  Ge35  1  0.00559500  0.03471300  0.55056200  1
  Ge  Ge36  1  0.71106200  0.02512700  0.09522000  1
  Ge  Ge37  1  0.21106200  0.47487300  0.40478000  1
  Ge  Ge38  1  0.28893800  0.97487300  0.59522000  1
  Ge  Ge39  1  0.78893800  0.52512700  0.90478000  1
  Ge  Ge40  1  0.28893800  0.97487300  0.90478000  1
  Ge  Ge41  1  0.78893800  0.52512700  0.59522000  1
  Ge  Ge42  1  0.71106200  0.02512700  0.40478000  1
  Ge  Ge43  1  0.21106200  0.47487300  0.09522000  1
  Ge  Ge44  1  0.66984300  0.91597900  0.75000000  1
  Ge  Ge45  1  0.16984300  0.58402100  0.75000000  1
  Ge  Ge46  1  0.33015700  0.08402100  0.25000000  1
  Ge  Ge47  1  0.83015700  0.41597900  0.25000000  1
  Ge  Ge48  1  0.88890400  0.11276100  0.75000000  1
  Ge  Ge49  1  0.38890400  0.38723900  0.75000000  1
  Ge  Ge50  1  0.11109600  0.88723900  0.25000000  1
  Ge  Ge51  1  0.61109600  0.61276100  0.25000000  1
