# generated using pymatgen
data_UC2S(NO2)4
_symmetry_space_group_name_H-M   'P 1'
_cell_length_a   7.02939300
_cell_length_b   13.69166600
_cell_length_c   11.89607266
_cell_angle_alpha   90.00000000
_cell_angle_beta   93.71561830
_cell_angle_gamma   90.00000000
_symmetry_Int_Tables_number   1
_chemical_formula_structural   UC2S(NO2)4
_chemical_formula_sum   'U4 C8 S4 N16 O32'
_cell_volume   1142.52017297
_cell_formula_units_Z   4
loop_
 _symmetry_equiv_pos_site_id
 _symmetry_equiv_pos_as_xyz
  1  'x, y, z'
loop_
 _atom_site_type_symbol
 _atom_site_label
 _atom_site_symmetry_multiplicity
 _atom_site_fract_x
 _atom_site_fract_y
 _atom_site_fract_z
 _atom_site_occupancy
  U  U0  1  0.73538300  0.47875300  0.30288500  1
  U  U1  1  0.26461700  0.97875300  0.19711500  1
  U  U2  1  0.26461700  0.52124700  0.69711500  1
  U  U3  1  0.73538300  0.02124700  0.80288500  1
  C  C4  1  0.95585600  0.35420500  0.08145300  1
  C  C5  1  0.04414400  0.85420500  0.41854700  1
  C  C6  1  0.04414400  0.64579500  0.91854700  1
  C  C7  1  0.95585600  0.14579500  0.58145300  1
  C  C8  1  0.49318100  0.34995200  0.08326600  1
  C  C9  1  0.50681900  0.84995200  0.41673400  1
  C  C10  1  0.50681900  0.65004800  0.91673400  1
  C  C11  1  0.49318100  0.15004800  0.58326600  1
  S  S12  1  0.24690200  0.44109200  0.39358400  1
  S  S13  1  0.75309800  0.94109200  0.10641600  1
  S  S14  1  0.75309800  0.55890800  0.60641600  1
  S  S15  1  0.24690200  0.05890800  0.89358400  1
  N  N16  1  0.03140300  0.30820200  0.99150600  1
  N  N17  1  0.96859700  0.80820200  0.50849400  1
  N  N18  1  0.96859700  0.69179800  0.00849400  1
  N  N19  1  0.03140300  0.19179800  0.49150600  1
  N  N20  1  0.96443400  0.25374000  0.07215200  1
  N  N21  1  0.03556600  0.75374000  0.42784800  1
  N  N22  1  0.03556600  0.74626000  0.92784800  1
  N  N23  1  0.96443400  0.24626000  0.57215200  1
  N  N24  1  0.43251100  0.26813100  0.12831000  1
  N  N25  1  0.56748900  0.76813100  0.37169000  1
  N  N26  1  0.56748900  0.73186900  0.87169000  1
  N  N27  1  0.43251100  0.23186900  0.62831000  1
  N  N28  1  0.53223100  0.35681800  0.97524400  1
  N  N29  1  0.46776900  0.85681800  0.52475600  1
  N  N30  1  0.46776900  0.64318200  0.02475600  1
  N  N31  1  0.53223100  0.14318200  0.47524400  1
  O  O32  1  0.22656800  0.45689300  0.51735500  1
  O  O33  1  0.77343200  0.95689300  0.98264500  1
  O  O34  1  0.77343200  0.54310700  0.48264500  1
  O  O35  1  0.22656800  0.04310700  0.01735500  1
  O  O36  1  0.41926900  0.49683700  0.36222600  1
  O  O37  1  0.58073100  0.99683700  0.13777400  1
  O  O38  1  0.58073100  0.50316300  0.63777400  1
  O  O39  1  0.41926900  0.00316300  0.86222600  1
  O  O40  1  0.07729900  0.48723700  0.33285600  1
  O  O41  1  0.92270100  0.98723700  0.16714400  1
  O  O42  1  0.92270100  0.51276300  0.66714400  1
  O  O43  1  0.07729900  0.01276300  0.83285600  1
  O  O44  1  0.26183100  0.33744500  0.36862100  1
  O  O45  1  0.73816900  0.83744500  0.13137900  1
  O  O46  1  0.73816900  0.66255500  0.63137900  1
  O  O47  1  0.26183100  0.16255500  0.86862100  1
  O  O48  1  0.74083600  0.59831000  0.24277900  1
  O  O49  1  0.25916400  0.09831000  0.25722100  1
  O  O50  1  0.25916400  0.40169000  0.75722100  1
  O  O51  1  0.74083600  0.90169000  0.74277900  1
  O  O52  1  0.74282000  0.35420600  0.35043900  1
  O  O53  1  0.25718000  0.85420600  0.14956100  1
  O  O54  1  0.25718000  0.64579400  0.64956100  1
  O  O55  1  0.74282000  0.14579400  0.85043900  1
  O  O56  1  0.91461100  0.42905900  0.12782700  1
  O  O57  1  0.08538900  0.92905900  0.37217300  1
  O  O58  1  0.08538900  0.57094100  0.87217300  1
  O  O59  1  0.91461100  0.07094100  0.62782700  1
  O  O60  1  0.52363100  0.42934100  0.14508400  1
  O  O61  1  0.47636900  0.92934100  0.35491600  1
  O  O62  1  0.47636900  0.57065900  0.85491600  1
  O  O63  1  0.52363100  0.07065900  0.64508400  1
