# generated using pymatgen
data_K2PH4Se3O2
_symmetry_space_group_name_H-M   'P 1'
_cell_length_a   8.81213142
_cell_length_b   8.81213142
_cell_length_c   11.94569200
_cell_angle_alpha   90.00000000
_cell_angle_beta   90.00000000
_cell_angle_gamma   93.96004381
_symmetry_Int_Tables_number   1
_chemical_formula_structural   K2PH4Se3O2
_chemical_formula_sum   'K8 P4 H16 Se12 O8'
_cell_volume   925.41195446
_cell_formula_units_Z   4
loop_
 _symmetry_equiv_pos_site_id
 _symmetry_equiv_pos_as_xyz
  1  'x, y, z'
loop_
 _atom_site_type_symbol
 _atom_site_label
 _atom_site_symmetry_multiplicity
 _atom_site_fract_x
 _atom_site_fract_y
 _atom_site_fract_z
 _atom_site_occupancy
  K  K0  1  0.53689500  0.46310500  0.14592900  1
  K  K1  1  0.46310500  0.53689500  0.85407100  1
  K  K2  1  0.96310500  0.03689500  0.64592900  1
  K  K3  1  0.03689500  0.96310500  0.35407100  1
  K  K4  1  0.09704600  0.40295400  0.25000000  1
  K  K5  1  0.40295400  0.09704600  0.75000000  1
  K  K6  1  0.90295400  0.59704600  0.75000000  1
  K  K7  1  0.59704600  0.90295400  0.25000000  1
  P  P8  1  0.58408900  0.41591100  0.46759600  1
  P  P9  1  0.41591100  0.58408900  0.53240400  1
  P  P10  1  0.91591100  0.08408900  0.96759600  1
  P  P11  1  0.08408900  0.91591100  0.03240400  1
  H  H12  1  0.09996800  0.30652800  0.49696400  1
  H  H13  1  0.30652800  0.09996800  0.50303600  1
  H  H14  1  0.80652800  0.59996800  0.99696400  1
  H  H15  1  0.59996800  0.80652800  0.00303600  1
  H  H16  1  0.90003200  0.69347200  0.50303600  1
  H  H17  1  0.69347200  0.90003200  0.49696400  1
  H  H18  1  0.19347200  0.40003200  0.00303600  1
  H  H19  1  0.40003200  0.19347200  0.99696400  1
  H  H20  1  0.92570500  0.29538100  0.47078400  1
  H  H21  1  0.29538100  0.92570500  0.52921600  1
  H  H22  1  0.79538100  0.42570500  0.97078400  1
  H  H23  1  0.42570500  0.79538100  0.02921600  1
  H  H24  1  0.07429500  0.70461900  0.52921600  1
  H  H25  1  0.70461900  0.07429500  0.47078400  1
  H  H26  1  0.20461900  0.57429500  0.02921600  1
  H  H27  1  0.57429500  0.20461900  0.97078400  1
  Se  Se28  1  0.75329800  0.55333800  0.36682500  1
  Se  Se29  1  0.55333800  0.75329800  0.63317500  1
  Se  Se30  1  0.05333800  0.25329800  0.86682500  1
  Se  Se31  1  0.25329800  0.05333800  0.13317500  1
  Se  Se32  1  0.24670200  0.44666200  0.63317500  1
  Se  Se33  1  0.44666200  0.24670200  0.36682500  1
  Se  Se34  1  0.94666200  0.74670200  0.13317500  1
  Se  Se35  1  0.74670200  0.94666200  0.86682500  1
  Se  Se36  1  0.81469400  0.18530600  0.11682100  1
  Se  Se37  1  0.18530600  0.81469400  0.88317900  1
  Se  Se38  1  0.68530600  0.31469400  0.61682100  1
  Se  Se39  1  0.31469400  0.68530600  0.38317900  1
  O  O40  1  0.02074900  0.24858500  0.45157900  1
  O  O41  1  0.24858500  0.02074900  0.54842100  1
  O  O42  1  0.74858500  0.52074900  0.95157900  1
  O  O43  1  0.52074900  0.74858500  0.04842100  1
  O  O44  1  0.97925100  0.75141500  0.54842100  1
  O  O45  1  0.75141500  0.97925100  0.45157900  1
  O  O46  1  0.25141500  0.47925100  0.04842100  1
  O  O47  1  0.47925100  0.25141500  0.95157900  1
