# generated using pymatgen
data_Y2Ge6Pt
_symmetry_space_group_name_H-M   'P 1'
_cell_length_a   4.11539800
_cell_length_b   4.12592200
_cell_length_c   11.14198994
_cell_angle_alpha   90.00000000
_cell_angle_beta   100.64245690
_cell_angle_gamma   90.00000000
_symmetry_Int_Tables_number   1
_chemical_formula_structural   Y2Ge6Pt
_chemical_formula_sum   'Y2 Ge6 Pt1'
_cell_volume   185.93460332
_cell_formula_units_Z   1
loop_
 _symmetry_equiv_pos_site_id
 _symmetry_equiv_pos_as_xyz
  1  'x, y, z'
loop_
 _atom_site_type_symbol
 _atom_site_label
 _atom_site_symmetry_multiplicity
 _atom_site_fract_x
 _atom_site_fract_y
 _atom_site_fract_z
 _atom_site_occupancy
  Y  Y0  1  0.77877400  0.50000000  0.55754700  1
  Y  Y1  1  0.11566700  0.50000000  0.23133400  1
  Ge  Ge2  1  0.49353500  0.50000000  0.98706900  1
  Ge  Ge3  1  0.37952700  0.50000000  0.75905300  1
  Ge  Ge4  1  0.99314400  0.00000000  0.98628800  1
  Ge  Ge5  1  0.87885300  0.00000000  0.75770700  1
  Ge  Ge6  1  0.66953800  0.00000000  0.33907500  1
  Ge  Ge7  1  0.23904500  0.00000000  0.47809100  1
  Pt  Pt8  1  0.55891800  0.00000000  0.11783600  1
