# generated using pymatgen
data_KDyI3
_symmetry_space_group_name_H-M   'P 1'
_cell_length_a   8.23617497
_cell_length_b   8.23617497
_cell_length_c   11.66815900
_cell_angle_alpha   90.00000000
_cell_angle_beta   90.00000000
_cell_angle_gamma   149.71905729
_symmetry_Int_Tables_number   1
_chemical_formula_structural   KDyI3
_chemical_formula_sum   'K2 Dy2 I6'
_cell_volume   399.10863380
_cell_formula_units_Z   2
loop_
 _symmetry_equiv_pos_site_id
 _symmetry_equiv_pos_as_xyz
  1  'x, y, z'
loop_
 _atom_site_type_symbol
 _atom_site_label
 _atom_site_symmetry_multiplicity
 _atom_site_fract_x
 _atom_site_fract_y
 _atom_site_fract_z
 _atom_site_occupancy
  K  K0  1  0.24691700  0.75308300  0.25000000  1
  K  K1  1  0.75308300  0.24691700  0.75000000  1
  Dy  Dy2  1  0.00000000  0.00000000  0.00000000  1
  Dy  Dy3  1  0.00000000  0.00000000  0.50000000  1
  I  I4  1  0.63492800  0.36507200  0.05531200  1
  I  I5  1  0.36507200  0.63492800  0.94468800  1
  I  I6  1  0.36507200  0.63492800  0.55531200  1
  I  I7  1  0.63492800  0.36507200  0.44468800  1
  I  I8  1  0.92878700  0.07121300  0.25000000  1
  I  I9  1  0.07121300  0.92878700  0.75000000  1
