# generated using pymatgen
data_Na
_symmetry_space_group_name_H-M   'P 1'
_cell_length_a   9.10279100
_cell_length_b   9.10279100
_cell_length_c   9.10279100
_cell_angle_alpha   90.00000000
_cell_angle_beta   90.00000000
_cell_angle_gamma   90.00000000
_symmetry_Int_Tables_number   1
_chemical_formula_structural   Na
_chemical_formula_sum   Na20
_cell_volume   754.26458081
_cell_formula_units_Z   20
loop_
 _symmetry_equiv_pos_site_id
 _symmetry_equiv_pos_as_xyz
  1  'x, y, z'
loop_
 _atom_site_type_symbol
 _atom_site_label
 _atom_site_symmetry_multiplicity
 _atom_site_fract_x
 _atom_site_fract_y
 _atom_site_fract_z
 _atom_site_occupancy
  Na  Na0  1  0.87500000  0.70208100  0.04791900  1
  Na  Na1  1  0.06349400  0.06349400  0.06349400  1
  Na  Na2  1  0.20208100  0.45208100  0.12500000  1
  Na  Na3  1  0.81349400  0.31349400  0.18650600  1
  Na  Na4  1  0.45208100  0.12500000  0.20208100  1
  Na  Na5  1  0.54791900  0.62500000  0.29791900  1
  Na  Na6  1  0.18650600  0.81349400  0.31349400  1
  Na  Na7  1  0.79791900  0.95208100  0.37500000  1
  Na  Na8  1  0.93650600  0.56349400  0.43650600  1
  Na  Na9  1  0.12500000  0.20208100  0.45208100  1
  Na  Na10  1  0.62500000  0.29791900  0.54791900  1
  Na  Na11  1  0.43650600  0.93650600  0.56349400  1
  Na  Na12  1  0.29791900  0.54791900  0.62500000  1
  Na  Na13  1  0.68650600  0.68650600  0.68650600  1
  Na  Na14  1  0.04791900  0.87500000  0.70208100  1
  Na  Na15  1  0.95208100  0.37500000  0.79791900  1
  Na  Na16  1  0.31349400  0.18650600  0.81349400  1
  Na  Na17  1  0.70208100  0.04791900  0.87500000  1
  Na  Na18  1  0.56349400  0.43650600  0.93650600  1
  Na  Na19  1  0.37500000  0.79791900  0.95208100  1
