# generated using pymatgen
data_Sm3TlTe6
_symmetry_space_group_name_H-M   'P 1'
_cell_length_a   11.07900713
_cell_length_b   12.61700657
_cell_length_c   62.15377960
_cell_angle_alpha   90.00000000
_cell_angle_beta   90.00000000
_cell_angle_gamma   116.04331699
_symmetry_Int_Tables_number   1
_chemical_formula_structural   Sm3TlTe6
_chemical_formula_sum   'Sm3 Tl1 Te6'
_cell_volume   7805.92918563
_cell_formula_units_Z   1
loop_
 _symmetry_equiv_pos_site_id
 _symmetry_equiv_pos_as_xyz
  1  'x, y, z'
loop_
 _atom_site_type_symbol
 _atom_site_label
 _atom_site_symmetry_multiplicity
 _atom_site_fract_x
 _atom_site_fract_y
 _atom_site_fract_z
 _atom_site_occupancy
  Sm  Sm0  1  -0.00000000  0.00000000  0.50000000  1
  Sm  Sm1  1  0.50000000  0.50000000  0.00000000  1
  Sm  Sm2  1  -0.00000000  0.50000000  0.00000000  1
  Tl  Tl3  1  -0.00000000  0.00000000  0.00000000  1
  Te  Te4  1  -0.00000000  0.00000000  0.76900259  1
  Te  Te5  1  -0.00000000  0.00000000  0.23099741  1
  Te  Te6  1  0.72828717  0.72823959  0.00000000  1
  Te  Te7  1  0.27171283  0.27176041  0.00000000  1
  Te  Te8  1  0.00004758  0.27176041  -0.00000000  1
  Te  Te9  1  -0.00004758  0.72823959  -0.00000000  1
