# generated using pymatgen
data_CsTiS2
_symmetry_space_group_name_H-M   'P 1'
_cell_length_a   3.73015253
_cell_length_b   3.73015253
_cell_length_c   8.25079725
_cell_angle_alpha   76.93548439
_cell_angle_beta   76.93548439
_cell_angle_gamma   59.99999066
_symmetry_Int_Tables_number   1
_chemical_formula_structural   CsTiS2
_chemical_formula_sum   'Cs1 Ti1 S2'
_cell_volume   95.97481501
_cell_formula_units_Z   1
loop_
 _symmetry_equiv_pos_site_id
 _symmetry_equiv_pos_as_xyz
  1  'x, y, z'
loop_
 _atom_site_type_symbol
 _atom_site_label
 _atom_site_symmetry_multiplicity
 _atom_site_fract_x
 _atom_site_fract_y
 _atom_site_fract_z
 _atom_site_occupancy
  Cs  Cs0  1  0.83316000  0.83316000  0.50052000  1
  Ti  Ti1  1  0.00247900  0.00247900  0.99256400  1
  S  S2  1  0.61253700  0.61253700  0.16238800  1
  S  S3  1  0.39182400  0.39182400  0.82452900  1
