# generated using pymatgen
data_Yb2EuO4
_symmetry_space_group_name_H-M   'P 1'
_cell_length_a   3.34541200
_cell_length_b   9.70245900
_cell_length_c   11.79215100
_cell_angle_alpha   90.00000000
_cell_angle_beta   90.00000000
_cell_angle_gamma   90.00000000
_symmetry_Int_Tables_number   1
_chemical_formula_structural   Yb2EuO4
_chemical_formula_sum   'Yb8 Eu4 O16'
_cell_volume   382.75816015
_cell_formula_units_Z   4
loop_
 _symmetry_equiv_pos_site_id
 _symmetry_equiv_pos_as_xyz
  1  'x, y, z'
loop_
 _atom_site_type_symbol
 _atom_site_label
 _atom_site_symmetry_multiplicity
 _atom_site_fract_x
 _atom_site_fract_y
 _atom_site_fract_z
 _atom_site_occupancy
  Yb  Yb0  1  0.75000000  0.91774500  0.60601900  1
  Yb  Yb1  1  0.25000000  0.08225500  0.39398100  1
  Yb  Yb2  1  0.25000000  0.58225500  0.10601900  1
  Yb  Yb3  1  0.75000000  0.41774500  0.89398100  1
  Yb  Yb4  1  0.75000000  0.42256500  0.39158600  1
  Yb  Yb5  1  0.25000000  0.57743500  0.60841400  1
  Yb  Yb6  1  0.25000000  0.07743500  0.89158600  1
  Yb  Yb7  1  0.75000000  0.92256500  0.10841400  1
  Eu  Eu8  1  0.75000000  0.75327400  0.33832400  1
  Eu  Eu9  1  0.25000000  0.24672600  0.66167600  1
  Eu  Eu10  1  0.25000000  0.74672600  0.83832400  1
  Eu  Eu11  1  0.75000000  0.25327400  0.16167600  1
  O  O12  1  0.75000000  0.52396200  0.22138900  1
  O  O13  1  0.25000000  0.47603800  0.77861100  1
  O  O14  1  0.25000000  0.97603800  0.72138900  1
  O  O15  1  0.75000000  0.02396200  0.27861100  1
  O  O16  1  0.75000000  0.71071100  0.69377800  1
  O  O17  1  0.25000000  0.28928900  0.30622200  1
  O  O18  1  0.25000000  0.78928900  0.19377800  1
  O  O19  1  0.75000000  0.21071100  0.80622200  1
  O  O20  1  0.75000000  0.63842900  0.96502800  1
  O  O21  1  0.25000000  0.36157100  0.03497200  1
  O  O22  1  0.25000000  0.86157100  0.46502800  1
  O  O23  1  0.75000000  0.13842900  0.53497200  1
  O  O24  1  0.75000000  0.90874900  0.91356600  1
  O  O25  1  0.25000000  0.09125100  0.08643400  1
  O  O26  1  0.25000000  0.59125100  0.41356600  1
  O  O27  1  0.75000000  0.40874900  0.58643400  1
