# generated using pymatgen
data_TiC2(NF)6
_symmetry_space_group_name_H-M   'P 1'
_cell_length_a   6.15536346
_cell_length_b   6.92528400
_cell_length_c   6.70007113
_cell_angle_alpha   121.11829745
_cell_angle_beta   110.60997547
_cell_angle_gamma   90.00000000
_symmetry_Int_Tables_number   1
_chemical_formula_structural   TiC2(NF)6
_chemical_formula_sum   'Ti1 C2 N6 F6'
_cell_volume   222.88488065
_cell_formula_units_Z   1
loop_
 _symmetry_equiv_pos_site_id
 _symmetry_equiv_pos_as_xyz
  1  'x, y, z'
loop_
 _atom_site_type_symbol
 _atom_site_label
 _atom_site_symmetry_multiplicity
 _atom_site_fract_x
 _atom_site_fract_y
 _atom_site_fract_z
 _atom_site_occupancy
  Ti  Ti0  1  0.71917200  0.37194700  0.74389300  1
  C  C1  1  0.45501900  0.64969600  0.29939300  1
  C  C2  1  0.98933300  0.09960000  0.19919900  1
  N  N3  1  0.44638100  0.42129900  0.18195600  1
  N  N4  1  0.44638100  0.76065700  0.18195600  1
  N  N5  1  0.98810300  0.98272500  0.96545000  1
  N  N6  1  0.99199100  0.32714700  0.31622800  1
  N  N7  1  0.99199100  0.98908200  0.31622800  1
  N  N8  1  0.46867500  0.76927000  0.53854000  1
  F  F9  1  0.90711900  0.54963700  0.09927500  1
  F  F10  1  0.52476700  0.19492700  0.38985400  1
  F  F11  1  0.52207500  0.58867700  0.78484600  1
  F  F12  1  0.52207500  0.19616900  0.78484600  1
  F  F13  1  0.91920900  0.54315300  0.70116800  1
  F  F14  1  0.91920900  0.15801500  0.70116800  1
