# generated using pymatgen
data_Y11Ge10
_symmetry_space_group_name_H-M   'P 1'
_cell_length_a   11.32390592
_cell_length_b   11.32390592
_cell_length_c   11.32390592
_cell_angle_alpha   122.08353696
_cell_angle_beta   122.08353696
_cell_angle_gamma   86.42756849
_symmetry_Int_Tables_number   1
_chemical_formula_structural   Y11Ge10
_chemical_formula_sum   'Y22 Ge20'
_cell_volume   992.33566801
_cell_formula_units_Z   2
loop_
 _symmetry_equiv_pos_site_id
 _symmetry_equiv_pos_as_xyz
  1  'x, y, z'
loop_
 _atom_site_type_symbol
 _atom_site_label
 _atom_site_symmetry_multiplicity
 _atom_site_fract_x
 _atom_site_fract_y
 _atom_site_fract_z
 _atom_site_occupancy
  Y  Y0  1  0.15974700  0.15974700  0.00000000  1
  Y  Y1  1  0.84025300  0.84025300  0.00000000  1
  Y  Y2  1  0.32274400  0.32274400  0.64548900  1
  Y  Y3  1  0.67725600  0.67725600  0.35451100  1
  Y  Y4  1  0.32274400  0.67725600  0.00000000  1
  Y  Y5  1  0.67725600  0.32274400  0.00000000  1
  Y  Y6  1  0.42678600  0.10269600  0.32409000  1
  Y  Y7  1  0.57321400  0.89730400  0.67591000  1
  Y  Y8  1  0.77860600  0.10269600  0.67591000  1
  Y  Y9  1  0.10269600  0.77860600  0.67591000  1
  Y  Y10  1  0.22139400  0.89730400  0.32409000  1
  Y  Y11  1  0.89730400  0.22139400  0.32409000  1
  Y  Y12  1  0.10269600  0.42678600  0.32409000  1
  Y  Y13  1  0.89730400  0.57321400  0.67591000  1
  Y  Y14  1  0.56213100  0.31002900  0.25210200  1
  Y  Y15  1  0.43786900  0.68997100  0.74789800  1
  Y  Y16  1  0.05792700  0.31002900  0.74789800  1
  Y  Y17  1  0.31002900  0.05792700  0.74789800  1
  Y  Y18  1  0.94207300  0.68997100  0.25210200  1
  Y  Y19  1  0.68997100  0.94207300  0.25210200  1
  Y  Y20  1  0.31002900  0.56213100  0.25210200  1
  Y  Y21  1  0.68997100  0.43786900  0.74789800  1
  Ge  Ge22  1  0.39137500  0.39137500  0.41935500  1
  Ge  Ge23  1  0.60862500  0.60862500  0.58064500  1
  Ge  Ge24  1  0.97202100  0.97202100  0.58064500  1
  Ge  Ge25  1  0.39137500  0.97202100  0.00000000  1
  Ge  Ge26  1  0.02797900  0.60862500  0.00000000  1
  Ge  Ge27  1  0.02797900  0.02797900  0.41935500  1
  Ge  Ge28  1  0.60862500  0.02797900  0.00000000  1
  Ge  Ge29  1  0.97202100  0.39137500  0.00000000  1
  Ge  Ge30  1  0.38719000  0.38719000  0.00000000  1
  Ge  Ge31  1  0.61281000  0.61281000  0.00000000  1
  Ge  Ge32  1  0.11954500  0.11954500  0.23909000  1
  Ge  Ge33  1  0.88045500  0.88045500  0.76091000  1
  Ge  Ge34  1  0.11954500  0.88045500  0.00000000  1
  Ge  Ge35  1  0.88045500  0.11954500  0.00000000  1
  Ge  Ge36  1  0.75000000  0.25000000  0.50000000  1
  Ge  Ge37  1  0.25000000  0.75000000  0.50000000  1
  Ge  Ge38  1  0.50000000  0.13935300  0.63935300  1
  Ge  Ge39  1  0.50000000  0.86064700  0.36064700  1
  Ge  Ge40  1  0.13935300  0.50000000  0.63935300  1
  Ge  Ge41  1  0.86064700  0.50000000  0.36064700  1
