# generated using pymatgen
data_U2CoSi2(H7O9)2
_symmetry_space_group_name_H-M   'P 1'
_cell_length_a   7.08175900
_cell_length_b   9.55110435
_cell_length_c   12.83381400
_cell_angle_alpha   90.00000000
_cell_angle_beta   90.00000000
_cell_angle_gamma   111.76063294
_symmetry_Int_Tables_number   1
_chemical_formula_structural   U2CoSi2(H7O9)2
_chemical_formula_sum   'U4 Co2 Si4 H28 O36'
_cell_volume   806.20406606
_cell_formula_units_Z   2
loop_
 _symmetry_equiv_pos_site_id
 _symmetry_equiv_pos_as_xyz
  1  'x, y, z'
loop_
 _atom_site_type_symbol
 _atom_site_label
 _atom_site_symmetry_multiplicity
 _atom_site_fract_x
 _atom_site_fract_y
 _atom_site_fract_z
 _atom_site_occupancy
  U  U0  1  0.29190400  0.58380800  0.18037500  1
  U  U1  1  0.70809600  0.41619200  0.81962500  1
  U  U2  1  0.20809600  0.41619200  0.68037500  1
  U  U3  1  0.79190400  0.58380800  0.31962500  1
  Co  Co4  1  0.00000000  0.00000000  0.00000000  1
  Co  Co5  1  0.50000000  0.00000000  0.50000000  1
  Si  Si6  1  0.29901600  0.59803100  0.42985300  1
  Si  Si7  1  0.70098400  0.40196900  0.57014700  1
  Si  Si8  1  0.20098400  0.40196900  0.92985300  1
  Si  Si9  1  0.79901600  0.59803100  0.07014700  1
  H  H10  1  0.13768900  0.27537800  0.07969700  1
  H  H11  1  0.86231100  0.72462200  0.92030300  1
  H  H12  1  0.36231100  0.72462200  0.57969700  1
  H  H13  1  0.63768900  0.27537800  0.42030300  1
  H  H14  1  0.11907900  0.23815800  0.32210300  1
  H  H15  1  0.88092100  0.76184200  0.67789700  1
  H  H16  1  0.38092100  0.76184200  0.82210300  1
  H  H17  1  0.61907900  0.23815800  0.17789700  1
  H  H18  1  0.69394200  0.90090300  0.13972600  1
  H  H19  1  0.30605800  0.09909700  0.86027400  1
  H  H20  1  0.80605800  0.09909700  0.63972600  1
  H  H21  1  0.70696100  0.90090300  0.36027400  1
  H  H22  1  0.19394200  0.90090300  0.36027400  1
  H  H23  1  0.29303900  0.09909700  0.63972600  1
  H  H24  1  0.79303900  0.09909700  0.86027400  1
  H  H25  1  0.20696100  0.90090300  0.13972600  1
  H  H26  1  0.13874400  0.27748800  0.44112500  1
  H  H27  1  0.86125600  0.72251200  0.55887500  1
  H  H28  1  0.36125600  0.72251200  0.94112500  1
  H  H29  1  0.63874400  0.27748800  0.05887500  1
  H  H30  1  0.34937800  0.06550900  0.10764800  1
  H  H31  1  0.65062200  0.93449100  0.89235200  1
  H  H32  1  0.15062200  0.93449100  0.60764800  1
  H  H33  1  0.21613100  0.06550900  0.39235200  1
  H  H34  1  0.84937800  0.06550900  0.39235200  1
  H  H35  1  0.78386900  0.93449100  0.60764800  1
  H  H36  1  0.28386900  0.93449100  0.89235200  1
  H  H37  1  0.71613100  0.06550900  0.10764800  1
  O  O38  1  0.12369400  0.24738800  0.00467800  1
  O  O39  1  0.87630600  0.75261200  0.99532200  1
  O  O40  1  0.37630600  0.75261200  0.50467800  1
  O  O41  1  0.62369400  0.24738800  0.49532200  1
  O  O42  1  0.20328600  0.99646800  0.11462200  1
  O  O43  1  0.79671400  0.00353200  0.88537800  1
  O  O44  1  0.29671400  0.00353200  0.61462200  1
  O  O45  1  0.29318200  0.99646800  0.38537800  1
  O  O46  1  0.70328600  0.99646800  0.38537800  1
  O  O47  1  0.70681800  0.00353200  0.61462200  1
  O  O48  1  0.20681800  0.00353200  0.88537800  1
  O  O49  1  0.79318200  0.99646800  0.11462200  1
  O  O50  1  0.62454400  0.60085200  0.15363100  1
  O  O51  1  0.37545600  0.39914800  0.84636900  1
  O  O52  1  0.87545600  0.39914800  0.65363100  1
  O  O53  1  0.47630800  0.60085200  0.34636900  1
  O  O54  1  0.12454400  0.60085200  0.34636900  1
  O  O55  1  0.52369200  0.39914800  0.65363100  1
  O  O56  1  0.02369200  0.39914800  0.84636900  1
  O  O57  1  0.97630800  0.60085200  0.15363100  1
  O  O58  1  0.27406800  0.54813600  0.00700200  1
  O  O59  1  0.72593200  0.45186400  0.99299800  1
  O  O60  1  0.22593200  0.45186400  0.50700200  1
  O  O61  1  0.77406800  0.54813600  0.49299800  1
  O  O62  1  0.39492000  0.78984100  0.16555500  1
  O  O63  1  0.60508000  0.21015900  0.83444500  1
  O  O64  1  0.10508000  0.21015900  0.66555500  1
  O  O65  1  0.89492000  0.78984100  0.33444500  1
  O  O66  1  0.18761500  0.37523000  0.19700900  1
  O  O67  1  0.81238500  0.62477000  0.80299100  1
  O  O68  1  0.31238500  0.62477000  0.69700900  1
  O  O69  1  0.68761500  0.37523000  0.30299100  1
  O  O70  1  0.09528000  0.19056100  0.39136000  1
  O  O71  1  0.90472000  0.80943900  0.60864000  1
  O  O72  1  0.40472000  0.80943900  0.89136000  1
  O  O73  1  0.59528000  0.19056100  0.10864000  1
