# generated using pymatgen
data_VH3CO5
_symmetry_space_group_name_H-M   'P 1'
_cell_length_a   5.23234783
_cell_length_b   5.91558591
_cell_length_c   7.25079716
_cell_angle_alpha   77.76063102
_cell_angle_beta   70.14448053
_cell_angle_gamma   74.38055814
_symmetry_Int_Tables_number   1
_chemical_formula_structural   VH3CO5
_chemical_formula_sum   'V2 H6 C2 O10'
_cell_volume   201.48428070
_cell_formula_units_Z   2
loop_
 _symmetry_equiv_pos_site_id
 _symmetry_equiv_pos_as_xyz
  1  'x, y, z'
loop_
 _atom_site_type_symbol
 _atom_site_label
 _atom_site_symmetry_multiplicity
 _atom_site_fract_x
 _atom_site_fract_y
 _atom_site_fract_z
 _atom_site_occupancy
  V  V0  1  0.06060800  0.19614800  0.81633800  1
  V  V1  1  0.93939200  0.80385200  0.18366200  1
  H  H2  1  0.22177200  0.11343000  0.14005600  1
  H  H3  1  0.77822800  0.88657100  0.85994400  1
  H  H4  1  0.54028900  0.56907700  0.21783200  1
  H  H5  1  0.45971100  0.43092300  0.78216800  1
  H  H6  1  0.83697600  0.38477300  0.20500000  1
  H  H7  1  0.16302400  0.61522700  0.79500000  1
  C  C8  1  0.40307900  0.05308100  0.43587600  1
  C  C9  1  0.59692100  0.94691900  0.56412400  1
  O  O10  1  0.24530500  0.62621100  0.16983700  1
  O  O11  1  0.75469500  0.37378900  0.83016300  1
  O  O12  1  0.05115400  0.12605200  0.10393100  1
  O  O13  1  0.94884600  0.87394800  0.89606900  1
  O  O14  1  0.16291500  0.16562900  0.51866500  1
  O  O15  1  0.83708500  0.83437100  0.48133500  1
  O  O16  1  0.50199600  0.01821000  0.25551200  1
  O  O17  1  0.49800400  0.98179000  0.74448800  1
  O  O18  1  0.71973400  0.53747700  0.25166000  1
  O  O19  1  0.28026600  0.46252300  0.74834000  1
