# generated using pymatgen
data_Tl3SnI5
_symmetry_space_group_name_H-M   'P 1'
_cell_length_a   9.11141200
_cell_length_b   9.87700500
_cell_length_c   16.50127500
_cell_angle_alpha   90.00000000
_cell_angle_beta   90.00000000
_cell_angle_gamma   90.00000000
_symmetry_Int_Tables_number   1
_chemical_formula_structural   Tl3SnI5
_chemical_formula_sum   'Tl12 Sn4 I20'
_cell_volume   1485.00686270
_cell_formula_units_Z   4
loop_
 _symmetry_equiv_pos_site_id
 _symmetry_equiv_pos_as_xyz
  1  'x, y, z'
loop_
 _atom_site_type_symbol
 _atom_site_label
 _atom_site_symmetry_multiplicity
 _atom_site_fract_x
 _atom_site_fract_y
 _atom_site_fract_z
 _atom_site_occupancy
  Tl  Tl0  1  0.43859300  0.41157700  0.21347200  1
  Tl  Tl1  1  0.06140700  0.58842300  0.71347200  1
  Tl  Tl2  1  0.56140700  0.91157700  0.28652800  1
  Tl  Tl3  1  0.93859300  0.08842300  0.78652800  1
  Tl  Tl4  1  0.72505000  0.29287500  0.05283500  1
  Tl  Tl5  1  0.77495000  0.70712500  0.55283500  1
  Tl  Tl6  1  0.27495000  0.79287500  0.44716500  1
  Tl  Tl7  1  0.22505000  0.20712500  0.94716500  1
  Tl  Tl8  1  0.08489900  0.66875700  0.02481300  1
  Tl  Tl9  1  0.41510100  0.33124300  0.52481300  1
  Tl  Tl10  1  0.91510100  0.16875700  0.47518700  1
  Tl  Tl11  1  0.58489900  0.83124300  0.97518700  1
  Sn  Sn12  1  0.07728400  0.05884900  0.20208800  1
  Sn  Sn13  1  0.42271600  0.94115100  0.70208800  1
  Sn  Sn14  1  0.92271600  0.55884900  0.29791200  1
  Sn  Sn15  1  0.57728400  0.44115100  0.79791200  1
  I  I16  1  0.39806100  0.05248900  0.10997300  1
  I  I17  1  0.10193900  0.94751100  0.60997300  1
  I  I18  1  0.60193900  0.55248900  0.39002700  1
  I  I19  1  0.89806100  0.44751100  0.89002700  1
  I  I20  1  0.07563500  0.49559900  0.47721700  1
  I  I21  1  0.42436500  0.50440100  0.97721700  1
  I  I22  1  0.92436500  0.99559900  0.02278300  1
  I  I23  1  0.57563500  0.00440100  0.52278300  1
  I  I24  1  0.26243700  0.15068300  0.34967400  1
  I  I25  1  0.23756300  0.84931700  0.84967400  1
  I  I26  1  0.73756300  0.65068300  0.15032600  1
  I  I27  1  0.76243700  0.34931700  0.65032600  1
  I  I28  1  0.08588400  0.34795400  0.13401000  1
  I  I29  1  0.41411600  0.65204600  0.63401000  1
  I  I30  1  0.91411600  0.84795400  0.36599000  1
  I  I31  1  0.58588400  0.15204600  0.86599000  1
  I  I32  1  0.22460100  0.70415500  0.22594200  1
  I  I33  1  0.27539900  0.29584500  0.72594200  1
  I  I34  1  0.77539900  0.20415500  0.27405800  1
  I  I35  1  0.72460100  0.79584500  0.77405800  1
