# generated using pymatgen
data_Y2S3O20
_symmetry_space_group_name_H-M   'P 1'
_cell_length_a   7.55061674
_cell_length_b   7.55061674
_cell_length_c   18.12879895
_cell_angle_alpha   82.78326210
_cell_angle_beta   82.78326210
_cell_angle_gamma   52.79014206
_symmetry_Int_Tables_number   1
_chemical_formula_structural   Y2S3O20
_chemical_formula_sum   'Y4 S6 O40'
_cell_volume   815.01535687
_cell_formula_units_Z   2
loop_
 _symmetry_equiv_pos_site_id
 _symmetry_equiv_pos_as_xyz
  1  'x, y, z'
loop_
 _atom_site_type_symbol
 _atom_site_label
 _atom_site_symmetry_multiplicity
 _atom_site_fract_x
 _atom_site_fract_y
 _atom_site_fract_z
 _atom_site_occupancy
  Y  Y0  1  0.81433100  0.84215900  0.89215400  1
  Y  Y1  1  0.18566900  0.15784100  0.10784600  1
  Y  Y2  1  0.15784100  0.18566900  0.60784600  1
  Y  Y3  1  0.84215900  0.81433100  0.39215400  1
  S  S4  1  0.74723900  0.80268400  0.59210800  1
  S  S5  1  0.25276100  0.19731600  0.40789200  1
  S  S6  1  0.19731600  0.25276100  0.90789200  1
  S  S7  1  0.80268400  0.74723900  0.09210800  1
  S  S8  1  0.73165900  0.26834100  0.75000000  1
  S  S9  1  0.26834100  0.73165900  0.25000000  1
  O  O10  1  0.34889500  0.28181900  0.69062400  1
  O  O11  1  0.65110500  0.71818100  0.30937600  1
  O  O12  1  0.71818100  0.65110500  0.80937600  1
  O  O13  1  0.28181900  0.34889500  0.19062400  1
  O  O14  1  0.29928000  0.39127900  0.57787700  1
  O  O15  1  0.70072000  0.60872100  0.42212300  1
  O  O16  1  0.60872100  0.70072000  0.92212300  1
  O  O17  1  0.39127900  0.29928000  0.07787700  1
  O  O18  1  0.51769100  0.87133300  0.61382500  1
  O  O19  1  0.48230900  0.12866700  0.38617500  1
  O  O20  1  0.12866700  0.48230900  0.88617500  1
  O  O21  1  0.87133300  0.51769100  0.11382500  1
  O  O22  1  0.75424700  0.89250100  0.51494000  1
  O  O23  1  0.24575300  0.10749900  0.48506000  1
  O  O24  1  0.10749900  0.24575300  0.98506000  1
  O  O25  1  0.89250100  0.75424700  0.01494000  1
  O  O26  1  0.57148200  0.36387000  0.68958500  1
  O  O27  1  0.42851800  0.63613000  0.31041500  1
  O  O28  1  0.63613000  0.42851800  0.81041500  1
  O  O29  1  0.36387000  0.57148200  0.18958500  1
  O  O30  1  0.80264400  0.88934700  0.64706000  1
  O  O31  1  0.19735600  0.11065300  0.35294000  1
  O  O32  1  0.11065300  0.19735600  0.85294000  1
  O  O33  1  0.88934700  0.80264400  0.14706000  1
  O  O34  1  0.44486900  0.09986400  0.90602400  1
  O  O35  1  0.55513100  0.90013600  0.09397600  1
  O  O36  1  0.90013600  0.55513100  0.59397600  1
  O  O37  1  0.09986400  0.44486900  0.40602400  1
  O  O38  1  0.10042400  0.87082500  0.61498500  1
  O  O39  1  0.89957600  0.12917500  0.38501500  1
  O  O40  1  0.12917500  0.89957600  0.88501500  1
  O  O41  1  0.87082500  0.10042400  0.11498500  1
  O  O42  1  0.82966500  0.09542700  0.94614200  1
  O  O43  1  0.17033500  0.90457300  0.05385800  1
  O  O44  1  0.90457300  0.17033500  0.55385800  1
  O  O45  1  0.09542700  0.82966500  0.44614200  1
  O  O46  1  0.77655400  0.05712700  0.78518100  1
  O  O47  1  0.22344600  0.94287300  0.21481900  1
  O  O48  1  0.94287300  0.22344600  0.71481900  1
  O  O49  1  0.05712700  0.77655400  0.28518100  1
