# generated using pymatgen
data_TbBi3
_symmetry_space_group_name_H-M   'P 1'
_cell_length_a   6.11739791
_cell_length_b   6.11739791
_cell_length_c   15.94594000
_cell_angle_alpha   90.00000000
_cell_angle_beta   90.00000000
_cell_angle_gamma   115.93093847
_symmetry_Int_Tables_number   1
_chemical_formula_structural   TbBi3
_chemical_formula_sum   'Tb1 Bi3'
_cell_volume   536.65934965
_cell_formula_units_Z   1
loop_
 _symmetry_equiv_pos_site_id
 _symmetry_equiv_pos_as_xyz
  1  'x, y, z'
loop_
 _atom_site_type_symbol
 _atom_site_label
 _atom_site_symmetry_multiplicity
 _atom_site_fract_x
 _atom_site_fract_y
 _atom_site_fract_z
 _atom_site_occupancy
  Tb  Tb0  1  0.00000000  0.00000000  0.00000000  1
  Bi  Bi1  1  0.00000000  0.00000000  0.50000000  1
  Bi  Bi2  1  0.50000000  0.00000000  0.00000000  1
  Bi  Bi3  1  0.00000000  0.50000000  0.00000000  1
