# generated using pymatgen
data_Ti2Te2(OF)5
_symmetry_space_group_name_H-M   'P 1'
_cell_length_a   6.67422400
_cell_length_b   7.67475700
_cell_length_c   16.78201200
_cell_angle_alpha   90.00000000
_cell_angle_beta   90.00000000
_cell_angle_gamma   90.00000000
_symmetry_Int_Tables_number   1
_chemical_formula_structural   Ti2Te2(OF)5
_chemical_formula_sum   'Ti8 Te8 O20 F20'
_cell_volume   859.62579553
_cell_formula_units_Z   4
loop_
 _symmetry_equiv_pos_site_id
 _symmetry_equiv_pos_as_xyz
  1  'x, y, z'
loop_
 _atom_site_type_symbol
 _atom_site_label
 _atom_site_symmetry_multiplicity
 _atom_site_fract_x
 _atom_site_fract_y
 _atom_site_fract_z
 _atom_site_occupancy
  Ti  Ti0  1  0.24759000  0.11234300  0.13136100  1
  Ti  Ti1  1  0.75241000  0.88765700  0.86863900  1
  Ti  Ti2  1  0.74759000  0.38765700  0.86863900  1
  Ti  Ti3  1  0.75241000  0.88765700  0.63136100  1
  Ti  Ti4  1  0.25241000  0.61234300  0.13136100  1
  Ti  Ti5  1  0.24759000  0.11234300  0.36863900  1
  Ti  Ti6  1  0.25241000  0.61234300  0.36863900  1
  Ti  Ti7  1  0.74759000  0.38765700  0.63136100  1
  Te  Te8  1  0.22151200  0.13933500  0.63618000  1
  Te  Te9  1  0.77848800  0.86066500  0.36382000  1
  Te  Te10  1  0.72151200  0.36066500  0.36382000  1
  Te  Te11  1  0.77848800  0.86066500  0.13618000  1
  Te  Te12  1  0.27848800  0.63933500  0.63618000  1
  Te  Te13  1  0.22151200  0.13933500  0.86382000  1
  Te  Te14  1  0.27848800  0.63933500  0.86382000  1
  Te  Te15  1  0.72151200  0.36066500  0.13618000  1
  O  O16  1  0.53422900  0.17260300  0.13218200  1
  O  O17  1  0.46577100  0.82739700  0.86781800  1
  O  O18  1  0.03422900  0.32739700  0.86781800  1
  O  O19  1  0.46577100  0.82739700  0.63218200  1
  O  O20  1  0.96577100  0.67260300  0.13218200  1
  O  O21  1  0.53422900  0.17260300  0.36781800  1
  O  O22  1  0.96577100  0.67260300  0.36781800  1
  O  O23  1  0.03422900  0.32739700  0.63218200  1
  O  O24  1  0.53837900  0.55132200  0.13950200  1
  O  O25  1  0.46162100  0.44867800  0.86049800  1
  O  O26  1  0.03837900  0.94867800  0.86049800  1
  O  O27  1  0.46162100  0.44867800  0.63950200  1
  O  O28  1  0.96162100  0.05132200  0.13950200  1
  O  O29  1  0.53837900  0.55132200  0.36049800  1
  O  O30  1  0.96162100  0.05132200  0.36049800  1
  O  O31  1  0.03837900  0.94867800  0.63950200  1
  O  O32  1  0.77663300  0.35214700  0.25000000  1
  O  O33  1  0.22336700  0.64785300  0.75000000  1
  O  O34  1  0.27663300  0.14785300  0.75000000  1
  O  O35  1  0.72336700  0.85214700  0.25000000  1
  F  F36  1  0.23168900  0.11072500  0.02001700  1
  F  F37  1  0.76831100  0.88927500  0.97998300  1
  F  F38  1  0.73168900  0.38927500  0.97998300  1
  F  F39  1  0.76831100  0.88927500  0.52001700  1
  F  F40  1  0.26831100  0.61072500  0.02001700  1
  F  F41  1  0.23168900  0.11072500  0.47998300  1
  F  F42  1  0.26831100  0.61072500  0.47998300  1
  F  F43  1  0.73168900  0.38927500  0.52001700  1
  F  F44  1  0.17746900  0.36290800  0.13492600  1
  F  F45  1  0.82253100  0.63709200  0.86507400  1
  F  F46  1  0.67746900  0.13709200  0.86507400  1
  F  F47  1  0.82253100  0.63709200  0.63492600  1
  F  F48  1  0.32253100  0.86290800  0.13492600  1
  F  F49  1  0.17746900  0.36290800  0.36507400  1
  F  F50  1  0.32253100  0.86290800  0.36507400  1
  F  F51  1  0.67746900  0.13709200  0.63492600  1
  F  F52  1  0.25563000  0.11475700  0.25000000  1
  F  F53  1  0.74437000  0.88524300  0.75000000  1
  F  F54  1  0.75563000  0.38524300  0.75000000  1
  F  F55  1  0.24437000  0.61475700  0.25000000  1
