# generated using pymatgen
data_V3Pb2O9
_symmetry_space_group_name_H-M   'P 1'
_cell_length_a   9.16557479
_cell_length_b   9.16557479
_cell_length_c   7.14739420
_cell_angle_alpha   77.95914642
_cell_angle_beta   77.95914642
_cell_angle_gamma   130.34993777
_symmetry_Int_Tables_number   1
_chemical_formula_structural   V3Pb2O9
_chemical_formula_sum   'V6 Pb4 O18'
_cell_volume   397.11333088
_cell_formula_units_Z   2
loop_
 _symmetry_equiv_pos_site_id
 _symmetry_equiv_pos_as_xyz
  1  'x, y, z'
loop_
 _atom_site_type_symbol
 _atom_site_label
 _atom_site_symmetry_multiplicity
 _atom_site_fract_x
 _atom_site_fract_y
 _atom_site_fract_z
 _atom_site_occupancy
  V  V0  1  0.53845300  0.02626400  0.22082800  1
  V  V1  1  0.02626400  0.53845300  0.72082800  1
  V  V2  1  0.58266000  0.42289400  0.00387900  1
  V  V3  1  0.42289400  0.58266000  0.50387900  1
  V  V4  1  0.84183200  0.16237200  0.50277700  1
  V  V5  1  0.16237200  0.84183200  0.00277700  1
  Pb  Pb6  1  0.95188300  0.04498500  0.00047000  1
  Pb  Pb7  1  0.04498500  0.95188300  0.50047000  1
  Pb  Pb8  1  0.38120500  0.62222800  0.00423600  1
  Pb  Pb9  1  0.62222800  0.38120500  0.50423600  1
  O  O10  1  0.38764200  0.93392900  0.03815200  1
  O  O11  1  0.93392900  0.38764200  0.53815200  1
  O  O12  1  0.61397200  0.05169800  0.46567400  1
  O  O13  1  0.05169800  0.61397200  0.96567400  1
  O  O14  1  0.78896100  0.21748700  0.00225300  1
  O  O15  1  0.21748700  0.78896100  0.50225300  1
  O  O16  1  0.64197500  0.67482400  0.54042400  1
  O  O17  1  0.67482400  0.64197500  0.04042400  1
  O  O18  1  0.02537200  0.22200900  0.27812500  1
  O  O19  1  0.22200900  0.02537200  0.77812500  1
  O  O20  1  0.79126000  0.98351700  0.72472500  1
  O  O21  1  0.98351700  0.79126000  0.22472500  1
  O  O22  1  0.51121700  0.78463500  0.26110100  1
  O  O23  1  0.78463500  0.51121700  0.76110100  1
  O  O24  1  0.31276500  0.35570300  0.47814800  1
  O  O25  1  0.35570300  0.31276500  0.97814800  1
  O  O26  1  0.51060800  0.22525100  0.23470800  1
  O  O27  1  0.22525100  0.51060800  0.73470800  1
