# generated using pymatgen
data_Tm2Cu(GeO4)2
_symmetry_space_group_name_H-M   'P 1'
_cell_length_a   5.12247096
_cell_length_b   8.10939858
_cell_length_c   8.84956498
_cell_angle_alpha   116.95681832
_cell_angle_beta   106.36303693
_cell_angle_gamma   90.96253374
_symmetry_Int_Tables_number   1
_chemical_formula_structural   Tm2Cu(GeO4)2
_chemical_formula_sum   'Tm4 Cu2 Ge4 O16'
_cell_volume   309.87812872
_cell_formula_units_Z   2
loop_
 _symmetry_equiv_pos_site_id
 _symmetry_equiv_pos_as_xyz
  1  'x, y, z'
loop_
 _atom_site_type_symbol
 _atom_site_label
 _atom_site_symmetry_multiplicity
 _atom_site_fract_x
 _atom_site_fract_y
 _atom_site_fract_z
 _atom_site_occupancy
  Tm  Tm0  1  0.11389500  0.30083300  0.76009000  1
  Tm  Tm1  1  0.35380500  0.54074200  0.23991000  1
  Tm  Tm2  1  0.36595000  0.04468400  0.24112000  1
  Tm  Tm3  1  0.12483000  0.80356400  0.75888000  1
  Cu  Cu4  1  0.54693700  0.92593500  0.58521900  1
  Cu  Cu5  1  0.96171700  0.34071600  0.41478100  1
  Ge  Ge6  1  0.78937100  0.16246100  0.00000000  1
  Ge  Ge7  1  0.97121200  0.88836900  0.42111800  1
  Ge  Ge8  1  0.55009500  0.46725100  0.57888200  1
  Ge  Ge9  1  0.68518000  0.66661400  0.00000000  1
  O  O10  1  0.17376100  0.09731200  0.46881600  1
  O  O11  1  0.70494500  0.62849700  0.53118400  1
  O  O12  1  0.47791200  0.06296900  0.81246400  1
  O  O13  1  0.66544800  0.25050500  0.18753600  1
  O  O14  1  0.47576100  0.49011200  0.00000000  1
  O  O15  1  0.19495200  0.74250100  0.48256100  1
  O  O16  1  0.71239100  0.25994000  0.51743900  1
  O  O17  1  0.00487400  0.75675000  0.18380100  1
  O  O18  1  0.82107300  0.57294900  0.81619900  1
  O  O19  1  0.00394300  0.33861600  0.00000000  1
  O  O20  1  0.47616800  0.83800500  0.00000000  1
  O  O21  1  0.59366300  0.83811500  0.33706300  1
  O  O22  1  0.25660000  0.50105300  0.66293700  1
  O  O23  1  0.01259400  0.99513400  0.00000000  1
  O  O24  1  0.93624000  0.00556400  0.66035600  1
  O  O25  1  0.27588400  0.34520800  0.33964400  1
