# generated using pymatgen
data_Rb2Mo(OF2)2
_symmetry_space_group_name_H-M   'P 1'
_cell_length_a   7.83395929
_cell_length_b   7.83395929
_cell_length_c   7.19505100
_cell_angle_alpha   90.00000000
_cell_angle_beta   90.00000000
_cell_angle_gamma   134.38685083
_symmetry_Int_Tables_number   1
_chemical_formula_structural   Rb2Mo(OF2)2
_chemical_formula_sum   'Rb4 Mo2 O4 F8'
_cell_volume   315.55837024
_cell_formula_units_Z   2
loop_
 _symmetry_equiv_pos_site_id
 _symmetry_equiv_pos_as_xyz
  1  'x, y, z'
loop_
 _atom_site_type_symbol
 _atom_site_label
 _atom_site_symmetry_multiplicity
 _atom_site_fract_x
 _atom_site_fract_y
 _atom_site_fract_z
 _atom_site_occupancy
  Rb  Rb0  1  0.77210100  0.22789900  0.49591900  1
  Rb  Rb1  1  0.22789900  0.77210100  0.99591900  1
  Rb  Rb2  1  0.54862500  0.45137500  0.00768500  1
  Rb  Rb3  1  0.45137500  0.54862500  0.50768500  1
  Mo  Mo4  1  0.88566400  0.11433600  0.98350900  1
  Mo  Mo5  1  0.11433600  0.88566400  0.48350900  1
  O  O6  1  0.89625500  0.65490300  0.33075100  1
  O  O7  1  0.10374500  0.34509700  0.83075100  1
  O  O8  1  0.65490300  0.89625500  0.83075100  1
  O  O9  1  0.34509700  0.10374500  0.33075100  1
  F  F10  1  0.74991600  0.25008400  0.03417000  1
  F  F11  1  0.25008400  0.74991600  0.53417000  1
  F  F12  1  0.10824900  0.33685800  0.20454400  1
  F  F13  1  0.89175100  0.66314200  0.70454400  1
  F  F14  1  0.33685800  0.10824900  0.70454400  1
  F  F15  1  0.66314200  0.89175100  0.20454400  1
  F  F16  1  0.98071100  0.01928900  0.51412800  1
  F  F17  1  0.01928900  0.98071100  0.01412800  1
