# generated using pymatgen
data_SrMn2O6
_symmetry_space_group_name_H-M   'P 1'
_cell_length_a   5.00738472
_cell_length_b   5.00738472
_cell_length_c   5.43429400
_cell_angle_alpha   90.00000000
_cell_angle_beta   90.00000000
_cell_angle_gamma   119.99998304
_symmetry_Int_Tables_number   1
_chemical_formula_structural   SrMn2O6
_chemical_formula_sum   'Sr1 Mn2 O6'
_cell_volume   118.00373543
_cell_formula_units_Z   1
loop_
 _symmetry_equiv_pos_site_id
 _symmetry_equiv_pos_as_xyz
  1  'x, y, z'
loop_
 _atom_site_type_symbol
 _atom_site_label
 _atom_site_symmetry_multiplicity
 _atom_site_fract_x
 _atom_site_fract_y
 _atom_site_fract_z
 _atom_site_occupancy
  Sr  Sr0  1  0.00000000  0.00000000  0.00000000  1
  Mn  Mn1  1  0.66666700  0.33333300  0.50000000  1
  Mn  Mn2  1  0.33333300  0.66666700  0.50000000  1
  O  O3  1  0.56629800  0.56629800  0.71929800  1
  O  O4  1  0.00000000  0.43370200  0.71929800  1
  O  O5  1  0.56629800  0.56629800  0.28070200  1
  O  O6  1  0.00000000  0.43370200  0.28070200  1
  O  O7  1  0.43370200  0.00000000  0.71929800  1
  O  O8  1  0.43370200  0.00000000  0.28070200  1
