# generated using pymatgen
data_SrNiF4
_symmetry_space_group_name_H-M   'P 1'
_cell_length_a   7.53530679
_cell_length_b   7.53530679
_cell_length_c   5.64857900
_cell_angle_alpha   90.00000000
_cell_angle_beta   90.00000000
_cell_angle_gamma   149.04634927
_symmetry_Int_Tables_number   1
_chemical_formula_structural   SrNiF4
_chemical_formula_sum   'Sr2 Ni2 F8'
_cell_volume   164.96628237
_cell_formula_units_Z   2
loop_
 _symmetry_equiv_pos_site_id
 _symmetry_equiv_pos_as_xyz
  1  'x, y, z'
loop_
 _atom_site_type_symbol
 _atom_site_label
 _atom_site_symmetry_multiplicity
 _atom_site_fract_x
 _atom_site_fract_y
 _atom_site_fract_z
 _atom_site_occupancy
  Sr  Sr0  1  0.65582400  0.34417600  0.12552600  1
  Sr  Sr1  1  0.34417600  0.65582400  0.62552600  1
  Ni  Ni2  1  0.91326700  0.08673300  0.17922600  1
  Ni  Ni3  1  0.08673300  0.91326700  0.67922600  1
  F  F4  1  0.83745500  0.16254500  0.88844600  1
  F  F5  1  0.16254500  0.83745500  0.38844600  1
  F  F6  1  0.96505700  0.03494300  0.51720100  1
  F  F7  1  0.03494300  0.96505700  0.01720100  1
  F  F8  1  0.41538000  0.58462000  0.19850600  1
  F  F9  1  0.58462000  0.41538000  0.69850600  1
  F  F10  1  0.79620600  0.20379400  0.37499500  1
  F  F11  1  0.20379400  0.79620600  0.87499500  1
