# generated using pymatgen
data_Ti(HgO)3
_symmetry_space_group_name_H-M   'P 1'
_cell_length_a   7.88888065
_cell_length_b   10.67272481
_cell_length_c   8.05403389
_cell_angle_alpha   75.18411078
_cell_angle_beta   46.21918554
_cell_angle_gamma   68.31019510
_symmetry_Int_Tables_number   1
_chemical_formula_structural   Ti(HgO)3
_chemical_formula_sum   'Ti1 Hg3 O3'
_cell_volume   454.93037628
_cell_formula_units_Z   1
loop_
 _symmetry_equiv_pos_site_id
 _symmetry_equiv_pos_as_xyz
  1  'x, y, z'
loop_
 _atom_site_type_symbol
 _atom_site_label
 _atom_site_symmetry_multiplicity
 _atom_site_fract_x
 _atom_site_fract_y
 _atom_site_fract_z
 _atom_site_occupancy
  Ti  Ti0  1  0.13124000  0.00000000  0.96562400  1
  Hg  Hg1  1  0.81799600  0.00000000  0.43361600  1
  Hg  Hg2  1  0.80357700  0.22442300  0.00846500  1
  Hg  Hg3  1  0.02800000  0.77557700  0.00846500  1
  O  O4  1  0.83366200  0.63197000  0.14771900  1
  O  O5  1  0.42323300  0.00000000  0.78505200  1
  O  O6  1  0.46563200  0.36803000  0.14771900  1
