# generated using pymatgen
data_Sn2(PCl8)3
_symmetry_space_group_name_H-M   'P 1'
_cell_length_a   14.74336620
_cell_length_b   15.67009406
_cell_length_c   15.67009406
_cell_angle_alpha   90.00000000
_cell_angle_beta   90.00000000
_cell_angle_gamma   90.00000000
_symmetry_Int_Tables_number   1
_chemical_formula_structural   Sn2(PCl8)3
_chemical_formula_sum   'Sn8 P12 Cl96'
_cell_volume   3620.26081393
_cell_formula_units_Z   4
loop_
 _symmetry_equiv_pos_site_id
 _symmetry_equiv_pos_as_xyz
  1  'x, y, z'
loop_
 _atom_site_type_symbol
 _atom_site_label
 _atom_site_symmetry_multiplicity
 _atom_site_fract_x
 _atom_site_fract_y
 _atom_site_fract_z
 _atom_site_occupancy
  Sn  Sn0  1  0.00000000  0.12518133  0.25738399  1
  Sn  Sn1  1  -0.00000000  0.87481867  0.74261601  1
  Sn  Sn2  1  0.50000000  0.74261601  0.12518133  1
  Sn  Sn3  1  0.00000000  0.37481867  0.75738399  1
  Sn  Sn4  1  0.50000000  0.25738399  0.87481867  1
  Sn  Sn5  1  -0.00000000  0.62518133  0.24261601  1
  Sn  Sn6  1  0.50000000  0.75738399  0.62518133  1
  Sn  Sn7  1  0.50000000  0.24261601  0.37481867  1
  P  P8  1  0.25000000  -0.00000000  0.00000000  1
  P  P9  1  0.75000000  -0.00000000  0.00000000  1
  P  P10  1  0.75000000  0.50000000  0.50000000  1
  P  P11  1  0.25000000  0.50000000  0.50000000  1
  P  P12  1  0.25000000  0.12699511  0.62699511  1
  P  P13  1  0.75000000  0.87300489  0.37300489  1
  P  P14  1  0.25000000  0.87300489  0.37300489  1
  P  P15  1  0.75000000  0.37300489  0.12699511  1
  P  P16  1  0.75000000  0.12699511  0.62699511  1
  P  P17  1  0.25000000  0.62699511  0.87300489  1
  P  P18  1  0.75000000  0.62699511  0.87300489  1
  P  P19  1  0.25000000  0.37300489  0.12699511  1
  Cl  Cl20  1  0.00000000  0.21930746  0.13011205  1
  Cl  Cl21  1  -0.00000000  0.78069254  0.86988795  1
  Cl  Cl22  1  0.50000000  0.86988795  0.21930746  1
  Cl  Cl23  1  -0.00000000  0.28069254  0.63011205  1
  Cl  Cl24  1  0.50000000  0.13011205  0.78069254  1
  Cl  Cl25  1  0.00000000  0.71930746  0.36988795  1
  Cl  Cl26  1  0.50000000  0.63011205  0.71930746  1
  Cl  Cl27  1  0.50000000  0.36988795  0.28069254  1
  Cl  Cl28  1  0.17427471  0.37265611  0.02447291  1
  Cl  Cl29  1  0.82572529  0.62734389  0.97552709  1
  Cl  Cl30  1  0.17427471  0.62734389  0.97552709  1
  Cl  Cl31  1  0.67427471  0.97552709  0.37265611  1
  Cl  Cl32  1  0.82572529  0.12734389  0.52447291  1
  Cl  Cl33  1  0.82572529  0.37265611  0.02447291  1
  Cl  Cl34  1  0.32572529  0.02447291  0.62734389  1
  Cl  Cl35  1  0.17427471  0.87265611  0.47552709  1
  Cl  Cl36  1  0.67427471  0.02447291  0.62734389  1
  Cl  Cl37  1  0.82572529  0.87265611  0.47552709  1
  Cl  Cl38  1  0.32572529  0.97552709  0.37265611  1
  Cl  Cl39  1  0.17427471  0.12734389  0.52447291  1
  Cl  Cl40  1  0.32572529  0.52447291  0.87265611  1
  Cl  Cl41  1  0.67427471  0.47552709  0.12734389  1
  Cl  Cl42  1  0.32572529  0.47552709  0.12734389  1
  Cl  Cl43  1  0.67427471  0.52447291  0.87265611  1
  Cl  Cl44  1  0.32777474  0.00635730  0.10081671  1
  Cl  Cl45  1  0.67222526  0.99364270  0.89918329  1
  Cl  Cl46  1  0.32777474  0.99364270  0.89918329  1
  Cl  Cl47  1  0.82777474  0.89918329  0.00635730  1
  Cl  Cl48  1  0.67222526  0.49364270  0.60081671  1
  Cl  Cl49  1  0.67222526  0.00635730  0.10081671  1
  Cl  Cl50  1  0.17222526  0.10081671  0.99364270  1
  Cl  Cl51  1  0.32777474  0.50635730  0.39918329  1
  Cl  Cl52  1  0.82777474  0.10081671  0.99364270  1
  Cl  Cl53  1  0.67222526  0.50635730  0.39918329  1
  Cl  Cl54  1  0.17222526  0.89918329  0.00635730  1
  Cl  Cl55  1  0.32777474  0.49364270  0.60081671  1
  Cl  Cl56  1  0.17222526  0.60081671  0.50635730  1
  Cl  Cl57  1  0.82777474  0.39918329  0.49364270  1
  Cl  Cl58  1  0.17222526  0.39918329  0.49364270  1
  Cl  Cl59  1  0.82777474  0.60081671  0.50635730  1
  Cl  Cl60  1  0.32849380  0.27242764  0.12742173  1
  Cl  Cl61  1  0.67150620  0.72757236  0.87257827  1
  Cl  Cl62  1  0.32849380  0.72757236  0.87257827  1
  Cl  Cl63  1  0.82849380  0.87257827  0.27242764  1
  Cl  Cl64  1  0.67150620  0.22757236  0.62742173  1
  Cl  Cl65  1  0.67150620  0.27242764  0.12742173  1
  Cl  Cl66  1  0.17150620  0.12742173  0.72757236  1
  Cl  Cl67  1  0.32849380  0.77242764  0.37257827  1
  Cl  Cl68  1  0.82849380  0.12742173  0.72757236  1
  Cl  Cl69  1  0.67150620  0.77242764  0.37257827  1
  Cl  Cl70  1  0.17150620  0.87257827  0.27242764  1
  Cl  Cl71  1  0.32849380  0.22757236  0.62742173  1
  Cl  Cl72  1  0.17150620  0.62742173  0.77242764  1
  Cl  Cl73  1  0.82849380  0.37257827  0.22757236  1
  Cl  Cl74  1  0.17150620  0.37257827  0.22757236  1
  Cl  Cl75  1  0.82849380  0.62742173  0.77242764  1
  Cl  Cl76  1  0.00000000  0.99899219  0.16127128  1
  Cl  Cl77  1  -0.00000000  0.00100781  0.83872872  1
  Cl  Cl78  1  0.50000000  0.83872872  0.99899219  1
  Cl  Cl79  1  -0.00000000  0.50100781  0.66127128  1
  Cl  Cl80  1  0.50000000  0.16127128  0.00100781  1
  Cl  Cl81  1  0.00000000  0.49899219  0.33872872  1
  Cl  Cl82  1  0.50000000  0.66127128  0.49899219  1
  Cl  Cl83  1  0.50000000  0.33872872  0.50100781  1
  Cl  Cl84  1  -0.00000000  0.03059176  0.38377138  1
  Cl  Cl85  1  0.00000000  0.96940824  0.61622862  1
  Cl  Cl86  1  0.50000000  0.61622862  0.03059176  1
  Cl  Cl87  1  0.00000000  0.46940824  0.88377138  1
  Cl  Cl88  1  0.50000000  0.38377138  0.96940824  1
  Cl  Cl89  1  -0.00000000  0.53059176  0.11622862  1
  Cl  Cl90  1  0.50000000  0.88377138  0.53059176  1
  Cl  Cl91  1  0.50000000  0.11622862  0.46940824  1
  Cl  Cl92  1  0.16662082  0.12475006  0.25698357  1
  Cl  Cl93  1  0.83337918  0.87524994  0.74301643  1
  Cl  Cl94  1  0.16662082  0.87524994  0.74301643  1
  Cl  Cl95  1  0.66662082  0.74301643  0.12475006  1
  Cl  Cl96  1  0.83337918  0.37524994  0.75698357  1
  Cl  Cl97  1  0.83337918  0.12475006  0.25698357  1
  Cl  Cl98  1  0.33337918  0.25698357  0.87524994  1
  Cl  Cl99  1  0.16662082  0.62475006  0.24301643  1
  Cl  Cl100  1  0.66662082  0.25698357  0.87524994  1
  Cl  Cl101  1  0.83337918  0.62475006  0.24301643  1
  Cl  Cl102  1  0.33337918  0.74301643  0.12475006  1
  Cl  Cl103  1  0.16662082  0.37524994  0.75698357  1
  Cl  Cl104  1  0.33337918  0.75698357  0.62475006  1
  Cl  Cl105  1  0.66662082  0.24301643  0.37524994  1
  Cl  Cl106  1  0.33337918  0.24301643  0.37524994  1
  Cl  Cl107  1  0.66662082  0.75698357  0.62475006  1
  Cl  Cl108  1  -0.00000000  0.25021070  0.35449467  1
  Cl  Cl109  1  0.00000000  0.74978930  0.64550533  1
  Cl  Cl110  1  0.50000000  0.64550533  0.25021070  1
  Cl  Cl111  1  0.00000000  0.24978930  0.85449467  1
  Cl  Cl112  1  0.50000000  0.35449467  0.74978930  1
  Cl  Cl113  1  -0.00000000  0.75021070  0.14550533  1
  Cl  Cl114  1  0.50000000  0.85449467  0.75021070  1
  Cl  Cl115  1  0.50000000  0.14550533  0.24978930  1
