# generated using pymatgen
data_SrHo2Al2O7
_symmetry_space_group_name_H-M   'P 1'
_cell_length_a   10.11399725
_cell_length_b   10.11399725
_cell_length_c   10.11399725
_cell_angle_alpha   158.78666869
_cell_angle_beta   158.78666869
_cell_angle_gamma   30.17670224
_symmetry_Int_Tables_number   1
_chemical_formula_structural   SrHo2Al2O7
_chemical_formula_sum   'Sr1 Ho2 Al2 O7'
_cell_volume   135.37485599
_cell_formula_units_Z   1
loop_
 _symmetry_equiv_pos_site_id
 _symmetry_equiv_pos_as_xyz
  1  'x, y, z'
loop_
 _atom_site_type_symbol
 _atom_site_label
 _atom_site_symmetry_multiplicity
 _atom_site_fract_x
 _atom_site_fract_y
 _atom_site_fract_z
 _atom_site_occupancy
  Sr  Sr0  1  0.50000000  0.50000000  0.00000000  1
  Ho  Ho1  1  0.31780300  0.31780300  0.00000000  1
  Ho  Ho2  1  0.68219700  0.68219700  0.00000000  1
  Al  Al3  1  0.09754100  0.09754100  0.00000000  1
  Al  Al4  1  0.90245900  0.90245900  0.00000000  1
  O  O5  1  0.60680300  0.10680300  0.50000000  1
  O  O6  1  0.39319700  0.89319700  0.50000000  1
  O  O7  1  0.10680300  0.60680300  0.50000000  1
  O  O8  1  0.89319700  0.39319700  0.50000000  1
  O  O9  1  0.00000000  0.00000000  0.00000000  1
  O  O10  1  0.20557300  0.20557300  0.00000000  1
  O  O11  1  0.79442700  0.79442700  0.00000000  1
