# generated using pymatgen
data_UCr(HO3)2
_symmetry_space_group_name_H-M   'P 1'
_cell_length_a   7.07200900
_cell_length_b   14.62336000
_cell_length_c   17.17572448
_cell_angle_alpha   54.16281384
_cell_angle_beta   90.00000000
_cell_angle_gamma   90.00000000
_symmetry_Int_Tables_number   1
_chemical_formula_structural   UCr(HO3)2
_chemical_formula_sum   'U8 Cr8 H16 O48'
_cell_volume   1439.98060328
_cell_formula_units_Z   8
loop_
 _symmetry_equiv_pos_site_id
 _symmetry_equiv_pos_as_xyz
  1  'x, y, z'
loop_
 _atom_site_type_symbol
 _atom_site_label
 _atom_site_symmetry_multiplicity
 _atom_site_fract_x
 _atom_site_fract_y
 _atom_site_fract_z
 _atom_site_occupancy
  U  U0  1  0.25259300  0.08430100  0.84099500  1
  U  U1  1  0.74740700  0.91569900  0.15900500  1
  U  U2  1  0.23148400  0.58280600  0.07540500  1
  U  U3  1  0.76851600  0.41719400  0.92459500  1
  U  U4  1  0.75259300  0.91569900  0.65900500  1
  U  U5  1  0.24740700  0.08430100  0.34099500  1
  U  U6  1  0.26851600  0.58280600  0.57540500  1
  U  U7  1  0.73148400  0.41719400  0.42459500  1
  Cr  Cr8  1  0.24703400  0.49589600  0.32851000  1
  Cr  Cr9  1  0.75296600  0.50410400  0.67149000  1
  Cr  Cr10  1  0.23807400  0.99680700  0.67467400  1
  Cr  Cr11  1  0.76192600  0.00319300  0.32532600  1
  Cr  Cr12  1  0.73807400  0.00319300  0.82532600  1
  Cr  Cr13  1  0.26192600  0.99680700  0.17467400  1
  Cr  Cr14  1  0.25296600  0.49589600  0.82851000  1
  Cr  Cr15  1  0.74703400  0.50410400  0.17149000  1
  H  H16  1  0.04408300  0.71951600  0.90921800  1
  H  H17  1  0.95591700  0.28048400  0.09078200  1
  H  H18  1  0.04268600  0.18027300  0.90578600  1
  H  H19  1  0.95731400  0.81972700  0.09421400  1
  H  H20  1  0.45731400  0.18027300  0.40578600  1
  H  H21  1  0.54268600  0.81972700  0.59421400  1
  H  H22  1  0.54408300  0.28048400  0.59078200  1
  H  H23  1  0.45591700  0.71951600  0.40921800  1
  H  H24  1  0.43513500  0.67740300  0.91519900  1
  H  H25  1  0.56486500  0.32259700  0.08480100  1
  H  H26  1  0.42385000  0.21800000  0.87708500  1
  H  H27  1  0.57615000  0.78200000  0.12291500  1
  H  H28  1  0.93513500  0.32259700  0.58480100  1
  H  H29  1  0.06486500  0.67740300  0.41519900  1
  H  H30  1  0.07615000  0.21800000  0.37708500  1
  H  H31  1  0.92385000  0.78200000  0.62291500  1
  O  O32  1  0.27567100  0.71369100  0.05982800  1
  O  O33  1  0.72432900  0.28630900  0.94017200  1
  O  O34  1  0.17512000  0.12320300  0.59155400  1
  O  O35  1  0.82488000  0.87679700  0.40844600  1
  O  O36  1  0.21133800  0.21537100  0.72530300  1
  O  O37  1  0.78866200  0.78462900  0.27469700  1
  O  O38  1  0.06874000  0.90600100  0.69053600  1
  O  O39  1  0.93126000  0.09399900  0.30946400  1
  O  O40  1  0.56874000  0.09399900  0.80946400  1
  O  O41  1  0.43126000  0.90600100  0.19053600  1
  O  O42  1  0.76576100  0.01406700  0.72182700  1
  O  O43  1  0.23423900  0.98593300  0.27817300  1
  O  O44  1  0.29262300  0.97093200  0.96473200  1
  O  O45  1  0.70737700  0.02906800  0.03526800  1
  O  O46  1  0.44449300  0.96699200  0.64432800  1
  O  O47  1  0.55550700  0.03300800  0.35567200  1
  O  O48  1  0.68406400  0.37893800  0.71458300  1
  O  O49  1  0.31593600  0.62106200  0.28541700  1
  O  O50  1  0.58534900  0.59688600  0.59694000  1
  O  O51  1  0.41465100  0.40311400  0.40306000  1
  O  O52  1  0.08534900  0.40311400  0.90306000  1
  O  O53  1  0.91465100  0.59688600  0.09694000  1
  O  O54  1  0.18683200  0.46902900  0.06554700  1
  O  O55  1  0.81316800  0.53097100  0.93445300  1
  O  O56  1  0.21534200  0.48540500  0.23588600  1
  O  O57  1  0.78465800  0.51459500  0.76411400  1
  O  O58  1  0.71133800  0.78462900  0.77469700  1
  O  O59  1  0.28866200  0.21537100  0.22530300  1
  O  O60  1  0.18406400  0.62106200  0.78541700  1
  O  O61  1  0.81593600  0.37893800  0.21458300  1
  O  O62  1  0.26576100  0.98593300  0.77817300  1
  O  O63  1  0.73423900  0.01406700  0.22182700  1
  O  O64  1  0.04033800  0.46975100  0.38775800  1
  O  O65  1  0.95966200  0.53024900  0.61224200  1
  O  O66  1  0.31316800  0.46902900  0.56554700  1
  O  O67  1  0.68683200  0.53097100  0.43445300  1
  O  O68  1  0.28465800  0.48540500  0.73588600  1
  O  O69  1  0.71534200  0.51459500  0.26411400  1
  O  O70  1  0.79262300  0.02906800  0.53526800  1
  O  O71  1  0.20737700  0.97093200  0.46473200  1
  O  O72  1  0.67512000  0.87679700  0.90844600  1
  O  O73  1  0.32488000  0.12320300  0.09155400  1
  O  O74  1  0.05550700  0.96699200  0.14432800  1
  O  O75  1  0.94449300  0.03300800  0.85567200  1
  O  O76  1  0.54033800  0.53024900  0.11224200  1
  O  O77  1  0.45966200  0.46975100  0.88775800  1
  O  O78  1  0.22432900  0.71369100  0.55982800  1
  O  O79  1  0.77567100  0.28630900  0.44017200  1
