# generated using pymatgen
data_Sc2Nb3Ge4
_symmetry_space_group_name_H-M   'P 1'
_cell_length_a   6.78029900
_cell_length_b   7.00624100
_cell_length_c   13.34818000
_cell_angle_alpha   90.00000000
_cell_angle_beta   90.00000000
_cell_angle_gamma   90.00000000
_symmetry_Int_Tables_number   1
_chemical_formula_structural   Sc2Nb3Ge4
_chemical_formula_sum   'Sc8 Nb12 Ge16'
_cell_volume   634.09740007
_cell_formula_units_Z   4
loop_
 _symmetry_equiv_pos_site_id
 _symmetry_equiv_pos_as_xyz
  1  'x, y, z'
loop_
 _atom_site_type_symbol
 _atom_site_label
 _atom_site_symmetry_multiplicity
 _atom_site_fract_x
 _atom_site_fract_y
 _atom_site_fract_z
 _atom_site_occupancy
  Sc  Sc0  1  0.34326600  0.33344100  0.62440800  1
  Sc  Sc1  1  0.65673400  0.66655900  0.37559200  1
  Sc  Sc2  1  0.15673400  0.83344100  0.37559200  1
  Sc  Sc3  1  0.65673400  0.66655900  0.12440800  1
  Sc  Sc4  1  0.84326600  0.16655900  0.62440800  1
  Sc  Sc5  1  0.34326600  0.33344100  0.87559200  1
  Sc  Sc6  1  0.84326600  0.16655900  0.87559200  1
  Sc  Sc7  1  0.15673400  0.83344100  0.12440800  1
  Nb  Nb8  1  0.16835200  0.99722200  0.75000000  1
  Nb  Nb9  1  0.83164800  0.00277800  0.25000000  1
  Nb  Nb10  1  0.33164800  0.49722200  0.25000000  1
  Nb  Nb11  1  0.66835200  0.50277800  0.75000000  1
  Nb  Nb12  1  0.00863900  0.67808800  0.59149500  1
  Nb  Nb13  1  0.99136100  0.32191200  0.40850500  1
  Nb  Nb14  1  0.49136100  0.17808800  0.40850500  1
  Nb  Nb15  1  0.99136100  0.32191200  0.09149500  1
  Nb  Nb16  1  0.50863900  0.82191200  0.59149500  1
  Nb  Nb17  1  0.00863900  0.67808800  0.90850500  1
  Nb  Nb18  1  0.50863900  0.82191200  0.90850500  1
  Nb  Nb19  1  0.49136100  0.17808800  0.09149500  1
  Ge  Ge20  1  0.18856800  0.03449500  0.54100800  1
  Ge  Ge21  1  0.81143200  0.96550500  0.45899200  1
  Ge  Ge22  1  0.31143200  0.53449500  0.45899200  1
  Ge  Ge23  1  0.81143200  0.96550500  0.04100800  1
  Ge  Ge24  1  0.68856800  0.46550500  0.54100800  1
  Ge  Ge25  1  0.18856800  0.03449500  0.95899200  1
  Ge  Ge26  1  0.68856800  0.46550500  0.95899200  1
  Ge  Ge27  1  0.31143200  0.53449500  0.04100800  1
  Ge  Ge28  1  0.03643600  0.39752100  0.75000000  1
  Ge  Ge29  1  0.96356400  0.60247900  0.25000000  1
  Ge  Ge30  1  0.46356400  0.89752100  0.25000000  1
  Ge  Ge31  1  0.53643600  0.10247900  0.75000000  1
  Ge  Ge32  1  0.30890800  0.65161400  0.75000000  1
  Ge  Ge33  1  0.69109200  0.34838600  0.25000000  1
  Ge  Ge34  1  0.19109200  0.15161400  0.25000000  1
  Ge  Ge35  1  0.80890800  0.84838600  0.75000000  1
