# generated using pymatgen
data_TbIO9
_symmetry_space_group_name_H-M   'P 1'
_cell_length_a   7.00388004
_cell_length_b   8.00420095
_cell_length_c   11.13474100
_cell_angle_alpha   90.00000000
_cell_angle_beta   90.00000000
_cell_angle_gamma   97.10806192
_symmetry_Int_Tables_number   1
_chemical_formula_structural   TbIO9
_chemical_formula_sum   'Tb4 I4 O36'
_cell_volume   619.42132854
_cell_formula_units_Z   4
loop_
 _symmetry_equiv_pos_site_id
 _symmetry_equiv_pos_as_xyz
  1  'x, y, z'
loop_
 _atom_site_type_symbol
 _atom_site_label
 _atom_site_symmetry_multiplicity
 _atom_site_fract_x
 _atom_site_fract_y
 _atom_site_fract_z
 _atom_site_occupancy
  Tb  Tb0  1  0.03374000  0.78624200  0.41790700  1
  Tb  Tb1  1  0.96626000  0.21375800  0.58209300  1
  Tb  Tb2  1  0.46626000  0.71375800  0.91790700  1
  Tb  Tb3  1  0.53374000  0.28624200  0.08209300  1
  I  I4  1  0.76118700  0.74771100  0.16453600  1
  I  I5  1  0.23881300  0.25228900  0.83546400  1
  I  I6  1  0.73881300  0.75228900  0.66453600  1
  I  I7  1  0.26118700  0.24771100  0.33546400  1
  O  O8  1  0.65135700  0.57063300  0.06284600  1
  O  O9  1  0.34864300  0.42936700  0.93715400  1
  O  O10  1  0.84864300  0.92936700  0.56284600  1
  O  O11  1  0.15135700  0.07063300  0.43715400  1
  O  O12  1  0.65518100  0.58026200  0.77724100  1
  O  O13  1  0.34481900  0.41973800  0.22275900  1
  O  O14  1  0.84481900  0.91973800  0.27724100  1
  O  O15  1  0.15518100  0.08026200  0.72275900  1
  O  O16  1  0.28874500  0.82521400  0.25431200  1
  O  O17  1  0.71125500  0.17478600  0.74568800  1
  O  O18  1  0.21125500  0.67478600  0.75431200  1
  O  O19  1  0.78874500  0.32521400  0.24568800  1
  O  O20  1  0.88958000  0.60536100  0.26520900  1
  O  O21  1  0.11042000  0.39463900  0.73479100  1
  O  O22  1  0.61042000  0.89463900  0.76520900  1
  O  O23  1  0.38958000  0.10536100  0.23479100  1
  O  O24  1  0.31581200  0.64157600  0.43692900  1
  O  O25  1  0.68418800  0.35842400  0.56307100  1
  O  O26  1  0.18418800  0.85842400  0.93692900  1
  O  O27  1  0.81581200  0.14157600  0.06307100  1
  O  O28  1  0.25487100  0.81016900  0.58925200  1
  O  O29  1  0.74512900  0.18983100  0.41074800  1
  O  O30  1  0.24512900  0.68983100  0.08925200  1
  O  O31  1  0.75487100  0.31016900  0.91074800  1
  O  O32  1  0.94324900  0.77623400  0.78106200  1
  O  O33  1  0.05675100  0.22376600  0.21893800  1
  O  O34  1  0.55675100  0.72376600  0.28106200  1
  O  O35  1  0.44324900  0.27623400  0.71893800  1
  O  O36  1  0.86071300  0.61336800  0.55821300  1
  O  O37  1  0.13928700  0.38663200  0.44178700  1
  O  O38  1  0.63928700  0.88663200  0.05821300  1
  O  O39  1  0.36071300  0.11336800  0.94178700  1
  O  O40  1  0.00332400  0.80869200  0.08180200  1
  O  O41  1  0.99667600  0.19130800  0.91819800  1
  O  O42  1  0.49667600  0.69130800  0.58180200  1
  O  O43  1  0.50332400  0.30869200  0.41819800  1
