# generated using pymatgen
data_Tb2Cu2O5
_symmetry_space_group_name_H-M   'P 1'
_cell_length_a   3.55526500
_cell_length_b   10.89877700
_cell_length_c   12.58803400
_cell_angle_alpha   90.00000000
_cell_angle_beta   90.00000000
_cell_angle_gamma   90.00000000
_symmetry_Int_Tables_number   1
_chemical_formula_structural   Tb2Cu2O5
_chemical_formula_sum   'Tb8 Cu8 O20'
_cell_volume   487.76165013
_cell_formula_units_Z   4
loop_
 _symmetry_equiv_pos_site_id
 _symmetry_equiv_pos_as_xyz
  1  'x, y, z'
loop_
 _atom_site_type_symbol
 _atom_site_label
 _atom_site_symmetry_multiplicity
 _atom_site_fract_x
 _atom_site_fract_y
 _atom_site_fract_z
 _atom_site_occupancy
  Tb  Tb0  1  0.77919100  0.95789200  0.23528900  1
  Tb  Tb1  1  0.22080900  0.04210800  0.73528900  1
  Tb  Tb2  1  0.72080900  0.45789200  0.23528900  1
  Tb  Tb3  1  0.27919100  0.54210800  0.73528900  1
  Tb  Tb4  1  0.78058200  0.79178400  0.56304400  1
  Tb  Tb5  1  0.21941800  0.20821600  0.06304400  1
  Tb  Tb6  1  0.71941800  0.29178400  0.56304400  1
  Tb  Tb7  1  0.28058200  0.70821600  0.06304400  1
  Cu  Cu8  1  0.84468600  0.76130300  0.84778400  1
  Cu  Cu9  1  0.15531400  0.23869700  0.34778400  1
  Cu  Cu10  1  0.65531400  0.26130300  0.84778400  1
  Cu  Cu11  1  0.34468600  0.73869700  0.34778400  1
  Cu  Cu12  1  0.65847200  0.98875400  0.95118800  1
  Cu  Cu13  1  0.34152800  0.01124600  0.45118800  1
  Cu  Cu14  1  0.84152800  0.48875400  0.95118800  1
  Cu  Cu15  1  0.15847200  0.51124600  0.45118800  1
  O  O16  1  0.77558000  0.67374400  0.70960000  1
  O  O17  1  0.22442000  0.32625600  0.20960000  1
  O  O18  1  0.72442000  0.17374400  0.70960000  1
  O  O19  1  0.27558000  0.82625600  0.20960000  1
  O  O20  1  0.72279100  0.92686400  0.80164300  1
  O  O21  1  0.27720900  0.07313600  0.30164300  1
  O  O22  1  0.77720900  0.42686400  0.80164300  1
  O  O23  1  0.22279100  0.57313600  0.30164300  1
  O  O24  1  0.27362300  0.92331300  0.59012400  1
  O  O25  1  0.72637700  0.07668700  0.09012400  1
  O  O26  1  0.22637700  0.42331300  0.59012400  1
  O  O27  1  0.77362300  0.57668700  0.09012400  1
  O  O28  1  0.65258700  0.87535900  0.39954300  1
  O  O29  1  0.34741300  0.12464100  0.89954300  1
  O  O30  1  0.84741300  0.37535900  0.39954300  1
  O  O31  1  0.15258700  0.62464100  0.89954300  1
  O  O32  1  0.78042900  0.82328200  0.99748400  1
  O  O33  1  0.21957100  0.17671800  0.49748400  1
  O  O34  1  0.71957100  0.32328200  0.99748400  1
  O  O35  1  0.28042900  0.67671800  0.49748400  1
