# generated using pymatgen
data_Sm5Si3NO12
_symmetry_space_group_name_H-M   'P 1'
_cell_length_a   9.64503806
_cell_length_b   9.64503806
_cell_length_c   6.99613100
_cell_angle_alpha   90.00000000
_cell_angle_beta   90.00000000
_cell_angle_gamma   120.00000042
_symmetry_Int_Tables_number   1
_chemical_formula_structural   Sm5Si3NO12
_chemical_formula_sum   'Sm10 Si6 N2 O24'
_cell_volume   563.63305426
_cell_formula_units_Z   2
loop_
 _symmetry_equiv_pos_site_id
 _symmetry_equiv_pos_as_xyz
  1  'x, y, z'
loop_
 _atom_site_type_symbol
 _atom_site_label
 _atom_site_symmetry_multiplicity
 _atom_site_fract_x
 _atom_site_fract_y
 _atom_site_fract_z
 _atom_site_occupancy
  Sm  Sm0  1  0.33333300  0.66666700  0.50071800  1
  Sm  Sm1  1  0.66666700  0.33333300  0.49928200  1
  Sm  Sm2  1  0.66666700  0.33333300  0.00071800  1
  Sm  Sm3  1  0.33333300  0.66666700  0.99928200  1
  Sm  Sm4  1  0.22902100  0.23034600  0.75000000  1
  Sm  Sm5  1  0.77097900  0.76965400  0.25000000  1
  Sm  Sm6  1  0.76965400  0.99867500  0.75000000  1
  Sm  Sm7  1  0.23034600  0.00132500  0.25000000  1
  Sm  Sm8  1  0.00132500  0.77097900  0.75000000  1
  Sm  Sm9  1  0.99867500  0.22902100  0.25000000  1
  Si  Si10  1  0.40695300  0.03419700  0.75000000  1
  Si  Si11  1  0.59304700  0.96580300  0.25000000  1
  Si  Si12  1  0.96580300  0.37275500  0.75000000  1
  Si  Si13  1  0.03419700  0.62724500  0.25000000  1
  Si  Si14  1  0.62724500  0.59304700  0.75000000  1
  Si  Si15  1  0.37275500  0.40695300  0.25000000  1
  N  N16  1  0.00000000  0.00000000  0.75000000  1
  N  N17  1  0.00000000  0.00000000  0.25000000  1
  O  O18  1  0.16010900  0.49324800  0.75000000  1
  O  O19  1  0.83989100  0.50675200  0.25000000  1
  O  O20  1  0.50675200  0.66686100  0.75000000  1
  O  O21  1  0.49324800  0.33313900  0.25000000  1
  O  O22  1  0.33313900  0.83989100  0.75000000  1
  O  O23  1  0.66686100  0.16010900  0.25000000  1
  O  O24  1  0.60426600  0.13599500  0.75000000  1
  O  O25  1  0.39573400  0.86400500  0.25000000  1
  O  O26  1  0.86400500  0.46827100  0.75000000  1
  O  O27  1  0.13599500  0.53172900  0.25000000  1
  O  O28  1  0.53172900  0.39573400  0.75000000  1
  O  O29  1  0.46827100  0.60426600  0.25000000  1
  O  O30  1  0.35253800  0.09607900  0.55970300  1
  O  O31  1  0.64746200  0.90392100  0.44029700  1
  O  O32  1  0.90392100  0.25646000  0.55970300  1
  O  O33  1  0.64746200  0.90392100  0.05970300  1
  O  O34  1  0.09607900  0.74354000  0.44029700  1
  O  O35  1  0.35253800  0.09607900  0.94029700  1
  O  O36  1  0.74354000  0.64746200  0.55970300  1
  O  O37  1  0.09607900  0.74354000  0.05970300  1
  O  O38  1  0.25646000  0.35253800  0.44029700  1
  O  O39  1  0.90392100  0.25646000  0.94029700  1
  O  O40  1  0.25646000  0.35253800  0.05970300  1
  O  O41  1  0.74354000  0.64746200  0.94029700  1
