# generated using pymatgen
data_SrErAl3SiN4O3
_symmetry_space_group_name_H-M   'P 1'
_cell_length_a   6.09595311
_cell_length_b   6.09595311
_cell_length_c   10.12712800
_cell_angle_alpha   90.00000000
_cell_angle_beta   90.00000000
_cell_angle_gamma   119.99999037
_symmetry_Int_Tables_number   1
_chemical_formula_structural   SrErAl3SiN4O3
_chemical_formula_sum   'Sr2 Er2 Al6 Si2 N8 O6'
_cell_volume   325.91189312
_cell_formula_units_Z   2
loop_
 _symmetry_equiv_pos_site_id
 _symmetry_equiv_pos_as_xyz
  1  'x, y, z'
loop_
 _atom_site_type_symbol
 _atom_site_label
 _atom_site_symmetry_multiplicity
 _atom_site_fract_x
 _atom_site_fract_y
 _atom_site_fract_z
 _atom_site_occupancy
  Sr  Sr0  1  0.66666700  0.33333300  0.55761300  1
  Sr  Sr1  1  0.33333300  0.66666700  0.05761300  1
  Er  Er2  1  0.66666700  0.33333300  0.93701700  1
  Er  Er3  1  0.33333300  0.66666700  0.43701700  1
  Al  Al4  1  0.16533900  0.33067800  0.73810700  1
  Al  Al5  1  0.16533900  0.83466100  0.73810700  1
  Al  Al6  1  0.83466100  0.66932200  0.23810700  1
  Al  Al7  1  0.66932200  0.83466100  0.73810700  1
  Al  Al8  1  0.83466100  0.16533900  0.23810700  1
  Al  Al9  1  0.33067800  0.16533900  0.23810700  1
  Si  Si10  1  0.00000000  0.00000000  0.00038300  1
  Si  Si11  1  0.00000000  0.00000000  0.50038300  1
  N  N12  1  0.00000000  0.00000000  0.81940700  1
  N  N13  1  0.00000000  0.00000000  0.31940700  1
  N  N14  1  0.15455700  0.30911400  0.55688600  1
  N  N15  1  0.15455700  0.84544300  0.55688600  1
  N  N16  1  0.84544300  0.69088600  0.05688600  1
  N  N17  1  0.69088600  0.84544300  0.55688600  1
  N  N18  1  0.84544300  0.15455700  0.05688600  1
  N  N19  1  0.30911400  0.15455700  0.05688600  1
  O  O20  1  0.49049400  0.98098800  0.79302400  1
  O  O21  1  0.49049400  0.50950600  0.79302400  1
  O  O22  1  0.50950600  0.01901200  0.29302400  1
  O  O23  1  0.01901200  0.50950600  0.79302400  1
  O  O24  1  0.50950600  0.49049400  0.29302400  1
  O  O25  1  0.98098800  0.49049400  0.29302400  1
