# generated using pymatgen
data_Tb4Al
_symmetry_space_group_name_H-M   'P 1'
_cell_length_a   7.91373121
_cell_length_b   7.91373121
_cell_length_c   7.91373121
_cell_angle_alpha   60.00000000
_cell_angle_beta   60.00000000
_cell_angle_gamma   60.00000000
_symmetry_Int_Tables_number   1
_chemical_formula_structural   Tb4Al
_chemical_formula_sum   'Tb8 Al2'
_cell_volume   350.45227818
_cell_formula_units_Z   2
loop_
 _symmetry_equiv_pos_site_id
 _symmetry_equiv_pos_as_xyz
  1  'x, y, z'
loop_
 _atom_site_type_symbol
 _atom_site_label
 _atom_site_symmetry_multiplicity
 _atom_site_fract_x
 _atom_site_fract_y
 _atom_site_fract_z
 _atom_site_occupancy
  Tb  Tb0  1  0.60673200  0.60673200  0.60673200  1
  Tb  Tb1  1  0.17980500  0.60673200  0.60673200  1
  Tb  Tb2  1  0.60673200  0.17980500  0.60673200  1
  Tb  Tb3  1  0.57019500  0.14326800  0.14326800  1
  Tb  Tb4  1  0.14326800  0.14326800  0.14326800  1
  Tb  Tb5  1  0.60673200  0.60673200  0.17980500  1
  Tb  Tb6  1  0.14326800  0.57019500  0.14326800  1
  Tb  Tb7  1  0.14326800  0.14326800  0.57019500  1
  Al  Al8  1  0.00000000  0.00000000  0.00000000  1
  Al  Al9  1  0.75000000  0.75000000  0.75000000  1
