# generated using pymatgen
data_RbCeSe4
_symmetry_space_group_name_H-M   'P 1'
_cell_length_a   7.29522066
_cell_length_b   7.29522066
_cell_length_c   10.50065600
_cell_angle_alpha   90.00000000
_cell_angle_beta   90.00000000
_cell_angle_gamma   90.00000000
_symmetry_Int_Tables_number   1
_chemical_formula_structural   RbCeSe4
_chemical_formula_sum   'Rb2 Ce2 Se8'
_cell_volume   558.84747973
_cell_formula_units_Z   2
loop_
 _symmetry_equiv_pos_site_id
 _symmetry_equiv_pos_as_xyz
  1  'x, y, z'
loop_
 _atom_site_type_symbol
 _atom_site_label
 _atom_site_symmetry_multiplicity
 _atom_site_fract_x
 _atom_site_fract_y
 _atom_site_fract_z
 _atom_site_occupancy
  Rb  Rb0  1  0.50000000  0.00000000  0.50000000  1
  Rb  Rb1  1  0.00000000  0.50000000  0.50000000  1
  Ce  Ce2  1  0.50000000  0.00000000  0.00000000  1
  Ce  Ce3  1  0.00000000  0.50000000  0.00000000  1
  Se  Se4  1  0.00000000  0.28083600  0.78440800  1
  Se  Se5  1  0.00000000  0.71916400  0.78440800  1
  Se  Se6  1  0.28083600  0.00000000  0.78440800  1
  Se  Se7  1  0.71916400  0.00000000  0.21559200  1
  Se  Se8  1  0.00000000  0.71916400  0.21559200  1
  Se  Se9  1  0.71916400  0.00000000  0.78440800  1
  Se  Se10  1  0.28083600  0.00000000  0.21559200  1
  Se  Se11  1  0.00000000  0.28083600  0.21559200  1
