# generated using pymatgen
data_Rb5(DyI4)3
_symmetry_space_group_name_H-M   'P 1'
_cell_length_a   15.26446658
_cell_length_b   15.26446658
_cell_length_c   4.58281800
_cell_angle_alpha   90.00000000
_cell_angle_beta   90.00000000
_cell_angle_gamma   120.00000251
_symmetry_Int_Tables_number   1
_chemical_formula_structural   Rb5(DyI4)3
_chemical_formula_sum   'Rb5 Dy3 I12'
_cell_volume   924.75459009
_cell_formula_units_Z   1
loop_
 _symmetry_equiv_pos_site_id
 _symmetry_equiv_pos_as_xyz
  1  'x, y, z'
loop_
 _atom_site_type_symbol
 _atom_site_label
 _atom_site_symmetry_multiplicity
 _atom_site_fract_x
 _atom_site_fract_y
 _atom_site_fract_z
 _atom_site_occupancy
  Rb  Rb0  1  0.33333300  0.66666700  0.00000000  1
  Rb  Rb1  1  0.66666700  0.33333300  0.00000000  1
  Rb  Rb2  1  0.71763400  0.00000000  0.00000000  1
  Rb  Rb3  1  0.00000000  0.71763400  0.00000000  1
  Rb  Rb4  1  0.28236600  0.28236600  0.00000000  1
  Dy  Dy5  1  0.32279500  0.00000000  0.50000000  1
  Dy  Dy6  1  0.00000000  0.32279500  0.50000000  1
  Dy  Dy7  1  0.67720500  0.67720500  0.50000000  1
  I  I8  1  0.18276200  0.00000000  0.00000000  1
  I  I9  1  0.00000000  0.18276200  0.00000000  1
  I  I10  1  0.81723800  0.81723800  0.00000000  1
  I  I11  1  0.45994100  0.00000000  0.00000000  1
  I  I12  1  0.00000000  0.45994100  0.00000000  1
  I  I13  1  0.54005900  0.54005900  0.00000000  1
  I  I14  1  0.23342300  0.44138200  0.50000000  1
  I  I15  1  0.55861800  0.79204100  0.50000000  1
  I  I16  1  0.44138200  0.23342300  0.50000000  1
  I  I17  1  0.20795900  0.76657700  0.50000000  1
  I  I18  1  0.79204100  0.55861800  0.50000000  1
  I  I19  1  0.76657700  0.20795900  0.50000000  1
