# generated using pymatgen
data_Tl3Mo4(P2O11)2
_symmetry_space_group_name_H-M   'P 1'
_cell_length_a   10.23610600
_cell_length_b   10.00151300
_cell_length_c   12.89970854
_cell_angle_alpha   49.84952197
_cell_angle_beta   90.00000000
_cell_angle_gamma   90.00000000
_symmetry_Int_Tables_number   1
_chemical_formula_structural   Tl3Mo4(P2O11)2
_chemical_formula_sum   'Tl6 Mo8 P8 O44'
_cell_volume   1009.42651070
_cell_formula_units_Z   2
loop_
 _symmetry_equiv_pos_site_id
 _symmetry_equiv_pos_as_xyz
  1  'x, y, z'
loop_
 _atom_site_type_symbol
 _atom_site_label
 _atom_site_symmetry_multiplicity
 _atom_site_fract_x
 _atom_site_fract_y
 _atom_site_fract_z
 _atom_site_occupancy
  Tl  Tl0  1  0.65259900  0.33158200  0.14185900  1
  Tl  Tl1  1  0.34740100  0.66841800  0.85814100  1
  Tl  Tl2  1  0.15259900  0.66841800  0.35814100  1
  Tl  Tl3  1  0.84740100  0.33158200  0.64185900  1
  Tl  Tl4  1  0.00000000  0.50000000  0.00000000  1
  Tl  Tl5  1  0.50000000  0.50000000  0.50000000  1
  Mo  Mo6  1  0.46316800  0.98167900  0.12289400  1
  Mo  Mo7  1  0.53683200  0.01832100  0.87710600  1
  Mo  Mo8  1  0.96316800  0.01832100  0.37710600  1
  Mo  Mo9  1  0.03683200  0.98167900  0.62289400  1
  Mo  Mo10  1  0.78322100  0.75232300  0.15861300  1
  Mo  Mo11  1  0.21677900  0.24767700  0.84138700  1
  Mo  Mo12  1  0.28322100  0.24767700  0.34138700  1
  Mo  Mo13  1  0.71677900  0.75232300  0.65861300  1
  P  P14  1  0.69653000  0.84746100  0.35491400  1
  P  P15  1  0.30347000  0.15253900  0.64508600  1
  P  P16  1  0.19653000  0.15253900  0.14508600  1
  P  P17  1  0.80347000  0.84746100  0.85491400  1
  P  P18  1  0.47479300  0.63179800  0.16177600  1
  P  P19  1  0.52520700  0.36820200  0.83822400  1
  P  P20  1  0.97479300  0.36820200  0.33822400  1
  P  P21  1  0.02520700  0.63179800  0.66177600  1
  O  O22  1  0.84014800  0.31645300  0.01482300  1
  O  O23  1  0.15985200  0.68354700  0.98517700  1
  O  O24  1  0.34014800  0.68354700  0.48517700  1
  O  O25  1  0.65985200  0.31645300  0.51482300  1
  O  O26  1  0.41024400  0.72673000  0.21132200  1
  O  O27  1  0.58975600  0.27327000  0.78867800  1
  O  O28  1  0.91024400  0.27327000  0.28867800  1
  O  O29  1  0.08975600  0.72673000  0.71132200  1
  O  O30  1  0.52131100  0.24436700  0.99732000  1
  O  O31  1  0.47868900  0.75563300  0.00268000  1
  O  O32  1  0.02131100  0.75563300  0.50268000  1
  O  O33  1  0.97868900  0.24436700  0.49732000  1
  O  O34  1  0.74040800  0.71974800  0.33221300  1
  O  O35  1  0.25959200  0.28025200  0.66778700  1
  O  O36  1  0.24040800  0.28025200  0.16778700  1
  O  O37  1  0.75959200  0.71974800  0.83221300  1
  O  O38  1  0.62815800  0.93791600  0.04801700  1
  O  O39  1  0.37184200  0.06208400  0.95198300  1
  O  O40  1  0.12815800  0.06208400  0.45198300  1
  O  O41  1  0.87184200  0.93791600  0.54801700  1
  O  O42  1  0.89886300  0.90709400  0.10606700  1
  O  O43  1  0.10113700  0.09290600  0.89393300  1
  O  O44  1  0.39886300  0.09290600  0.39393300  1
  O  O45  1  0.60113700  0.90709400  0.60606700  1
  O  O46  1  0.79224900  0.99928000  0.29960500  1
  O  O47  1  0.20775100  0.00072000  0.70039500  1
  O  O48  1  0.29224900  0.00072000  0.20039500  1
  O  O49  1  0.70775100  0.99928000  0.79960500  1
  O  O50  1  0.82215300  0.73367700  0.00969700  1
  O  O51  1  0.17784700  0.26632300  0.99030300  1
  O  O52  1  0.32215300  0.26632300  0.49030300  1
  O  O53  1  0.67784700  0.73367700  0.50969700  1
  O  O54  1  0.89088300  0.52669300  0.28894200  1
  O  O55  1  0.10911700  0.47330700  0.71105800  1
  O  O56  1  0.39088300  0.47330700  0.21105800  1
  O  O57  1  0.60911700  0.52669300  0.78894200  1
  O  O58  1  0.56460400  0.93415300  0.27899900  1
  O  O59  1  0.43539600  0.06584700  0.72100100  1
  O  O60  1  0.06460400  0.06584700  0.22100100  1
  O  O61  1  0.93539600  0.93415300  0.77899900  1
  O  O62  1  0.61552900  0.57991400  0.21605300  1
  O  O63  1  0.38447100  0.42008600  0.78394700  1
  O  O64  1  0.11552900  0.42008600  0.28394700  1
  O  O65  1  0.88447100  0.57991400  0.71605300  1
