# generated using pymatgen
data_PrGa4Os
_symmetry_space_group_name_H-M   'P 1'
_cell_length_a   7.70927200
_cell_length_b   8.86281700
_cell_length_c   9.76620300
_cell_angle_alpha   90.00000000
_cell_angle_beta   90.00000000
_cell_angle_gamma   90.00000000
_symmetry_Int_Tables_number   1
_chemical_formula_structural   PrGa4Os
_chemical_formula_sum   'Pr6 Ga24 Os6'
_cell_volume   667.28428668
_cell_formula_units_Z   6
loop_
 _symmetry_equiv_pos_site_id
 _symmetry_equiv_pos_as_xyz
  1  'x, y, z'
loop_
 _atom_site_type_symbol
 _atom_site_label
 _atom_site_symmetry_multiplicity
 _atom_site_fract_x
 _atom_site_fract_y
 _atom_site_fract_z
 _atom_site_occupancy
  Pr  Pr0  1  0.32016500  0.50000000  0.75000000  1
  Pr  Pr1  1  0.67983500  0.50000000  0.25000000  1
  Pr  Pr2  1  0.83891200  0.24900800  0.75000000  1
  Pr  Pr3  1  0.16108800  0.75099200  0.25000000  1
  Pr  Pr4  1  0.83891200  0.75099200  0.75000000  1
  Pr  Pr5  1  0.16108800  0.24900800  0.25000000  1
  Ga  Ga6  1  0.17864200  0.23622700  0.57524900  1
  Ga  Ga7  1  0.82135800  0.76377300  0.42475100  1
  Ga  Ga8  1  0.17864200  0.76377300  0.92475100  1
  Ga  Ga9  1  0.82135800  0.23622700  0.42475100  1
  Ga  Ga10  1  0.82135800  0.23622700  0.07524900  1
  Ga  Ga11  1  0.17864200  0.76377300  0.57524900  1
  Ga  Ga12  1  0.82135800  0.76377300  0.07524900  1
  Ga  Ga13  1  0.17864200  0.23622700  0.92475100  1
  Ga  Ga14  1  0.13004100  0.00000000  0.75000000  1
  Ga  Ga15  1  0.86995900  0.00000000  0.25000000  1
  Ga  Ga16  1  0.33786500  0.00000000  0.06101600  1
  Ga  Ga17  1  0.66213500  0.00000000  0.93898400  1
  Ga  Ga18  1  0.33786500  0.00000000  0.43898400  1
  Ga  Ga19  1  0.66213500  0.00000000  0.56101600  1
  Ga  Ga20  1  0.45270600  0.15634400  0.75000000  1
  Ga  Ga21  1  0.54729400  0.84365600  0.25000000  1
  Ga  Ga22  1  0.45270600  0.84365600  0.75000000  1
  Ga  Ga23  1  0.54729400  0.15634400  0.25000000  1
  Ga  Ga24  1  0.65642700  0.50000000  0.58528300  1
  Ga  Ga25  1  0.34357300  0.50000000  0.41471700  1
  Ga  Ga26  1  0.65642700  0.50000000  0.91471700  1
  Ga  Ga27  1  0.34357300  0.50000000  0.08528300  1
  Ga  Ga28  1  0.00000000  0.50000000  0.50000000  1
  Ga  Ga29  1  0.00000000  0.50000000  0.00000000  1
  Os  Os30  1  0.50000000  0.25922900  0.50000000  1
  Os  Os31  1  0.50000000  0.74077100  0.50000000  1
  Os  Os32  1  0.50000000  0.74077100  0.00000000  1
  Os  Os33  1  0.50000000  0.25922900  0.00000000  1
  Os  Os34  1  0.00000000  0.00000000  0.50000000  1
  Os  Os35  1  0.00000000  0.00000000  0.00000000  1
