# generated using pymatgen
data_Rb2Be2Zn(O3F4)2
_symmetry_space_group_name_H-M   'P 1'
_cell_length_a   11.64406500
_cell_length_b   5.89874700
_cell_length_c   8.96021851
_cell_angle_alpha   75.50458732
_cell_angle_beta   90.00000000
_cell_angle_gamma   90.00000000
_symmetry_Int_Tables_number   1
_chemical_formula_structural   Rb2Be2Zn(O3F4)2
_chemical_formula_sum   'Rb4 Be4 Zn2 O12 F16'
_cell_volume   595.84537638
_cell_formula_units_Z   2
loop_
 _symmetry_equiv_pos_site_id
 _symmetry_equiv_pos_as_xyz
  1  'x, y, z'
loop_
 _atom_site_type_symbol
 _atom_site_label
 _atom_site_symmetry_multiplicity
 _atom_site_fract_x
 _atom_site_fract_y
 _atom_site_fract_z
 _atom_site_occupancy
  Rb  Rb0  1  0.63686800  0.85075300  0.89146900  1
  Rb  Rb1  1  0.36313200  0.14924700  0.10853100  1
  Rb  Rb2  1  0.13686800  0.14924700  0.60853100  1
  Rb  Rb3  1  0.86313200  0.85075300  0.39146900  1
  Be  Be4  1  0.33401300  0.75735400  0.89298900  1
  Be  Be5  1  0.66598700  0.24264600  0.10701100  1
  Be  Be6  1  0.83401300  0.24264600  0.60701100  1
  Be  Be7  1  0.16598700  0.75735400  0.39298900  1
  Zn  Zn8  1  0.50000000  0.50000000  0.50000000  1
  Zn  Zn9  1  0.00000000  0.50000000  0.00000000  1
  O  O10  1  0.37933400  0.31841400  0.62039800  1
  O  O11  1  0.62066600  0.68158600  0.37960200  1
  O  O12  1  0.87933400  0.68158600  0.87960200  1
  O  O13  1  0.12066600  0.31841400  0.12039800  1
  O  O14  1  0.12029200  0.43289500  0.86042100  1
  O  O15  1  0.87970800  0.56710500  0.13957900  1
  O  O16  1  0.62029200  0.56710500  0.63957900  1
  O  O17  1  0.37970800  0.43289500  0.36042100  1
  O  O18  1  0.43969700  0.84655600  0.52441600  1
  O  O19  1  0.56030300  0.15344400  0.47558400  1
  O  O20  1  0.93969700  0.15344400  0.97558400  1
  O  O21  1  0.06030300  0.84655600  0.02441600  1
  F  F22  1  0.29485500  0.52064200  0.85910600  1
  F  F23  1  0.70514500  0.47935800  0.14089400  1
  F  F24  1  0.79485500  0.47935800  0.64089400  1
  F  F25  1  0.20514500  0.52064200  0.35910600  1
  F  F26  1  0.08901300  0.71617500  0.53516000  1
  F  F27  1  0.91098700  0.28382500  0.46484000  1
  F  F28  1  0.58901300  0.28382500  0.96484000  1
  F  F29  1  0.41098700  0.71617500  0.03516000  1
  F  F30  1  0.41436500  0.89299700  0.75068800  1
  F  F31  1  0.58563500  0.10700300  0.24931200  1
  F  F32  1  0.91436500  0.10700300  0.74931200  1
  F  F33  1  0.08563500  0.89299700  0.25068800  1
  F  F34  1  0.22942200  0.92106200  0.90068200  1
  F  F35  1  0.77057800  0.07893800  0.09931800  1
  F  F36  1  0.72942200  0.07893800  0.59931800  1
  F  F37  1  0.27057800  0.92106200  0.40068200  1
