# generated using pymatgen
data_Sr3Ho2(BO3)4
_symmetry_space_group_name_H-M   'P 1'
_cell_length_a   7.38784500
_cell_length_b   8.68885700
_cell_length_c   16.33378200
_cell_angle_alpha   90.00000000
_cell_angle_beta   90.00000000
_cell_angle_gamma   90.00000000
_symmetry_Int_Tables_number   1
_chemical_formula_structural   Sr3Ho2(BO3)4
_chemical_formula_sum   'Sr12 Ho8 B16 O48'
_cell_volume   1048.49697025
_cell_formula_units_Z   4
loop_
 _symmetry_equiv_pos_site_id
 _symmetry_equiv_pos_as_xyz
  1  'x, y, z'
loop_
 _atom_site_type_symbol
 _atom_site_label
 _atom_site_symmetry_multiplicity
 _atom_site_fract_x
 _atom_site_fract_y
 _atom_site_fract_z
 _atom_site_occupancy
  Sr  Sr0  1  0.02912500  0.33080700  0.45692300  1
  Sr  Sr1  1  0.97087500  0.66919300  0.95692300  1
  Sr  Sr2  1  0.52912500  0.16919300  0.45692300  1
  Sr  Sr3  1  0.47087500  0.83080700  0.95692300  1
  Sr  Sr4  1  0.17801600  0.84777100  0.41351200  1
  Sr  Sr5  1  0.82198400  0.15222900  0.91351200  1
  Sr  Sr6  1  0.67801600  0.65222900  0.41351200  1
  Sr  Sr7  1  0.32198400  0.34777100  0.91351200  1
  Sr  Sr8  1  0.31508300  0.35323400  0.66382600  1
  Sr  Sr9  1  0.68491700  0.64676600  0.16382600  1
  Sr  Sr10  1  0.81508300  0.14676600  0.66382600  1
  Sr  Sr11  1  0.18491700  0.85323400  0.16382600  1
  Ho  Ho12  1  0.31758800  0.46583600  0.28870200  1
  Ho  Ho13  1  0.68241200  0.53416400  0.78870200  1
  Ho  Ho14  1  0.81758800  0.03416400  0.28870200  1
  Ho  Ho15  1  0.18241200  0.96583600  0.78870200  1
  Ho  Ho16  1  0.02753400  0.33013000  0.11952700  1
  Ho  Ho17  1  0.97246600  0.66987000  0.61952700  1
  Ho  Ho18  1  0.52753400  0.16987000  0.11952700  1
  Ho  Ho19  1  0.47246600  0.83013000  0.61952700  1
  B  B20  1  0.17049700  0.06410500  0.99918900  1
  B  B21  1  0.82950300  0.93589500  0.49918900  1
  B  B22  1  0.67049700  0.43589500  0.99918900  1
  B  B23  1  0.32950300  0.56410500  0.49918900  1
  B  B24  1  0.00570700  0.37462000  0.78497900  1
  B  B25  1  0.99429300  0.62538000  0.28497900  1
  B  B26  1  0.50570700  0.12538000  0.78497900  1
  B  B27  1  0.49429300  0.87462000  0.28497900  1
  B  B28  1  0.16037200  0.04439500  0.58699700  1
  B  B29  1  0.83962800  0.95560500  0.08699700  1
  B  B30  1  0.66037200  0.45560500  0.58699700  1
  B  B31  1  0.33962800  0.54439500  0.08699700  1
  B  B32  1  0.21128100  0.15200100  0.28629400  1
  B  B33  1  0.78871900  0.84799900  0.78629400  1
  B  B34  1  0.71128100  0.34799900  0.28629400  1
  B  B35  1  0.28871900  0.65200100  0.78629400  1
  O  O36  1  0.23494000  0.22748900  0.21199700  1
  O  O37  1  0.76506000  0.77251100  0.71199700  1
  O  O38  1  0.73494000  0.27251100  0.21199700  1
  O  O39  1  0.26506000  0.72748900  0.71199700  1
  O  O40  1  0.09526000  0.19277200  0.58351000  1
  O  O41  1  0.90474000  0.80722800  0.08351000  1
  O  O42  1  0.59526000  0.30722800  0.58351000  1
  O  O43  1  0.40474000  0.69277200  0.08351000  1
  O  O44  1  0.08674500  0.20782600  0.00404500  1
  O  O45  1  0.91325500  0.79217400  0.50404500  1
  O  O46  1  0.58674500  0.29217400  0.00404500  1
  O  O47  1  0.41325500  0.70782600  0.50404500  1
  O  O48  1  0.12189700  0.01388500  0.29173700  1
  O  O49  1  0.87810300  0.98611500  0.79173700  1
  O  O50  1  0.62189700  0.48611500  0.29173700  1
  O  O51  1  0.37810300  0.51388500  0.79173700  1
  O  O52  1  0.19785900  0.49759600  0.03732300  1
  O  O53  1  0.80214100  0.50240400  0.53732300  1
  O  O54  1  0.69785900  0.00240400  0.03732300  1
  O  O55  1  0.30214100  0.99759600  0.53732300  1
  O  O56  1  0.11102800  0.24220400  0.78358900  1
  O  O57  1  0.88897200  0.75779600  0.28358900  1
  O  O58  1  0.61102800  0.25779600  0.78358900  1
  O  O59  1  0.38897200  0.74220400  0.28358900  1
  O  O60  1  0.04732400  0.54759200  0.21323800  1
  O  O61  1  0.95267600  0.45240800  0.71323800  1
  O  O62  1  0.54732400  0.95240800  0.21323800  1
  O  O63  1  0.45267600  0.04759200  0.71323800  1
  O  O64  1  0.27386600  0.22864300  0.35410300  1
  O  O65  1  0.72613400  0.77135700  0.85410300  1
  O  O66  1  0.77386600  0.27135700  0.35410300  1
  O  O67  1  0.22613400  0.72864300  0.85410300  1
  O  O68  1  0.38233900  0.46541500  0.43798400  1
  O  O69  1  0.61766100  0.53458500  0.93798400  1
  O  O70  1  0.88233900  0.03458500  0.43798400  1
  O  O71  1  0.11766100  0.96541500  0.93798400  1
  O  O72  1  0.41271400  0.44180300  0.14404800  1
  O  O73  1  0.58728600  0.55819700  0.64404800  1
  O  O74  1  0.91271400  0.05819700  0.14404800  1
  O  O75  1  0.08728600  0.94180300  0.64404800  1
  O  O76  1  0.30957900  0.03195000  0.05394600  1
  O  O77  1  0.69042100  0.96805000  0.55394600  1
  O  O78  1  0.80957900  0.46805000  0.05394600  1
  O  O79  1  0.19042100  0.53195000  0.55394600  1
  O  O80  1  0.06574100  0.56934500  0.35753000  1
  O  O81  1  0.93425900  0.43065500  0.85753000  1
  O  O82  1  0.56574100  0.93065500  0.35753000  1
  O  O83  1  0.43425900  0.06934500  0.85753000  1
