# generated using pymatgen
data_MnSi(AgTe2)2
_symmetry_space_group_name_H-M   'P 1'
_cell_length_a   7.37798600
_cell_length_b   7.73317700
_cell_length_c   8.78959500
_cell_angle_alpha   90.00000000
_cell_angle_beta   90.00000000
_cell_angle_gamma   90.00000000
_symmetry_Int_Tables_number   1
_chemical_formula_structural   MnSi(AgTe2)2
_chemical_formula_sum   'Mn2 Si2 Ag4 Te8'
_cell_volume   501.49273034
_cell_formula_units_Z   2
loop_
 _symmetry_equiv_pos_site_id
 _symmetry_equiv_pos_as_xyz
  1  'x, y, z'
loop_
 _atom_site_type_symbol
 _atom_site_label
 _atom_site_symmetry_multiplicity
 _atom_site_fract_x
 _atom_site_fract_y
 _atom_site_fract_z
 _atom_site_occupancy
  Mn  Mn0  1  0.50460800  0.35123300  0.00000000  1
  Mn  Mn1  1  0.00460800  0.64876700  0.50000000  1
  Si  Si2  1  0.00081000  0.66442900  0.00000000  1
  Si  Si3  1  0.50081000  0.33557100  0.50000000  1
  Ag  Ag4  1  0.51656600  0.82408400  0.24941200  1
  Ag  Ag5  1  0.01656600  0.17591600  0.25058800  1
  Ag  Ag6  1  0.01656600  0.17591600  0.74941200  1
  Ag  Ag7  1  0.51656600  0.82408400  0.75058800  1
  Te  Te8  1  0.87536800  0.35850100  0.00000000  1
  Te  Te9  1  0.37536800  0.64149900  0.50000000  1
  Te  Te10  1  0.89502600  0.82740600  0.23931100  1
  Te  Te11  1  0.39502600  0.17259400  0.26068900  1
  Te  Te12  1  0.39502600  0.17259400  0.73931100  1
  Te  Te13  1  0.89502600  0.82740600  0.76068900  1
  Te  Te14  1  0.34853000  0.66703800  0.00000000  1
  Te  Te15  1  0.84853000  0.33296200  0.50000000  1
