# generated using pymatgen
data_Nd4Rh
_symmetry_space_group_name_H-M   'P 1'
_cell_length_a   7.88333127
_cell_length_b   7.88333127
_cell_length_c   7.88333127
_cell_angle_alpha   60.00000000
_cell_angle_beta   60.00000000
_cell_angle_gamma   60.00000000
_symmetry_Int_Tables_number   1
_chemical_formula_structural   Nd4Rh
_chemical_formula_sum   'Nd8 Rh2'
_cell_volume   346.42907353
_cell_formula_units_Z   2
loop_
 _symmetry_equiv_pos_site_id
 _symmetry_equiv_pos_as_xyz
  1  'x, y, z'
loop_
 _atom_site_type_symbol
 _atom_site_label
 _atom_site_symmetry_multiplicity
 _atom_site_fract_x
 _atom_site_fract_y
 _atom_site_fract_z
 _atom_site_occupancy
  Nd  Nd0  1  0.61207300  0.61207300  0.61207300  1
  Nd  Nd1  1  0.16378100  0.61207300  0.61207300  1
  Nd  Nd2  1  0.61207300  0.16378100  0.61207300  1
  Nd  Nd3  1  0.58621900  0.13792700  0.13792700  1
  Nd  Nd4  1  0.13792700  0.13792700  0.13792700  1
  Nd  Nd5  1  0.61207300  0.61207300  0.16378100  1
  Nd  Nd6  1  0.13792700  0.58621900  0.13792700  1
  Nd  Nd7  1  0.13792700  0.13792700  0.58621900  1
  Rh  Rh8  1  0.00000000  0.00000000  0.00000000  1
  Rh  Rh9  1  0.75000000  0.75000000  0.75000000  1
