# generated using pymatgen
data_RbC4N3O4
_symmetry_space_group_name_H-M   'P 1'
_cell_length_a   5.03643900
_cell_length_b   8.27251981
_cell_length_c   9.90585334
_cell_angle_alpha   72.71348144
_cell_angle_beta   75.40083735
_cell_angle_gamma   83.09793758
_symmetry_Int_Tables_number   1
_chemical_formula_structural   RbC4N3O4
_chemical_formula_sum   'Rb2 C8 N6 O8'
_cell_volume   380.89409142
_cell_formula_units_Z   2
loop_
 _symmetry_equiv_pos_site_id
 _symmetry_equiv_pos_as_xyz
  1  'x, y, z'
loop_
 _atom_site_type_symbol
 _atom_site_label
 _atom_site_symmetry_multiplicity
 _atom_site_fract_x
 _atom_site_fract_y
 _atom_site_fract_z
 _atom_site_occupancy
  Rb  Rb0  1  0.27148200  0.20815500  0.28775800  1
  Rb  Rb1  1  0.72851800  0.79184500  0.71224200  1
  C  C2  1  0.17816500  0.40959800  0.80554100  1
  C  C3  1  0.82183500  0.59040200  0.19445900  1
  C  C4  1  0.70003700  0.72995000  0.29051300  1
  C  C5  1  0.29996300  0.27005000  0.70948700  1
  C  C6  1  0.81799100  0.21246000  0.92957300  1
  C  C7  1  0.18200900  0.78754000  0.07042700  1
  C  C8  1  0.11156000  0.11925400  0.73373600  1
  C  C9  1  0.88844000  0.88074600  0.26626400  1
  N  N10  1  0.89601300  0.10568700  0.84174800  1
  N  N11  1  0.10398700  0.89431300  0.15825200  1
  N  N12  1  0.95751300  0.35704400  0.90267600  1
  N  N13  1  0.04248700  0.64295600  0.09732400  1
  N  N14  1  0.47921100  0.70650600  0.37599100  1
  N  N15  1  0.52078900  0.29349400  0.62400900  1
  O  O16  1  0.38557700  0.81730400  0.96734000  1
  O  O17  1  0.61442300  0.18269600  0.03266000  1
  O  O18  1  0.18830900  0.03136100  0.64667100  1
  O  O19  1  0.81169100  0.96863900  0.35332900  1
  O  O20  1  0.26025300  0.66263900  0.45413700  1
  O  O21  1  0.73974700  0.33736100  0.54586300  1
  O  O22  1  0.68895900  0.46307900  0.23220200  1
  O  O23  1  0.31104100  0.53692100  0.76779800  1
