# generated using pymatgen
data_MoWS4
_symmetry_space_group_name_H-M   'P 1'
_cell_length_a   3.19108863
_cell_length_b   3.19108863
_cell_length_c   35.83878600
_cell_angle_alpha   90.00000000
_cell_angle_beta   90.00000000
_cell_angle_gamma   120.00001304
_symmetry_Int_Tables_number   1
_chemical_formula_structural   MoWS4
_chemical_formula_sum   'Mo2 W2 S8'
_cell_volume   316.05422289
_cell_formula_units_Z   2
loop_
 _symmetry_equiv_pos_site_id
 _symmetry_equiv_pos_as_xyz
  1  'x, y, z'
loop_
 _atom_site_type_symbol
 _atom_site_label
 _atom_site_symmetry_multiplicity
 _atom_site_fract_x
 _atom_site_fract_y
 _atom_site_fract_z
 _atom_site_occupancy
  Mo  Mo0  1  0.00000000  0.00000000  0.09389300  1
  Mo  Mo1  1  0.00000000  0.00000000  0.46965500  1
  W  W2  1  0.33333300  0.66666700  0.28178400  1
  W  W3  1  0.33333300  0.66666700  0.65755200  1
  S  S4  1  0.00000000  0.00000000  0.32568500  1
  S  S5  1  0.00000000  0.00000000  0.70143300  1
  S  S6  1  0.33333300  0.66666700  0.05025000  1
  S  S7  1  0.33333300  0.66666700  0.42601200  1
  S  S8  1  0.33333300  0.66666700  0.13759500  1
  S  S9  1  0.33333300  0.66666700  0.51330500  1
  S  S10  1  0.00000000  0.00000000  0.23793200  1
  S  S11  1  0.00000000  0.00000000  0.61365100  1
