# generated using pymatgen
data_Na3Mg4(MoO4)6
_symmetry_space_group_name_H-M   'P 1'
_cell_length_a   7.10610600
_cell_length_b   8.81335246
_cell_length_c   10.46002617
_cell_angle_alpha   106.98368456
_cell_angle_beta   105.13837906
_cell_angle_gamma   103.53942730
_symmetry_Int_Tables_number   1
_chemical_formula_structural   Na3Mg4(MoO4)6
_chemical_formula_sum   'Na3 Mg4 Mo6 O24'
_cell_volume   569.57695272
_cell_formula_units_Z   1
loop_
 _symmetry_equiv_pos_site_id
 _symmetry_equiv_pos_as_xyz
  1  'x, y, z'
loop_
 _atom_site_type_symbol
 _atom_site_label
 _atom_site_symmetry_multiplicity
 _atom_site_fract_x
 _atom_site_fract_y
 _atom_site_fract_z
 _atom_site_occupancy
  Na  Na0  1  0.28594400  0.29159000  0.80122400  1
  Na  Na1  1  0.71405600  0.70841000  0.19877600  1
  Na  Na2  1  0.00000000  0.50000000  0.50000000  1
  Mg  Mg3  1  0.04253800  0.19957500  0.01721600  1
  Mg  Mg4  1  0.95746200  0.80042500  0.98278400  1
  Mg  Mg5  1  0.62416300  0.04376000  0.39739800  1
  Mg  Mg6  1  0.37583700  0.95624000  0.60260200  1
  Mo  Mo7  1  0.59416500  0.25698600  0.13075300  1
  Mo  Mo8  1  0.40583500  0.74301400  0.86924700  1
  Mo  Mo9  1  0.11748700  0.09454200  0.33388100  1
  Mo  Mo10  1  0.88251300  0.90545800  0.66611900  1
  Mo  Mo11  1  0.21508500  0.66407400  0.26106700  1
  Mo  Mo12  1  0.78491500  0.33592600  0.73893300  1
  O  O13  1  0.17527200  0.30954400  0.42253900  1
  O  O14  1  0.82472800  0.69045600  0.57746100  1
  O  O15  1  0.16271600  0.44518100  0.17079500  1
  O  O16  1  0.83728400  0.55481900  0.82920500  1
  O  O17  1  0.56575600  0.14705900  0.24801000  1
  O  O18  1  0.43424400  0.85294100  0.75199000  1
  O  O19  1  0.53584600  0.21923500  0.73190000  1
  O  O20  1  0.46415400  0.78076500  0.26810000  1
  O  O21  1  0.07799700  0.05682800  0.14604200  1
  O  O22  1  0.92200300  0.94317200  0.85395800  1
  O  O23  1  0.12094200  0.00559700  0.64794600  1
  O  O24  1  0.87905800  0.99440300  0.35205400  1
  O  O25  1  0.73256300  0.47311000  0.24082000  1
  O  O26  1  0.26743700  0.52689000  0.75918000  1
  O  O27  1  0.34612500  0.23646400  0.01072500  1
  O  O28  1  0.65387500  0.76353600  0.98927500  1
  O  O29  1  0.32994100  0.03055400  0.42189400  1
  O  O30  1  0.67005900  0.96944600  0.57810600  1
  O  O31  1  0.21666200  0.70896500  0.44101700  1
  O  O32  1  0.78333800  0.29103500  0.55898300  1
  O  O33  1  0.75378100  0.18837300  0.03403600  1
  O  O34  1  0.24621900  0.81162700  0.96596400  1
  O  O35  1  0.02299500  0.73064600  0.16009500  1
  O  O36  1  0.97700500  0.26935400  0.83990500  1
