# generated using pymatgen
data_Tl3BiS6
_symmetry_space_group_name_H-M   'P 1'
_cell_length_a   10.30477095
_cell_length_b   10.30477095
_cell_length_c   54.45385200
_cell_angle_alpha   90.00000000
_cell_angle_beta   90.00000000
_cell_angle_gamma   104.25048914
_symmetry_Int_Tables_number   1
_chemical_formula_structural   Tl3BiS6
_chemical_formula_sum   'Tl3 Bi1 S6'
_cell_volume   5604.43203334
_cell_formula_units_Z   1
loop_
 _symmetry_equiv_pos_site_id
 _symmetry_equiv_pos_as_xyz
  1  'x, y, z'
loop_
 _atom_site_type_symbol
 _atom_site_label
 _atom_site_symmetry_multiplicity
 _atom_site_fract_x
 _atom_site_fract_y
 _atom_site_fract_z
 _atom_site_occupancy
  Tl  Tl0  1  0.00000000  0.00000000  0.50000000  1
  Tl  Tl1  1  0.50000000  0.00000000  0.00000000  1
  Tl  Tl2  1  0.00000000  0.50000000  0.00000000  1
  Bi  Bi3  1  0.00000000  0.00000000  0.00000000  1
  S  S4  1  0.00000000  0.00000000  0.25022500  1
  S  S5  1  0.00000000  0.00000000  0.74977500  1
  S  S6  1  0.25693600  0.01133400  0.00000000  1
  S  S7  1  0.74306400  0.98866600  0.00000000  1
  S  S8  1  0.01133400  0.25693600  0.00000000  1
  S  S9  1  0.98866600  0.74306400  0.00000000  1
