# generated using pymatgen
data_Na(SrAs)4
_symmetry_space_group_name_H-M   'P 1'
_cell_length_a   7.82998100
_cell_length_b   8.31285400
_cell_length_c   15.94453000
_cell_angle_alpha   90.00000000
_cell_angle_beta   90.00000000
_cell_angle_gamma   90.00000000
_symmetry_Int_Tables_number   1
_chemical_formula_structural   Na(SrAs)4
_chemical_formula_sum   'Na4 Sr16 As16'
_cell_volume   1037.82130806
_cell_formula_units_Z   4
loop_
 _symmetry_equiv_pos_site_id
 _symmetry_equiv_pos_as_xyz
  1  'x, y, z'
loop_
 _atom_site_type_symbol
 _atom_site_label
 _atom_site_symmetry_multiplicity
 _atom_site_fract_x
 _atom_site_fract_y
 _atom_site_fract_z
 _atom_site_occupancy
  Na  Na0  1  0.18374100  0.51805800  0.75000000  1
  Na  Na1  1  0.81625900  0.48194200  0.25000000  1
  Na  Na2  1  0.31625900  0.01805800  0.25000000  1
  Na  Na3  1  0.68374100  0.98194200  0.75000000  1
  Sr  Sr4  1  0.35200500  0.16701900  0.62260200  1
  Sr  Sr5  1  0.64799500  0.83298100  0.37739800  1
  Sr  Sr6  1  0.14799500  0.66701900  0.37739800  1
  Sr  Sr7  1  0.64799500  0.83298100  0.12260200  1
  Sr  Sr8  1  0.85200500  0.33298100  0.62260200  1
  Sr  Sr9  1  0.35200500  0.16701900  0.87739800  1
  Sr  Sr10  1  0.85200500  0.33298100  0.87739800  1
  Sr  Sr11  1  0.14799500  0.66701900  0.12260200  1
  Sr  Sr12  1  0.00322100  0.19253300  0.09500300  1
  Sr  Sr13  1  0.99677900  0.80746700  0.90499700  1
  Sr  Sr14  1  0.49677900  0.69253300  0.90499700  1
  Sr  Sr15  1  0.99677900  0.80746700  0.59500300  1
  Sr  Sr16  1  0.50322100  0.30746700  0.09500300  1
  Sr  Sr17  1  0.00322100  0.19253300  0.40499700  1
  Sr  Sr18  1  0.50322100  0.30746700  0.40499700  1
  Sr  Sr19  1  0.49677900  0.69253300  0.59500300  1
  As  As20  1  0.04966400  0.08425600  0.75000000  1
  As  As21  1  0.95033600  0.91574400  0.25000000  1
  As  As22  1  0.45033600  0.58425600  0.25000000  1
  As  As23  1  0.54966400  0.41574400  0.75000000  1
  As  As24  1  0.19365300  0.46334400  0.53821500  1
  As  As25  1  0.80634700  0.53665600  0.46178500  1
  As  As26  1  0.30634700  0.96334400  0.46178500  1
  As  As27  1  0.80634700  0.53665600  0.03821500  1
  As  As28  1  0.69365300  0.03665600  0.53821500  1
  As  As29  1  0.19365300  0.46334400  0.96178500  1
  As  As30  1  0.69365300  0.03665600  0.96178500  1
  As  As31  1  0.30634700  0.96334400  0.03821500  1
  As  As32  1  0.28361300  0.87277300  0.75000000  1
  As  As33  1  0.71638700  0.12722700  0.25000000  1
  As  As34  1  0.21638700  0.37277300  0.25000000  1
  As  As35  1  0.78361300  0.62722700  0.75000000  1
