# generated using pymatgen
data_NaCa2Si4O10F
_symmetry_space_group_name_H-M   'P 1'
_cell_length_a   7.04432200
_cell_length_b   7.86575682
_cell_length_c   19.16557794
_cell_angle_alpha   94.29589387
_cell_angle_beta   89.87496045
_cell_angle_gamma   116.46854162
_symmetry_Int_Tables_number   1
_chemical_formula_structural   NaCa2Si4O10F
_chemical_formula_sum   'Na4 Ca8 Si16 O40 F4'
_cell_volume   947.38009040
_cell_formula_units_Z   4
loop_
 _symmetry_equiv_pos_site_id
 _symmetry_equiv_pos_as_xyz
  1  'x, y, z'
loop_
 _atom_site_type_symbol
 _atom_site_label
 _atom_site_symmetry_multiplicity
 _atom_site_fract_x
 _atom_site_fract_y
 _atom_site_fract_z
 _atom_site_occupancy
  Na  Na0  1  0.86777000  0.73516200  0.49034500  1
  Na  Na1  1  0.13223000  0.26483800  0.50965500  1
  Na  Na2  1  0.86436400  0.23931800  0.99730900  1
  Na  Na3  1  0.13563600  0.76068200  0.00269100  1
  Ca  Ca4  1  0.50099300  0.49952600  0.71761000  1
  Ca  Ca5  1  0.49900700  0.50047400  0.28239000  1
  Ca  Ca6  1  0.52036800  0.04534600  0.77999000  1
  Ca  Ca7  1  0.47963200  0.95465400  0.22001000  1
  Ca  Ca8  1  0.99642400  0.49925600  0.71531300  1
  Ca  Ca9  1  0.00357600  0.50074400  0.28468700  1
  Ca  Ca10  1  0.01989500  0.04261200  0.78441100  1
  Ca  Ca11  1  0.98010500  0.95738800  0.21558900  1
  Si  Si12  1  0.76525900  0.47799100  0.87990100  1
  Si  Si13  1  0.23474100  0.52200900  0.12009900  1
  Si  Si14  1  0.78641300  0.01437500  0.62248000  1
  Si  Si15  1  0.21358700  0.98562500  0.37752000  1
  Si  Si16  1  0.22635800  0.01405400  0.62262400  1
  Si  Si17  1  0.77364200  0.98594600  0.37737600  1
  Si  Si18  1  0.34530700  0.19358900  0.93160500  1
  Si  Si19  1  0.65469300  0.80641100  0.06839500  1
  Si  Si20  1  0.65809800  0.82414600  0.90985400  1
  Si  Si21  1  0.34190200  0.17585400  0.09014600  1
  Si  Si22  1  0.20576100  0.47486800  0.88029900  1
  Si  Si23  1  0.79423900  0.52513200  0.11970100  1
  Si  Si24  1  0.66524100  0.33098600  0.41003000  1
  Si  Si25  1  0.33475900  0.66901400  0.58997000  1
  Si  Si26  1  0.64412500  0.29066600  0.56938100  1
  Si  Si27  1  0.35587500  0.70933400  0.43061900  1
  O  O28  1  0.79162800  0.20137200  0.39259200  1
  O  O29  1  0.20837200  0.79862800  0.60740800  1
  O  O30  1  0.70315400  0.39159300  0.80034900  1
  O  O31  1  0.29684600  0.60840700  0.19965100  1
  O  O32  1  0.18372800  0.38947300  0.80072000  1
  O  O33  1  0.81627200  0.61052700  0.19928000  1
  O  O34  1  0.41034300  0.20068200  0.39262000  1
  O  O35  1  0.58965700  0.79931800  0.60738000  1
  O  O36  1  0.99888900  0.50391100  0.90908600  1
  O  O37  1  0.00111100  0.49608900  0.09091400  1
  O  O38  1  0.71601200  0.43725000  0.63691200  1
  O  O39  1  0.28398800  0.56275000  0.36308800  1
  O  O40  1  0.76563700  0.15207400  0.56469000  1
  O  O41  1  0.23436300  0.84792600  0.43531000  1
  O  O42  1  0.78242600  0.69148200  0.89708200  1
  O  O43  1  0.21757400  0.30851800  0.10291800  1
  O  O44  1  0.38521500  0.15105200  0.56480500  1
  O  O45  1  0.61478500  0.84894800  0.43519500  1
  O  O46  1  0.27458600  0.04635500  0.86406900  1
  O  O47  1  0.72541400  0.95364500  0.13593100  1
  O  O48  1  0.74257300  0.99897300  0.86169400  1
  O  O49  1  0.25742700  0.00102700  0.13830600  1
  O  O50  1  0.70339400  0.90974600  0.99369900  1
  O  O51  1  0.29660600  0.09025400  0.00630100  1
  O  O52  1  0.99304100  0.98697500  0.59333200  1
  O  O53  1  0.00695900  0.01302500  0.40666800  1
  O  O54  1  0.40247900  0.68600300  0.90019900  1
  O  O55  1  0.59752100  0.31399700  0.09980100  1
  O  O56  1  0.29322600  0.10524400  0.70170100  1
  O  O57  1  0.70677400  0.89475600  0.29829900  1
  O  O58  1  0.60394300  0.33592700  0.93611600  1
  O  O59  1  0.39605700  0.66407300  0.06388400  1
  O  O60  1  0.76072900  0.52306300  0.37040100  1
  O  O61  1  0.23927100  0.47693700  0.62959900  1
  O  O62  1  0.21813700  0.32791200  0.93601400  1
  O  O63  1  0.78186300  0.67208800  0.06398600  1
  O  O64  1  0.69731400  0.39646100  0.49547200  1
  O  O65  1  0.30268600  0.60353900  0.50452800  1
  O  O66  1  0.80910200  0.10482400  0.70156400  1
  O  O67  1  0.19089800  0.89517600  0.29843600  1
  F  F68  1  0.63947000  0.26503900  0.25498300  1
  F  F69  1  0.36053000  0.73496100  0.74501700  1
  F  F70  1  0.87104800  0.73720800  0.73913700  1
  F  F71  1  0.12895200  0.26279200  0.26086300  1
