# generated using pymatgen
data_NbSBr
_symmetry_space_group_name_H-M   'P 1'
_cell_length_a   7.34942747
_cell_length_b   7.34942747
_cell_length_c   7.34942747
_cell_angle_alpha   60.00000000
_cell_angle_beta   60.00000000
_cell_angle_gamma   60.00000000
_symmetry_Int_Tables_number   1
_chemical_formula_structural   NbSBr
_chemical_formula_sum   'Nb4 S4 Br4'
_cell_volume   280.70201266
_cell_formula_units_Z   4
loop_
 _symmetry_equiv_pos_site_id
 _symmetry_equiv_pos_as_xyz
  1  'x, y, z'
loop_
 _atom_site_type_symbol
 _atom_site_label
 _atom_site_symmetry_multiplicity
 _atom_site_fract_x
 _atom_site_fract_y
 _atom_site_fract_z
 _atom_site_occupancy
  Nb  Nb0  1  0.35102800  0.35102800  0.35102800  1
  Nb  Nb1  1  0.35102800  0.35102800  0.94691700  1
  Nb  Nb2  1  0.35102800  0.94691700  0.35102800  1
  Nb  Nb3  1  0.94691700  0.35102800  0.35102800  1
  S  S4  1  0.12116500  0.12116500  0.12116500  1
  S  S5  1  0.12116500  0.12116500  0.63650600  1
  S  S6  1  0.12116500  0.63650600  0.12116500  1
  S  S7  1  0.63650600  0.12116500  0.12116500  1
  Br  Br8  1  0.62188200  0.62188200  0.62188200  1
  Br  Br9  1  0.62188200  0.62188200  0.13435500  1
  Br  Br10  1  0.62188200  0.13435500  0.62188200  1
  Br  Br11  1  0.13435500  0.62188200  0.62188200  1
