# generated using pymatgen
data_Nb2SiAs2
_symmetry_space_group_name_H-M   'P 1'
_cell_length_a   2.70211100
_cell_length_b   2.70211100
_cell_length_c   13.50504500
_cell_angle_alpha   90.00000000
_cell_angle_beta   90.00000000
_cell_angle_gamma   90.00000000
_symmetry_Int_Tables_number   1
_chemical_formula_structural   Nb2SiAs2
_chemical_formula_sum   'Nb2 Si1 As2'
_cell_volume   98.60578764
_cell_formula_units_Z   1
loop_
 _symmetry_equiv_pos_site_id
 _symmetry_equiv_pos_as_xyz
  1  'x, y, z'
loop_
 _atom_site_type_symbol
 _atom_site_label
 _atom_site_symmetry_multiplicity
 _atom_site_fract_x
 _atom_site_fract_y
 _atom_site_fract_z
 _atom_site_occupancy
  Nb  Nb0  1  0.50000000  0.50000000  0.19050400  1
  Nb  Nb1  1  0.50000000  0.50000000  0.80949600  1
  Si  Si2  1  0.50000000  0.50000000  0.00000000  1
  As  As3  1  0.50000000  0.50000000  0.60458000  1
  As  As4  1  0.50000000  0.50000000  0.39542000  1
