# generated using pymatgen
data_MgBi2F12
_symmetry_space_group_name_H-M   'P 1'
_cell_length_a   6.10524900
_cell_length_b   6.10524900
_cell_length_c   7.39722200
_cell_angle_alpha   90.00000000
_cell_angle_beta   90.00000000
_cell_angle_gamma   90.00000000
_symmetry_Int_Tables_number   1
_chemical_formula_structural   MgBi2F12
_chemical_formula_sum   'Mg1 Bi2 F12'
_cell_volume   275.72453625
_cell_formula_units_Z   1
loop_
 _symmetry_equiv_pos_site_id
 _symmetry_equiv_pos_as_xyz
  1  'x, y, z'
loop_
 _atom_site_type_symbol
 _atom_site_label
 _atom_site_symmetry_multiplicity
 _atom_site_fract_x
 _atom_site_fract_y
 _atom_site_fract_z
 _atom_site_occupancy
  Mg  Mg0  1  0.00000000  0.00000000  0.00000000  1
  Bi  Bi1  1  0.00000000  0.50000000  0.22672100  1
  Bi  Bi2  1  0.50000000  0.00000000  0.77327900  1
  F  F3  1  0.23405500  0.20860400  0.80324800  1
  F  F4  1  0.76594500  0.79139600  0.80324800  1
  F  F5  1  0.20860400  0.76594500  0.19675200  1
  F  F6  1  0.79139600  0.23405500  0.19675200  1
  F  F7  1  0.00000000  0.50000000  0.49916600  1
  F  F8  1  0.50000000  0.00000000  0.50083400  1
  F  F9  1  0.00000000  0.50000000  0.95471400  1
  F  F10  1  0.50000000  0.00000000  0.04528600  1
  F  F11  1  0.20860400  0.23405500  0.19675200  1
  F  F12  1  0.79139600  0.76594500  0.19675200  1
  F  F13  1  0.23405500  0.79139600  0.80324800  1
  F  F14  1  0.76594500  0.20860400  0.80324800  1
