# generated using pymatgen
data_Yb4Zn11
_symmetry_space_group_name_H-M   'P 1'
_cell_length_a   6.88669600
_cell_length_b   10.30023339
_cell_length_c   10.30023339
_cell_angle_alpha   83.58349550
_cell_angle_beta   70.47014125
_cell_angle_gamma   70.47014125
_symmetry_Int_Tables_number   1
_chemical_formula_structural   Yb4Zn11
_chemical_formula_sum   'Yb8 Zn22'
_cell_volume   648.98957692
_cell_formula_units_Z   2
loop_
 _symmetry_equiv_pos_site_id
 _symmetry_equiv_pos_as_xyz
  1  'x, y, z'
loop_
 _atom_site_type_symbol
 _atom_site_label
 _atom_site_symmetry_multiplicity
 _atom_site_fract_x
 _atom_site_fract_y
 _atom_site_fract_z
 _atom_site_occupancy
  Yb  Yb0  1  0.70055400  0.13984300  0.86015700  1
  Yb  Yb1  1  0.70055400  0.86015700  0.13984300  1
  Yb  Yb2  1  0.81071100  0.63984300  0.63984300  1
  Yb  Yb3  1  0.54944600  0.63984300  0.36015700  1
  Yb  Yb4  1  0.54944600  0.36015700  0.63984300  1
  Yb  Yb5  1  0.09039700  0.36015700  0.36015700  1
  Yb  Yb6  1  0.43928900  0.86015700  0.86015700  1
  Yb  Yb7  1  0.15960300  0.13984300  0.13984300  1
  Zn  Zn8  1  0.00000000  0.00000000  0.00000000  1
  Zn  Zn9  1  0.25000000  0.50000000  0.50000000  1
  Zn  Zn10  1  0.12500000  0.75000000  0.25000000  1
  Zn  Zn11  1  0.12500000  0.25000000  0.75000000  1
  Zn  Zn12  1  0.62500000  0.25000000  0.25000000  1
  Zn  Zn13  1  0.12500000  0.75000000  0.75000000  1
  Zn  Zn14  1  0.36838300  0.87539200  0.58628600  1
  Zn  Zn15  1  0.83006100  0.12460800  0.41371400  1
  Zn  Zn16  1  0.20466900  0.91371400  0.37539200  1
  Zn  Zn17  1  0.88161700  0.91371400  0.62460800  1
  Zn  Zn18  1  0.88161700  0.62460800  0.91371400  1
  Zn  Zn19  1  0.49377500  0.08628600  0.62460800  1
  Zn  Zn20  1  0.41993900  0.08628600  0.37539200  1
  Zn  Zn21  1  0.41993900  0.37539200  0.08628600  1
  Zn  Zn22  1  0.04533100  0.12460800  0.58628600  1
  Zn  Zn23  1  0.04533100  0.58628600  0.12460800  1
  Zn  Zn24  1  0.75622500  0.87539200  0.41371400  1
  Zn  Zn25  1  0.75622500  0.41371400  0.87539200  1
  Zn  Zn26  1  0.36838300  0.58628600  0.87539200  1
  Zn  Zn27  1  0.83006100  0.41371400  0.12460800  1
  Zn  Zn28  1  0.49377500  0.62460800  0.08628600  1
  Zn  Zn29  1  0.20466900  0.37539200  0.91371400  1
