# generated using pymatgen
data_Rb3Nd(Cl3O)2
_symmetry_space_group_name_H-M   'P 1'
_cell_length_a   12.28251970
_cell_length_b   12.28251970
_cell_length_c   16.82337300
_cell_angle_alpha   90.00000000
_cell_angle_beta   90.00000000
_cell_angle_gamma   119.99999840
_symmetry_Int_Tables_number   1
_chemical_formula_structural   Rb3Nd(Cl3O)2
_chemical_formula_sum   'Rb18 Nd6 Cl36 O12'
_cell_volume   2197.95426650
_cell_formula_units_Z   6
loop_
 _symmetry_equiv_pos_site_id
 _symmetry_equiv_pos_as_xyz
  1  'x, y, z'
loop_
 _atom_site_type_symbol
 _atom_site_label
 _atom_site_symmetry_multiplicity
 _atom_site_fract_x
 _atom_site_fract_y
 _atom_site_fract_z
 _atom_site_occupancy
  Rb  Rb0  1  0.66666700  0.33333300  0.89271500  1
  Rb  Rb1  1  0.33333300  0.66666700  0.10728500  1
  Rb  Rb2  1  0.33333300  0.66666700  0.39271500  1
  Rb  Rb3  1  0.66666700  0.33333300  0.60728500  1
  Rb  Rb4  1  0.55461500  0.93428800  0.88422600  1
  Rb  Rb5  1  0.44538500  0.06571200  0.11577400  1
  Rb  Rb6  1  0.37967200  0.44538500  0.88422600  1
  Rb  Rb7  1  0.44538500  0.06571200  0.38422600  1
  Rb  Rb8  1  0.62032800  0.55461500  0.11577400  1
  Rb  Rb9  1  0.55461500  0.93428800  0.61577400  1
  Rb  Rb10  1  0.06571200  0.62032800  0.88422600  1
  Rb  Rb11  1  0.62032800  0.55461500  0.38422600  1
  Rb  Rb12  1  0.93428800  0.37967200  0.11577400  1
  Rb  Rb13  1  0.37967200  0.44538500  0.61577400  1
  Rb  Rb14  1  0.93428800  0.37967200  0.38422600  1
  Rb  Rb15  1  0.06571200  0.62032800  0.61577400  1
  Rb  Rb16  1  0.00000000  0.00000000  0.00000000  1
  Rb  Rb17  1  0.00000000  0.00000000  0.50000000  1
  Nd  Nd18  1  0.96536700  0.19438000  0.75000000  1
  Nd  Nd19  1  0.03463300  0.80562000  0.25000000  1
  Nd  Nd20  1  0.22901200  0.03463300  0.75000000  1
  Nd  Nd21  1  0.77098800  0.96536700  0.25000000  1
  Nd  Nd22  1  0.80562000  0.77098800  0.75000000  1
  Nd  Nd23  1  0.19438000  0.22901200  0.25000000  1
  Cl  Cl24  1  0.82402600  0.97201200  0.84790900  1
  Cl  Cl25  1  0.17597400  0.02798800  0.15209100  1
  Cl  Cl26  1  0.14798600  0.17597400  0.84790900  1
  Cl  Cl27  1  0.17597400  0.02798800  0.34790900  1
  Cl  Cl28  1  0.85201400  0.82402600  0.15209100  1
  Cl  Cl29  1  0.82402600  0.97201200  0.65209100  1
  Cl  Cl30  1  0.02798800  0.85201400  0.84790900  1
  Cl  Cl31  1  0.85201400  0.82402600  0.34790900  1
  Cl  Cl32  1  0.97201200  0.14798600  0.15209100  1
  Cl  Cl33  1  0.14798600  0.17597400  0.65209100  1
  Cl  Cl34  1  0.97201200  0.14798600  0.34790900  1
  Cl  Cl35  1  0.02798800  0.85201400  0.65209100  1
  Cl  Cl36  1  0.57673000  0.70444800  0.96946600  1
  Cl  Cl37  1  0.42327000  0.29555200  0.03053400  1
  Cl  Cl38  1  0.12771800  0.42327000  0.96946600  1
  Cl  Cl39  1  0.42327000  0.29555200  0.46946600  1
  Cl  Cl40  1  0.87228200  0.57673000  0.03053400  1
  Cl  Cl41  1  0.57673000  0.70444800  0.53053400  1
  Cl  Cl42  1  0.29555200  0.87228200  0.96946600  1
  Cl  Cl43  1  0.87228200  0.57673000  0.46946600  1
  Cl  Cl44  1  0.70444800  0.12771800  0.03053400  1
  Cl  Cl45  1  0.12771800  0.42327000  0.53053400  1
  Cl  Cl46  1  0.70444800  0.12771800  0.46946600  1
  Cl  Cl47  1  0.29555200  0.87228200  0.53053400  1
  Cl  Cl48  1  0.72754100  0.17871800  0.75000000  1
  Cl  Cl49  1  0.27245900  0.82128200  0.25000000  1
  Cl  Cl50  1  0.45117700  0.27245900  0.75000000  1
  Cl  Cl51  1  0.54882300  0.72754100  0.25000000  1
  Cl  Cl52  1  0.82128200  0.54882300  0.75000000  1
  Cl  Cl53  1  0.17871800  0.45117700  0.25000000  1
  Cl  Cl54  1  0.53891500  0.67350400  0.75000000  1
  Cl  Cl55  1  0.46108500  0.32649600  0.25000000  1
  Cl  Cl56  1  0.13458900  0.46108500  0.75000000  1
  Cl  Cl57  1  0.86541100  0.53891500  0.25000000  1
  Cl  Cl58  1  0.32649600  0.86541100  0.75000000  1
  Cl  Cl59  1  0.67350400  0.13458900  0.25000000  1
  O  O60  1  0.97324500  0.33588800  0.85696900  1
  O  O61  1  0.02675500  0.66411200  0.14303100  1
  O  O62  1  0.36264300  0.02675500  0.85696900  1
  O  O63  1  0.02675500  0.66411200  0.35696900  1
  O  O64  1  0.63735700  0.97324500  0.14303100  1
  O  O65  1  0.97324500  0.33588800  0.64303100  1
  O  O66  1  0.66411200  0.63735700  0.85696900  1
  O  O67  1  0.63735700  0.97324500  0.35696900  1
  O  O68  1  0.33588800  0.36264300  0.14303100  1
  O  O69  1  0.36264300  0.02675500  0.64303100  1
  O  O70  1  0.33588800  0.36264300  0.35696900  1
  O  O71  1  0.66411200  0.63735700  0.64303100  1
