# generated using pymatgen
data_Na3Pr(AsO4)2
_symmetry_space_group_name_H-M   'P 1'
_cell_length_a   5.62412700
_cell_length_b   14.39927700
_cell_length_c   19.57540400
_cell_angle_alpha   90.00000000
_cell_angle_beta   90.00000000
_cell_angle_gamma   90.00000000
_symmetry_Int_Tables_number   1
_chemical_formula_structural   Na3Pr(AsO4)2
_chemical_formula_sum   'Na24 Pr8 As16 O64'
_cell_volume   1585.28203932
_cell_formula_units_Z   8
loop_
 _symmetry_equiv_pos_site_id
 _symmetry_equiv_pos_as_xyz
  1  'x, y, z'
loop_
 _atom_site_type_symbol
 _atom_site_label
 _atom_site_symmetry_multiplicity
 _atom_site_fract_x
 _atom_site_fract_y
 _atom_site_fract_z
 _atom_site_occupancy
  Na  Na0  1  0.02171600  0.78349000  0.50607400  1
  Na  Na1  1  0.97828400  0.21651000  0.00607400  1
  Na  Na2  1  0.97828400  0.28349000  0.50607400  1
  Na  Na3  1  0.02171600  0.71651000  0.00607400  1
  Na  Na4  1  0.01633200  0.04735500  0.85270400  1
  Na  Na5  1  0.98366800  0.95264500  0.35270400  1
  Na  Na6  1  0.98366800  0.54735500  0.85270400  1
  Na  Na7  1  0.01633200  0.45264500  0.35270400  1
  Na  Na8  1  0.01252100  0.13797800  0.67254300  1
  Na  Na9  1  0.98747900  0.86202200  0.17254300  1
  Na  Na10  1  0.98747900  0.63797800  0.67254300  1
  Na  Na11  1  0.01252100  0.36202200  0.17254300  1
  Na  Na12  1  0.53015400  0.20272700  0.76754400  1
  Na  Na13  1  0.46984600  0.79727300  0.26754400  1
  Na  Na14  1  0.46984600  0.70272700  0.76754400  1
  Na  Na15  1  0.53015400  0.29727300  0.26754400  1
  Na  Na16  1  0.45736700  0.03293200  0.61209800  1
  Na  Na17  1  0.54263300  0.96706800  0.11209800  1
  Na  Na18  1  0.54263300  0.53293200  0.61209800  1
  Na  Na19  1  0.45736700  0.46706800  0.11209800  1
  Na  Na20  1  0.50592300  0.11623200  0.94806600  1
  Na  Na21  1  0.49407700  0.88376800  0.44806600  1
  Na  Na22  1  0.49407700  0.61623200  0.94806600  1
  Na  Na23  1  0.50592300  0.38376800  0.44806600  1
  Pr  Pr24  1  0.07237500  0.38782600  0.69678800  1
  Pr  Pr25  1  0.92762500  0.61217400  0.19678800  1
  Pr  Pr26  1  0.92762500  0.88782600  0.69678800  1
  Pr  Pr27  1  0.07237500  0.11217400  0.19678800  1
  Pr  Pr28  1  0.44015800  0.36318200  0.92578800  1
  Pr  Pr29  1  0.55984200  0.63681800  0.42578800  1
  Pr  Pr30  1  0.55984200  0.86318200  0.92578800  1
  Pr  Pr31  1  0.44015800  0.13681800  0.42578800  1
  As  As32  1  0.03456200  0.52454300  0.51886300  1
  As  As33  1  0.96543800  0.47545700  0.01886300  1
  As  As34  1  0.96543800  0.02454300  0.51886300  1
  As  As35  1  0.03456200  0.97545700  0.01886300  1
  As  As36  1  0.01481000  0.77336700  0.84718400  1
  As  As37  1  0.98519000  0.22663300  0.34718400  1
  As  As38  1  0.98519000  0.27336700  0.84718400  1
  As  As39  1  0.01481000  0.72663300  0.34718400  1
  As  As40  1  0.52627100  0.47737300  0.77619000  1
  As  As41  1  0.47372900  0.52262700  0.27619000  1
  As  As42  1  0.47372900  0.97737300  0.77619000  1
  As  As43  1  0.52627100  0.02262700  0.27619000  1
  As  As44  1  0.54123800  0.27341700  0.60401300  1
  As  As45  1  0.45876200  0.72658300  0.10401300  1
  As  As46  1  0.45876200  0.77341700  0.60401300  1
  As  As47  1  0.54123800  0.22658300  0.10401300  1
  O  O48  1  0.41264200  0.18878000  0.65277200  1
  O  O49  1  0.58735800  0.81122000  0.15277200  1
  O  O50  1  0.58735800  0.68878000  0.65277200  1
  O  O51  1  0.41264200  0.31122000  0.15277200  1
  O  O52  1  0.29619800  0.53274800  0.73444600  1
  O  O53  1  0.70380200  0.46725200  0.23444600  1
  O  O54  1  0.70380200  0.03274800  0.73444600  1
  O  O55  1  0.29619800  0.96725200  0.23444600  1
  O  O56  1  0.10826600  0.12886100  0.50300000  1
  O  O57  1  0.89173400  0.87113900  0.00300000  1
  O  O58  1  0.89173400  0.62886100  0.50300000  1
  O  O59  1  0.10826600  0.37113900  0.00300000  1
  O  O60  1  0.20610500  0.21704900  0.89197300  1
  O  O61  1  0.79389500  0.78295100  0.39197300  1
  O  O62  1  0.79389500  0.71704900  0.89197300  1
  O  O63  1  0.20610500  0.28295100  0.39197300  1
  O  O64  1  0.33629100  0.53505600  0.50251200  1
  O  O65  1  0.66370900  0.46494400  0.00251200  1
  O  O66  1  0.66370900  0.03505600  0.50251200  1
  O  O67  1  0.33629100  0.96494400  0.00251200  1
  O  O68  1  0.09147300  0.56044600  0.96950700  1
  O  O69  1  0.90852700  0.43955400  0.46950700  1
  O  O70  1  0.90852700  0.06044600  0.96950700  1
  O  O71  1  0.09147300  0.93955400  0.46950700  1
  O  O72  1  0.20890200  0.00764200  0.73836400  1
  O  O73  1  0.79109800  0.99235800  0.23836400  1
  O  O74  1  0.79109800  0.50764200  0.73836400  1
  O  O75  1  0.20890200  0.49235800  0.23836400  1
  O  O76  1  0.39496000  0.37734100  0.61792700  1
  O  O77  1  0.60504000  0.62265900  0.11792700  1
  O  O78  1  0.60504000  0.87734100  0.61792700  1
  O  O79  1  0.39496000  0.12265900  0.11792700  1
  O  O80  1  0.46963100  0.36028000  0.77311500  1
  O  O81  1  0.53036900  0.63972000  0.27311500  1
  O  O82  1  0.53036900  0.86028000  0.77311500  1
  O  O83  1  0.46963100  0.13972000  0.27311500  1
  O  O84  1  0.04834300  0.38993800  0.85038300  1
  O  O85  1  0.95165700  0.61006200  0.35038300  1
  O  O86  1  0.95165700  0.88993800  0.85038300  1
  O  O87  1  0.04834300  0.11006200  0.35038300  1
  O  O88  1  0.15938700  0.78459000  0.62381300  1
  O  O89  1  0.84061300  0.21541000  0.12381300  1
  O  O90  1  0.84061300  0.28459000  0.62381300  1
  O  O91  1  0.15938700  0.71541000  0.12381300  1
  O  O92  1  0.01485900  0.74146800  0.76246200  1
  O  O93  1  0.98514100  0.25853200  0.26246200  1
  O  O94  1  0.98514100  0.24146800  0.76246200  1
  O  O95  1  0.01485900  0.75853200  0.26246200  1
  O  O96  1  0.46601200  0.00909800  0.86094400  1
  O  O97  1  0.53398800  0.99090200  0.36094400  1
  O  O98  1  0.53398800  0.50909800  0.86094400  1
  O  O99  1  0.46601200  0.49090200  0.36094400  1
  O  O100  1  0.01421300  0.00354300  0.60477800  1
  O  O101  1  0.98578700  0.99645700  0.10477800  1
  O  O102  1  0.98578700  0.50354300  0.60477800  1
  O  O103  1  0.01421300  0.49645700  0.10477800  1
  O  O104  1  0.71508400  0.24401600  0.88231600  1
  O  O105  1  0.28491600  0.75598400  0.38231600  1
  O  O106  1  0.28491600  0.74401600  0.88231600  1
  O  O107  1  0.71508400  0.25598400  0.38231600  1
  O  O108  1  0.53251700  0.25214400  0.51723400  1
  O  O109  1  0.46748300  0.74785600  0.01723400  1
  O  O110  1  0.46748300  0.75214400  0.51723400  1
  O  O111  1  0.53251700  0.24785600  0.01723400  1
