# generated using pymatgen
data_Mg2Al3(SiO3)6
_symmetry_space_group_name_H-M   'P 1'
_cell_length_a   9.42219384
_cell_length_b   9.42219384
_cell_length_c   10.27548400
_cell_angle_alpha   90.00000000
_cell_angle_beta   90.00000000
_cell_angle_gamma   116.47688036
_symmetry_Int_Tables_number   1
_chemical_formula_structural   Mg2Al3(SiO3)6
_chemical_formula_sum   'Mg4 Al6 Si12 O36'
_cell_volume   816.55392131
_cell_formula_units_Z   2
loop_
 _symmetry_equiv_pos_site_id
 _symmetry_equiv_pos_as_xyz
  1  'x, y, z'
loop_
 _atom_site_type_symbol
 _atom_site_label
 _atom_site_symmetry_multiplicity
 _atom_site_fract_x
 _atom_site_fract_y
 _atom_site_fract_z
 _atom_site_occupancy
  Mg  Mg0  1  0.79576600  0.20423400  0.75000000  1
  Mg  Mg1  1  0.20423400  0.79576600  0.25000000  1
  Mg  Mg2  1  0.20423400  0.79576600  0.75000000  1
  Mg  Mg3  1  0.79576600  0.20423400  0.25000000  1
  Al  Al4  1  0.00000000  0.50000000  0.73816000  1
  Al  Al5  1  0.00000000  0.50000000  0.26184000  1
  Al  Al6  1  0.50000000  0.00000000  0.76184000  1
  Al  Al7  1  0.50000000  0.00000000  0.23816000  1
  Al  Al8  1  0.00000000  0.00000000  0.75000000  1
  Al  Al9  1  0.00000000  0.00000000  0.25000000  1
  Si  Si10  1  0.36530000  0.79034400  0.50000000  1
  Si  Si11  1  0.63470000  0.20965600  0.50000000  1
  Si  Si12  1  0.20965600  0.63470000  0.00000000  1
  Si  Si13  1  0.79034400  0.36530000  0.00000000  1
  Si  Si14  1  0.72189200  0.84023600  0.50000000  1
  Si  Si15  1  0.27810800  0.15976400  0.50000000  1
  Si  Si16  1  0.15976400  0.27810800  0.00000000  1
  Si  Si17  1  0.84023600  0.72189200  0.00000000  1
  Si  Si18  1  0.11153900  0.38145400  0.50000000  1
  Si  Si19  1  0.88846100  0.61854600  0.50000000  1
  Si  Si20  1  0.61854600  0.88846100  0.00000000  1
  Si  Si21  1  0.38145400  0.11153900  0.00000000  1
  O  O22  1  0.78212600  0.41403100  0.68831900  1
  O  O23  1  0.21787400  0.58596900  0.31168100  1
  O  O24  1  0.21787400  0.58596900  0.68831900  1
  O  O25  1  0.58596900  0.21787400  0.81168100  1
  O  O26  1  0.78212600  0.41403100  0.31168100  1
  O  O27  1  0.41403100  0.78212600  0.18831900  1
  O  O28  1  0.41403100  0.78212600  0.81168100  1
  O  O29  1  0.58596900  0.21787400  0.18831900  1
  O  O30  1  0.90187300  0.35625000  0.88107600  1
  O  O31  1  0.09812700  0.64375000  0.11892400  1
  O  O32  1  0.09812700  0.64375000  0.88107600  1
  O  O33  1  0.64375000  0.09812700  0.61892400  1
  O  O34  1  0.90187300  0.35625000  0.11892400  1
  O  O35  1  0.35625000  0.90187300  0.38107600  1
  O  O36  1  0.35625000  0.90187300  0.61892400  1
  O  O37  1  0.64375000  0.09812700  0.38107600  1
  O  O38  1  0.52797600  0.76736700  0.50000000  1
  O  O39  1  0.47202400  0.23263300  0.50000000  1
  O  O40  1  0.23263300  0.47202400  0.00000000  1
  O  O41  1  0.76736700  0.52797600  0.00000000  1
  O  O42  1  0.00277400  0.32158700  0.63300200  1
  O  O43  1  0.99722600  0.67841300  0.36699800  1
  O  O44  1  0.99722600  0.67841300  0.63300200  1
  O  O45  1  0.67841300  0.99722600  0.86699800  1
  O  O46  1  0.00277400  0.32158700  0.36699800  1
  O  O47  1  0.32158700  0.00277400  0.13300200  1
  O  O48  1  0.32158700  0.00277400  0.86699800  1
  O  O49  1  0.67841300  0.99722600  0.13300200  1
  O  O50  1  0.78618800  0.40948400  0.50000000  1
  O  O51  1  0.21381200  0.59051600  0.50000000  1
  O  O52  1  0.59051600  0.21381200  0.00000000  1
  O  O53  1  0.40948400  0.78618800  0.00000000  1
  O  O54  1  0.24864400  0.31847900  0.50000000  1
  O  O55  1  0.75135600  0.68152100  0.50000000  1
  O  O56  1  0.68152100  0.75135600  0.00000000  1
  O  O57  1  0.31847900  0.24864400  0.00000000  1
