# generated using pymatgen
data_LuTlS2O9
_symmetry_space_group_name_H-M   'P 1'
_cell_length_a   8.16852000
_cell_length_b   10.25931389
_cell_length_c   10.10865024
_cell_angle_alpha   120.15192355
_cell_angle_beta   90.00000000
_cell_angle_gamma   90.00000000
_symmetry_Int_Tables_number   1
_chemical_formula_structural   LuTlS2O9
_chemical_formula_sum   'Lu4 Tl4 S8 O36'
_cell_volume   732.51851170
_cell_formula_units_Z   4
loop_
 _symmetry_equiv_pos_site_id
 _symmetry_equiv_pos_as_xyz
  1  'x, y, z'
loop_
 _atom_site_type_symbol
 _atom_site_label
 _atom_site_symmetry_multiplicity
 _atom_site_fract_x
 _atom_site_fract_y
 _atom_site_fract_z
 _atom_site_occupancy
  Lu  Lu0  1  0.34909900  0.95923400  0.71158000  1
  Lu  Lu1  1  0.65090100  0.04076600  0.28842000  1
  Lu  Lu2  1  0.84909900  0.54076600  0.78842000  1
  Lu  Lu3  1  0.15090100  0.45923400  0.21158000  1
  Tl  Tl4  1  0.36191900  0.68798200  0.94764200  1
  Tl  Tl5  1  0.63808100  0.31201800  0.05235800  1
  Tl  Tl6  1  0.86191900  0.81201800  0.55235800  1
  Tl  Tl7  1  0.13808100  0.18798200  0.44764200  1
  S  S8  1  0.12310200  0.31746500  0.87058200  1
  S  S9  1  0.87689800  0.68253500  0.12941800  1
  S  S10  1  0.62310200  0.18253500  0.62941800  1
  S  S11  1  0.37689800  0.81746500  0.37058200  1
  S  S12  1  0.20113100  0.59564300  0.59878700  1
  S  S13  1  0.79886900  0.40435700  0.40121300  1
  S  S14  1  0.70113100  0.90435700  0.90121300  1
  S  S15  1  0.29886900  0.09564300  0.09878700  1
  O  O16  1  0.78732900  0.05048300  0.96995200  1
  O  O17  1  0.21267100  0.94951700  0.03004800  1
  O  O18  1  0.28732900  0.44951700  0.53004800  1
  O  O19  1  0.71267100  0.55048300  0.46995200  1
  O  O20  1  0.19666800  0.16875500  0.76209500  1
  O  O21  1  0.80333200  0.83124500  0.23790500  1
  O  O22  1  0.69666800  0.33124500  0.73790500  1
  O  O23  1  0.30333200  0.66875500  0.26209500  1
  O  O24  1  0.31899600  0.72362900  0.67333200  1
  O  O25  1  0.68100400  0.27637100  0.32666800  1
  O  O26  1  0.81899600  0.77637100  0.82666800  1
  O  O27  1  0.18100400  0.22362900  0.17333200  1
  O  O28  1  0.38712200  0.10765200  0.97430600  1
  O  O29  1  0.61287800  0.89234800  0.02569400  1
  O  O30  1  0.88712200  0.39234800  0.52569400  1
  O  O31  1  0.11287800  0.60765200  0.47430600  1
  O  O32  1  0.07700600  0.93758000  0.72819600  1
  O  O33  1  0.92299400  0.06242000  0.27180400  1
  O  O34  1  0.57700600  0.56242000  0.77180400  1
  O  O35  1  0.42299400  0.43758000  0.22819600  1
  O  O36  1  0.25321500  0.42551800  0.97113100  1
  O  O37  1  0.74678500  0.57448200  0.02886900  1
  O  O38  1  0.75321500  0.07448200  0.52886900  1
  O  O39  1  0.24678500  0.92551800  0.47113100  1
  O  O40  1  0.00656500  0.30897200  0.97885500  1
  O  O41  1  0.99343500  0.69102800  0.02114500  1
  O  O42  1  0.50656500  0.19102800  0.52114500  1
  O  O43  1  0.49343500  0.80897200  0.47885500  1
  O  O44  1  0.04229500  0.37244600  0.77584100  1
  O  O45  1  0.95770500  0.62755400  0.22415900  1
  O  O46  1  0.54229500  0.12755400  0.72415900  1
  O  O47  1  0.45770500  0.87244600  0.27584100  1
  O  O48  1  0.58700300  0.88634800  0.77902500  1
  O  O49  1  0.41299700  0.11365200  0.22097500  1
  O  O50  1  0.08700300  0.61365200  0.72097500  1
  O  O51  1  0.91299700  0.38634800  0.27902500  1
