# generated using pymatgen
data_KPHO3
_symmetry_space_group_name_H-M   'P 1'
_cell_length_a   8.35328300
_cell_length_b   8.46422925
_cell_length_c   11.01354666
_cell_angle_alpha   85.40240067
_cell_angle_beta   81.73921672
_cell_angle_gamma   88.16379967
_symmetry_Int_Tables_number   1
_chemical_formula_structural   KPHO3
_chemical_formula_sum   'K8 P8 H8 O24'
_cell_volume   767.97740614
_cell_formula_units_Z   8
loop_
 _symmetry_equiv_pos_site_id
 _symmetry_equiv_pos_as_xyz
  1  'x, y, z'
loop_
 _atom_site_type_symbol
 _atom_site_label
 _atom_site_symmetry_multiplicity
 _atom_site_fract_x
 _atom_site_fract_y
 _atom_site_fract_z
 _atom_site_occupancy
  K  K0  1  0.30963900  0.41184600  0.92609400  1
  K  K1  1  0.69036100  0.58815400  0.07390600  1
  K  K2  1  0.88858800  0.71296400  0.42015900  1
  K  K3  1  0.11141200  0.28703600  0.57984100  1
  K  K4  1  0.78173400  0.18917100  0.94730800  1
  K  K5  1  0.21826600  0.81082900  0.05269200  1
  K  K6  1  0.28861600  0.76797700  0.54971300  1
  K  K7  1  0.71138400  0.23202300  0.45028700  1
  P  P8  1  0.99736500  0.36981100  0.20332700  1
  P  P9  1  0.00263500  0.63018900  0.79667300  1
  P  P10  1  0.54245100  0.78414900  0.78692000  1
  P  P11  1  0.45754900  0.21585100  0.21308000  1
  P  P12  1  0.71401500  0.48600400  0.71625200  1
  P  P13  1  0.28598500  0.51399600  0.28374800  1
  P  P14  1  0.85736500  0.93744500  0.69638300  1
  P  P15  1  0.14263500  0.06255500  0.30361700  1
  H  H16  1  0.54553000  0.85279100  0.36054900  1
  H  H17  1  0.45447000  0.14720900  0.63945100  1
  H  H18  1  0.51723100  0.77785400  0.33804400  1
  H  H19  1  0.48276900  0.22214600  0.66195600  1
  H  H20  1  0.77877000  0.90772100  0.09526100  1
  H  H21  1  0.22123000  0.09227900  0.90473900  1
  H  H22  1  0.72216400  0.94824400  0.14358200  1
  H  H23  1  0.27783600  0.05175600  0.85641800  1
  O  O24  1  0.80927900  0.45172600  0.59448100  1
  O  O25  1  0.19072100  0.54827400  0.40551900  1
  O  O26  1  0.85957200  0.46706500  0.26458200  1
  O  O27  1  0.14042800  0.53293500  0.73541800  1
  O  O28  1  0.60139200  0.36664800  0.78692000  1
  O  O29  1  0.39860800  0.63335200  0.21308000  1
  O  O30  1  0.01004600  0.68922100  0.92027200  1
  O  O31  1  0.98995400  0.31077900  0.07972800  1
  O  O32  1  0.80989900  0.96392900  0.57043800  1
  O  O33  1  0.19010100  0.03607100  0.42956200  1
  O  O34  1  0.42409900  0.88466800  0.72494900  1
  O  O35  1  0.57590100  0.11533200  0.27505100  1
  O  O36  1  0.96860700  0.77177500  0.69318300  1
  O  O37  1  0.03139300  0.22822500  0.30681700  1
  O  O38  1  0.94278200  0.06316300  0.74917900  1
  O  O39  1  0.05721800  0.93683700  0.25082100  1
  O  O40  1  0.61818400  0.65390600  0.68995800  1
  O  O41  1  0.38181600  0.34609400  0.31004200  1
  O  O42  1  0.83470300  0.52890600  0.81379600  1
  O  O43  1  0.16529700  0.47109400  0.18620400  1
  O  O44  1  0.49054000  0.70184700  0.91198300  1
  O  O45  1  0.50946000  0.29815300  0.08801700  1
  O  O46  1  0.70346500  0.88463000  0.79994100  1
  O  O47  1  0.29653500  0.11537000  0.20005900  1
