# generated using pymatgen
data_K3In(IO3)6
_symmetry_space_group_name_H-M   'P 1'
_cell_length_a   20.96170536
_cell_length_b   20.60606316
_cell_length_c   7.10125520
_cell_angle_alpha   83.00422979
_cell_angle_beta   77.34716195
_cell_angle_gamma   19.64860827
_symmetry_Int_Tables_number   1
_chemical_formula_structural   K3In(IO3)6
_chemical_formula_sum   'K6 In2 I12 O36'
_cell_volume   972.39165999
_cell_formula_units_Z   2
loop_
 _symmetry_equiv_pos_site_id
 _symmetry_equiv_pos_as_xyz
  1  'x, y, z'
loop_
 _atom_site_type_symbol
 _atom_site_label
 _atom_site_symmetry_multiplicity
 _atom_site_fract_x
 _atom_site_fract_y
 _atom_site_fract_z
 _atom_site_occupancy
  K  K0  1  0.50079000  0.49921000  0.50079000  1
  K  K1  1  0.75079000  0.74921000  0.75079000  1
  K  K2  1  0.34991100  0.45337100  0.65773300  1
  K  K3  1  0.65773300  0.53898500  0.34991100  1
  K  K4  1  0.79662900  0.90008900  0.71101500  1
  K  K5  1  0.71101500  0.59226700  0.79662900  1
  In  In6  1  0.00045600  0.99954400  0.00045600  1
  In  In7  1  0.25045600  0.24954400  0.25045600  1
  I  I8  1  0.08889200  0.00664200  0.39517800  1
  I  I9  1  0.39517800  0.50928900  0.08889200  1
  I  I10  1  0.24335800  0.16110800  0.74071100  1
  I  I11  1  0.74071100  0.85482200  0.24335800  1
  I  I12  1  0.25794400  0.33943400  0.75734200  1
  I  I13  1  0.75734200  0.64528000  0.25794400  1
  I  I14  1  0.91056600  0.99205600  0.60472000  1
  I  I15  1  0.60472000  0.49265800  0.91056600  1
  I  I16  1  0.24692700  0.06802300  0.24605200  1
  I  I17  1  0.24605200  0.43899800  0.24692700  1
  I  I18  1  0.18197700  0.00307300  0.81100200  1
  I  I19  1  0.81100200  0.00394800  0.18197700  1
  O  O20  1  0.32453800  0.08183000  0.17587200  1
  O  O21  1  0.17587200  0.41776000  0.32453800  1
  O  O22  1  0.16817000  0.92546200  0.83224000  1
  O  O23  1  0.83224000  0.07412800  0.16817000  1
  O  O24  1  0.30703300  0.22116300  0.92551800  1
  O  O25  1  0.92551800  0.54628700  0.30703300  1
  O  O26  1  0.02883700  0.94296700  0.70371300  1
  O  O27  1  0.70371300  0.32448200  0.02883700  1
  O  O28  1  0.70745600  0.38462100  0.64520900  1
  O  O29  1  0.64520900  0.26271300  0.70745600  1
  O  O30  1  0.86537900  0.54254400  0.98728700  1
  O  O31  1  0.98728700  0.60479100  0.86537900  1
  O  O32  1  0.35445300  0.31337200  0.85736200  1
  O  O33  1  0.85736200  0.47481400  0.35445300  1
  O  O34  1  0.93662800  0.89554700  0.77518600  1
  O  O35  1  0.77518600  0.39263800  0.93662800  1
  O  O36  1  0.35613100  0.73573100  0.29357300  1
  O  O37  1  0.29357300  0.61456600  0.35613100  1
  O  O38  1  0.51426900  0.89386900  0.63543400  1
  O  O39  1  0.63543400  0.95642700  0.51426900  1
  O  O40  1  0.97220200  0.05239500  0.29918900  1
  O  O41  1  0.29918900  0.67621400  0.97220200  1
  O  O42  1  0.19760500  0.27779800  0.57378600  1
  O  O43  1  0.57378600  0.95081100  0.19760500  1
  O  O44  1  0.06000600  0.10368200  0.21993600  1
  O  O45  1  0.21993600  0.61637700  0.06000600  1
  O  O46  1  0.14631800  0.18999400  0.63362300  1
  O  O47  1  0.63362300  0.03006400  0.14631800  1
  O  O48  1  0.23824800  0.06541400  0.99591600  1
  O  O49  1  0.99591600  0.70042200  0.23824800  1
  O  O50  1  0.18458600  0.01175200  0.54957800  1
  O  O51  1  0.54957800  0.25408400  0.18458600  1
  O  O52  1  0.50239500  0.79776000  0.21699100  1
  O  O53  1  0.21699100  0.48285400  0.50239500  1
  O  O54  1  0.45224000  0.74760500  0.76714600  1
  O  O55  1  0.76714600  0.03300900  0.45224000  1
