# generated using pymatgen
data_KP2(HO2)4
_symmetry_space_group_name_H-M   'P 1'
_cell_length_a   10.93861200
_cell_length_b   7.89561500
_cell_length_c   9.80071346
_cell_angle_alpha   68.00310138
_cell_angle_beta   90.00000000
_cell_angle_gamma   90.00000000
_symmetry_Int_Tables_number   1
_chemical_formula_structural   KP2(HO2)4
_chemical_formula_sum   'K4 P8 H16 O32'
_cell_volume   784.84018405
_cell_formula_units_Z   4
loop_
 _symmetry_equiv_pos_site_id
 _symmetry_equiv_pos_as_xyz
  1  'x, y, z'
loop_
 _atom_site_type_symbol
 _atom_site_label
 _atom_site_symmetry_multiplicity
 _atom_site_fract_x
 _atom_site_fract_y
 _atom_site_fract_z
 _atom_site_occupancy
  K  K0  1  0.61631700  0.29490100  0.14325400  1
  K  K1  1  0.38368300  0.70509900  0.85674600  1
  K  K2  1  0.11631700  0.70509900  0.35674600  1
  K  K3  1  0.88368300  0.29490100  0.64325400  1
  P  P4  1  0.77197300  0.86937600  0.28095100  1
  P  P5  1  0.22802700  0.13062400  0.71904900  1
  P  P6  1  0.27197300  0.13062400  0.21904900  1
  P  P7  1  0.72802700  0.86937600  0.78095100  1
  P  P8  1  0.93022300  0.38430200  0.23457200  1
  P  P9  1  0.06977700  0.61569800  0.76542800  1
  P  P10  1  0.43022300  0.61569800  0.26542800  1
  P  P11  1  0.56977700  0.38430200  0.73457200  1
  H  H12  1  0.57883800  0.79494100  0.13043800  1
  H  H13  1  0.42116200  0.20505900  0.86956200  1
  H  H14  1  0.07883800  0.20505900  0.36956200  1
  H  H15  1  0.92116200  0.79494100  0.63043800  1
  H  H16  1  0.41998200  0.92508600  0.29796300  1
  H  H17  1  0.58001800  0.07491400  0.70203700  1
  H  H18  1  0.91998200  0.07491400  0.20203700  1
  H  H19  1  0.08001800  0.92508600  0.79796300  1
  H  H20  1  0.78119000  0.56631000  0.34288800  1
  H  H21  1  0.21881000  0.43369000  0.65711200  1
  H  H22  1  0.28119000  0.43369000  0.15711200  1
  H  H23  1  0.71881000  0.56631000  0.84288800  1
  H  H24  1  0.73937400  0.95821100  0.46734900  1
  H  H25  1  0.26062600  0.04178900  0.53265100  1
  H  H26  1  0.23937400  0.04178900  0.03265100  1
  H  H27  1  0.76062600  0.95821100  0.96734900  1
  O  O28  1  0.77457500  0.66466200  0.38943400  1
  O  O29  1  0.22542500  0.33533800  0.61056600  1
  O  O30  1  0.27457500  0.33533800  0.11056600  1
  O  O31  1  0.72542500  0.66466200  0.88943400  1
  O  O32  1  0.70217100  0.90557600  0.13914300  1
  O  O33  1  0.29782900  0.09442400  0.86085700  1
  O  O34  1  0.20217100  0.09442400  0.36085700  1
  O  O35  1  0.79782900  0.90557600  0.63914300  1
  O  O36  1  0.92200500  0.27339700  0.13755000  1
  O  O37  1  0.07799500  0.72660300  0.86245000  1
  O  O38  1  0.42200500  0.72660300  0.36245000  1
  O  O39  1  0.57799500  0.27339700  0.63755000  1
  O  O40  1  0.70749800  0.98052000  0.36519800  1
  O  O41  1  0.29250200  0.01948000  0.63480200  1
  O  O42  1  0.20749800  0.01948000  0.13480200  1
  O  O43  1  0.79250200  0.98052000  0.86519800  1
  O  O44  1  0.50338700  0.72734500  0.11723800  1
  O  O45  1  0.49661300  0.27265500  0.88276200  1
  O  O46  1  0.00338700  0.27265500  0.38276200  1
  O  O47  1  0.99661300  0.72734500  0.61723800  1
  O  O48  1  0.80351600  0.42487700  0.28441000  1
  O  O49  1  0.19648400  0.57512300  0.71559000  1
  O  O50  1  0.30351600  0.57512300  0.21559000  1
  O  O51  1  0.69648400  0.42487700  0.78441000  1
  O  O52  1  0.98844900  0.57584900  0.16135400  1
  O  O53  1  0.01155100  0.42415100  0.83864600  1
  O  O54  1  0.48844900  0.42415100  0.33864600  1
  O  O55  1  0.51155100  0.57584900  0.66135400  1
  O  O56  1  0.90913100  0.93186600  0.25419800  1
  O  O57  1  0.09086900  0.06813400  0.74580200  1
  O  O58  1  0.40913100  0.06813400  0.24580200  1
  O  O59  1  0.59086900  0.93186600  0.75419800  1
