# generated using pymatgen
data_La(BIr)2
_symmetry_space_group_name_H-M   'P 1'
_cell_length_a   6.59227600
_cell_length_b   6.59227600
_cell_length_c   8.44075300
_cell_angle_alpha   113.00968804
_cell_angle_beta   113.00968804
_cell_angle_gamma   89.94366840
_symmetry_Int_Tables_number   1
_chemical_formula_structural   La(BIr)2
_chemical_formula_sum   'La4 B8 Ir8'
_cell_volume   305.74203397
_cell_formula_units_Z   4
loop_
 _symmetry_equiv_pos_site_id
 _symmetry_equiv_pos_as_xyz
  1  'x, y, z'
loop_
 _atom_site_type_symbol
 _atom_site_label
 _atom_site_symmetry_multiplicity
 _atom_site_fract_x
 _atom_site_fract_y
 _atom_site_fract_z
 _atom_site_occupancy
  La  La0  1  0.62500000  0.87500000  0.75000000  1
  La  La1  1  0.12500000  0.87500000  0.75000000  1
  La  La2  1  0.12500000  0.37500000  0.25000000  1
  La  La3  1  0.12500000  0.87500000  0.25000000  1
  B  B4  1  0.38855900  0.25600600  0.78532800  1
  B  B5  1  0.39676900  0.52932200  0.78532800  1
  B  B6  1  0.74399400  0.61144100  0.21467200  1
  B  B7  1  0.86144100  0.49399400  0.71467200  1
  B  B8  1  0.47067800  0.60323100  0.21467200  1
  B  B9  1  0.85323100  0.22067800  0.71467200  1
  B  B10  1  0.50600600  0.13855900  0.28532800  1
  B  B11  1  0.77932200  0.14676900  0.28532800  1
  Ir  Ir12  1  0.18123300  0.46794500  0.93714700  1
  Ir  Ir13  1  0.75591400  0.46920200  0.93714700  1
  Ir  Ir14  1  0.53205500  0.81876700  0.06285300  1
  Ir  Ir15  1  0.06876700  0.28205500  0.56285300  1
  Ir  Ir16  1  0.53079800  0.24408600  0.06285300  1
  Ir  Ir17  1  0.49408600  0.28079800  0.56285300  1
  Ir  Ir18  1  0.71794500  0.93123300  0.43714700  1
  Ir  Ir19  1  0.71920200  0.50591400  0.43714700  1
