# generated using pymatgen
data_Rb4Te2H3(S2O3)4
_symmetry_space_group_name_H-M   'P 1'
_cell_length_a   9.54004800
_cell_length_b   12.57985300
_cell_length_c   21.72100100
_cell_angle_alpha   90.00000000
_cell_angle_beta   90.00000000
_cell_angle_gamma   90.00000000
_symmetry_Int_Tables_number   1
_chemical_formula_structural   Rb4Te2H3(S2O3)4
_chemical_formula_sum   'Rb16 Te8 H12 S32 O48'
_cell_volume   2606.78949197
_cell_formula_units_Z   4
loop_
 _symmetry_equiv_pos_site_id
 _symmetry_equiv_pos_as_xyz
  1  'x, y, z'
loop_
 _atom_site_type_symbol
 _atom_site_label
 _atom_site_symmetry_multiplicity
 _atom_site_fract_x
 _atom_site_fract_y
 _atom_site_fract_z
 _atom_site_occupancy
  Rb  Rb0  1  0.25167800  0.03216700  0.23105600  1
  Rb  Rb1  1  0.74832200  0.96783300  0.76894400  1
  Rb  Rb2  1  0.24832200  0.53216700  0.26894400  1
  Rb  Rb3  1  0.25167800  0.46783300  0.76894400  1
  Rb  Rb4  1  0.75167800  0.46783300  0.73105600  1
  Rb  Rb5  1  0.74832200  0.53216700  0.23105600  1
  Rb  Rb6  1  0.24832200  0.96783300  0.73105600  1
  Rb  Rb7  1  0.75167800  0.03216700  0.26894400  1
  Rb  Rb8  1  0.40934700  0.30860600  0.10684500  1
  Rb  Rb9  1  0.59065300  0.69139400  0.89315500  1
  Rb  Rb10  1  0.09065300  0.80860600  0.39315500  1
  Rb  Rb11  1  0.40934700  0.19139400  0.89315500  1
  Rb  Rb12  1  0.90934700  0.19139400  0.60684500  1
  Rb  Rb13  1  0.59065300  0.80860600  0.10684500  1
  Rb  Rb14  1  0.09065300  0.69139400  0.60684500  1
  Rb  Rb15  1  0.90934700  0.30860600  0.39315500  1
  Te  Te16  1  0.49194400  0.35023700  0.42985700  1
  Te  Te17  1  0.50805600  0.64976300  0.57014300  1
  Te  Te18  1  0.00805600  0.85023700  0.07014300  1
  Te  Te19  1  0.49194400  0.14976300  0.57014300  1
  Te  Te20  1  0.99194400  0.14976300  0.92985700  1
  Te  Te21  1  0.50805600  0.85023700  0.42985700  1
  Te  Te22  1  0.00805600  0.64976300  0.92985700  1
  Te  Te23  1  0.99194400  0.35023700  0.07014300  1
  H  H24  1  0.61894200  0.25000000  0.00000000  1
  H  H25  1  0.38105800  0.75000000  0.00000000  1
  H  H26  1  0.88105800  0.75000000  0.50000000  1
  H  H27  1  0.11894200  0.25000000  0.50000000  1
  H  H28  1  0.16774900  0.04447600  0.37190900  1
  H  H29  1  0.83225100  0.95552400  0.62809100  1
  H  H30  1  0.33225100  0.54447600  0.12809100  1
  H  H31  1  0.16774900  0.45552400  0.62809100  1
  H  H32  1  0.66774900  0.45552400  0.87190900  1
  H  H33  1  0.83225100  0.54447600  0.37190900  1
  H  H34  1  0.33225100  0.95552400  0.87190900  1
  H  H35  1  0.66774900  0.04447600  0.12809100  1
  S  S36  1  0.28675100  0.03790100  0.05302300  1
  S  S37  1  0.71324900  0.96209900  0.94697700  1
  S  S38  1  0.21324900  0.53790100  0.44697700  1
  S  S39  1  0.28675100  0.46209900  0.94697700  1
  S  S40  1  0.78675100  0.46209900  0.55302300  1
  S  S41  1  0.71324900  0.53790100  0.05302300  1
  S  S42  1  0.21324900  0.96209900  0.55302300  1
  S  S43  1  0.78675100  0.03790100  0.44697700  1
  S  S44  1  0.03629900  0.27986600  0.23100900  1
  S  S45  1  0.96370100  0.72013400  0.76899100  1
  S  S46  1  0.46370100  0.77986600  0.26899100  1
  S  S47  1  0.03629900  0.22013400  0.76899100  1
  S  S48  1  0.53629900  0.22013400  0.73100900  1
  S  S49  1  0.96370100  0.77986600  0.23100900  1
  S  S50  1  0.46370100  0.72013400  0.73100900  1
  S  S51  1  0.53629900  0.27986600  0.26899100  1
  S  S52  1  0.38213800  0.27068000  0.34224200  1
  S  S53  1  0.61786200  0.72932000  0.65775800  1
  S  S54  1  0.11786200  0.77068000  0.15775800  1
  S  S55  1  0.38213800  0.22932000  0.65775800  1
  S  S56  1  0.88213800  0.22932000  0.84224200  1
  S  S57  1  0.61786200  0.77068000  0.34224200  1
  S  S58  1  0.11786200  0.72932000  0.84224200  1
  S  S59  1  0.88213800  0.27068000  0.15775800  1
  S  S60  1  0.06938100  0.03211900  0.08549300  1
  S  S61  1  0.93061900  0.96788100  0.91450700  1
  S  S62  1  0.43061900  0.53211900  0.41450700  1
  S  S63  1  0.06938100  0.46788100  0.91450700  1
  S  S64  1  0.56938100  0.46788100  0.58549300  1
  S  S65  1  0.93061900  0.53211900  0.08549300  1
  S  S66  1  0.43061900  0.96788100  0.58549300  1
  S  S67  1  0.56938100  0.03211900  0.41450700  1
  O  O68  1  0.50016400  0.18734000  0.23040900  1
  O  O69  1  0.49983600  0.81266000  0.76959100  1
  O  O70  1  0.99983600  0.68734000  0.26959100  1
  O  O71  1  0.50016400  0.31266000  0.76959100  1
  O  O72  1  0.00016400  0.31266000  0.73040900  1
  O  O73  1  0.49983600  0.68734000  0.23040900  1
  O  O74  1  0.99983600  0.81266000  0.73040900  1
  O  O75  1  0.00016400  0.18734000  0.26959100  1
  O  O76  1  0.01221800  0.38244900  0.26230900  1
  O  O77  1  0.98778200  0.61755100  0.73769100  1
  O  O78  1  0.48778200  0.88244900  0.23769100  1
  O  O79  1  0.01221800  0.11755100  0.73769100  1
  O  O80  1  0.51221800  0.11755100  0.76230900  1
  O  O81  1  0.98778200  0.88244900  0.26230900  1
  O  O82  1  0.48778200  0.61755100  0.76230900  1
  O  O83  1  0.51221800  0.38244900  0.23769100  1
  O  O84  1  0.37083600  0.02056000  0.10893800  1
  O  O85  1  0.62916400  0.97944000  0.89106200  1
  O  O86  1  0.12916400  0.52056000  0.39106200  1
  O  O87  1  0.37083600  0.47944000  0.89106200  1
  O  O88  1  0.87083600  0.47944000  0.60893800  1
  O  O89  1  0.62916400  0.52056000  0.10893800  1
  O  O90  1  0.12916400  0.97944000  0.60893800  1
  O  O91  1  0.87083600  0.02056000  0.39106200  1
  O  O92  1  0.17474600  0.27190800  0.20200100  1
  O  O93  1  0.82525400  0.72809200  0.79799900  1
  O  O94  1  0.32525400  0.77190800  0.29799900  1
  O  O95  1  0.17474600  0.22809200  0.79799900  1
  O  O96  1  0.67474600  0.22809200  0.70200100  1
  O  O97  1  0.82525400  0.77190800  0.20200100  1
  O  O98  1  0.32525400  0.72809200  0.70200100  1
  O  O99  1  0.67474600  0.27190800  0.29799900  1
  O  O100  1  0.19673700  0.04329300  0.50597100  1
  O  O101  1  0.80326300  0.95670700  0.49402900  1
  O  O102  1  0.30326300  0.54329300  0.99402900  1
  O  O103  1  0.19673700  0.45670700  0.49402900  1
  O  O104  1  0.69673700  0.45670700  0.00597100  1
  O  O105  1  0.80326300  0.54329300  0.50597100  1
  O  O106  1  0.30326300  0.95670700  0.00597100  1
  O  O107  1  0.69673700  0.04329300  0.99402900  1
  O  O108  1  0.29248200  0.14848500  0.03028200  1
  O  O109  1  0.70751800  0.85151500  0.96971800  1
  O  O110  1  0.20751800  0.64848500  0.46971800  1
  O  O111  1  0.29248200  0.35151500  0.96971800  1
  O  O112  1  0.79248200  0.35151500  0.53028200  1
  O  O113  1  0.70751800  0.64848500  0.03028200  1
  O  O114  1  0.20751800  0.85151500  0.53028200  1
  O  O115  1  0.79248200  0.14848500  0.46971800  1
