# generated using pymatgen
data_KMg3(SiO3)4
_symmetry_space_group_name_H-M   'P 1'
_cell_length_a   5.31933259
_cell_length_b   5.31933259
_cell_length_c   10.37244294
_cell_angle_alpha   85.73575754
_cell_angle_beta   85.73575754
_cell_angle_gamma   120.82269515
_symmetry_Int_Tables_number   1
_chemical_formula_structural   KMg3(SiO3)4
_chemical_formula_sum   'K1 Mg3 Si4 O12'
_cell_volume   249.16364449
_cell_formula_units_Z   1
loop_
 _symmetry_equiv_pos_site_id
 _symmetry_equiv_pos_as_xyz
  1  'x, y, z'
loop_
 _atom_site_type_symbol
 _atom_site_label
 _atom_site_symmetry_multiplicity
 _atom_site_fract_x
 _atom_site_fract_y
 _atom_site_fract_z
 _atom_site_occupancy
  K  K0  1  0.00000000  0.00000000  0.00000000  1
  Mg  Mg1  1  0.83436700  0.16563300  0.50000000  1
  Mg  Mg2  1  0.16563300  0.83436700  0.50000000  1
  Mg  Mg3  1  0.50000000  0.50000000  0.50000000  1
  Si  Si4  1  0.59218700  0.25811200  0.22963500  1
  Si  Si5  1  0.40781300  0.74188800  0.77036500  1
  Si  Si6  1  0.74188800  0.40781300  0.77036500  1
  Si  Si7  1  0.25811200  0.59218700  0.22963500  1
  O  O8  1  0.46912500  0.46912500  0.17006300  1
  O  O9  1  0.53087500  0.53087500  0.82993700  1
  O  O10  1  0.87164900  0.87164900  0.40778200  1
  O  O11  1  0.12835100  0.12835100  0.59221800  1
  O  O12  1  0.41832500  0.94421000  0.16524300  1
  O  O13  1  0.58167500  0.05579000  0.83475700  1
  O  O14  1  0.05579000  0.58167500  0.83475700  1
  O  O15  1  0.94421000  0.41832500  0.16524300  1
  O  O16  1  0.55250800  0.21220000  0.38589900  1
  O  O17  1  0.44749200  0.78780000  0.61410100  1
  O  O18  1  0.78780000  0.44749200  0.61410100  1
  O  O19  1  0.21220000  0.55250800  0.38589900  1
