# generated using pymatgen
data_K3PO5
_symmetry_space_group_name_H-M   'P 1'
_cell_length_a   7.72967813
_cell_length_b   7.72967813
_cell_length_c   7.72967813
_cell_angle_alpha   122.74967596
_cell_angle_beta   122.74967596
_cell_angle_gamma   85.29994705
_symmetry_Int_Tables_number   1
_chemical_formula_structural   K3PO5
_chemical_formula_sum   'K6 P2 O10'
_cell_volume   311.84733828
_cell_formula_units_Z   2
loop_
 _symmetry_equiv_pos_site_id
 _symmetry_equiv_pos_as_xyz
  1  'x, y, z'
loop_
 _atom_site_type_symbol
 _atom_site_label
 _atom_site_symmetry_multiplicity
 _atom_site_fract_x
 _atom_site_fract_y
 _atom_site_fract_z
 _atom_site_occupancy
  K  K0  1  0.25000000  0.25000000  0.00000000  1
  K  K1  1  0.75000000  0.75000000  0.00000000  1
  K  K2  1  0.69412000  0.19412000  0.88823900  1
  K  K3  1  0.30588000  0.80588000  0.11176100  1
  K  K4  1  0.19412000  0.30588000  0.50000000  1
  K  K5  1  0.80588000  0.69412000  0.50000000  1
  P  P6  1  0.75000000  0.25000000  0.50000000  1
  P  P7  1  0.25000000  0.75000000  0.50000000  1
  O  O8  1  0.00000000  0.00000000  0.00000000  1
  O  O9  1  0.50000000  0.50000000  0.00000000  1
  O  O10  1  0.28660700  0.78660700  0.73784200  1
  O  O11  1  0.71339300  0.21339300  0.26215800  1
  O  O12  1  0.04876500  0.54876500  0.26215800  1
  O  O13  1  0.78660700  0.04876500  0.50000000  1
  O  O14  1  0.45123500  0.71339300  0.50000000  1
  O  O15  1  0.95123500  0.45123500  0.73784200  1
  O  O16  1  0.21339300  0.95123500  0.50000000  1
  O  O17  1  0.54876500  0.28660700  0.50000000  1
