# generated using pymatgen
data_KVPO6
_symmetry_space_group_name_H-M   'P 1'
_cell_length_a   6.78008500
_cell_length_b   9.43938100
_cell_length_c   17.73080400
_cell_angle_alpha   90.00000000
_cell_angle_beta   90.00000000
_cell_angle_gamma   90.00000000
_symmetry_Int_Tables_number   1
_chemical_formula_structural   KVPO6
_chemical_formula_sum   'K8 V8 P8 O48'
_cell_volume   1134.76800784
_cell_formula_units_Z   8
loop_
 _symmetry_equiv_pos_site_id
 _symmetry_equiv_pos_as_xyz
  1  'x, y, z'
loop_
 _atom_site_type_symbol
 _atom_site_label
 _atom_site_symmetry_multiplicity
 _atom_site_fract_x
 _atom_site_fract_y
 _atom_site_fract_z
 _atom_site_occupancy
  K  K0  1  0.22326300  0.31075700  0.40001400  1
  K  K1  1  0.77673700  0.68924300  0.59998600  1
  K  K2  1  0.27673700  0.68924300  0.90001400  1
  K  K3  1  0.77673700  0.81075700  0.09998600  1
  K  K4  1  0.72326300  0.31075700  0.09998600  1
  K  K5  1  0.22326300  0.18924300  0.90001400  1
  K  K6  1  0.72326300  0.18924300  0.59998600  1
  K  K7  1  0.27673700  0.81075700  0.40001400  1
  V  V8  1  0.47636600  0.05127800  0.24082800  1
  V  V9  1  0.52363400  0.94872200  0.75917200  1
  V  V10  1  0.02363400  0.94872200  0.74082800  1
  V  V11  1  0.52363400  0.55127800  0.25917200  1
  V  V12  1  0.97636600  0.05127800  0.25917200  1
  V  V13  1  0.47636600  0.44872200  0.74082800  1
  V  V14  1  0.97636600  0.44872200  0.75917200  1
  V  V15  1  0.02363400  0.55127800  0.24082800  1
  P  P16  1  0.19522400  0.10761400  0.09765000  1
  P  P17  1  0.80477600  0.89238600  0.90235000  1
  P  P18  1  0.30477600  0.89238600  0.59765000  1
  P  P19  1  0.80477600  0.60761400  0.40235000  1
  P  P20  1  0.69522400  0.10761400  0.40235000  1
  P  P21  1  0.19522400  0.39238600  0.59765000  1
  P  P22  1  0.69522400  0.39238600  0.90235000  1
  P  P23  1  0.30477600  0.60761400  0.09765000  1
  O  O24  1  0.38666300  0.13176100  0.14480100  1
  O  O25  1  0.61333700  0.86823900  0.85519900  1
  O  O26  1  0.11333700  0.86823900  0.64480100  1
  O  O27  1  0.61333700  0.63176100  0.35519900  1
  O  O28  1  0.88666300  0.13176100  0.35519900  1
  O  O29  1  0.38666300  0.36823900  0.64480100  1
  O  O30  1  0.88666300  0.36823900  0.85519900  1
  O  O31  1  0.11333700  0.63176100  0.14480100  1
  O  O32  1  0.03026100  0.04927000  0.15022300  1
  O  O33  1  0.96973900  0.95073000  0.84977700  1
  O  O34  1  0.46973900  0.95073000  0.65022300  1
  O  O35  1  0.96973900  0.54927000  0.34977700  1
  O  O36  1  0.53026100  0.04927000  0.34977700  1
  O  O37  1  0.03026100  0.45073000  0.65022300  1
  O  O38  1  0.53026100  0.45073000  0.84977700  1
  O  O39  1  0.46973900  0.54927000  0.15022300  1
  O  O40  1  0.22063100  0.10865700  0.27691500  1
  O  O41  1  0.77936900  0.89134300  0.72308500  1
  O  O42  1  0.27936900  0.89134300  0.77691500  1
  O  O43  1  0.77936900  0.60865700  0.22308500  1
  O  O44  1  0.72063100  0.10865700  0.22308500  1
  O  O45  1  0.22063100  0.39134300  0.77691500  1
  O  O46  1  0.72063100  0.39134300  0.72308500  1
  O  O47  1  0.27936900  0.60865700  0.27691500  1
  O  O48  1  0.12661400  0.24234700  0.05674600  1
  O  O49  1  0.87338600  0.75765300  0.94325400  1
  O  O50  1  0.37338600  0.75765300  0.55674600  1
  O  O51  1  0.87338600  0.74234700  0.44325400  1
  O  O52  1  0.62661400  0.24234700  0.44325400  1
  O  O53  1  0.12661400  0.25765300  0.55674600  1
  O  O54  1  0.62661400  0.25765300  0.94325400  1
  O  O55  1  0.37338600  0.74234700  0.05674600  1
  O  O56  1  0.27127200  0.50993300  0.02932500  1
  O  O57  1  0.72872800  0.49006700  0.97067500  1
  O  O58  1  0.22872800  0.49006700  0.52932500  1
  O  O59  1  0.72872800  0.00993300  0.47067500  1
  O  O60  1  0.77127200  0.50993300  0.47067500  1
  O  O61  1  0.27127200  0.99006700  0.52932500  1
  O  O62  1  0.77127200  0.99006700  0.97067500  1
  O  O63  1  0.22872800  0.00993300  0.02932500  1
  O  O64  1  0.02626900  0.38184000  0.22410900  1
  O  O65  1  0.97373100  0.61816000  0.77589100  1
  O  O66  1  0.47373100  0.61816000  0.72410900  1
  O  O67  1  0.97373100  0.88184000  0.27589100  1
  O  O68  1  0.52626900  0.38184000  0.27589100  1
  O  O69  1  0.02626900  0.11816000  0.72410900  1
  O  O70  1  0.52626900  0.11816000  0.77589100  1
  O  O71  1  0.47373100  0.88184000  0.22410900  1
