# generated using pymatgen
data_LaB5HO10
_symmetry_space_group_name_H-M   'P 1'
_cell_length_a   10.49923000
_cell_length_b   6.58430800
_cell_length_c   11.17529153
_cell_angle_alpha   66.38370734
_cell_angle_beta   90.00000000
_cell_angle_gamma   90.00000000
_symmetry_Int_Tables_number   1
_chemical_formula_structural   LaB5HO10
_chemical_formula_sum   'La4 B20 H4 O40'
_cell_volume   707.84780734
_cell_formula_units_Z   4
loop_
 _symmetry_equiv_pos_site_id
 _symmetry_equiv_pos_as_xyz
  1  'x, y, z'
loop_
 _atom_site_type_symbol
 _atom_site_label
 _atom_site_symmetry_multiplicity
 _atom_site_fract_x
 _atom_site_fract_y
 _atom_site_fract_z
 _atom_site_occupancy
  La  La0  1  0.35761900  0.77186900  0.36919700  1
  La  La1  1  0.64238100  0.22813100  0.63080300  1
  La  La2  1  0.85761900  0.22813100  0.13080300  1
  La  La3  1  0.14238100  0.77186900  0.86919700  1
  B  B4  1  0.82198500  0.43602500  0.33847900  1
  B  B5  1  0.17801500  0.56397500  0.66152100  1
  B  B6  1  0.32198500  0.56397500  0.16152100  1
  B  B7  1  0.67801500  0.43602500  0.83847900  1
  B  B8  1  0.87073300  0.73913600  0.10563200  1
  B  B9  1  0.12926700  0.26086400  0.89436800  1
  B  B10  1  0.37073300  0.26086400  0.39436800  1
  B  B11  1  0.62926700  0.73913600  0.60563200  1
  B  B12  1  0.26401500  0.99825600  0.07746900  1
  B  B13  1  0.73598500  0.00174400  0.92253100  1
  B  B14  1  0.76401500  0.00174400  0.42253100  1
  B  B15  1  0.23598500  0.99825600  0.57746900  1
  B  B16  1  0.50538000  0.31430000  0.19866800  1
  B  B17  1  0.49462000  0.68570000  0.80133200  1
  B  B18  1  0.00538000  0.68570000  0.30133200  1
  B  B19  1  0.99462000  0.31430000  0.69866800  1
  B  B20  1  0.65993500  0.69176600  0.38742900  1
  B  B21  1  0.34006500  0.30823400  0.61257100  1
  B  B22  1  0.15993500  0.30823400  0.11257100  1
  B  B23  1  0.84006500  0.69176600  0.88742900  1
  H  H24  1  0.59876200  0.74047600  0.19959400  1
  H  H25  1  0.40123800  0.25952400  0.80040600  1
  H  H26  1  0.09876200  0.25952400  0.30040600  1
  H  H27  1  0.90123800  0.74047600  0.69959400  1
  O  O28  1  0.78793600  0.94312500  0.04458100  1
  O  O29  1  0.21206400  0.05687500  0.95541900  1
  O  O30  1  0.28793600  0.05687500  0.45541900  1
  O  O31  1  0.71206400  0.94312500  0.54458100  1
  O  O32  1  0.60651600  0.23724200  0.14857300  1
  O  O33  1  0.39348400  0.76275800  0.85142700  1
  O  O34  1  0.10651600  0.76275800  0.35142700  1
  O  O35  1  0.89348400  0.23724200  0.64857300  1
  O  O36  1  0.56727300  0.74903000  0.27914200  1
  O  O37  1  0.43272700  0.25097000  0.72085800  1
  O  O38  1  0.06727300  0.25097000  0.22085800  1
  O  O39  1  0.93272700  0.74903000  0.77914200  1
  O  O40  1  0.79949700  0.55151700  0.19645300  1
  O  O41  1  0.20050300  0.44848300  0.80354700  1
  O  O42  1  0.29949700  0.44848300  0.30354700  1
  O  O43  1  0.70050300  0.55151700  0.69645300  1
  O  O44  1  0.97100100  0.81584700  0.17298300  1
  O  O45  1  0.02899900  0.18415300  0.82701700  1
  O  O46  1  0.47100100  0.18415300  0.32701700  1
  O  O47  1  0.52899900  0.81584700  0.67298300  1
  O  O48  1  0.94608200  0.49379800  0.37640800  1
  O  O49  1  0.05391800  0.50620200  0.62359200  1
  O  O50  1  0.44608200  0.50620200  0.12359200  1
  O  O51  1  0.55391800  0.49379800  0.87640800  1
  O  O52  1  0.75771700  0.86814800  0.35463500  1
  O  O53  1  0.24228300  0.13185200  0.64536500  1
  O  O54  1  0.25771700  0.13185200  0.14536500  1
  O  O55  1  0.74228300  0.86814800  0.85463500  1
  O  O56  1  0.92047300  0.67748600  0.00057700  1
  O  O57  1  0.07952700  0.32251400  0.99942300  1
  O  O58  1  0.42047300  0.32251400  0.49942300  1
  O  O59  1  0.57952700  0.67748600  0.50057700  1
  O  O60  1  0.71845000  0.47313500  0.41621900  1
  O  O61  1  0.28155000  0.52686500  0.58378100  1
  O  O62  1  0.21845000  0.52686500  0.08378100  1
  O  O63  1  0.78155000  0.47313500  0.91621900  1
  O  O64  1  0.32687500  0.80241000  0.14052900  1
  O  O65  1  0.67312500  0.19759000  0.85947100  1
  O  O66  1  0.82687500  0.19759000  0.35947100  1
  O  O67  1  0.17312500  0.80241000  0.64052900  1
