# generated using pymatgen
data_K4Al2O
_symmetry_space_group_name_H-M   'P 1'
_cell_length_a   9.11971879
_cell_length_b   9.11971879
_cell_length_c   9.11971879
_cell_angle_alpha   60.00000000
_cell_angle_beta   60.00000000
_cell_angle_gamma   60.00000000
_symmetry_Int_Tables_number   1
_chemical_formula_structural   K4Al2O
_chemical_formula_sum   'K8 Al4 O2'
_cell_volume   536.32660745
_cell_formula_units_Z   2
loop_
 _symmetry_equiv_pos_site_id
 _symmetry_equiv_pos_as_xyz
  1  'x, y, z'
loop_
 _atom_site_type_symbol
 _atom_site_label
 _atom_site_symmetry_multiplicity
 _atom_site_fract_x
 _atom_site_fract_y
 _atom_site_fract_z
 _atom_site_occupancy
  K  K0  1  0.37813800  0.37813800  0.37813800  1
  K  K1  1  0.37813800  0.37813800  0.86558500  1
  K  K2  1  0.37813800  0.86558500  0.37813800  1
  K  K3  1  0.87186200  0.87186200  0.38441500  1
  K  K4  1  0.87186200  0.87186200  0.87186200  1
  K  K5  1  0.86558500  0.37813800  0.37813800  1
  K  K6  1  0.87186200  0.38441500  0.87186200  1
  K  K7  1  0.38441500  0.87186200  0.87186200  1
  Al  Al8  1  0.12500000  0.12500000  0.12500000  1
  Al  Al9  1  0.12500000  0.12500000  0.62500000  1
  Al  Al10  1  0.12500000  0.62500000  0.12500000  1
  Al  Al11  1  0.62500000  0.12500000  0.12500000  1
  O  O12  1  0.00000000  0.00000000  0.00000000  1
  O  O13  1  0.25000000  0.25000000  0.25000000  1
