# generated using pymatgen
data_Mg26Ag7
_symmetry_space_group_name_H-M   'P 1'
_cell_length_a   12.52142284
_cell_length_b   12.52142284
_cell_length_c   12.52142284
_cell_angle_alpha   60.00000000
_cell_angle_beta   60.00000000
_cell_angle_gamma   60.00000000
_symmetry_Int_Tables_number   1
_chemical_formula_structural   Mg26Ag7
_chemical_formula_sum   'Mg52 Ag14'
_cell_volume   1388.18084363
_cell_formula_units_Z   2
loop_
 _symmetry_equiv_pos_site_id
 _symmetry_equiv_pos_as_xyz
  1  'x, y, z'
loop_
 _atom_site_type_symbol
 _atom_site_label
 _atom_site_symmetry_multiplicity
 _atom_site_fract_x
 _atom_site_fract_y
 _atom_site_fract_z
 _atom_site_occupancy
  Mg  Mg0  1  0.45039300  0.27328400  0.72671600  1
  Mg  Mg1  1  0.54960700  0.72671600  0.27328400  1
  Mg  Mg2  1  0.27328400  0.45039300  0.54960700  1
  Mg  Mg3  1  0.72671600  0.54960700  0.45039300  1
  Mg  Mg4  1  0.72671600  0.45039300  0.27328400  1
  Mg  Mg5  1  0.27328400  0.54960700  0.72671600  1
  Mg  Mg6  1  0.54960700  0.27328400  0.45039300  1
  Mg  Mg7  1  0.45039300  0.72671600  0.54960700  1
  Mg  Mg8  1  0.27328400  0.72671600  0.45039300  1
  Mg  Mg9  1  0.72671600  0.27328400  0.54960700  1
  Mg  Mg10  1  0.54960700  0.45039300  0.72671600  1
  Mg  Mg11  1  0.45039300  0.54960700  0.27328400  1
  Mg  Mg12  1  0.78567700  0.21432300  0.21432300  1
  Mg  Mg13  1  0.21432300  0.78567700  0.78567700  1
  Mg  Mg14  1  0.21432300  0.78567700  0.21432300  1
  Mg  Mg15  1  0.78567700  0.21432300  0.78567700  1
  Mg  Mg16  1  0.21432300  0.21432300  0.78567700  1
  Mg  Mg17  1  0.78567700  0.78567700  0.21432300  1
  Mg  Mg18  1  0.25000000  0.25000000  0.25000000  1
  Mg  Mg19  1  0.75000000  0.75000000  0.75000000  1
  Mg  Mg20  1  0.31815500  0.99105100  0.20179200  1
  Mg  Mg21  1  0.68184500  0.00894900  0.79820800  1
  Mg  Mg22  1  0.99105100  0.31815500  0.48900200  1
  Mg  Mg23  1  0.20179200  0.48900200  0.31815500  1
  Mg  Mg24  1  0.20179200  0.31815500  0.99105100  1
  Mg  Mg25  1  0.00894900  0.68184500  0.51099800  1
  Mg  Mg26  1  0.79820800  0.51099800  0.68184500  1
  Mg  Mg27  1  0.79820800  0.68184500  0.00894900  1
  Mg  Mg28  1  0.48900200  0.20179200  0.99105100  1
  Mg  Mg29  1  0.48900200  0.99105100  0.31815500  1
  Mg  Mg30  1  0.51099800  0.79820800  0.00894900  1
  Mg  Mg31  1  0.51099800  0.00894900  0.68184500  1
  Mg  Mg32  1  0.31815500  0.20179200  0.48900200  1
  Mg  Mg33  1  0.68184500  0.79820800  0.51099800  1
  Mg  Mg34  1  0.99105100  0.48900200  0.20179200  1
  Mg  Mg35  1  0.00894900  0.51099800  0.79820800  1
  Mg  Mg36  1  0.99105100  0.20179200  0.31815500  1
  Mg  Mg37  1  0.00894900  0.79820800  0.68184500  1
  Mg  Mg38  1  0.48900200  0.31815500  0.20179200  1
  Mg  Mg39  1  0.51099800  0.68184500  0.79820800  1
  Mg  Mg40  1  0.20179200  0.99105100  0.48900200  1
  Mg  Mg41  1  0.79820800  0.00894900  0.51099800  1
  Mg  Mg42  1  0.31815500  0.48900200  0.99105100  1
  Mg  Mg43  1  0.68184500  0.51099800  0.00894900  1
  Mg  Mg44  1  0.09320000  0.09320000  0.09320000  1
  Mg  Mg45  1  0.90680000  0.90680000  0.90680000  1
  Mg  Mg46  1  0.09320000  0.09320000  0.72040000  1
  Mg  Mg47  1  0.09320000  0.72040000  0.09320000  1
  Mg  Mg48  1  0.90680000  0.90680000  0.27960000  1
  Mg  Mg49  1  0.90680000  0.27960000  0.90680000  1
  Mg  Mg50  1  0.72040000  0.09320000  0.09320000  1
  Mg  Mg51  1  0.27960000  0.90680000  0.90680000  1
  Ag  Ag52  1  0.38281800  0.06690400  0.93309600  1
  Ag  Ag53  1  0.61718200  0.93309600  0.06690400  1
  Ag  Ag54  1  0.06690400  0.38281800  0.61718200  1
  Ag  Ag55  1  0.93309600  0.61718200  0.38281800  1
  Ag  Ag56  1  0.93309600  0.38281800  0.06690400  1
  Ag  Ag57  1  0.06690400  0.61718200  0.93309600  1
  Ag  Ag58  1  0.61718200  0.06690400  0.38281800  1
  Ag  Ag59  1  0.38281800  0.93309600  0.61718200  1
  Ag  Ag60  1  0.06690400  0.93309600  0.38281800  1
  Ag  Ag61  1  0.93309600  0.06690400  0.61718200  1
  Ag  Ag62  1  0.61718200  0.38281800  0.93309600  1
  Ag  Ag63  1  0.38281800  0.61718200  0.06690400  1
  Ag  Ag64  1  0.50000000  0.50000000  0.50000000  1
  Ag  Ag65  1  0.00000000  0.00000000  0.00000000  1
