# generated using pymatgen
data_Na2CaSi10(H3O10)2
_symmetry_space_group_name_H-M   'P 1'
_cell_length_a   6.54479600
_cell_length_b   13.06737000
_cell_length_c   13.09996000
_cell_angle_alpha   90.00000000
_cell_angle_beta   90.00000000
_cell_angle_gamma   90.00000000
_symmetry_Int_Tables_number   1
_chemical_formula_structural   Na2CaSi10(H3O10)2
_chemical_formula_sum   'Na4 Ca2 Si20 H12 O40'
_cell_volume   1120.35142794
_cell_formula_units_Z   2
loop_
 _symmetry_equiv_pos_site_id
 _symmetry_equiv_pos_as_xyz
  1  'x, y, z'
loop_
 _atom_site_type_symbol
 _atom_site_label
 _atom_site_symmetry_multiplicity
 _atom_site_fract_x
 _atom_site_fract_y
 _atom_site_fract_z
 _atom_site_occupancy
  Na  Na0  1  0.25399500  0.44871600  0.00000000  1
  Na  Na1  1  0.74600500  0.55128400  0.00000000  1
  Na  Na2  1  0.74600500  0.94871600  0.50000000  1
  Na  Na3  1  0.25399500  0.05128400  0.50000000  1
  Ca  Ca4  1  0.00000000  0.00000000  0.00000000  1
  Ca  Ca5  1  0.00000000  0.50000000  0.50000000  1
  Si  Si6  1  0.62492200  0.25000000  0.25000000  1
  Si  Si7  1  0.37507800  0.75000000  0.75000000  1
  Si  Si8  1  0.37507800  0.75000000  0.25000000  1
  Si  Si9  1  0.62492200  0.25000000  0.75000000  1
  Si  Si10  1  0.24861000  0.20065800  0.11786700  1
  Si  Si11  1  0.75139000  0.79934200  0.88213300  1
  Si  Si12  1  0.75139000  0.70065800  0.38213300  1
  Si  Si13  1  0.24861000  0.29934200  0.38213300  1
  Si  Si14  1  0.24861000  0.29934200  0.61786700  1
  Si  Si15  1  0.75139000  0.70065800  0.61786700  1
  Si  Si16  1  0.75139000  0.79934200  0.11786700  1
  Si  Si17  1  0.24861000  0.20065800  0.88213300  1
  Si  Si18  1  0.00240500  0.11645000  0.29561200  1
  Si  Si19  1  0.99759500  0.88355000  0.70438800  1
  Si  Si20  1  0.99759500  0.61645000  0.20438800  1
  Si  Si21  1  0.00240500  0.38355000  0.20438800  1
  Si  Si22  1  0.00240500  0.38355000  0.79561200  1
  Si  Si23  1  0.99759500  0.61645000  0.79561200  1
  Si  Si24  1  0.99759500  0.88355000  0.29561200  1
  Si  Si25  1  0.00240500  0.11645000  0.70438800  1
  H  H26  1  0.50000000  0.00000000  0.41725000  1
  H  H27  1  0.50000000  0.00000000  0.58275000  1
  H  H28  1  0.50000000  0.50000000  0.08275000  1
  H  H29  1  0.50000000  0.50000000  0.91725000  1
  H  H30  1  0.56282400  0.42390700  0.00000000  1
  H  H31  1  0.43717600  0.57609300  0.00000000  1
  H  H32  1  0.43717600  0.92390700  0.50000000  1
  H  H33  1  0.56282400  0.07609300  0.50000000  1
  H  H34  1  0.76649300  0.11136800  0.00000000  1
  H  H35  1  0.23350700  0.88863200  0.00000000  1
  H  H36  1  0.23350700  0.61136800  0.50000000  1
  H  H37  1  0.76649300  0.38863200  0.50000000  1
  O  O38  1  0.23930400  0.16021800  0.00000000  1
  O  O39  1  0.76069600  0.83978200  0.00000000  1
  O  O40  1  0.76069600  0.66021800  0.50000000  1
  O  O41  1  0.23930400  0.33978200  0.50000000  1
  O  O42  1  0.22786200  0.65902900  0.20800800  1
  O  O43  1  0.77213800  0.34097100  0.79199200  1
  O  O44  1  0.77213800  0.15902900  0.29199200  1
  O  O45  1  0.22786200  0.84097100  0.29199200  1
  O  O46  1  0.22786200  0.84097100  0.70800800  1
  O  O47  1  0.77213800  0.15902900  0.70800800  1
  O  O48  1  0.77213800  0.34097100  0.20800800  1
  O  O49  1  0.22786200  0.65902900  0.79199200  1
  O  O50  1  0.47852700  0.20276200  0.16134300  1
  O  O51  1  0.52147300  0.79723800  0.83865700  1
  O  O52  1  0.52147300  0.70276200  0.33865700  1
  O  O53  1  0.47852700  0.29723800  0.33865700  1
  O  O54  1  0.47852700  0.29723800  0.66134300  1
  O  O55  1  0.52147300  0.70276200  0.66134300  1
  O  O56  1  0.52147300  0.79723800  0.16134300  1
  O  O57  1  0.47852700  0.20276200  0.83865700  1
  O  O58  1  0.11008000  0.11626700  0.18170600  1
  O  O59  1  0.88992000  0.88373300  0.81829400  1
  O  O60  1  0.88992000  0.61626700  0.31829400  1
  O  O61  1  0.11008000  0.38373300  0.31829400  1
  O  O62  1  0.11008000  0.38373300  0.68170600  1
  O  O63  1  0.88992000  0.61626700  0.68170600  1
  O  O64  1  0.88992000  0.88373300  0.18170600  1
  O  O65  1  0.11008000  0.11626700  0.81829400  1
  O  O66  1  0.00000000  0.00000000  0.34214700  1
  O  O67  1  0.00000000  0.00000000  0.65785300  1
  O  O68  1  0.00000000  0.50000000  0.15785300  1
  O  O69  1  0.00000000  0.50000000  0.84214700  1
  O  O70  1  0.14301800  0.31500900  0.12578400  1
  O  O71  1  0.85698200  0.68499100  0.87421600  1
  O  O72  1  0.85698200  0.81500900  0.37421600  1
  O  O73  1  0.14301800  0.18499100  0.37421600  1
  O  O74  1  0.14301800  0.18499100  0.62578400  1
  O  O75  1  0.85698200  0.81500900  0.62578400  1
  O  O76  1  0.85698200  0.68499100  0.12578400  1
  O  O77  1  0.14301800  0.31500900  0.87421600  1
