# generated using pymatgen
data_MgCu2(SO4)2
_symmetry_space_group_name_H-M   'P 1'
_cell_length_a   6.28842661
_cell_length_b   7.66429200
_cell_length_c   6.99439320
_cell_angle_alpha   90.00000000
_cell_angle_beta   88.03097299
_cell_angle_gamma   90.00000000
_symmetry_Int_Tables_number   1
_chemical_formula_structural   MgCu2(SO4)2
_chemical_formula_sum   'Mg2 Cu4 S4 O16'
_cell_volume   336.90509297
_cell_formula_units_Z   2
loop_
 _symmetry_equiv_pos_site_id
 _symmetry_equiv_pos_as_xyz
  1  'x, y, z'
loop_
 _atom_site_type_symbol
 _atom_site_label
 _atom_site_symmetry_multiplicity
 _atom_site_fract_x
 _atom_site_fract_y
 _atom_site_fract_z
 _atom_site_occupancy
  Mg  Mg0  1  0.00000000  0.00000000  0.00000000  1
  Mg  Mg1  1  0.50000000  0.50000000  0.50000000  1
  Cu  Cu2  1  0.22485400  0.81538700  0.58409000  1
  Cu  Cu3  1  0.77514600  0.18461300  0.41591000  1
  Cu  Cu4  1  0.27514600  0.31538700  0.91591000  1
  Cu  Cu5  1  0.72485400  0.68461300  0.08409000  1
  S  S6  1  0.26449400  0.12707000  0.34965000  1
  S  S7  1  0.73550600  0.87293000  0.65035000  1
  S  S8  1  0.23550600  0.62707000  0.15035000  1
  S  S9  1  0.76449400  0.37293000  0.84965000  1
  O  O10  1  0.70915300  0.51674100  0.26563800  1
  O  O11  1  0.29084700  0.48325900  0.73436200  1
  O  O12  1  0.79084700  0.01674100  0.23436200  1
  O  O13  1  0.20915300  0.98325900  0.76563800  1
  O  O14  1  0.42045000  0.73170100  0.06100400  1
  O  O15  1  0.57955000  0.26829900  0.93899600  1
  O  O16  1  0.07955000  0.23170100  0.43899600  1
  O  O17  1  0.92045000  0.76829900  0.56100400  1
  O  O18  1  0.25767500  0.63485500  0.37000500  1
  O  O19  1  0.74232500  0.36514500  0.62999500  1
  O  O20  1  0.24232500  0.13485500  0.12999500  1
  O  O21  1  0.75767500  0.86514500  0.87000500  1
  O  O22  1  0.04444000  0.74452100  0.10465000  1
  O  O23  1  0.95556000  0.25547900  0.89535000  1
  O  O24  1  0.45556000  0.24452100  0.39535000  1
  O  O25  1  0.54444000  0.75547900  0.60465000  1
