# generated using pymatgen
data_InH3F3
_symmetry_space_group_name_H-M   'P 1'
_cell_length_a   4.62045100
_cell_length_b   7.48868100
_cell_length_c   9.92477719
_cell_angle_alpha   57.10382552
_cell_angle_beta   90.00000000
_cell_angle_gamma   90.00000000
_symmetry_Int_Tables_number   1
_chemical_formula_structural   InH3F3
_chemical_formula_sum   'In2 H6 F6'
_cell_volume   288.34467020
_cell_formula_units_Z   2
loop_
 _symmetry_equiv_pos_site_id
 _symmetry_equiv_pos_as_xyz
  1  'x, y, z'
loop_
 _atom_site_type_symbol
 _atom_site_label
 _atom_site_symmetry_multiplicity
 _atom_site_fract_x
 _atom_site_fract_y
 _atom_site_fract_z
 _atom_site_occupancy
  In  In0  1  0.56749700  0.50000000  0.25000000  1
  In  In1  1  0.43250300  0.50000000  0.75000000  1
  H  H2  1  0.91995500  0.00000000  0.25000000  1
  H  H3  1  0.08004500  0.00000000  0.75000000  1
  H  H4  1  0.49577400  0.85605800  0.89364400  1
  H  H5  1  0.50422600  0.14394200  0.10635600  1
  H  H6  1  0.49577400  0.14394200  0.60635600  1
  H  H7  1  0.50422600  0.85605800  0.39364400  1
  F  F8  1  0.39599300  0.78372500  0.35684600  1
  F  F9  1  0.60400700  0.21627500  0.64315400  1
  F  F10  1  0.39599300  0.21627500  0.14315400  1
  F  F11  1  0.60400700  0.78372500  0.85684600  1
  F  F12  1  0.07678200  0.50000000  0.25000000  1
  F  F13  1  0.92321800  0.50000000  0.75000000  1
