# generated using pymatgen
data_LaP2H2(WO2)3
_symmetry_space_group_name_H-M   'P 1'
_cell_length_a   7.26786300
_cell_length_b   10.27388207
_cell_length_c   13.81889815
_cell_angle_alpha   94.27043978
_cell_angle_beta   90.00000000
_cell_angle_gamma   90.00000000
_symmetry_Int_Tables_number   1
_chemical_formula_structural   LaP2H2(WO2)3
_chemical_formula_sum   'La4 P8 H8 W12 O24'
_cell_volume   1028.98088957
_cell_formula_units_Z   4
loop_
 _symmetry_equiv_pos_site_id
 _symmetry_equiv_pos_as_xyz
  1  'x, y, z'
loop_
 _atom_site_type_symbol
 _atom_site_label
 _atom_site_symmetry_multiplicity
 _atom_site_fract_x
 _atom_site_fract_y
 _atom_site_fract_z
 _atom_site_occupancy
  La  La0  1  0.75199900  0.47014100  0.67724300  1
  La  La1  1  0.24800100  0.52985900  0.32275700  1
  La  La2  1  0.25199900  0.52985900  0.82275700  1
  La  La3  1  0.74800100  0.47014100  0.17724300  1
  P  P4  1  0.76190300  0.51771300  0.91326900  1
  P  P5  1  0.23809700  0.48228700  0.08673100  1
  P  P6  1  0.26190300  0.48228700  0.58673100  1
  P  P7  1  0.73809700  0.51771300  0.41326900  1
  P  P8  1  0.95374100  0.79856900  0.73481800  1
  P  P9  1  0.04625900  0.20143100  0.26518200  1
  P  P10  1  0.45374100  0.20143100  0.76518200  1
  P  P11  1  0.54625900  0.79856900  0.23481800  1
  H  H12  1  0.79466500  0.65102600  0.94381100  1
  H  H13  1  0.20533500  0.34897400  0.05618900  1
  H  H14  1  0.29466500  0.34897400  0.55618900  1
  H  H15  1  0.70533500  0.65102600  0.44381100  1
  H  H16  1  0.54714300  0.15895800  0.84708800  1
  H  H17  1  0.45285700  0.84104200  0.15291200  1
  H  H18  1  0.04714300  0.84104200  0.65291200  1
  H  H19  1  0.95285700  0.15895800  0.34708800  1
  W  W20  1  0.41676300  0.91532100  0.90746300  1
  W  W21  1  0.58323700  0.08467900  0.09253700  1
  W  W22  1  0.91676300  0.08467900  0.59253700  1
  W  W23  1  0.08323700  0.91532100  0.40746300  1
  W  W24  1  0.56390800  0.89018900  0.68866200  1
  W  W25  1  0.43609200  0.10981100  0.31133800  1
  W  W26  1  0.06390800  0.10981100  0.81133800  1
  W  W27  1  0.93609200  0.89018900  0.18866200  1
  W  W28  1  0.83924600  0.92227800  0.95550600  1
  W  W29  1  0.16075400  0.07772200  0.04449400  1
  W  W30  1  0.33924600  0.07772200  0.54449400  1
  W  W31  1  0.66075400  0.92227800  0.45550600  1
  O  O32  1  0.58701500  0.51456600  0.84850100  1
  O  O33  1  0.41298500  0.48543400  0.15149900  1
  O  O34  1  0.08701500  0.48543400  0.65149900  1
  O  O35  1  0.91298500  0.51456600  0.34850100  1
  O  O36  1  0.89150100  0.92713000  0.79593600  1
  O  O37  1  0.10849900  0.07287000  0.20406400  1
  O  O38  1  0.39150100  0.07287000  0.70406400  1
  O  O39  1  0.60849900  0.92713000  0.29593600  1
  O  O40  1  0.92118400  0.47008000  0.84376800  1
  O  O41  1  0.07881600  0.52992000  0.15623200  1
  O  O42  1  0.42118400  0.52992000  0.65623200  1
  O  O43  1  0.57881600  0.47008000  0.34376800  1
  O  O44  1  0.41900800  0.71913100  0.29393500  1
  O  O45  1  0.58099200  0.28086900  0.70606500  1
  O  O46  1  0.91900800  0.28086900  0.20606500  1
  O  O47  1  0.08099200  0.71913100  0.79393500  1
  O  O48  1  0.74722100  0.44424300  0.00482500  1
  O  O49  1  0.25277900  0.55575700  0.99517500  1
  O  O50  1  0.24722100  0.55575700  0.49517500  1
  O  O51  1  0.75277900  0.44424300  0.50482500  1
  O  O52  1  0.77620400  0.72487300  0.69788400  1
  O  O53  1  0.22379600  0.27512700  0.30211600  1
  O  O54  1  0.27620400  0.27512700  0.80211600  1
  O  O55  1  0.72379600  0.72487300  0.19788400  1
