# generated using pymatgen
data_LaCu(MoO4)2
_symmetry_space_group_name_H-M   'P 1'
_cell_length_a   10.12380500
_cell_length_b   10.18545500
_cell_length_c   13.88108200
_cell_angle_alpha   90.00000000
_cell_angle_beta   90.00000000
_cell_angle_gamma   90.00000000
_symmetry_Int_Tables_number   1
_chemical_formula_structural   LaCu(MoO4)2
_chemical_formula_sum   'La8 Cu8 Mo16 O64'
_cell_volume   1431.35554739
_cell_formula_units_Z   8
loop_
 _symmetry_equiv_pos_site_id
 _symmetry_equiv_pos_as_xyz
  1  'x, y, z'
loop_
 _atom_site_type_symbol
 _atom_site_label
 _atom_site_symmetry_multiplicity
 _atom_site_fract_x
 _atom_site_fract_y
 _atom_site_fract_z
 _atom_site_occupancy
  La  La0  1  0.37905500  0.95683800  0.62665000  1
  La  La1  1  0.62094500  0.04316200  0.37335000  1
  La  La2  1  0.12094500  0.45683800  0.37335000  1
  La  La3  1  0.62094500  0.54316200  0.12665000  1
  La  La4  1  0.87905500  0.54316200  0.62665000  1
  La  La5  1  0.37905500  0.45683800  0.87335000  1
  La  La6  1  0.87905500  0.04316200  0.87335000  1
  La  La7  1  0.12094500  0.95683800  0.12665000  1
  Cu  Cu8  1  0.41916900  0.77304600  0.98697900  1
  Cu  Cu9  1  0.58083100  0.22695400  0.01302100  1
  Cu  Cu10  1  0.08083100  0.27304600  0.01302100  1
  Cu  Cu11  1  0.58083100  0.72695400  0.48697900  1
  Cu  Cu12  1  0.91916900  0.72695400  0.98697900  1
  Cu  Cu13  1  0.41916900  0.27304600  0.51302100  1
  Cu  Cu14  1  0.91916900  0.22695400  0.51302100  1
  Cu  Cu15  1  0.08083100  0.77304600  0.48697900  1
  Mo  Mo16  1  0.28679600  0.58379500  0.58164800  1
  Mo  Mo17  1  0.71320400  0.41620500  0.41835200  1
  Mo  Mo18  1  0.21320400  0.08379500  0.41835200  1
  Mo  Mo19  1  0.71320400  0.91620500  0.08164800  1
  Mo  Mo20  1  0.78679600  0.91620500  0.58164800  1
  Mo  Mo21  1  0.28679600  0.08379500  0.91835200  1
  Mo  Mo22  1  0.78679600  0.41620500  0.91835200  1
  Mo  Mo23  1  0.21320400  0.58379500  0.08164800  1
  Mo  Mo24  1  0.13227700  0.73607400  0.79582800  1
  Mo  Mo25  1  0.86772300  0.26392600  0.20417200  1
  Mo  Mo26  1  0.36772300  0.23607400  0.20417200  1
  Mo  Mo27  1  0.86772300  0.76392600  0.29582800  1
  Mo  Mo28  1  0.63227700  0.76392600  0.79582800  1
  Mo  Mo29  1  0.13227700  0.23607400  0.70417200  1
  Mo  Mo30  1  0.63227700  0.26392600  0.70417200  1
  Mo  Mo31  1  0.36772300  0.73607400  0.29582800  1
  O  O32  1  0.33937100  0.94330800  0.98852700  1
  O  O33  1  0.66062900  0.05669200  0.01147300  1
  O  O34  1  0.16062900  0.44330800  0.01147300  1
  O  O35  1  0.66062900  0.55669200  0.48852700  1
  O  O36  1  0.83937100  0.55669200  0.98852700  1
  O  O37  1  0.33937100  0.44330800  0.51147300  1
  O  O38  1  0.83937100  0.05669200  0.51147300  1
  O  O39  1  0.16062900  0.94330800  0.48852700  1
  O  O40  1  0.40039300  0.72037000  0.55966000  1
  O  O41  1  0.59960700  0.27963000  0.44034000  1
  O  O42  1  0.09960700  0.22037000  0.44034000  1
  O  O43  1  0.59960700  0.77963000  0.05966000  1
  O  O44  1  0.90039300  0.77963000  0.55966000  1
  O  O45  1  0.40039300  0.22037000  0.94034000  1
  O  O46  1  0.90039300  0.27963000  0.94034000  1
  O  O47  1  0.09960700  0.72037000  0.05966000  1
  O  O48  1  0.10929500  0.59434300  0.54253200  1
  O  O49  1  0.89070500  0.40565700  0.45746800  1
  O  O50  1  0.39070500  0.09434300  0.45746800  1
  O  O51  1  0.89070500  0.90565700  0.04253200  1
  O  O52  1  0.60929500  0.90565700  0.54253200  1
  O  O53  1  0.10929500  0.09434300  0.95746800  1
  O  O54  1  0.60929500  0.40565700  0.95746800  1
  O  O55  1  0.39070500  0.59434300  0.04253200  1
  O  O56  1  0.01546400  0.61684800  0.75543200  1
  O  O57  1  0.98453600  0.38315200  0.24456800  1
  O  O58  1  0.48453600  0.11684800  0.24456800  1
  O  O59  1  0.98453600  0.88315200  0.25543200  1
  O  O60  1  0.51546400  0.88315200  0.75543200  1
  O  O61  1  0.01546400  0.11684800  0.74456800  1
  O  O62  1  0.51546400  0.38315200  0.74456800  1
  O  O63  1  0.48453600  0.61684800  0.25543200  1
  O  O64  1  0.20699900  0.80997700  0.69067000  1
  O  O65  1  0.79300100  0.19002300  0.30933000  1
  O  O66  1  0.29300100  0.30997700  0.30933000  1
  O  O67  1  0.79300100  0.69002300  0.19067000  1
  O  O68  1  0.70699900  0.69002300  0.69067000  1
  O  O69  1  0.20699900  0.30997700  0.80933000  1
  O  O70  1  0.70699900  0.19002300  0.80933000  1
  O  O71  1  0.29300100  0.80997700  0.19067000  1
  O  O72  1  0.29648600  0.53913700  0.70493500  1
  O  O73  1  0.70351400  0.46086300  0.29506500  1
  O  O74  1  0.20351400  0.03913700  0.29506500  1
  O  O75  1  0.70351400  0.96086300  0.20493500  1
  O  O76  1  0.79648600  0.96086300  0.70493500  1
  O  O77  1  0.29648600  0.03913700  0.79506500  1
  O  O78  1  0.79648600  0.46086300  0.79506500  1
  O  O79  1  0.20351400  0.53913700  0.20493500  1
  O  O80  1  0.03864700  0.85475100  0.86276500  1
  O  O81  1  0.96135300  0.14524900  0.13723500  1
  O  O82  1  0.46135300  0.35475100  0.13723500  1
  O  O83  1  0.96135300  0.64524900  0.36276500  1
  O  O84  1  0.53864700  0.64524900  0.86276500  1
  O  O85  1  0.03864700  0.35475100  0.63723500  1
  O  O86  1  0.53864700  0.14524900  0.63723500  1
  O  O87  1  0.46135300  0.85475100  0.36276500  1
  O  O88  1  0.25112700  0.66551200  0.87888900  1
  O  O89  1  0.74887300  0.33448800  0.12111100  1
  O  O90  1  0.24887300  0.16551200  0.12111100  1
  O  O91  1  0.74887300  0.83448800  0.37888900  1
  O  O92  1  0.75112700  0.83448800  0.87888900  1
  O  O93  1  0.25112700  0.16551200  0.62111100  1
  O  O94  1  0.75112700  0.33448800  0.62111100  1
  O  O95  1  0.24887300  0.66551200  0.37888900  1
