# generated using pymatgen
data_LaH23C4N6(Cl2O5)2
_symmetry_space_group_name_H-M   'P 1'
_cell_length_a   6.90130800
_cell_length_b   9.51588803
_cell_length_c   16.96430901
_cell_angle_alpha   89.99685398
_cell_angle_beta   90.00187501
_cell_angle_gamma   111.26423317
_symmetry_Int_Tables_number   1
_chemical_formula_structural   LaH23C4N6(Cl2O5)2
_chemical_formula_sum   'La2 H46 C8 N12 Cl8 O20'
_cell_volume   1038.23225502
_cell_formula_units_Z   2
loop_
 _symmetry_equiv_pos_site_id
 _symmetry_equiv_pos_as_xyz
  1  'x, y, z'
loop_
 _atom_site_type_symbol
 _atom_site_label
 _atom_site_symmetry_multiplicity
 _atom_site_fract_x
 _atom_site_fract_y
 _atom_site_fract_z
 _atom_site_occupancy
  La  La0  1  0.73374500  0.00001000  0.85214600  1
  La  La1  1  0.26627800  0.99999100  0.35215600  1
  H  H2  1  0.80515800  0.64790500  0.54871000  1
  H  H3  1  0.19483100  0.35205900  0.04870200  1
  H  H4  1  0.84276100  0.64792000  0.04870700  1
  H  H5  1  0.15723900  0.35208000  0.54870200  1
  H  H6  1  0.53180200  0.40742700  0.75333900  1
  H  H7  1  0.46820300  0.59258100  0.25333300  1
  H  H8  1  0.87559700  0.40740600  0.25336300  1
  H  H9  1  0.12439600  0.59260300  0.75333900  1
  H  H10  1  0.24680000  0.20199100  0.62920000  1
  H  H11  1  0.75320200  0.79801400  0.12918800  1
  H  H12  1  0.95511900  0.20197800  0.12918200  1
  H  H13  1  0.04486700  0.79803400  0.62918900  1
  H  H14  1  0.61488800  0.45824200  0.87745300  1
  H  H15  1  0.38512100  0.54175000  0.37744400  1
  H  H16  1  0.84334800  0.45826200  0.37745500  1
  H  H17  1  0.15665800  0.54175100  0.87745000  1
  H  H18  1  0.86662900  0.90825300  0.48670300  1
  H  H19  1  0.13329400  0.09176100  0.98670100  1
  H  H20  1  0.04150700  0.90821300  0.98666900  1
  H  H21  1  0.95855100  0.09179900  0.48667700  1
  H  H22  1  0.84815200  0.80323400  0.67607100  1
  H  H23  1  0.15184300  0.19675800  0.17606500  1
  H  H24  1  0.95511900  0.80322300  0.17608400  1
  H  H25  1  0.04489400  0.19679300  0.67609000  1
  H  H26  1  0.72540800  0.47038900  0.00361700  1
  H  H27  1  0.27459200  0.52960000  0.50360600  1
  H  H28  1  0.74497600  0.47038400  0.50361000  1
  H  H29  1  0.25501400  0.52958800  0.00360400  1
  H  H30  1  0.52776400  0.55070200  0.68907000  1
  H  H31  1  0.47223200  0.44931300  0.18906600  1
  H  H32  1  0.02294600  0.55068600  0.18906700  1
  H  H33  1  0.97704900  0.44933400  0.68906400  1
  H  H34  1  0.21645300  0.08747800  0.81909700  1
  H  H35  1  0.78357900  0.91251000  0.31909900  1
  H  H36  1  0.87106500  0.08742800  0.31908100  1
  H  H37  1  0.12896800  0.91257100  0.81908600  1
  H  H38  1  0.44907400  0.08948200  0.52706000  1
  H  H39  1  0.55091400  0.91051400  0.02706900  1
  H  H40  1  0.64039800  0.08945200  0.02706200  1
  H  H41  1  0.35957400  0.91053500  0.52706000  1
  H  H42  1  0.50515400  0.90983100  0.68692100  1
  H  H43  1  0.49482100  0.09017800  0.18692500  1
  H  H44  1  0.40467200  0.90985800  0.18693300  1
  H  H45  1  0.59529600  0.09013700  0.68692400  1
  H  H46  1  0.90978600  0.00006000  0.56915300  1
  H  H47  1  0.09019400  0.99990400  0.06914800  1
  C  C48  1  0.64812300  0.62654900  0.79635700  1
  C  C49  1  0.35187600  0.37344000  0.29635100  1
  C  C50  1  0.97844200  0.62655200  0.29634900  1
  C  C51  1  0.02157200  0.37347500  0.79635100  1
  C  C52  1  0.77056200  0.66090100  0.93458900  1
  C  C53  1  0.22944100  0.33908700  0.43458100  1
  C  C54  1  0.89035700  0.66091300  0.43458700  1
  C  C55  1  0.10963900  0.33905900  0.93457500  1
  N  N56  1  0.66828500  0.57492700  0.87108400  1
  N  N57  1  0.33171800  0.42507000  0.37108700  1
  N  N58  1  0.90663700  0.57493400  0.37108700  1
  N  N59  1  0.09337100  0.42507600  0.87107600  1
  N  N60  1  0.79060700  0.58513500  0.99826800  1
  N  N61  1  0.20939400  0.41487400  0.49826500  1
  N  N62  1  0.79450600  0.58512400  0.49826800  1
  N  N63  1  0.20549900  0.41486500  0.99826500  1
  N  N64  1  0.55305800  0.51792700  0.74382500  1
  N  N65  1  0.44691900  0.48207300  0.24382600  1
  N  N66  1  0.96485500  0.51790200  0.24382600  1
  N  N67  1  0.03510600  0.48212000  0.74381600  1
  Cl  Cl68  1  0.52357000  0.22406600  0.86676300  1
  Cl  Cl69  1  0.47645900  0.77591800  0.36678400  1
  Cl  Cl70  1  0.70051600  0.22404900  0.36676000  1
  Cl  Cl71  1  0.29952500  0.77596300  0.86676700  1
  Cl  Cl72  1  0.58988000  0.26692000  0.61164000  1
  Cl  Cl73  1  0.41012700  0.73307200  0.11164800  1
  Cl  Cl74  1  0.67704100  0.26693000  0.11161600  1
  Cl  Cl75  1  0.32297200  0.73307300  0.61162700  1
  O  O76  1  0.85444700  0.00005000  0.51446200  1
  O  O77  1  0.14555000  0.99996700  0.01446100  1
  O  O78  1  0.59470200  0.99998500  0.71682700  1
  O  O79  1  0.40524400  0.00001400  0.21682300  1
  O  O80  1  0.10079500  0.19448500  0.62296000  1
  O  O81  1  0.89921200  0.80552300  0.12295000  1
  O  O82  1  0.09361300  0.19445700  0.12293800  1
  O  O83  1  0.90637900  0.80555800  0.62294400  1
  O  O84  1  0.63768200  0.99998000  0.99620400  1
  O  O85  1  0.36229400  0.00001200  0.49620500  1
  O  O86  1  0.91082200  0.99996200  0.30675000  1
  O  O87  1  0.08920200  0.00003100  0.80674900  1
  O  O88  1  0.71173000  0.76400700  0.77790500  1
  O  O89  1  0.28827300  0.23599800  0.27791300  1
  O  O90  1  0.05229100  0.76397200  0.27790400  1
  O  O91  1  0.94770600  0.23603000  0.77789200  1
  O  O92  1  0.84209300  0.80432900  0.93286600  1
  O  O93  1  0.15793100  0.19566200  0.43287000  1
  O  O94  1  0.96224500  0.80434000  0.43287400  1
  O  O95  1  0.03780300  0.19567300  0.93286600  1
