# generated using pymatgen
data_K3Al3Si3(WO3)4
_symmetry_space_group_name_H-M   'P 1'
_cell_length_a   9.45440500
_cell_length_b   9.55586282
_cell_length_c   9.61825862
_cell_angle_alpha   89.73510895
_cell_angle_beta   89.20573630
_cell_angle_gamma   89.30410139
_symmetry_Int_Tables_number   1
_chemical_formula_structural   K3Al3Si3(WO3)4
_chemical_formula_sum   'K6 Al6 Si6 W8 O24'
_cell_volume   868.80534481
_cell_formula_units_Z   2
loop_
 _symmetry_equiv_pos_site_id
 _symmetry_equiv_pos_as_xyz
  1  'x, y, z'
loop_
 _atom_site_type_symbol
 _atom_site_label
 _atom_site_symmetry_multiplicity
 _atom_site_fract_x
 _atom_site_fract_y
 _atom_site_fract_z
 _atom_site_occupancy
  K  K0  1  0.19535000  0.59155500  0.87536200  1
  K  K1  1  0.64154300  0.98316800  0.34271600  1
  K  K2  1  0.14938400  0.18881600  0.48188900  1
  K  K3  1  0.22384300  0.62208400  0.40277300  1
  K  K4  1  0.71748700  0.59949100  0.89826800  1
  K  K5  1  0.76733100  0.17790000  0.84647800  1
  Al  Al6  1  0.71831700  0.86157800  0.65742000  1
  Al  Al7  1  0.46609800  0.36074000  0.90565000  1
  Al  Al8  1  0.47191700  0.36515900  0.40326900  1
  Al  Al9  1  0.96197700  0.61828800  0.15111900  1
  Al  Al10  1  0.97730100  0.11507400  0.15055300  1
  Al  Al11  1  0.21418500  0.85890200  0.64914400  1
  Si  Si12  1  0.47189400  0.61005100  0.65035000  1
  Si  Si13  1  0.22200600  0.37096700  0.15986700  1
  Si  Si14  1  0.46988700  0.11327500  0.64479000  1
  Si  Si15  1  0.72117300  0.36218900  0.15118900  1
  Si  Si16  1  0.96453100  0.86640300  0.90519600  1
  Si  Si17  1  0.97244800  0.87672600  0.40534300  1
  W  W18  1  0.83446600  0.58049700  0.43246300  1
  W  W19  1  0.32235400  0.05705300  0.19704500  1
  W  W20  1  0.95606400  0.45060000  0.67812800  1
  W  W21  1  0.10936400  0.22551900  0.83630000  1
  W  W22  1  0.34984400  0.01795500  0.90247500  1
  W  W23  1  0.63016500  0.91182000  0.00404900  1
  W  W24  1  0.37496600  0.76611600  0.10460300  1
  W  W25  1  0.78617800  0.26702600  0.48453100  1
  O  O26  1  0.32551600  0.70802300  0.64811200  1
  O  O27  1  0.61976900  0.36476000  0.01249500  1
  O  O28  1  0.62903500  0.33397800  0.29851700  1
  O  O29  1  0.61187800  0.71120000  0.65699500  1
  O  O30  1  0.80362500  0.51522100  0.16171300  1
  O  O31  1  0.95962800  0.73272400  0.30416500  1
  O  O32  1  0.83614500  0.87002100  0.51245900  1
  O  O33  1  0.32835900  0.01005600  0.66721700  1
  O  O34  1  0.31950400  0.38071300  0.29939100  1
  O  O35  1  0.80485400  0.87764600  0.82518600  1
  O  O36  1  0.12220000  0.87603300  0.48986500  1
  O  O37  1  0.47406900  0.51579300  0.50821000  1
  O  O38  1  0.46885100  0.50568500  0.78888900  1
  O  O39  1  0.96103200  0.72245800  0.99963300  1
  O  O40  1  0.44826500  0.21170200  0.50901300  1
  O  O41  1  0.46856500  0.20147800  0.79631300  1
  O  O42  1  0.96060100  0.01432000  0.30520000  1
  O  O43  1  0.97334600  0.00804000  0.99997500  1
  O  O44  1  0.61066600  0.01434800  0.63378500  1
  O  O45  1  0.09022200  0.85130300  0.78781500  1
  O  O46  1  0.83552500  0.23417400  0.13496100  1
  O  O47  1  0.31671100  0.37392500  0.01601000  1
  O  O48  1  0.13885800  0.21600300  0.18041800  1
  O  O49  1  0.10930300  0.50284000  0.15759500  1
