# generated using pymatgen
data_InS2NO8
_symmetry_space_group_name_H-M   'P 1'
_cell_length_a   4.96153941
_cell_length_b   4.96153941
_cell_length_c   8.92500071
_cell_angle_alpha   73.86166952
_cell_angle_beta   73.86166952
_cell_angle_gamma   60.00000787
_symmetry_Int_Tables_number   1
_chemical_formula_structural   InS2NO8
_chemical_formula_sum   'In1 S2 N1 O8'
_cell_volume   180.20411969
_cell_formula_units_Z   1
loop_
 _symmetry_equiv_pos_site_id
 _symmetry_equiv_pos_as_xyz
  1  'x, y, z'
loop_
 _atom_site_type_symbol
 _atom_site_label
 _atom_site_symmetry_multiplicity
 _atom_site_fract_x
 _atom_site_fract_y
 _atom_site_fract_z
 _atom_site_occupancy
  In  In0  1  0.00000000  0.00000000  0.00000000  1
  S  S1  1  0.74017200  0.74017200  0.77948500  1
  S  S2  1  0.25982800  0.25982800  0.22051500  1
  N  N3  1  0.50000000  0.50000000  0.50000000  1
  O  O4  1  0.57407900  0.25878000  0.15888100  1
  O  O5  1  0.00826000  0.57407900  0.15888100  1
  O  O6  1  0.99174000  0.74122000  0.84111900  1
  O  O7  1  0.25878000  0.00826000  0.15888100  1
  O  O8  1  0.74122000  0.42592100  0.84111900  1
  O  O9  1  0.42592100  0.99174000  0.84111900  1
  O  O10  1  0.79778600  0.79778600  0.60664300  1
  O  O11  1  0.20221400  0.20221400  0.39335700  1
