# generated using pymatgen
data_Dy2CoPtO6
_symmetry_space_group_name_H-M   'P 1'
_cell_length_a   5.77352500
_cell_length_b   5.33552600
_cell_length_c   9.34750313
_cell_angle_alpha   55.40993447
_cell_angle_beta   90.00000000
_cell_angle_gamma   90.00000000
_symmetry_Int_Tables_number   1
_chemical_formula_structural   Dy2CoPtO6
_chemical_formula_sum   'Dy4 Co2 Pt2 O12'
_cell_volume   237.04873312
_cell_formula_units_Z   2
loop_
 _symmetry_equiv_pos_site_id
 _symmetry_equiv_pos_as_xyz
  1  'x, y, z'
loop_
 _atom_site_type_symbol
 _atom_site_label
 _atom_site_symmetry_multiplicity
 _atom_site_fract_x
 _atom_site_fract_y
 _atom_site_fract_z
 _atom_site_occupancy
  Dy  Dy0  1  0.07567500  0.72284500  0.75167100  1
  Dy  Dy1  1  0.92432500  0.27715500  0.24832900  1
  Dy  Dy2  1  0.57567500  0.27715500  0.74832900  1
  Dy  Dy3  1  0.42432500  0.72284500  0.25167100  1
  Co  Co4  1  0.50000000  0.50000000  0.00000000  1
  Co  Co5  1  0.00000000  0.50000000  0.50000000  1
  Pt  Pt6  1  0.50000000  0.00000000  0.50000000  1
  Pt  Pt7  1  0.00000000  0.00000000  0.00000000  1
  O  O8  1  0.44932600  0.87774100  0.74943500  1
  O  O9  1  0.55067400  0.12225900  0.25056500  1
  O  O10  1  0.94932600  0.12225900  0.75056500  1
  O  O11  1  0.05067400  0.87774100  0.24943500  1
  O  O12  1  0.80231900  0.75052700  0.56625700  1
  O  O13  1  0.19768100  0.24947300  0.43374300  1
  O  O14  1  0.30231900  0.24947300  0.93374300  1
  O  O15  1  0.69768100  0.75052700  0.06625700  1
  O  O16  1  0.31056700  0.62634600  0.55839600  1
  O  O17  1  0.68943300  0.37365400  0.44160400  1
  O  O18  1  0.81056700  0.37365400  0.94160400  1
  O  O19  1  0.18943300  0.62634600  0.05839600  1
