# generated using pymatgen
data_CsHo(MoO4)2
_symmetry_space_group_name_H-M   'P 1'
_cell_length_a   7.58234464
_cell_length_b   7.58234464
_cell_length_c   7.76981746
_cell_angle_alpha   62.09266781
_cell_angle_beta   62.09266781
_cell_angle_gamma   88.72318668
_symmetry_Int_Tables_number   1
_chemical_formula_structural   CsHo(MoO4)2
_chemical_formula_sum   'Cs2 Ho2 Mo4 O16'
_cell_volume   337.58903475
_cell_formula_units_Z   2
loop_
 _symmetry_equiv_pos_site_id
 _symmetry_equiv_pos_as_xyz
  1  'x, y, z'
loop_
 _atom_site_type_symbol
 _atom_site_label
 _atom_site_symmetry_multiplicity
 _atom_site_fract_x
 _atom_site_fract_y
 _atom_site_fract_z
 _atom_site_occupancy
  Cs  Cs0  1  0.19697600  0.80302400  0.75000000  1
  Cs  Cs1  1  0.80302400  0.19697600  0.25000000  1
  Ho  Ho2  1  0.77063600  0.22936400  0.75000000  1
  Ho  Ho3  1  0.22936400  0.77063600  0.25000000  1
  Mo  Mo4  1  0.69653200  0.69316200  0.76640400  1
  Mo  Mo5  1  0.30346800  0.30683800  0.23359600  1
  Mo  Mo6  1  0.30683800  0.30346800  0.73359600  1
  Mo  Mo7  1  0.69316200  0.69653200  0.26640400  1
  O  O8  1  0.61697000  0.75890400  0.56578400  1
  O  O9  1  0.38303000  0.24109600  0.43421600  1
  O  O10  1  0.24109600  0.38303000  0.93421600  1
  O  O11  1  0.75890400  0.61697000  0.06578400  1
  O  O12  1  0.38144000  0.06773400  0.87721000  1
  O  O13  1  0.61856000  0.93226600  0.12279000  1
  O  O14  1  0.93226600  0.61856000  0.62279000  1
  O  O15  1  0.06773400  0.38144000  0.37721000  1
  O  O16  1  0.58566700  0.36853700  0.96617400  1
  O  O17  1  0.41433300  0.63146300  0.03382600  1
  O  O18  1  0.63146300  0.41433300  0.53382600  1
  O  O19  1  0.36853700  0.58566700  0.46617400  1
  O  O20  1  0.78795200  0.94936300  0.69875300  1
  O  O21  1  0.21204800  0.05063700  0.30124700  1
  O  O22  1  0.05063700  0.21204800  0.80124700  1
  O  O23  1  0.94936300  0.78795200  0.19875300  1
