# generated using pymatgen
data_Ho4Mn
_symmetry_space_group_name_H-M   'P 1'
_cell_length_a   7.34001588
_cell_length_b   7.34001588
_cell_length_c   7.34001588
_cell_angle_alpha   60.00000000
_cell_angle_beta   60.00000000
_cell_angle_gamma   60.00000000
_symmetry_Int_Tables_number   1
_chemical_formula_structural   Ho4Mn
_chemical_formula_sum   'Ho8 Mn2'
_cell_volume   279.62500186
_cell_formula_units_Z   2
loop_
 _symmetry_equiv_pos_site_id
 _symmetry_equiv_pos_as_xyz
  1  'x, y, z'
loop_
 _atom_site_type_symbol
 _atom_site_label
 _atom_site_symmetry_multiplicity
 _atom_site_fract_x
 _atom_site_fract_y
 _atom_site_fract_z
 _atom_site_occupancy
  Ho  Ho0  1  0.38659600  0.38659600  0.38659600  1
  Ho  Ho1  1  0.38659600  0.38659600  0.84021300  1
  Ho  Ho2  1  0.38659600  0.84021300  0.38659600  1
  Ho  Ho3  1  0.86340400  0.86340400  0.40978700  1
  Ho  Ho4  1  0.86340400  0.86340400  0.86340400  1
  Ho  Ho5  1  0.84021300  0.38659600  0.38659600  1
  Ho  Ho6  1  0.86340400  0.40978700  0.86340400  1
  Ho  Ho7  1  0.40978700  0.86340400  0.86340400  1
  Mn  Mn8  1  0.00000000  0.00000000  0.00000000  1
  Mn  Mn9  1  0.25000000  0.25000000  0.25000000  1
