# generated using pymatgen
data_KNa3W2O17
_symmetry_space_group_name_H-M   'P 1'
_cell_length_a   9.03005609
_cell_length_b   9.03005609
_cell_length_c   11.22912100
_cell_angle_alpha   90.00000000
_cell_angle_beta   90.00000000
_cell_angle_gamma   120.00000068
_symmetry_Int_Tables_number   1
_chemical_formula_structural   KNa3W2O17
_chemical_formula_sum   'K2 Na6 W4 O34'
_cell_volume   792.97096632
_cell_formula_units_Z   2
loop_
 _symmetry_equiv_pos_site_id
 _symmetry_equiv_pos_as_xyz
  1  'x, y, z'
loop_
 _atom_site_type_symbol
 _atom_site_label
 _atom_site_symmetry_multiplicity
 _atom_site_fract_x
 _atom_site_fract_y
 _atom_site_fract_z
 _atom_site_occupancy
  K  K0  1  0.00000000  0.00000000  0.75000000  1
  K  K1  1  0.00000000  0.00000000  0.25000000  1
  Na  Na2  1  0.67918500  0.13146500  0.75000000  1
  Na  Na3  1  0.32081500  0.86853500  0.25000000  1
  Na  Na4  1  0.45227900  0.32081500  0.75000000  1
  Na  Na5  1  0.54772100  0.67918500  0.25000000  1
  Na  Na6  1  0.86853500  0.54772100  0.75000000  1
  Na  Na7  1  0.13146500  0.45227900  0.25000000  1
  W  W8  1  0.66666700  0.33333300  0.45966200  1
  W  W9  1  0.33333300  0.66666700  0.54033800  1
  W  W10  1  0.33333300  0.66666700  0.95966200  1
  W  W11  1  0.66666700  0.33333300  0.04033800  1
  O  O12  1  0.75841000  0.99747800  0.90053600  1
  O  O13  1  0.24159000  0.00252200  0.09946400  1
  O  O14  1  0.23906800  0.24159000  0.90053600  1
  O  O15  1  0.24159000  0.00252200  0.40053600  1
  O  O16  1  0.76093200  0.75841000  0.09946400  1
  O  O17  1  0.75841000  0.99747800  0.59946400  1
  O  O18  1  0.00252200  0.76093200  0.90053600  1
  O  O19  1  0.76093200  0.75841000  0.40053600  1
  O  O20  1  0.99747800  0.23906800  0.09946400  1
  O  O21  1  0.23906800  0.24159000  0.59946400  1
  O  O22  1  0.99747800  0.23906800  0.40053600  1
  O  O23  1  0.00252200  0.76093200  0.59946400  1
  O  O24  1  0.00350000  0.37266700  0.75000000  1
  O  O25  1  0.99650000  0.62733300  0.25000000  1
  O  O26  1  0.36916700  0.99650000  0.75000000  1
  O  O27  1  0.63083300  0.00350000  0.25000000  1
  O  O28  1  0.62733300  0.63083300  0.75000000  1
  O  O29  1  0.37266700  0.36916700  0.25000000  1
  O  O30  1  0.54758400  0.72591100  0.90842700  1
  O  O31  1  0.45241600  0.27408900  0.09157300  1
  O  O32  1  0.17832700  0.45241600  0.90842700  1
  O  O33  1  0.45241600  0.27408900  0.40842700  1
  O  O34  1  0.82167300  0.54758400  0.09157300  1
  O  O35  1  0.54758400  0.72591100  0.59157300  1
  O  O36  1  0.27408900  0.82167300  0.90842700  1
  O  O37  1  0.82167300  0.54758400  0.40842700  1
  O  O38  1  0.72591100  0.17832700  0.09157300  1
  O  O39  1  0.17832700  0.45241600  0.59157300  1
  O  O40  1  0.72591100  0.17832700  0.40842700  1
  O  O41  1  0.27408900  0.82167300  0.59157300  1
  O  O42  1  0.66666700  0.33333300  0.87882500  1
  O  O43  1  0.33333300  0.66666700  0.12117500  1
  O  O44  1  0.33333300  0.66666700  0.37882500  1
  O  O45  1  0.66666700  0.33333300  0.62117500  1
