# generated using pymatgen
data_H7C2SN5O3
_symmetry_space_group_name_H-M   'P 1'
_cell_length_a   8.41502900
_cell_length_b   11.40120237
_cell_length_c   10.40073488
_cell_angle_alpha   117.04340506
_cell_angle_beta   90.00000000
_cell_angle_gamma   90.00000000
_symmetry_Int_Tables_number   1
_chemical_formula_structural   H7C2SN5O3
_chemical_formula_sum   'H28 C8 S4 N20 O12'
_cell_volume   888.75772467
_cell_formula_units_Z   4
loop_
 _symmetry_equiv_pos_site_id
 _symmetry_equiv_pos_as_xyz
  1  'x, y, z'
loop_
 _atom_site_type_symbol
 _atom_site_label
 _atom_site_symmetry_multiplicity
 _atom_site_fract_x
 _atom_site_fract_y
 _atom_site_fract_z
 _atom_site_occupancy
  H  H0  1  0.55349800  0.48125700  0.37400900  1
  H  H1  1  0.44650200  0.51874300  0.62599100  1
  H  H2  1  0.05349800  0.01874300  0.12599100  1
  H  H3  1  0.94650200  0.98125700  0.87400900  1
  H  H4  1  0.61179400  0.88858700  0.64206700  1
  H  H5  1  0.38820600  0.11141300  0.35793300  1
  H  H6  1  0.11179400  0.61141300  0.85793300  1
  H  H7  1  0.88820600  0.38858700  0.14206700  1
  H  H8  1  0.46921100  0.92185800  0.78564600  1
  H  H9  1  0.53078900  0.07814200  0.21435400  1
  H  H10  1  0.96921100  0.57814200  0.71435400  1
  H  H11  1  0.03078900  0.42185800  0.28564600  1
  H  H12  1  0.43891800  0.56665600  0.81222400  1
  H  H13  1  0.56108200  0.43334400  0.18777600  1
  H  H14  1  0.93891800  0.93334400  0.68777600  1
  H  H15  1  0.06108200  0.06665600  0.31222400  1
  H  H16  1  0.18614800  0.31133900  0.87531000  1
  H  H17  1  0.81385200  0.68866100  0.12469000  1
  H  H18  1  0.68614800  0.18866100  0.62469000  1
  H  H19  1  0.31385200  0.81133900  0.37531000  1
  H  H20  1  0.98354900  0.30372000  0.90468900  1
  H  H21  1  0.01645100  0.69628000  0.09531100  1
  H  H22  1  0.48354900  0.19628000  0.59531100  1
  H  H23  1  0.51645100  0.80372000  0.40468900  1
  H  H24  1  0.13878100  0.85544300  0.55211600  1
  H  H25  1  0.86121900  0.14455700  0.44788400  1
  H  H26  1  0.63878100  0.64455700  0.94788400  1
  H  H27  1  0.36121900  0.35544300  0.05211600  1
  C  C28  1  0.37821100  0.86503600  0.58715200  1
  C  C29  1  0.62178900  0.13496400  0.41284800  1
  C  C30  1  0.87821100  0.63496400  0.91284800  1
  C  C31  1  0.12178900  0.36503600  0.08715200  1
  C  C32  1  0.16219000  0.93080700  0.77327400  1
  C  C33  1  0.83781000  0.06919300  0.22672600  1
  C  C34  1  0.66219000  0.56919300  0.72672600  1
  C  C35  1  0.33781000  0.43080700  0.27327400  1
  S  S36  1  0.26834300  0.95932300  0.92219200  1
  S  S37  1  0.73165700  0.04067700  0.07780800  1
  S  S38  1  0.76834300  0.54067700  0.57780800  1
  S  S39  1  0.23165700  0.45932300  0.42219200  1
  N  N40  1  0.09657100  0.32275200  0.94636200  1
  N  N41  1  0.90342900  0.67724800  0.05363800  1
  N  N42  1  0.59657100  0.17724800  0.55363800  1
  N  N43  1  0.40342900  0.82275200  0.44636200  1
  N  N44  1  0.49815300  0.88889700  0.67825800  1
  N  N45  1  0.50184700  0.11110300  0.32174200  1
  N  N46  1  0.99815300  0.61110300  0.82174200  1
  N  N47  1  0.00184700  0.38889700  0.17825800  1
  N  N48  1  0.22317500  0.88283000  0.63352800  1
  N  N49  1  0.77682500  0.11717000  0.36647200  1
  N  N50  1  0.72317500  0.61717000  0.86647200  1
  N  N51  1  0.27682500  0.38283000  0.13352800  1
  N  N52  1  0.15933900  0.19124200  0.56898900  1
  N  N53  1  0.84066100  0.80875800  0.43101100  1
  N  N54  1  0.65933900  0.30875800  0.93101100  1
  N  N55  1  0.34066100  0.69124200  0.06898900  1
  N  N56  1  0.00594900  0.95168000  0.77854600  1
  N  N57  1  0.99405100  0.04832000  0.22145400  1
  N  N58  1  0.50594900  0.54832000  0.72145400  1
  N  N59  1  0.49405100  0.45168000  0.27854600  1
  O  O60  1  0.26414900  0.24654700  0.66487300  1
  O  O61  1  0.73585100  0.75345300  0.33512700  1
  O  O62  1  0.76414900  0.25345300  0.83512700  1
  O  O63  1  0.23585100  0.74654700  0.16487300  1
  O  O64  1  0.29722900  0.60477500  0.94311200  1
  O  O65  1  0.70277100  0.39522500  0.05688800  1
  O  O66  1  0.79722900  0.89522500  0.55688800  1
  O  O67  1  0.20277100  0.10477500  0.44311200  1
  O  O68  1  0.51410300  0.28150300  0.90460200  1
  O  O69  1  0.48589700  0.71849700  0.09539800  1
  O  O70  1  0.01410300  0.21849700  0.59539800  1
  O  O71  1  0.98589700  0.78150300  0.40460200  1
