# generated using pymatgen
data_NaEu(ReO5)4
_symmetry_space_group_name_H-M   'P 1'
_cell_length_a   12.64828400
_cell_length_b   12.64828400
_cell_length_c   5.86272900
_cell_angle_alpha   90.00000000
_cell_angle_beta   90.00000000
_cell_angle_gamma   90.00000000
_symmetry_Int_Tables_number   1
_chemical_formula_structural   NaEu(ReO5)4
_chemical_formula_sum   'Na2 Eu2 Re8 O40'
_cell_volume   937.91403946
_cell_formula_units_Z   2
loop_
 _symmetry_equiv_pos_site_id
 _symmetry_equiv_pos_as_xyz
  1  'x, y, z'
loop_
 _atom_site_type_symbol
 _atom_site_label
 _atom_site_symmetry_multiplicity
 _atom_site_fract_x
 _atom_site_fract_y
 _atom_site_fract_z
 _atom_site_occupancy
  Na  Na0  1  0.00000000  0.00000000  0.00000000  1
  Na  Na1  1  0.50000000  0.50000000  0.50000000  1
  Eu  Eu2  1  0.00000000  0.50000000  0.25000000  1
  Eu  Eu3  1  0.50000000  0.00000000  0.75000000  1
  Re  Re4  1  0.40930900  0.71516200  0.01964700  1
  Re  Re5  1  0.59069100  0.28483800  0.01964700  1
  Re  Re6  1  0.28483800  0.40930900  0.98035300  1
  Re  Re7  1  0.90930900  0.78483800  0.51964700  1
  Re  Re8  1  0.71516200  0.59069100  0.98035300  1
  Re  Re9  1  0.09069100  0.21516200  0.51964700  1
  Re  Re10  1  0.78483800  0.09069100  0.48035300  1
  Re  Re11  1  0.21516200  0.90930900  0.48035300  1
  O  O12  1  0.18419100  0.95146800  0.20519400  1
  O  O13  1  0.81580900  0.04853200  0.20519400  1
  O  O14  1  0.04853200  0.18419100  0.79480600  1
  O  O15  1  0.68419100  0.54853200  0.70519400  1
  O  O16  1  0.95146800  0.81580900  0.79480600  1
  O  O17  1  0.31580900  0.45146800  0.70519400  1
  O  O18  1  0.54853200  0.31580900  0.29480600  1
  O  O19  1  0.45146800  0.68419100  0.29480600  1
  O  O20  1  0.36450600  0.47481500  0.17748400  1
  O  O21  1  0.63549400  0.52518500  0.17748400  1
  O  O22  1  0.52518500  0.36450600  0.82251600  1
  O  O23  1  0.86450600  0.02518500  0.67748400  1
  O  O24  1  0.47481500  0.63549400  0.82251600  1
  O  O25  1  0.13549400  0.97481500  0.67748400  1
  O  O26  1  0.02518500  0.13549400  0.32251600  1
  O  O27  1  0.97481500  0.86450600  0.32251600  1
  O  O28  1  0.14773700  0.43606900  0.03795400  1
  O  O29  1  0.85226300  0.56393100  0.03795400  1
  O  O30  1  0.56393100  0.14773700  0.96204600  1
  O  O31  1  0.64773700  0.06393100  0.53795400  1
  O  O32  1  0.43606900  0.85226300  0.96204600  1
  O  O33  1  0.35226300  0.93606900  0.53795400  1
  O  O34  1  0.06393100  0.35226300  0.46204600  1
  O  O35  1  0.93606900  0.64773700  0.46204600  1
  O  O36  1  0.19049300  0.77431400  0.50031900  1
  O  O37  1  0.80950700  0.22568600  0.50031900  1
  O  O38  1  0.22568600  0.19049300  0.49968100  1
  O  O39  1  0.69049300  0.72568600  0.00031900  1
  O  O40  1  0.77431400  0.80950700  0.49968100  1
  O  O41  1  0.30950700  0.27431400  0.00031900  1
  O  O42  1  0.72568600  0.30950700  0.99968100  1
  O  O43  1  0.27431400  0.69049300  0.99968100  1
  O  O44  1  0.06356500  0.64439400  0.03450700  1
  O  O45  1  0.93643500  0.35560600  0.03450700  1
  O  O46  1  0.35560600  0.06356500  0.96549300  1
  O  O47  1  0.56356500  0.85560600  0.53450700  1
  O  O48  1  0.64439400  0.93643500  0.96549300  1
  O  O49  1  0.43643500  0.14439400  0.53450700  1
  O  O50  1  0.85560600  0.43643500  0.46549300  1
  O  O51  1  0.14439400  0.56356500  0.46549300  1
