# generated using pymatgen
data_K2Mo2O15
_symmetry_space_group_name_H-M   'P 1'
_cell_length_a   6.51033100
_cell_length_b   9.77819485
_cell_length_c   13.58722389
_cell_angle_alpha   95.18232371
_cell_angle_beta   102.65484710
_cell_angle_gamma   108.87188633
_symmetry_Int_Tables_number   1
_chemical_formula_structural   K2Mo2O15
_chemical_formula_sum   'K4 Mo4 O30'
_cell_volume   786.30997132
_cell_formula_units_Z   2
loop_
 _symmetry_equiv_pos_site_id
 _symmetry_equiv_pos_as_xyz
  1  'x, y, z'
loop_
 _atom_site_type_symbol
 _atom_site_label
 _atom_site_symmetry_multiplicity
 _atom_site_fract_x
 _atom_site_fract_y
 _atom_site_fract_z
 _atom_site_occupancy
  K  K0  1  0.80851300  0.23576800  0.97886800  1
  K  K1  1  0.19148700  0.76423200  0.02113200  1
  K  K2  1  0.45711200  0.21212300  0.63110400  1
  K  K3  1  0.54288800  0.78787700  0.36889600  1
  Mo  Mo4  1  0.58584400  0.63086500  0.82607300  1
  Mo  Mo5  1  0.41415600  0.36913500  0.17392700  1
  Mo  Mo6  1  0.05985600  0.03970900  0.24358400  1
  Mo  Mo7  1  0.94014400  0.96029100  0.75641600  1
  O  O8  1  0.16365400  0.23552500  0.21354200  1
  O  O9  1  0.83634600  0.76447500  0.78645800  1
  O  O10  1  0.09935300  0.64552700  0.44475500  1
  O  O11  1  0.90064700  0.35447300  0.55524500  1
  O  O12  1  0.86156000  0.98434200  0.31411100  1
  O  O13  1  0.13844000  0.01565800  0.68588900  1
  O  O14  1  0.06064700  0.51141900  0.23681200  1
  O  O15  1  0.93935300  0.48858100  0.76318800  1
  O  O16  1  0.01110600  0.28883000  0.52258100  1
  O  O17  1  0.98889400  0.71117000  0.47741900  1
  O  O18  1  0.33159500  0.66372300  0.86687200  1
  O  O19  1  0.66840500  0.33627700  0.13312800  1
  O  O20  1  0.88657200  0.37331300  0.79868500  1
  O  O21  1  0.11342800  0.62668700  0.20131500  1
  O  O22  1  0.46517600  0.48017200  0.72553400  1
  O  O23  1  0.53482400  0.51982800  0.27446600  1
  O  O24  1  0.31548600  0.12311500  0.91264100  1
  O  O25  1  0.68451400  0.87688500  0.08735900  1
  O  O26  1  0.17575900  0.98508500  0.89760700  1
  O  O27  1  0.82424100  0.01491500  0.10239300  1
  O  O28  1  0.82554900  0.08690500  0.79708900  1
  O  O29  1  0.17445100  0.91309500  0.20291100  1
  O  O30  1  0.32343700  0.14905000  0.37676500  1
  O  O31  1  0.67656300  0.85095000  0.62323500  1
  O  O32  1  0.46273600  0.79407900  0.83166400  1
  O  O33  1  0.53726400  0.20592100  0.16833600  1
  O  O34  1  0.65656400  0.95316800  0.56725400  1
  O  O35  1  0.34343600  0.04683200  0.43274600  1
  O  O36  1  0.26566300  0.41360300  0.06489000  1
  O  O37  1  0.73433700  0.58639700  0.93511000  1
