# generated using pymatgen
data_FeBi6P2(O7F)2
_symmetry_space_group_name_H-M   'P 1'
_cell_length_a   8.85261922
_cell_length_b   8.85261922
_cell_length_c   16.98132082
_cell_angle_alpha   71.05422325
_cell_angle_beta   71.05422325
_cell_angle_gamma   36.86969298
_symmetry_Int_Tables_number   1
_chemical_formula_structural   FeBi6P2(O7F)2
_chemical_formula_sum   'Fe2 Bi12 P4 O28 F4'
_cell_volume   750.26348725
_cell_formula_units_Z   2
loop_
 _symmetry_equiv_pos_site_id
 _symmetry_equiv_pos_as_xyz
  1  'x, y, z'
loop_
 _atom_site_type_symbol
 _atom_site_label
 _atom_site_symmetry_multiplicity
 _atom_site_fract_x
 _atom_site_fract_y
 _atom_site_fract_z
 _atom_site_occupancy
  Fe  Fe0  1  0.00000000  0.00000000  0.00000000  1
  Fe  Fe1  1  0.00000000  0.00000000  0.50000000  1
  Bi  Bi2  1  0.88925000  0.89022300  0.32684400  1
  Bi  Bi3  1  0.11075000  0.10977700  0.67315600  1
  Bi  Bi4  1  0.10977700  0.11075000  0.17315600  1
  Bi  Bi5  1  0.89022300  0.88925000  0.82684400  1
  Bi  Bi6  1  0.76736500  0.83445200  0.16578200  1
  Bi  Bi7  1  0.23263500  0.16554800  0.83421800  1
  Bi  Bi8  1  0.16554800  0.23263500  0.33421800  1
  Bi  Bi9  1  0.83445200  0.76736500  0.66578200  1
  Bi  Bi10  1  0.57211500  0.55112900  0.32705300  1
  Bi  Bi11  1  0.42788500  0.44887100  0.67294700  1
  Bi  Bi12  1  0.44887100  0.42788500  0.17294700  1
  Bi  Bi13  1  0.55112900  0.57211500  0.82705300  1
  P  P14  1  0.63414600  0.65408000  0.99621200  1
  P  P15  1  0.36585400  0.34592000  0.00378800  1
  P  P16  1  0.34592000  0.36585400  0.50378800  1
  P  P17  1  0.65408000  0.63414600  0.49621200  1
  O  O18  1  0.82780500  0.05443400  0.11491000  1
  O  O19  1  0.17219500  0.94556600  0.88509000  1
  O  O20  1  0.94556600  0.17219500  0.38509000  1
  O  O21  1  0.05443400  0.82780500  0.61491000  1
  O  O22  1  0.21673000  0.78327000  0.25000000  1
  O  O23  1  0.78327000  0.21673000  0.75000000  1
  O  O24  1  0.71442800  0.28557200  0.25000000  1
  O  O25  1  0.28557200  0.71442800  0.75000000  1
  O  O26  1  0.61889600  0.18072000  0.51457200  1
  O  O27  1  0.38110400  0.81928000  0.48542800  1
  O  O28  1  0.81928000  0.38110400  0.98542800  1
  O  O29  1  0.18072000  0.61889600  0.01457200  1
  O  O30  1  0.38091100  0.79065800  0.04980400  1
  O  O31  1  0.61908900  0.20934200  0.95019600  1
  O  O32  1  0.20934200  0.61908900  0.45019600  1
  O  O33  1  0.79065800  0.38091100  0.54980400  1
  O  O34  1  0.38402700  0.19623200  0.08629200  1
  O  O35  1  0.61597300  0.80376800  0.91370800  1
  O  O36  1  0.80376800  0.61597300  0.41370800  1
  O  O37  1  0.19623200  0.38402700  0.58629200  1
  O  O38  1  0.40307800  0.93344200  0.24283100  1
  O  O39  1  0.59692200  0.06655800  0.75716900  1
  O  O40  1  0.06655800  0.59692200  0.25716900  1
  O  O41  1  0.93344200  0.40307800  0.74283100  1
  O  O42  1  0.56258400  0.09822900  0.25895200  1
  O  O43  1  0.43741600  0.90177100  0.74104800  1
  O  O44  1  0.90177100  0.43741600  0.24104800  1
  O  O45  1  0.09822900  0.56258400  0.75895200  1
  F  F46  1  0.36731900  0.23359700  0.44592600  1
  F  F47  1  0.63268100  0.76640300  0.55407400  1
  F  F48  1  0.76640300  0.63268100  0.05407400  1
  F  F49  1  0.23359700  0.36731900  0.94592600  1
