# generated using pymatgen
data_MgH6S2O3
_symmetry_space_group_name_H-M   'P 1'
_cell_length_a   5.85637300
_cell_length_b   16.83756700
_cell_length_c   8.04839500
_cell_angle_alpha   90.00000000
_cell_angle_beta   90.00000000
_cell_angle_gamma   90.00000000
_symmetry_Int_Tables_number   1
_chemical_formula_structural   MgH6S2O3
_chemical_formula_sum   'Mg4 H24 S8 O12'
_cell_volume   793.62867140
_cell_formula_units_Z   4
loop_
 _symmetry_equiv_pos_site_id
 _symmetry_equiv_pos_as_xyz
  1  'x, y, z'
loop_
 _atom_site_type_symbol
 _atom_site_label
 _atom_site_symmetry_multiplicity
 _atom_site_fract_x
 _atom_site_fract_y
 _atom_site_fract_z
 _atom_site_occupancy
  Mg  Mg0  1  0.00000000  0.00000000  0.00000000  1
  Mg  Mg1  1  0.50000000  0.50000000  0.00000000  1
  Mg  Mg2  1  0.00000000  0.00000000  0.50000000  1
  Mg  Mg3  1  0.50000000  0.50000000  0.50000000  1
  H  H4  1  0.39159100  0.22302300  0.53804200  1
  H  H5  1  0.60840900  0.77697700  0.46195800  1
  H  H6  1  0.89159100  0.27697700  0.46195800  1
  H  H7  1  0.60840900  0.77697700  0.03804200  1
  H  H8  1  0.10840900  0.72302300  0.53804200  1
  H  H9  1  0.39159100  0.22302300  0.96195800  1
  H  H10  1  0.10840900  0.72302300  0.96195800  1
  H  H11  1  0.89159100  0.27697700  0.03804200  1
  H  H12  1  0.34161900  0.32703600  0.13199100  1
  H  H13  1  0.65838100  0.67296400  0.86800900  1
  H  H14  1  0.84161900  0.17296400  0.86800900  1
  H  H15  1  0.65838100  0.67296400  0.63199100  1
  H  H16  1  0.15838100  0.82703600  0.13199100  1
  H  H17  1  0.34161900  0.32703600  0.36800900  1
  H  H18  1  0.15838100  0.82703600  0.36800900  1
  H  H19  1  0.84161900  0.17296400  0.63199100  1
  H  H20  1  0.64355200  0.74441900  0.09619200  1
  H  H21  1  0.35644800  0.25558100  0.90380800  1
  H  H22  1  0.14355200  0.75558100  0.90380800  1
  H  H23  1  0.35644800  0.25558100  0.59619200  1
  H  H24  1  0.85644800  0.24441900  0.09619200  1
  H  H25  1  0.64355200  0.74441900  0.40380800  1
  H  H26  1  0.85644800  0.24441900  0.40380800  1
  H  H27  1  0.14355200  0.75558100  0.59619200  1
  S  S28  1  0.29869900  0.01704100  0.25000000  1
  S  S29  1  0.70130100  0.98295900  0.75000000  1
  S  S30  1  0.79869900  0.48295900  0.75000000  1
  S  S31  1  0.20130100  0.51704100  0.25000000  1
  S  S32  1  0.49524600  0.30874200  0.25000000  1
  S  S33  1  0.50475400  0.69125800  0.75000000  1
  S  S34  1  0.99524600  0.19125800  0.75000000  1
  S  S35  1  0.00475400  0.80874200  0.25000000  1
  O  O36  1  0.20299300  0.46471900  0.09330400  1
  O  O37  1  0.79700700  0.53528100  0.90669600  1
  O  O38  1  0.70299300  0.03528100  0.90669600  1
  O  O39  1  0.79700700  0.53528100  0.59330400  1
  O  O40  1  0.29700700  0.96471900  0.09330400  1
  O  O41  1  0.20299300  0.46471900  0.40669600  1
  O  O42  1  0.29700700  0.96471900  0.40669600  1
  O  O43  1  0.70299300  0.03528100  0.59330400  1
  O  O44  1  0.03250900  0.04413000  0.25000000  1
  O  O45  1  0.96749100  0.95587000  0.75000000  1
  O  O46  1  0.53250900  0.45587000  0.75000000  1
  O  O47  1  0.46749100  0.54413000  0.25000000  1
