# generated using pymatgen
data_K2CoO3
_symmetry_space_group_name_H-M   'P 1'
_cell_length_a   6.44946680
_cell_length_b   6.44946680
_cell_length_c   12.80733500
_cell_angle_alpha   90.00000000
_cell_angle_beta   90.00000000
_cell_angle_gamma   126.08396916
_symmetry_Int_Tables_number   1
_chemical_formula_structural   K2CoO3
_chemical_formula_sum   'K8 Co4 O12'
_cell_volume   430.52750047
_cell_formula_units_Z   4
loop_
 _symmetry_equiv_pos_site_id
 _symmetry_equiv_pos_as_xyz
  1  'x, y, z'
loop_
 _atom_site_type_symbol
 _atom_site_label
 _atom_site_symmetry_multiplicity
 _atom_site_fract_x
 _atom_site_fract_y
 _atom_site_fract_z
 _atom_site_occupancy
  K  K0  1  0.63544900  0.36455100  0.42401300  1
  K  K1  1  0.36455100  0.63544900  0.57598700  1
  K  K2  1  0.86455100  0.13544900  0.92401300  1
  K  K3  1  0.13544900  0.86455100  0.07598700  1
  K  K4  1  0.94237700  0.05762300  0.36012400  1
  K  K5  1  0.05762300  0.94237700  0.63987600  1
  K  K6  1  0.55762300  0.44237700  0.86012400  1
  K  K7  1  0.44237700  0.55762300  0.13987600  1
  Co  Co8  1  0.75659500  0.24340500  0.16734000  1
  Co  Co9  1  0.24340500  0.75659500  0.83266000  1
  Co  Co10  1  0.74340500  0.25659500  0.66734000  1
  Co  Co11  1  0.25659500  0.74340500  0.33266000  1
  O  O12  1  0.66524600  0.33475400  0.05625100  1
  O  O13  1  0.33475400  0.66524600  0.94374900  1
  O  O14  1  0.83475400  0.16524600  0.55625100  1
  O  O15  1  0.16524600  0.83475400  0.44374900  1
  O  O16  1  0.90627900  0.09372100  0.13767900  1
  O  O17  1  0.09372100  0.90627900  0.86232100  1
  O  O18  1  0.59372100  0.40627900  0.63767900  1
  O  O19  1  0.40627900  0.59372100  0.36232100  1
  O  O20  1  0.96682100  0.53317900  0.25000000  1
  O  O21  1  0.03317900  0.46682100  0.75000000  1
  O  O22  1  0.53317900  0.96682100  0.75000000  1
  O  O23  1  0.46682100  0.03317900  0.25000000  1
