# generated using pymatgen
data_CaAlSiO5
_symmetry_space_group_name_H-M   'P 1'
_cell_length_a   5.40348661
_cell_length_b   5.40348661
_cell_length_c   7.03025483
_cell_angle_alpha   76.93014101
_cell_angle_beta   76.93014101
_cell_angle_gamma   106.97255978
_symmetry_Int_Tables_number   1
_chemical_formula_structural   CaAlSiO5
_chemical_formula_sum   'Ca2 Al2 Si2 O10'
_cell_volume   181.59493533
_cell_formula_units_Z   2
loop_
 _symmetry_equiv_pos_site_id
 _symmetry_equiv_pos_as_xyz
  1  'x, y, z'
loop_
 _atom_site_type_symbol
 _atom_site_label
 _atom_site_symmetry_multiplicity
 _atom_site_fract_x
 _atom_site_fract_y
 _atom_site_fract_z
 _atom_site_occupancy
  Ca  Ca0  1  0.67278200  0.32721800  0.75000000  1
  Ca  Ca1  1  0.32721800  0.67278200  0.25000000  1
  Al  Al2  1  0.00000000  0.00000000  0.50000000  1
  Al  Al3  1  0.00000000  0.00000000  0.00000000  1
  Si  Si4  1  0.31460100  0.68539900  0.75000000  1
  Si  Si5  1  0.68539900  0.31460100  0.25000000  1
  O  O6  1  0.93875800  0.06124200  0.75000000  1
  O  O7  1  0.06124200  0.93875800  0.25000000  1
  O  O8  1  0.30630900  0.88620100  0.89355000  1
  O  O9  1  0.69369100  0.11379900  0.10645000  1
  O  O10  1  0.11379900  0.69369100  0.60645000  1
  O  O11  1  0.88620100  0.30630900  0.39355000  1
  O  O12  1  0.62993800  0.75952800  0.60455000  1
  O  O13  1  0.37006200  0.24047200  0.39545000  1
  O  O14  1  0.24047200  0.37006200  0.89545000  1
  O  O15  1  0.75952800  0.62993800  0.10455000  1
