# generated using pymatgen
data_Be3Si3C4SO12
_symmetry_space_group_name_H-M   'P 1'
_cell_length_a   8.02143700
_cell_length_b   8.02143700
_cell_length_c   8.02143700
_cell_angle_alpha   90.00000000
_cell_angle_beta   90.00000000
_cell_angle_gamma   90.00000000
_symmetry_Int_Tables_number   1
_chemical_formula_structural   Be3Si3C4SO12
_chemical_formula_sum   'Be6 Si6 C8 S2 O24'
_cell_volume   516.12694293
_cell_formula_units_Z   2
loop_
 _symmetry_equiv_pos_site_id
 _symmetry_equiv_pos_as_xyz
  1  'x, y, z'
loop_
 _atom_site_type_symbol
 _atom_site_label
 _atom_site_symmetry_multiplicity
 _atom_site_fract_x
 _atom_site_fract_y
 _atom_site_fract_z
 _atom_site_occupancy
  Be  Be0  1  0.25000000  0.00000000  0.50000000  1
  Be  Be1  1  0.75000000  0.00000000  0.50000000  1
  Be  Be2  1  0.50000000  0.25000000  0.00000000  1
  Be  Be3  1  0.50000000  0.75000000  0.00000000  1
  Be  Be4  1  0.00000000  0.50000000  0.25000000  1
  Be  Be5  1  0.00000000  0.50000000  0.75000000  1
  Si  Si6  1  0.25000000  0.50000000  0.00000000  1
  Si  Si7  1  0.75000000  0.50000000  0.00000000  1
  Si  Si8  1  0.00000000  0.25000000  0.50000000  1
  Si  Si9  1  0.00000000  0.75000000  0.50000000  1
  Si  Si10  1  0.50000000  0.00000000  0.25000000  1
  Si  Si11  1  0.50000000  0.00000000  0.75000000  1
  C  C12  1  0.16951800  0.16951800  0.16951800  1
  C  C13  1  0.83048200  0.83048200  0.16951800  1
  C  C14  1  0.83048200  0.16951800  0.83048200  1
  C  C15  1  0.66951800  0.66951800  0.66951800  1
  C  C16  1  0.16951800  0.83048200  0.83048200  1
  C  C17  1  0.33048200  0.33048200  0.66951800  1
  C  C18  1  0.66951800  0.33048200  0.33048200  1
  C  C19  1  0.33048200  0.66951800  0.33048200  1
  S  S20  1  0.00000000  0.00000000  0.00000000  1
  S  S21  1  0.50000000  0.50000000  0.50000000  1
  O  O22  1  0.13796600  0.13617800  0.39923100  1
  O  O23  1  0.86203400  0.86382200  0.39923100  1
  O  O24  1  0.86203400  0.13617800  0.60076900  1
  O  O25  1  0.39923100  0.13796600  0.13617800  1
  O  O26  1  0.63617800  0.63796600  0.89923100  1
  O  O27  1  0.13796600  0.86382200  0.60076900  1
  O  O28  1  0.39923100  0.86203400  0.86382200  1
  O  O29  1  0.36382200  0.36203400  0.89923100  1
  O  O30  1  0.60076900  0.86203400  0.13617800  1
  O  O31  1  0.63617800  0.36203400  0.10076900  1
  O  O32  1  0.60076900  0.13796600  0.86382200  1
  O  O33  1  0.36382200  0.63796600  0.10076900  1
  O  O34  1  0.13617800  0.39923100  0.13796600  1
  O  O35  1  0.63796600  0.89923100  0.63617800  1
  O  O36  1  0.13617800  0.60076900  0.86203400  1
  O  O37  1  0.36203400  0.10076900  0.63617800  1
  O  O38  1  0.86382200  0.60076900  0.13796600  1
  O  O39  1  0.63796600  0.10076900  0.36382200  1
  O  O40  1  0.86382200  0.39923100  0.86203400  1
  O  O41  1  0.36203400  0.89923100  0.36382200  1
  O  O42  1  0.89923100  0.63617800  0.63796600  1
  O  O43  1  0.89923100  0.36382200  0.36203400  1
  O  O44  1  0.10076900  0.36382200  0.63796600  1
  O  O45  1  0.10076900  0.63617800  0.36203400  1
