# generated using pymatgen
data_Ce4Ni
_symmetry_space_group_name_H-M   'P 1'
_cell_length_a   7.24078051
_cell_length_b   7.24078051
_cell_length_c   7.24078051
_cell_angle_alpha   60.00000000
_cell_angle_beta   60.00000000
_cell_angle_gamma   60.00000000
_symmetry_Int_Tables_number   1
_chemical_formula_structural   Ce4Ni
_chemical_formula_sum   'Ce8 Ni2'
_cell_volume   268.43624243
_cell_formula_units_Z   2
loop_
 _symmetry_equiv_pos_site_id
 _symmetry_equiv_pos_as_xyz
  1  'x, y, z'
loop_
 _atom_site_type_symbol
 _atom_site_label
 _atom_site_symmetry_multiplicity
 _atom_site_fract_x
 _atom_site_fract_y
 _atom_site_fract_z
 _atom_site_occupancy
  Ce  Ce0  1  0.39206700  0.39206700  0.39206700  1
  Ce  Ce1  1  0.39206700  0.39206700  0.82379900  1
  Ce  Ce2  1  0.39206700  0.82379900  0.39206700  1
  Ce  Ce3  1  0.85793300  0.85793300  0.42620100  1
  Ce  Ce4  1  0.85793300  0.85793300  0.85793300  1
  Ce  Ce5  1  0.82379900  0.39206700  0.39206700  1
  Ce  Ce6  1  0.85793300  0.42620100  0.85793300  1
  Ce  Ce7  1  0.42620100  0.85793300  0.85793300  1
  Ni  Ni8  1  0.00000000  0.00000000  0.00000000  1
  Ni  Ni9  1  0.25000000  0.25000000  0.25000000  1
