# generated using pymatgen
data_C5F6
_symmetry_space_group_name_H-M   'P 1'
_cell_length_a   10.95884126
_cell_length_b   10.95884126
_cell_length_c   10.16470405
_cell_angle_alpha   78.88021169
_cell_angle_beta   78.88021169
_cell_angle_gamma   89.85190773
_symmetry_Int_Tables_number   1
_chemical_formula_structural   C5F6
_chemical_formula_sum   'C40 F48'
_cell_volume   1174.57680236
_cell_formula_units_Z   8
loop_
 _symmetry_equiv_pos_site_id
 _symmetry_equiv_pos_as_xyz
  1  'x, y, z'
loop_
 _atom_site_type_symbol
 _atom_site_label
 _atom_site_symmetry_multiplicity
 _atom_site_fract_x
 _atom_site_fract_y
 _atom_site_fract_z
 _atom_site_occupancy
  C  C0  1  0.41709500  0.37450100  0.84495800  1
  C  C1  1  0.58290500  0.62549900  0.15504200  1
  C  C2  1  0.62549900  0.58290500  0.65504200  1
  C  C3  1  0.37450100  0.41709500  0.34495800  1
  C  C4  1  0.77997500  0.18105300  0.69189600  1
  C  C5  1  0.22002500  0.81894700  0.30810400  1
  C  C6  1  0.81894700  0.22002500  0.80810400  1
  C  C7  1  0.18105300  0.77997500  0.19189600  1
  C  C8  1  0.55597300  0.23995500  0.73787000  1
  C  C9  1  0.44402700  0.76004500  0.26213000  1
  C  C10  1  0.76004500  0.44402700  0.76213000  1
  C  C11  1  0.23995500  0.55597300  0.23787000  1
  C  C12  1  0.43432500  0.16453900  0.79055200  1
  C  C13  1  0.56567500  0.83546100  0.20944800  1
  C  C14  1  0.83546100  0.56567500  0.70944800  1
  C  C15  1  0.16453900  0.43432500  0.29055200  1
  C  C16  1  0.20020800  0.87514700  0.52991900  1
  C  C17  1  0.79979200  0.12485300  0.47008100  1
  C  C18  1  0.12485300  0.79979200  0.97008100  1
  C  C19  1  0.87514700  0.20020800  0.02991900  1
  C  C20  1  0.65987600  0.13265700  0.53687800  1
  C  C21  1  0.34012400  0.86734300  0.46312200  1
  C  C22  1  0.86734300  0.34012400  0.96312200  1
  C  C23  1  0.13265700  0.65987600  0.03687800  1
  C  C24  1  0.54689700  0.35483200  0.76849300  1
  C  C25  1  0.45310300  0.64516800  0.23150700  1
  C  C26  1  0.64516800  0.45310300  0.73150700  1
  C  C27  1  0.35483200  0.54689700  0.26849300  1
  C  C28  1  0.66531400  0.18944700  0.66103700  1
  C  C29  1  0.33468600  0.81055300  0.33896300  1
  C  C30  1  0.81055300  0.33468600  0.83896300  1
  C  C31  1  0.18944700  0.66531400  0.16103700  1
  C  C32  1  0.35592100  0.24061900  0.89002100  1
  C  C33  1  0.64407900  0.75938100  0.10997900  1
  C  C34  1  0.75938100  0.64407900  0.60997900  1
  C  C35  1  0.24061900  0.35592100  0.39002100  1
  C  C36  1  0.86848300  0.11955500  0.59204800  1
  C  C37  1  0.13151700  0.88044500  0.40795200  1
  C  C38  1  0.88044500  0.13151700  0.90795200  1
  C  C39  1  0.11955500  0.86848300  0.09204800  1
  F  F40  1  0.16275600  0.76789700  0.62314200  1
  F  F41  1  0.83724400  0.23210300  0.37685800  1
  F  F42  1  0.23210300  0.83724400  0.87685800  1
  F  F43  1  0.76789700  0.16275600  0.12314200  1
  F  F44  1  0.76105700  0.76656500  0.61509800  1
  F  F45  1  0.23894300  0.23343500  0.38490200  1
  F  F46  1  0.23343500  0.23894300  0.88490200  1
  F  F47  1  0.76656500  0.76105700  0.11509800  1
  F  F48  1  0.17849800  0.97393900  0.59215400  1
  F  F49  1  0.82150200  0.02606100  0.40784600  1
  F  F50  1  0.02606100  0.82150200  0.90784600  1
  F  F51  1  0.97393900  0.17849800  0.09215400  1
  F  F52  1  0.37433000  0.15463200  0.68605200  1
  F  F53  1  0.62567000  0.84536800  0.31394800  1
  F  F54  1  0.84536800  0.62567000  0.81394800  1
  F  F55  1  0.15463200  0.37433000  0.18605200  1
  F  F56  1  0.57225500  0.58051000  0.54433500  1
  F  F57  1  0.42774500  0.41949000  0.45566500  1
  F  F58  1  0.41949000  0.42774500  0.95566500  1
  F  F59  1  0.58051000  0.57225500  0.04433500  1
  F  F60  1  0.40461200  0.79761700  0.55124500  1
  F  F61  1  0.59538800  0.20238300  0.44875500  1
  F  F62  1  0.20238300  0.59538800  0.94875500  1
  F  F63  1  0.79761700  0.40461200  0.05124500  1
  F  F64  1  0.62958900  0.80714600  0.97957000  1
  F  F65  1  0.37041100  0.19285400  0.02043000  1
  F  F66  1  0.19285400  0.37041100  0.52043000  1
  F  F67  1  0.80714600  0.62958900  0.47957000  1
  F  F68  1  0.60526800  0.01508200  0.57513600  1
  F  F69  1  0.39473200  0.98491800  0.42486400  1
  F  F70  1  0.98491800  0.39473200  0.92486400  1
  F  F71  1  0.01508200  0.60526800  0.07513600  1
  F  F72  1  0.88709800  0.99815200  0.64793300  1
  F  F73  1  0.11290200  0.00184800  0.35206700  1
  F  F74  1  0.00184800  0.11290200  0.85206700  1
  F  F75  1  0.99815200  0.88709800  0.14793300  1
  F  F76  1  0.55037300  0.64937700  0.73792600  1
  F  F77  1  0.44962700  0.35062300  0.26207400  1
  F  F78  1  0.35062300  0.44962700  0.76207400  1
  F  F79  1  0.64937700  0.55037300  0.23792600  1
  F  F80  1  0.45193200  0.04660500  0.85656900  1
  F  F81  1  0.54806800  0.95339500  0.14343100  1
  F  F82  1  0.95339500  0.54806800  0.64343100  1
  F  F83  1  0.04660500  0.45193200  0.35656900  1
  F  F84  1  0.81952200  0.01776100  0.94836400  1
  F  F85  1  0.18047800  0.98223900  0.05163600  1
  F  F86  1  0.98223900  0.18047800  0.55163600  1
  F  F87  1  0.01776100  0.81952200  0.44836400  1
