# generated using pymatgen
data_Cu2Si3H24C8(N10F9)2
_symmetry_space_group_name_H-M   'P 1'
_cell_length_a   7.63528700
_cell_length_b   8.53333182
_cell_length_c   12.23308534
_cell_angle_alpha   87.14648322
_cell_angle_beta   88.09149972
_cell_angle_gamma   67.12398380
_symmetry_Int_Tables_number   1
_chemical_formula_structural   Cu2Si3H24C8(N10F9)2
_chemical_formula_sum   'Cu2 Si3 H24 C8 N20 F18'
_cell_volume   733.35635173
_cell_formula_units_Z   1
loop_
 _symmetry_equiv_pos_site_id
 _symmetry_equiv_pos_as_xyz
  1  'x, y, z'
loop_
 _atom_site_type_symbol
 _atom_site_label
 _atom_site_symmetry_multiplicity
 _atom_site_fract_x
 _atom_site_fract_y
 _atom_site_fract_z
 _atom_site_occupancy
  Cu  Cu0  1  0.26975900  0.33493000  0.64304000  1
  Cu  Cu1  1  0.73024100  0.66507000  0.35696000  1
  Si  Si2  1  0.18877900  0.05087400  0.31729900  1
  Si  Si3  1  0.81122100  0.94912600  0.68270100  1
  Si  Si4  1  0.50000000  0.50000000  0.00000000  1
  H  H5  1  0.03367600  0.66950800  0.51820500  1
  H  H6  1  0.96632400  0.33049200  0.48179500  1
  H  H7  1  0.59011500  0.16135300  0.49064900  1
  H  H8  1  0.40988500  0.83864700  0.50935100  1
  H  H9  1  0.05967500  0.40811200  0.22959900  1
  H  H10  1  0.94032500  0.59188800  0.77040100  1
  H  H11  1  0.43333200  0.03566200  0.80191300  1
  H  H12  1  0.56666800  0.96433800  0.19808700  1
  H  H13  1  0.03701000  0.71681900  0.99812700  1
  H  H14  1  0.96299000  0.28318100  0.00187300  1
  H  H15  1  0.07378400  0.75556600  0.39509800  1
  H  H16  1  0.92621600  0.24443400  0.60490200  1
  H  H17  1  0.20498500  0.99026700  0.07793800  1
  H  H18  1  0.79501500  0.00973300  0.92206200  1
  H  H19  1  0.61473900  0.13698700  0.01310000  1
  H  H20  1  0.38526100  0.86301300  0.98690000  1
  H  H21  1  0.18340800  0.43856100  0.11265200  1
  H  H22  1  0.81659200  0.56143900  0.88734800  1
  H  H23  1  0.67282700  0.33324900  0.20680600  1
  H  H24  1  0.32717300  0.66675100  0.79319400  1
  H  H25  1  0.35944000  0.57542600  0.27266600  1
  H  H26  1  0.64056000  0.42457400  0.72733400  1
  H  H27  1  0.78885100  0.17042200  0.30504000  1
  H  H28  1  0.21114900  0.82957800  0.69496000  1
  C  C29  1  0.22069200  0.10432600  0.93070200  1
  C  C30  1  0.77930800  0.89567400  0.06929800  1
  C  C31  1  0.53005400  0.34165400  0.35304900  1
  C  C32  1  0.46994600  0.65834600  0.64695100  1
  C  C33  1  0.26241700  0.51566000  0.43077700  1
  C  C34  1  0.73758300  0.48434000  0.56922300  1
  C  C35  1  0.06262500  0.35922200  0.85128100  1
  C  C36  1  0.93737500  0.64077800  0.14871900  1
  N  N37  1  0.27070200  0.97360200  0.00211500  1
  N  N38  1  0.72929800  0.02639800  0.99788500  1
  N  N39  1  0.06496300  0.48249600  0.16216800  1
  N  N40  1  0.93503700  0.51750400  0.83783200  1
  N  N41  1  0.09330100  0.64641200  0.44113700  1
  N  N42  1  0.90669900  0.35358800  0.55886300  1
  N  N43  1  0.30534400  0.11897700  0.83552600  1
  N  N44  1  0.69465600  0.88102300  0.16447400  1
  N  N45  1  0.37622500  0.49108500  0.33864000  1
  N  N46  1  0.62377500  0.50891500  0.66136000  1
  N  N47  1  0.06663800  0.25436000  0.94126800  1
  N  N48  1  0.93336200  0.74564000  0.05873200  1
  N  N49  1  0.34194500  0.38645100  0.50322400  1
  N  N50  1  0.65805500  0.61354900  0.49677600  1
  N  N51  1  0.20767000  0.27759000  0.78358700  1
  N  N52  1  0.79233000  0.72241000  0.21641300  1
  N  N53  1  0.50999800  0.27941400  0.45300400  1
  N  N54  1  0.49000200  0.72058600  0.54699600  1
  N  N55  1  0.67116600  0.27532800  0.28197100  1
  N  N56  1  0.32883400  0.72467200  0.71802900  1
  F  F57  1  0.07753400  0.09102200  0.19224800  1
  F  F58  1  0.92246600  0.90897800  0.80775200  1
  F  F59  1  0.71825100  0.38844100  0.06070900  1
  F  F60  1  0.28174900  0.61155900  0.93929100  1
  F  F61  1  0.30353400  0.84078200  0.29205700  1
  F  F62  1  0.69646600  0.15921800  0.70794300  1
  F  F63  1  0.42514100  0.33815400  0.04011000  1
  F  F64  1  0.57485900  0.66184600  0.95989000  1
  F  F65  1  0.07463400  0.26625500  0.34478500  1
  F  F66  1  0.92536600  0.73374500  0.65521500  1
  F  F67  1  0.37352800  0.09470700  0.25720700  1
  F  F68  1  0.62647200  0.90529300  0.74279300  1
  F  F69  1  0.99822300  0.01351600  0.37289200  1
  F  F70  1  0.00177700  0.98648400  0.62710800  1
  F  F71  1  0.41356500  0.59662800  0.11983100  1
  F  F72  1  0.58643500  0.40337200  0.88016900  1
  F  F73  1  0.29483600  0.01936700  0.44301200  1
  F  F74  1  0.70516400  0.98063300  0.55698800  1
