# generated using pymatgen
data_CdH10S2(NO2)4
_symmetry_space_group_name_H-M   'P 1'
_cell_length_a   5.97422343
_cell_length_b   6.63255296
_cell_length_c   7.79069436
_cell_angle_alpha   89.17620689
_cell_angle_beta   106.67536435
_cell_angle_gamma   94.58907220
_symmetry_Int_Tables_number   1
_chemical_formula_structural   CdH10S2(NO2)4
_chemical_formula_sum   'Cd1 H10 S2 N4 O8'
_cell_volume   294.75916117
_cell_formula_units_Z   1
loop_
 _symmetry_equiv_pos_site_id
 _symmetry_equiv_pos_as_xyz
  1  'x, y, z'
loop_
 _atom_site_type_symbol
 _atom_site_label
 _atom_site_symmetry_multiplicity
 _atom_site_fract_x
 _atom_site_fract_y
 _atom_site_fract_z
 _atom_site_occupancy
  Cd  Cd0  1  0.00000000  0.00000000  0.00000000  1
  H  H1  1  0.28489700  0.61437900  0.17109800  1
  H  H2  1  0.71510300  0.38562100  0.82890200  1
  H  H3  1  0.10911500  0.90776800  0.34650500  1
  H  H4  1  0.89088500  0.09223200  0.65349500  1
  H  H5  1  0.02577100  0.66664100  0.73898800  1
  H  H6  1  0.97422900  0.33335900  0.26101200  1
  H  H7  1  0.32725600  0.64465400  0.39264200  1
  H  H8  1  0.67274400  0.35534600  0.60735800  1
  H  H9  1  0.45054900  0.81597000  0.27963600  1
  H  H10  1  0.54945100  0.18403000  0.72036400  1
  S  S11  1  0.38506900  0.75194500  0.74740800  1
  S  S12  1  0.61493100  0.24805500  0.25259200  1
  N  N13  1  0.08495600  0.82041700  0.23418300  1
  N  N14  1  0.91504400  0.17958300  0.76581700  1
  N  N15  1  0.30079900  0.71934000  0.27027500  1
  N  N16  1  0.69920100  0.28066000  0.72972500  1
  O  O17  1  0.35407300  0.58022800  0.62372700  1
  O  O18  1  0.64592700  0.41977200  0.37627300  1
  O  O19  1  0.35241600  0.94646900  0.65710900  1
  O  O20  1  0.64758400  0.05353100  0.34289100  1
  O  O21  1  0.58782700  0.74902600  0.90459600  1
  O  O22  1  0.41217300  0.25097400  0.09540400  1
  O  O23  1  0.16296400  0.71394000  0.83653000  1
  O  O24  1  0.83703600  0.28606000  0.16347000  1
