# generated using pymatgen
data_Ba5Y8Zn4O21
_symmetry_space_group_name_H-M   'P 1'
_cell_length_a   10.26671010
_cell_length_b   10.26671010
_cell_length_c   10.26671010
_cell_angle_alpha   94.52908076
_cell_angle_beta   94.52908076
_cell_angle_gamma   147.35934023
_symmetry_Int_Tables_number   1
_chemical_formula_structural   Ba5Y8Zn4O21
_chemical_formula_sum   'Ba5 Y8 Zn4 O21'
_cell_volume   560.16699993
_cell_formula_units_Z   1
loop_
 _symmetry_equiv_pos_site_id
 _symmetry_equiv_pos_as_xyz
  1  'x, y, z'
loop_
 _atom_site_type_symbol
 _atom_site_label
 _atom_site_symmetry_multiplicity
 _atom_site_fract_x
 _atom_site_fract_y
 _atom_site_fract_z
 _atom_site_occupancy
  Ba  Ba0  1  0.13886700  0.46375900  0.60262600  1
  Ba  Ba1  1  0.86113300  0.53624100  0.39737400  1
  Ba  Ba2  1  0.53624100  0.13886700  0.67510800  1
  Ba  Ba3  1  0.46375900  0.86113300  0.32489200  1
  Ba  Ba4  1  0.00000000  0.00000000  0.00000000  1
  Y  Y5  1  0.41166000  0.35758400  0.76924400  1
  Y  Y6  1  0.58834000  0.64241600  0.23075600  1
  Y  Y7  1  0.64241600  0.41166000  0.05407600  1
  Y  Y8  1  0.35758400  0.58834000  0.94592400  1
  Y  Y9  1  0.24730500  0.16792900  0.41523300  1
  Y  Y10  1  0.75269500  0.83207100  0.58476700  1
  Y  Y11  1  0.83207100  0.24730500  0.07937600  1
  Y  Y12  1  0.16792900  0.75269500  0.92062400  1
  Zn  Zn13  1  0.04023800  0.25103800  0.29127600  1
  Zn  Zn14  1  0.95976200  0.74896200  0.70872400  1
  Zn  Zn15  1  0.74896200  0.04023800  0.78920000  1
  Zn  Zn16  1  0.25103800  0.95976200  0.21080000  1
  O  O17  1  0.42698300  0.29691100  0.22553600  1
  O  O18  1  0.57301700  0.70308900  0.77446400  1
  O  O19  1  0.07137500  0.20144700  0.77446400  1
  O  O20  1  0.20144700  0.42698300  0.13007200  1
  O  O21  1  0.92862500  0.79855300  0.22553600  1
  O  O22  1  0.79855300  0.57301700  0.86992800  1
  O  O23  1  0.29691100  0.07137500  0.86992800  1
  O  O24  1  0.70308900  0.92862500  0.13007200  1
  O  O25  1  0.39509800  0.50458400  0.40548400  1
  O  O26  1  0.60490200  0.49541600  0.59451600  1
  O  O27  1  0.09910100  0.98961500  0.59451600  1
  O  O28  1  0.98961500  0.39509800  0.89051400  1
  O  O29  1  0.90089900  0.01038500  0.40548400  1
  O  O30  1  0.01038500  0.60490200  0.10948600  1
  O  O31  1  0.50458400  0.09910100  0.10948600  1
  O  O32  1  0.49541600  0.90089900  0.89051400  1
  O  O33  1  0.50000000  0.50000000  0.00000000  1
  O  O34  1  0.37247400  0.03742400  0.40989800  1
  O  O35  1  0.62752600  0.96257600  0.59010200  1
  O  O36  1  0.96257600  0.37247400  0.33505000  1
  O  O37  1  0.03742400  0.62752600  0.66495000  1
