# generated using pymatgen
data_CaAl2(SiO4)3
_symmetry_space_group_name_H-M   'P 1'
_cell_length_a   9.67909866
_cell_length_b   9.67909866
_cell_length_c   9.82011405
_cell_angle_alpha   83.32938974
_cell_angle_beta   83.32938974
_cell_angle_gamma   139.81940257
_symmetry_Int_Tables_number   1
_chemical_formula_structural   CaAl2(SiO4)3
_chemical_formula_sum   'Ca2 Al4 Si6 O24'
_cell_volume   558.61049214
_cell_formula_units_Z   2
loop_
 _symmetry_equiv_pos_site_id
 _symmetry_equiv_pos_as_xyz
  1  'x, y, z'
loop_
 _atom_site_type_symbol
 _atom_site_label
 _atom_site_symmetry_multiplicity
 _atom_site_fract_x
 _atom_site_fract_y
 _atom_site_fract_z
 _atom_site_occupancy
  Ca  Ca0  1  0.62637600  0.33752000  0.24422300  1
  Ca  Ca1  1  0.33752000  0.62637600  0.74422300  1
  Al  Al2  1  0.73253200  0.04603300  0.38096300  1
  Al  Al3  1  0.04603300  0.73253200  0.88096300  1
  Al  Al4  1  0.16214400  0.98974500  0.49734600  1
  Al  Al5  1  0.98974500  0.16214400  0.99734600  1
  Si  Si6  1  0.16584400  0.21416800  0.25278400  1
  Si  Si7  1  0.21416800  0.16584400  0.75278400  1
  Si  Si8  1  0.04254700  0.48548200  0.11504500  1
  Si  Si9  1  0.48548200  0.04254700  0.61504500  1
  Si  Si10  1  0.46619800  0.71762100  0.18825700  1
  Si  Si11  1  0.71762100  0.46619800  0.68825700  1
  O  O12  1  0.13958500  0.09889700  0.61104100  1
  O  O13  1  0.09889700  0.13958500  0.11104100  1
  O  O14  1  0.95593000  0.11021600  0.37525800  1
  O  O15  1  0.11021600  0.95593000  0.87525800  1
  O  O16  1  0.52234400  0.80010000  0.33112300  1
  O  O17  1  0.80010000  0.52234400  0.83112300  1
  O  O18  1  0.59545000  0.98135900  0.55835400  1
  O  O19  1  0.98135900  0.59545000  0.05835400  1
  O  O20  1  0.26935100  0.66907800  0.16187800  1
  O  O21  1  0.66907800  0.26935100  0.66187800  1
  O  O22  1  0.69413500  0.92358000  0.04733200  1
  O  O23  1  0.92358000  0.69413500  0.54733200  1
  O  O24  1  0.66677400  0.81160000  0.83368400  1
  O  O25  1  0.81160000  0.66677400  0.33368400  1
  O  O26  1  0.25917200  0.14017400  0.31516300  1
  O  O27  1  0.14017400  0.25917200  0.81516300  1
  O  O28  1  0.07993300  0.40999000  0.98957100  1
  O  O29  1  0.40999000  0.07993300  0.48957100  1
  O  O30  1  0.38661600  0.49381000  0.20642900  1
  O  O31  1  0.49381000  0.38661600  0.70642900  1
  O  O32  1  0.51677800  0.21645800  0.02621100  1
  O  O33  1  0.21645800  0.51677800  0.52621100  1
  O  O34  1  0.81826700  0.26819400  0.25713600  1
  O  O35  1  0.26819400  0.81826700  0.75713600  1
