# generated using pymatgen
data_CsLu(SO4)2
_symmetry_space_group_name_H-M   'P 1'
_cell_length_a   4.53974400
_cell_length_b   9.52638143
_cell_length_c   8.23630361
_cell_angle_alpha   92.56849692
_cell_angle_beta   90.00000000
_cell_angle_gamma   90.00000000
_symmetry_Int_Tables_number   1
_chemical_formula_structural   CsLu(SO4)2
_chemical_formula_sum   'Cs2 Lu2 S4 O16'
_cell_volume   355.84031360
_cell_formula_units_Z   2
loop_
 _symmetry_equiv_pos_site_id
 _symmetry_equiv_pos_as_xyz
  1  'x, y, z'
loop_
 _atom_site_type_symbol
 _atom_site_label
 _atom_site_symmetry_multiplicity
 _atom_site_fract_x
 _atom_site_fract_y
 _atom_site_fract_z
 _atom_site_occupancy
  Cs  Cs0  1  0.42660100  0.50000000  0.75000000  1
  Cs  Cs1  1  0.57339900  0.50000000  0.25000000  1
  Lu  Lu2  1  0.54254500  0.00000000  0.75000000  1
  Lu  Lu3  1  0.45745500  0.00000000  0.25000000  1
  S  S4  1  0.96149200  0.80361700  0.46569600  1
  S  S5  1  0.03850800  0.19638300  0.53430400  1
  S  S6  1  0.96149200  0.19638300  0.03430400  1
  S  S7  1  0.03850800  0.80361700  0.96569600  1
  O  O8  1  0.77417400  0.83845500  0.32256600  1
  O  O9  1  0.22582600  0.16154500  0.67743400  1
  O  O10  1  0.77417400  0.16154500  0.17743400  1
  O  O11  1  0.22582600  0.83845500  0.82256600  1
  O  O12  1  0.93849500  0.65768400  0.94968000  1
  O  O13  1  0.06150500  0.34231600  0.05032000  1
  O  O14  1  0.93849500  0.34231600  0.55032000  1
  O  O15  1  0.06150500  0.65768400  0.44968000  1
  O  O16  1  0.77796900  0.90160400  0.97235000  1
  O  O17  1  0.22203100  0.09839600  0.02765000  1
  O  O18  1  0.77796900  0.09839600  0.52765000  1
  O  O19  1  0.22203100  0.90160400  0.47235000  1
  O  O20  1  0.77585800  0.82529700  0.61472000  1
  O  O21  1  0.22414200  0.17470300  0.38528000  1
  O  O22  1  0.77585800  0.17470300  0.88528000  1
  O  O23  1  0.22414200  0.82529700  0.11472000  1
