# generated using pymatgen
data_C2S
_symmetry_space_group_name_H-M   'P 1'
_cell_length_a   5.07804157
_cell_length_b   11.39901038
_cell_length_c   16.69911100
_cell_angle_alpha   90.00000000
_cell_angle_beta   90.00000000
_cell_angle_gamma   90.76674845
_symmetry_Int_Tables_number   1
_chemical_formula_structural   C2S
_chemical_formula_sum   'C32 S16'
_cell_volume   966.53561818
_cell_formula_units_Z   16
loop_
 _symmetry_equiv_pos_site_id
 _symmetry_equiv_pos_as_xyz
  1  'x, y, z'
loop_
 _atom_site_type_symbol
 _atom_site_label
 _atom_site_symmetry_multiplicity
 _atom_site_fract_x
 _atom_site_fract_y
 _atom_site_fract_z
 _atom_site_occupancy
  C  C0  1  0.81327500  0.88491900  0.95403500  1
  C  C1  1  0.18672500  0.11508100  0.45403500  1
  C  C2  1  0.95170000  0.40101000  0.53562900  1
  C  C3  1  0.04830000  0.59899000  0.03562900  1
  C  C4  1  0.94982200  0.18686200  0.56276400  1
  C  C5  1  0.05017800  0.81313800  0.06276400  1
  C  C6  1  0.87109500  0.98821900  0.99489700  1
  C  C7  1  0.12890500  0.01178100  0.49489700  1
  C  C8  1  0.91615600  0.78449500  0.99268500  1
  C  C9  1  0.08384400  0.21550500  0.49268500  1
  C  C10  1  0.36916100  0.97652600  0.36795900  1
  C  C11  1  0.63083900  0.02347400  0.86795900  1
  C  C12  1  0.58005700  0.83251000  0.81880100  1
  C  C13  1  0.41994300  0.16749000  0.31880100  1
  C  C14  1  0.46475000  0.68300200  0.72941300  1
  C  C15  1  0.53525000  0.31699800  0.22941300  1
  C  C16  1  0.67941900  0.61018400  0.84243200  1
  C  C17  1  0.32058100  0.38981600  0.34243200  1
  C  C18  1  0.85974400  0.47147300  0.92891300  1
  C  C19  1  0.14025600  0.52852700  0.42891300  1
  C  C20  1  0.63521700  0.50750400  0.79930700  1
  C  C21  1  0.36478300  0.49249600  0.29930700  1
  C  C22  1  0.91446700  0.66226800  0.97753000  1
  C  C23  1  0.08553300  0.33773200  0.47753000  1
  C  C24  1  0.67492400  0.90512800  0.88177800  1
  C  C25  1  0.32507600  0.09487200  0.38177800  1
  C  C26  1  0.80851900  0.58950000  0.91625300  1
  C  C27  1  0.19148100  0.41050000  0.41625300  1
  C  C28  1  0.58345200  0.71074200  0.80220100  1
  C  C29  1  0.41654800  0.28925800  0.30220100  1
  C  C30  1  0.46146900  0.89660400  0.75816900  1
  C  C31  1  0.53853100  0.10339600  0.25816900  1
  S  S32  1  0.53308100  0.95246100  0.27718100  1
  S  S33  1  0.46691900  0.04753900  0.77718100  1
  S  S34  1  0.82629400  0.31013300  0.61150100  1
  S  S35  1  0.17370600  0.68986700  0.11150100  1
  S  S36  1  0.94875100  0.03629400  0.58259200  1
  S  S37  1  0.05124900  0.96370600  0.08259200  1
  S  S38  1  0.46514500  0.53217100  0.70969200  1
  S  S39  1  0.53485500  0.46782900  0.20969200  1
  S  S40  1  0.75323400  0.38373800  0.84891300  1
  S  S41  1  0.24676600  0.61626200  0.34891300  1
  S  S42  1  0.75746400  0.11230400  0.94471700  1
  S  S43  1  0.24253600  0.88769600  0.44471700  1
  S  S44  1  0.34795700  0.80726800  0.67998600  1
  S  S45  1  0.65204300  0.19273200  0.17998600  1
  S  S46  1  0.95610500  0.55206100  0.51616100  1
  S  S47  1  0.04389500  0.44793900  0.01616100  1
