# generated using pymatgen
data_CeTl(MoO4)2
_symmetry_space_group_name_H-M   'P 1'
_cell_length_a   5.26058900
_cell_length_b   8.39494600
_cell_length_c   18.82460500
_cell_angle_alpha   90.00000000
_cell_angle_beta   90.00000000
_cell_angle_gamma   90.00000000
_symmetry_Int_Tables_number   1
_chemical_formula_structural   CeTl(MoO4)2
_chemical_formula_sum   'Ce4 Tl4 Mo8 O32'
_cell_volume   831.33899385
_cell_formula_units_Z   4
loop_
 _symmetry_equiv_pos_site_id
 _symmetry_equiv_pos_as_xyz
  1  'x, y, z'
loop_
 _atom_site_type_symbol
 _atom_site_label
 _atom_site_symmetry_multiplicity
 _atom_site_fract_x
 _atom_site_fract_y
 _atom_site_fract_z
 _atom_site_occupancy
  Ce  Ce0  1  0.00000000  0.75000000  0.00682100  1
  Ce  Ce1  1  0.00000000  0.25000000  0.99317900  1
  Ce  Ce2  1  0.50000000  0.25000000  0.49317900  1
  Ce  Ce3  1  0.50000000  0.75000000  0.50682100  1
  Tl  Tl4  1  0.00000000  0.75000000  0.76951000  1
  Tl  Tl5  1  0.00000000  0.25000000  0.23049000  1
  Tl  Tl6  1  0.50000000  0.25000000  0.73049000  1
  Tl  Tl7  1  0.50000000  0.75000000  0.26951000  1
  Mo  Mo8  1  0.02266900  0.51648800  0.39851800  1
  Mo  Mo9  1  0.97733100  0.48351200  0.60148200  1
  Mo  Mo10  1  0.47733100  0.01648800  0.10148200  1
  Mo  Mo11  1  0.97733100  0.98351200  0.39851800  1
  Mo  Mo12  1  0.52266900  0.98351200  0.89851800  1
  Mo  Mo13  1  0.02266900  0.01648800  0.60148200  1
  Mo  Mo14  1  0.52266900  0.48351200  0.10148200  1
  Mo  Mo15  1  0.47733100  0.51648800  0.89851800  1
  O  O16  1  0.10229400  0.97543000  0.31191800  1
  O  O17  1  0.89770600  0.02457000  0.68808200  1
  O  O18  1  0.39770600  0.47543000  0.18808200  1
  O  O19  1  0.89770600  0.52457000  0.31191800  1
  O  O20  1  0.60229400  0.52457000  0.81191800  1
  O  O21  1  0.10229400  0.47543000  0.68808200  1
  O  O22  1  0.60229400  0.02457000  0.18808200  1
  O  O23  1  0.39770600  0.97543000  0.81191800  1
  O  O24  1  0.27530700  0.84306900  0.09978400  1
  O  O25  1  0.72469300  0.15693100  0.90021600  1
  O  O26  1  0.22469300  0.34306900  0.40021600  1
  O  O27  1  0.72469300  0.65693100  0.09978400  1
  O  O28  1  0.77530700  0.65693100  0.59978400  1
  O  O29  1  0.27530700  0.34306900  0.90021600  1
  O  O30  1  0.77530700  0.15693100  0.40021600  1
  O  O31  1  0.22469300  0.84306900  0.59978400  1
  O  O32  1  0.25624600  0.50273900  0.03646900  1
  O  O33  1  0.74375400  0.49726100  0.96353100  1
  O  O34  1  0.24375400  0.00273900  0.46353100  1
  O  O35  1  0.74375400  0.99726100  0.03646900  1
  O  O36  1  0.75624600  0.99726100  0.53646900  1
  O  O37  1  0.25624600  0.00273900  0.96353100  1
  O  O38  1  0.75624600  0.49726100  0.46353100  1
  O  O39  1  0.24375400  0.50273900  0.53646900  1
  O  O40  1  0.24049100  0.68533300  0.40788000  1
  O  O41  1  0.75950900  0.31466700  0.59212000  1
  O  O42  1  0.25950900  0.18533300  0.09212000  1
  O  O43  1  0.75950900  0.81466700  0.40788000  1
  O  O44  1  0.74049100  0.81466700  0.90788000  1
  O  O45  1  0.24049100  0.18533300  0.59212000  1
  O  O46  1  0.74049100  0.31466700  0.09212000  1
  O  O47  1  0.25950900  0.68533300  0.90788000  1
