# generated using pymatgen
data_FeBP(HO3)2
_symmetry_space_group_name_H-M   'P 1'
_cell_length_a   7.61564695
_cell_length_b   7.61564695
_cell_length_c   12.91176400
_cell_angle_alpha   90.00000000
_cell_angle_beta   90.00000000
_cell_angle_gamma   120.00000826
_symmetry_Int_Tables_number   1
_chemical_formula_structural   FeBP(HO3)2
_chemical_formula_sum   'Fe6 B6 P6 H12 O36'
_cell_volume   648.52956636
_cell_formula_units_Z   6
loop_
 _symmetry_equiv_pos_site_id
 _symmetry_equiv_pos_as_xyz
  1  'x, y, z'
loop_
 _atom_site_type_symbol
 _atom_site_label
 _atom_site_symmetry_multiplicity
 _atom_site_fract_x
 _atom_site_fract_y
 _atom_site_fract_z
 _atom_site_occupancy
  Fe  Fe0  1  0.12760800  0.00000000  0.33333300  1
  Fe  Fe1  1  0.00000000  0.12760800  0.66666700  1
  Fe  Fe2  1  0.87239200  0.87239200  0.00000000  1
  Fe  Fe3  1  0.24381500  0.00000000  0.83333300  1
  Fe  Fe4  1  0.00000000  0.24381500  0.16666700  1
  Fe  Fe5  1  0.75618500  0.75618500  0.50000000  1
  B  B6  1  0.24977900  0.56189200  0.54145000  1
  B  B7  1  0.43810800  0.68788600  0.87478400  1
  B  B8  1  0.56189200  0.24977900  0.45855000  1
  B  B9  1  0.31211400  0.75022100  0.20811700  1
  B  B10  1  0.68788600  0.43810800  0.12521600  1
  B  B11  1  0.75022100  0.31211400  0.79188300  1
  P  P12  1  0.07376500  0.32457800  0.90426900  1
  P  P13  1  0.67542200  0.74918700  0.23760200  1
  P  P14  1  0.32457800  0.07376500  0.09573100  1
  P  P15  1  0.25081300  0.92623500  0.57093600  1
  P  P16  1  0.74918700  0.67542200  0.76239800  1
  P  P17  1  0.92623500  0.25081300  0.42906400  1
  H  H18  1  0.57745800  0.26712200  0.92389900  1
  H  H19  1  0.73287800  0.31033600  0.25723300  1
  H  H20  1  0.26712200  0.57745800  0.07610100  1
  H  H21  1  0.68966400  0.42254200  0.59056600  1
  H  H22  1  0.31033600  0.73287800  0.74276700  1
  H  H23  1  0.42254200  0.68966400  0.40943400  1
  H  H24  1  0.36128100  0.45030300  0.65375500  1
  H  H25  1  0.54969700  0.91097700  0.98708800  1
  H  H26  1  0.45030300  0.36128100  0.34624500  1
  H  H27  1  0.08902300  0.63871900  0.32042100  1
  H  H28  1  0.91097700  0.54969700  0.01291200  1
  H  H29  1  0.63871900  0.08902300  0.67957900  1
  O  O30  1  0.56285400  0.21529700  0.85227900  1
  O  O31  1  0.78470300  0.34755700  0.18561200  1
  O  O32  1  0.21529700  0.56285400  0.14772100  1
  O  O33  1  0.65244300  0.43714600  0.51894600  1
  O  O34  1  0.34755700  0.78470300  0.81438800  1
  O  O35  1  0.43714600  0.65244300  0.48105400  1
  O  O36  1  0.46948800  0.06732300  0.52624200  1
  O  O37  1  0.93267700  0.40216500  0.85957600  1
  O  O38  1  0.06732300  0.46948800  0.47375800  1
  O  O39  1  0.59783500  0.53051200  0.19290900  1
  O  O40  1  0.40216500  0.93267700  0.14042400  1
  O  O41  1  0.53051200  0.59783500  0.80709100  1
  O  O42  1  0.23712400  0.40993800  0.61509800  1
  O  O43  1  0.59006200  0.82718700  0.94843100  1
  O  O44  1  0.40993800  0.23712400  0.38490200  1
  O  O45  1  0.17281300  0.76287600  0.28176400  1
  O  O46  1  0.82718700  0.59006200  0.05156900  1
  O  O47  1  0.76287600  0.17281300  0.71823600  1
  O  O48  1  0.22216700  0.02355400  0.66890300  1
  O  O49  1  0.97644600  0.19861300  0.00223600  1
  O  O50  1  0.02355400  0.22216700  0.33109700  1
  O  O51  1  0.80138700  0.77783300  0.33557000  1
  O  O52  1  0.19861300  0.97644600  0.99776400  1
  O  O53  1  0.77783300  0.80138700  0.66443000  1
  O  O54  1  0.12084200  0.20831600  0.82261100  1
  O  O55  1  0.79168400  0.91252700  0.15594400  1
  O  O56  1  0.20831600  0.12084200  0.17738900  1
  O  O57  1  0.08747300  0.87915800  0.48927700  1
  O  O58  1  0.91252700  0.79168400  0.84405600  1
  O  O59  1  0.87915800  0.08747300  0.51072300  1
  O  O60  1  0.27417300  0.51840500  0.94027000  1
  O  O61  1  0.48159500  0.75576700  0.27360400  1
  O  O62  1  0.51840500  0.27417300  0.05973000  1
  O  O63  1  0.24423300  0.72582700  0.60693700  1
  O  O64  1  0.75576700  0.48159500  0.72639600  1
  O  O65  1  0.72582700  0.24423300  0.39306300  1
