# generated using pymatgen
data_Co(H3Cl)2
_symmetry_space_group_name_H-M   'P 1'
_cell_length_a   5.11191447
_cell_length_b   5.11191447
_cell_length_c   5.38031208
_cell_angle_alpha   80.72437891
_cell_angle_beta   80.72437891
_cell_angle_gamma   75.95190958
_symmetry_Int_Tables_number   1
_chemical_formula_structural   Co(H3Cl)2
_chemical_formula_sum   'Co1 H6 Cl2'
_cell_volume   133.50981739
_cell_formula_units_Z   1
loop_
 _symmetry_equiv_pos_site_id
 _symmetry_equiv_pos_as_xyz
  1  'x, y, z'
loop_
 _atom_site_type_symbol
 _atom_site_label
 _atom_site_symmetry_multiplicity
 _atom_site_fract_x
 _atom_site_fract_y
 _atom_site_fract_z
 _atom_site_occupancy
  Co  Co0  1  0.00000000  0.00000000  0.00000000  1
  H  H1  1  0.05680400  0.18751300  0.72698300  1
  H  H2  1  0.94319600  0.81248700  0.27301700  1
  H  H3  1  0.81248700  0.94319600  0.27301700  1
  H  H4  1  0.18751300  0.05680400  0.72698300  1
  H  H5  1  0.45292600  0.45292600  0.51893500  1
  H  H6  1  0.54707400  0.54707400  0.48106500  1
  Cl  Cl7  1  0.78593300  0.78593300  0.82176800  1
  Cl  Cl8  1  0.21406700  0.21406700  0.17823200  1
