# generated using pymatgen
data_Cr6O11
_symmetry_space_group_name_H-M   'P 1'
_cell_length_a   5.47294548
_cell_length_b   7.08460947
_cell_length_c   9.60112373
_cell_angle_alpha   89.55339538
_cell_angle_beta   81.06396963
_cell_angle_gamma   72.10183132
_symmetry_Int_Tables_number   1
_chemical_formula_structural   Cr6O11
_chemical_formula_sum   'Cr12 O22'
_cell_volume   349.63872131
_cell_formula_units_Z   2
loop_
 _symmetry_equiv_pos_site_id
 _symmetry_equiv_pos_as_xyz
  1  'x, y, z'
loop_
 _atom_site_type_symbol
 _atom_site_label
 _atom_site_symmetry_multiplicity
 _atom_site_fract_x
 _atom_site_fract_y
 _atom_site_fract_z
 _atom_site_occupancy
  Cr  Cr0  1  0.27136100  0.64049400  0.58654400  1
  Cr  Cr1  1  0.72863900  0.35950600  0.41345600  1
  Cr  Cr2  1  0.26766800  0.13903400  0.58698000  1
  Cr  Cr3  1  0.73233200  0.86096600  0.41302000  1
  Cr  Cr4  1  0.67148600  0.30799700  0.06062900  1
  Cr  Cr5  1  0.32851400  0.69200300  0.93937100  1
  Cr  Cr6  1  0.19077000  0.56886700  0.24068000  1
  Cr  Cr7  1  0.80923000  0.43113300  0.75932000  1
  Cr  Cr8  1  0.18774300  0.07560400  0.23767400  1
  Cr  Cr9  1  0.81225700  0.92439600  0.76232600  1
  Cr  Cr10  1  0.32139100  0.19186300  0.94061400  1
  Cr  Cr11  1  0.67860900  0.80813700  0.05938600  1
  O  O12  1  0.15875600  0.26381500  0.77726400  1
  O  O13  1  0.84124400  0.73618500  0.22273600  1
  O  O14  1  0.85813900  0.07937400  0.35122600  1
  O  O15  1  0.14186100  0.92062600  0.64877400  1
  O  O16  1  0.09242600  0.70001800  0.42579100  1
  O  O17  1  0.90757400  0.29998200  0.57420900  1
  O  O18  1  0.28729500  0.45483000  0.03699100  1
  O  O19  1  0.71270500  0.54517000  0.96300900  1
  O  O20  1  0.02695200  0.16562200  0.06825400  1
  O  O21  1  0.97304800  0.83437800  0.93174600  1
  O  O22  1  0.37619200  0.01660500  0.39634700  1
  O  O23  1  0.62380800  0.98339500  0.60365300  1
  O  O24  1  0.39929500  0.36008900  0.52621600  1
  O  O25  1  0.60070500  0.63991100  0.47378400  1
  O  O26  1  0.31657100  0.79276700  0.14674900  1
  O  O27  1  0.68342900  0.20723300  0.85325100  1
  O  O28  1  0.06053700  0.35695200  0.30104800  1
  O  O29  1  0.93946300  0.64304800  0.69895200  1
  O  O30  1  0.51194100  0.09262400  0.11210900  1
  O  O31  1  0.48805900  0.90737600  0.88789100  1
  O  O32  1  0.55352500  0.42570700  0.24998200  1
  O  O33  1  0.44647500  0.57429300  0.75001800  1
