# generated using pymatgen
data_CaMoO2
_symmetry_space_group_name_H-M   'P 1'
_cell_length_a   7.24305219
_cell_length_b   7.24305219
_cell_length_c   7.24305219
_cell_angle_alpha   127.00769079
_cell_angle_beta   127.00769079
_cell_angle_gamma   78.23813817
_symmetry_Int_Tables_number   1
_chemical_formula_structural   CaMoO2
_chemical_formula_sum   'Ca4 Mo4 O8'
_cell_volume   234.71074167
_cell_formula_units_Z   4
loop_
 _symmetry_equiv_pos_site_id
 _symmetry_equiv_pos_as_xyz
  1  'x, y, z'
loop_
 _atom_site_type_symbol
 _atom_site_label
 _atom_site_symmetry_multiplicity
 _atom_site_fract_x
 _atom_site_fract_y
 _atom_site_fract_z
 _atom_site_occupancy
  Ca  Ca0  1  0.87500000  0.62500000  0.25000000  1
  Ca  Ca1  1  0.37500000  0.62500000  0.75000000  1
  Ca  Ca2  1  0.37500000  0.62500000  0.25000000  1
  Ca  Ca3  1  0.37500000  0.12500000  0.75000000  1
  Mo  Mo4  1  0.37500000  0.12500000  0.25000000  1
  Mo  Mo5  1  0.87500000  0.12500000  0.75000000  1
  Mo  Mo6  1  0.87500000  0.12500000  0.25000000  1
  Mo  Mo7  1  0.87500000  0.62500000  0.75000000  1
  O  O8  1  0.15800900  0.38954000  0.23153100  1
  O  O9  1  0.15800900  0.92647900  0.76846900  1
  O  O10  1  0.13954000  0.40800900  0.73153100  1
  O  O11  1  0.59199100  0.86046000  0.26846900  1
  O  O12  1  0.67647900  0.40800900  0.26846900  1
  O  O13  1  0.59199100  0.32352100  0.73153100  1
  O  O14  1  0.61046000  0.84199100  0.76846900  1
  O  O15  1  0.07352100  0.84199100  0.23153100  1
