# generated using pymatgen
data_InH4S2NO8
_symmetry_space_group_name_H-M   'P 1'
_cell_length_a   10.64915100
_cell_length_b   9.25664100
_cell_length_c   10.20100518
_cell_angle_alpha   83.04357574
_cell_angle_beta   90.00000000
_cell_angle_gamma   90.00000000
_symmetry_Int_Tables_number   1
_chemical_formula_structural   InH4S2NO8
_chemical_formula_sum   'In4 H16 S8 N4 O32'
_cell_volume   998.16540075
_cell_formula_units_Z   4
loop_
 _symmetry_equiv_pos_site_id
 _symmetry_equiv_pos_as_xyz
  1  'x, y, z'
loop_
 _atom_site_type_symbol
 _atom_site_label
 _atom_site_symmetry_multiplicity
 _atom_site_fract_x
 _atom_site_fract_y
 _atom_site_fract_z
 _atom_site_occupancy
  In  In0  1  0.24521000  0.62696600  0.22428600  1
  In  In1  1  0.74521000  0.37303400  0.77571400  1
  In  In2  1  0.99625900  0.87714800  0.87076100  1
  In  In3  1  0.49625900  0.12285200  0.12923900  1
  H  H4  1  0.18306900  0.25350900  0.40038800  1
  H  H5  1  0.68306900  0.74649100  0.59961200  1
  H  H6  1  0.18371600  0.58961800  0.57371100  1
  H  H7  1  0.68371600  0.41038200  0.42628900  1
  H  H8  1  0.17816000  0.91382100  0.69985600  1
  H  H9  1  0.67816000  0.08617900  0.30014400  1
  H  H10  1  0.40908100  0.27466100  0.12013800  1
  H  H11  1  0.90908100  0.72533900  0.87986200  1
  H  H12  1  0.20484400  0.98187800  0.36266100  1
  H  H13  1  0.70484400  0.01812200  0.63733900  1
  H  H14  1  0.65795000  0.69463600  0.01929000  1
  H  H15  1  0.15795000  0.30536400  0.98071000  1
  H  H16  1  0.85788300  0.66541600  0.44278400  1
  H  H17  1  0.35788300  0.33458400  0.55721600  1
  H  H18  1  0.14801600  0.53015100  0.33293200  1
  H  H19  1  0.64801600  0.46984900  0.66706800  1
  S  S20  1  0.23101400  0.98246200  0.04514700  1
  S  S21  1  0.73101400  0.01753800  0.95485300  1
  S  S22  1  0.66643000  0.45932700  0.03896500  1
  S  S23  1  0.16643000  0.54067300  0.96103500  1
  S  S24  1  0.38683400  0.88403100  0.41101300  1
  S  S25  1  0.88683400  0.11596900  0.58898700  1
  S  S26  1  0.48752600  0.39203500  0.40154800  1
  S  S27  1  0.98752600  0.60796500  0.59845200  1
  N  N28  1  0.45959200  0.74958800  0.83332200  1
  N  N29  1  0.95959200  0.25041200  0.16667800  1
  N  N30  1  0.90327700  0.75848000  0.19207700  1
  N  N31  1  0.40327700  0.24152000  0.80792300  1
  O  O32  1  0.06056600  0.55207000  0.04957100  1
  O  O33  1  0.56056600  0.44793000  0.95042900  1
  O  O34  1  0.34314400  0.73623000  0.38689900  1
  O  O35  1  0.84314400  0.26377000  0.61310100  1
  O  O36  1  0.15657700  0.99215200  0.91655900  1
  O  O37  1  0.65657700  0.00784800  0.08344100  1
  O  O38  1  0.36657500  0.98522800  0.00932400  1
  O  O39  1  0.86657500  0.01477200  0.99067600  1
  O  O40  1  0.16884500  0.64232000  0.84107900  1
  O  O41  1  0.66884500  0.35768000  0.15892100  1
  O  O42  1  0.66453000  0.61443700  0.09247800  1
  O  O43  1  0.16453000  0.38556300  0.90752200  1
  O  O44  1  0.42384600  0.47260400  0.29143000  1
  O  O45  1  0.92384600  0.52739600  0.70857000  1
  O  O46  1  0.41575600  0.41670500  0.53420300  1
  O  O47  1  0.91575600  0.58329500  0.46579700  1
  O  O48  1  0.01104700  0.76014600  0.59984500  1
  O  O49  1  0.51104700  0.23985400  0.40015500  1
  O  O50  1  0.19598300  0.10229900  0.11847400  1
  O  O51  1  0.69598300  0.89770100  0.88152600  1
  O  O52  1  0.44413000  0.95462500  0.28762000  1
  O  O53  1  0.94413000  0.04537500  0.71238000  1
  O  O54  1  0.26251800  0.97361800  0.43843900  1
  O  O55  1  0.76251800  0.02638200  0.56156100  1
  O  O56  1  0.19695400  0.83834900  0.12309100  1
  O  O57  1  0.69695400  0.16165100  0.87690900  1
  O  O58  1  0.11184800  0.52263200  0.57549100  1
  O  O59  1  0.61184800  0.47736800  0.42450900  1
  O  O60  1  0.28788100  0.54440800  0.03933100  1
  O  O61  1  0.78788100  0.45559200  0.96066900  1
  O  O62  1  0.46027100  0.88642000  0.52799400  1
  O  O63  1  0.96027100  0.11358000  0.47200600  1
