# generated using pymatgen
data_BaNb6HO16
_symmetry_space_group_name_H-M   'P 1'
_cell_length_a   11.85095819
_cell_length_b   11.85095819
_cell_length_c   11.85095819
_cell_angle_alpha   161.25970658
_cell_angle_beta   136.21670110
_cell_angle_gamma   48.01419121
_symmetry_Int_Tables_number   1
_chemical_formula_structural   BaNb6HO16
_chemical_formula_sum   'Ba1 Nb6 H1 O16'
_cell_volume   369.18994243
_cell_formula_units_Z   1
loop_
 _symmetry_equiv_pos_site_id
 _symmetry_equiv_pos_as_xyz
  1  'x, y, z'
loop_
 _atom_site_type_symbol
 _atom_site_label
 _atom_site_symmetry_multiplicity
 _atom_site_fract_x
 _atom_site_fract_y
 _atom_site_fract_z
 _atom_site_occupancy
  Ba  Ba0  1  0.50000000  0.00000000  0.50000000  1
  Nb  Nb1  1  0.67748200  0.37111300  0.30636900  1
  Nb  Nb2  1  0.32251800  0.62888700  0.69363100  1
  Nb  Nb3  1  0.06474400  0.37111300  0.69363100  1
  Nb  Nb4  1  0.93525600  0.62888700  0.30636900  1
  Nb  Nb5  1  0.24033300  0.24033300  0.00000000  1
  Nb  Nb6  1  0.75966700  0.75966700  0.00000000  1
  H  H7  1  0.00000000  0.00000000  0.00000000  1
  O  O8  1  0.45257600  0.29551700  0.15705800  1
  O  O9  1  0.54742400  0.70448300  0.84294200  1
  O  O10  1  0.13845900  0.29551700  0.84294200  1
  O  O11  1  0.86154100  0.70448300  0.15705800  1
  O  O12  1  0.08545100  0.58545100  0.50000000  1
  O  O13  1  0.91454900  0.41454900  0.50000000  1
  O  O14  1  0.60241700  0.43257000  0.16984700  1
  O  O15  1  0.39758300  0.56743000  0.83015300  1
  O  O16  1  0.26272300  0.43257000  0.83015300  1
  O  O17  1  0.73727700  0.56743000  0.16984700  1
  O  O18  1  0.31636600  0.15317900  0.16318700  1
  O  O19  1  0.68363400  0.84682100  0.83681300  1
  O  O20  1  0.98999200  0.15317900  0.83681300  1
  O  O21  1  0.01000800  0.84682100  0.16318700  1
  O  O22  1  0.21272700  0.71272700  0.50000000  1
  O  O23  1  0.78727300  0.28727300  0.50000000  1
