# generated using pymatgen
data_CsNb3VCl11
_symmetry_space_group_name_H-M   'P 1'
_cell_length_a   6.95418700
_cell_length_b   13.69658300
_cell_length_c   17.33412300
_cell_angle_alpha   90.00000000
_cell_angle_beta   90.00000000
_cell_angle_gamma   90.00000000
_symmetry_Int_Tables_number   1
_chemical_formula_structural   CsNb3VCl11
_chemical_formula_sum   'Cs4 Nb12 V4 Cl44'
_cell_volume   1651.05093832
_cell_formula_units_Z   4
loop_
 _symmetry_equiv_pos_site_id
 _symmetry_equiv_pos_as_xyz
  1  'x, y, z'
loop_
 _atom_site_type_symbol
 _atom_site_label
 _atom_site_symmetry_multiplicity
 _atom_site_fract_x
 _atom_site_fract_y
 _atom_site_fract_z
 _atom_site_occupancy
  Cs  Cs0  1  0.25000000  0.99572500  0.25868800  1
  Cs  Cs1  1  0.75000000  0.00427500  0.74131200  1
  Cs  Cs2  1  0.75000000  0.50427500  0.75868800  1
  Cs  Cs3  1  0.25000000  0.49572500  0.24131200  1
  Nb  Nb4  1  0.04418600  0.74801800  0.51244700  1
  Nb  Nb5  1  0.95581400  0.25198200  0.48755300  1
  Nb  Nb6  1  0.95581400  0.75198200  0.01244700  1
  Nb  Nb7  1  0.54418600  0.25198200  0.48755300  1
  Nb  Nb8  1  0.04418600  0.24801800  0.98755300  1
  Nb  Nb9  1  0.45581400  0.74801800  0.51244700  1
  Nb  Nb10  1  0.45581400  0.24801800  0.98755300  1
  Nb  Nb11  1  0.54418600  0.75198200  0.01244700  1
  Nb  Nb12  1  0.25000000  0.69053100  0.64746900  1
  Nb  Nb13  1  0.75000000  0.30946900  0.35253100  1
  Nb  Nb14  1  0.75000000  0.80946900  0.14746900  1
  Nb  Nb15  1  0.25000000  0.19053100  0.85253100  1
  V  V16  1  0.25000000  0.68026700  0.83582100  1
  V  V17  1  0.75000000  0.31973300  0.16417900  1
  V  V18  1  0.75000000  0.81973300  0.33582100  1
  V  V19  1  0.25000000  0.18026700  0.66417900  1
  Cl  Cl20  1  0.25000000  0.82089000  0.92816300  1
  Cl  Cl21  1  0.75000000  0.17911000  0.07183700  1
  Cl  Cl22  1  0.75000000  0.67911000  0.42816300  1
  Cl  Cl23  1  0.25000000  0.32089000  0.57183700  1
  Cl  Cl24  1  0.25000000  0.85614600  0.59004200  1
  Cl  Cl25  1  0.75000000  0.14385400  0.40995800  1
  Cl  Cl26  1  0.75000000  0.64385400  0.09004200  1
  Cl  Cl27  1  0.25000000  0.35614600  0.90995800  1
  Cl  Cl28  1  0.01354100  0.75363900  0.74685700  1
  Cl  Cl29  1  0.98645900  0.24636100  0.25314300  1
  Cl  Cl30  1  0.98645900  0.74636100  0.24685700  1
  Cl  Cl31  1  0.51354100  0.24636100  0.25314300  1
  Cl  Cl32  1  0.01354100  0.25363900  0.75314300  1
  Cl  Cl33  1  0.48645900  0.75363900  0.74685700  1
  Cl  Cl34  1  0.48645900  0.25363900  0.75314300  1
  Cl  Cl35  1  0.51354100  0.74636100  0.24685700  1
  Cl  Cl36  1  0.49968200  0.61021400  0.92023100  1
  Cl  Cl37  1  0.50031800  0.38978600  0.07976900  1
  Cl  Cl38  1  0.50031800  0.88978600  0.42023100  1
  Cl  Cl39  1  0.99968200  0.38978600  0.07976900  1
  Cl  Cl40  1  0.49968200  0.11021400  0.57976900  1
  Cl  Cl41  1  0.00031800  0.61021400  0.92023100  1
  Cl  Cl42  1  0.00031800  0.11021400  0.57976900  1
  Cl  Cl43  1  0.99968200  0.88978600  0.42023100  1
  Cl  Cl44  1  0.25000000  0.54246900  0.74557400  1
  Cl  Cl45  1  0.75000000  0.45753100  0.25442600  1
  Cl  Cl46  1  0.75000000  0.95753100  0.24557400  1
  Cl  Cl47  1  0.25000000  0.04246900  0.75442600  1
  Cl  Cl48  1  0.00765000  0.59090800  0.58048200  1
  Cl  Cl49  1  0.99235000  0.40909200  0.41951800  1
  Cl  Cl50  1  0.99235000  0.90909200  0.08048200  1
  Cl  Cl51  1  0.50765000  0.40909200  0.41951800  1
  Cl  Cl52  1  0.00765000  0.09090800  0.91951800  1
  Cl  Cl53  1  0.49235000  0.59090800  0.58048200  1
  Cl  Cl54  1  0.49235000  0.09090800  0.91951800  1
  Cl  Cl55  1  0.50765000  0.90909200  0.08048200  1
  Cl  Cl56  1  0.25000000  0.16039200  0.07994100  1
  Cl  Cl57  1  0.75000000  0.83960800  0.92005900  1
  Cl  Cl58  1  0.75000000  0.33960800  0.57994100  1
  Cl  Cl59  1  0.25000000  0.66039200  0.42005900  1
  Cl  Cl60  1  0.25000000  0.67943300  0.08305100  1
  Cl  Cl61  1  0.75000000  0.32056700  0.91694900  1
  Cl  Cl62  1  0.75000000  0.82056700  0.58305100  1
  Cl  Cl63  1  0.25000000  0.17943300  0.41694900  1
