# generated using pymatgen
data_K2Fe3(S3O19)2
_symmetry_space_group_name_H-M   'P 1'
_cell_length_a   9.71408802
_cell_length_b   9.71408802
_cell_length_c   19.11794500
_cell_angle_alpha   90.00000000
_cell_angle_beta   90.00000000
_cell_angle_gamma   120.00000010
_symmetry_Int_Tables_number   1
_chemical_formula_structural   K2Fe3(S3O19)2
_chemical_formula_sum   'K4 Fe6 S12 O76'
_cell_volume   1562.34127829
_cell_formula_units_Z   2
loop_
 _symmetry_equiv_pos_site_id
 _symmetry_equiv_pos_as_xyz
  1  'x, y, z'
loop_
 _atom_site_type_symbol
 _atom_site_label
 _atom_site_symmetry_multiplicity
 _atom_site_fract_x
 _atom_site_fract_y
 _atom_site_fract_z
 _atom_site_occupancy
  K  K0  1  0.00000000  0.00000000  0.00000000  1
  K  K1  1  0.00000000  0.00000000  0.50000000  1
  K  K2  1  0.33333300  0.66666700  0.75000000  1
  K  K3  1  0.66666700  0.33333300  0.25000000  1
  Fe  Fe4  1  0.81975700  0.04029100  0.75000000  1
  Fe  Fe5  1  0.18024300  0.95970900  0.25000000  1
  Fe  Fe6  1  0.22053400  0.18024300  0.75000000  1
  Fe  Fe7  1  0.77946600  0.81975700  0.25000000  1
  Fe  Fe8  1  0.95970900  0.77946600  0.75000000  1
  Fe  Fe9  1  0.04029100  0.22053400  0.25000000  1
  S  S10  1  0.67775900  0.73509700  0.86046900  1
  S  S11  1  0.32224100  0.26490300  0.13953100  1
  S  S12  1  0.05733900  0.32224100  0.86046900  1
  S  S13  1  0.32224100  0.26490300  0.36046900  1
  S  S14  1  0.94266100  0.67775900  0.13953100  1
  S  S15  1  0.67775900  0.73509700  0.63953100  1
  S  S16  1  0.26490300  0.94266100  0.86046900  1
  S  S17  1  0.94266100  0.67775900  0.36046900  1
  S  S18  1  0.73509700  0.05733900  0.13953100  1
  S  S19  1  0.05733900  0.32224100  0.63953100  1
  S  S20  1  0.73509700  0.05733900  0.36046900  1
  S  S21  1  0.26490300  0.94266100  0.63953100  1
  O  O22  1  0.66666700  0.33333300  0.88050600  1
  O  O23  1  0.33333300  0.66666700  0.11949400  1
  O  O24  1  0.33333300  0.66666700  0.38050600  1
  O  O25  1  0.66666700  0.33333300  0.61949400  1
  O  O26  1  0.72256300  0.77456700  0.93358800  1
  O  O27  1  0.27743700  0.22543300  0.06641200  1
  O  O28  1  0.05200400  0.27743700  0.93358800  1
  O  O29  1  0.27743700  0.22543300  0.43358800  1
  O  O30  1  0.94799600  0.72256300  0.06641200  1
  O  O31  1  0.72256300  0.77456700  0.56641200  1
  O  O32  1  0.22543300  0.94799600  0.93358800  1
  O  O33  1  0.94799600  0.72256300  0.43358800  1
  O  O34  1  0.77456700  0.05200400  0.06641200  1
  O  O35  1  0.05200400  0.27743700  0.56641200  1
  O  O36  1  0.77456700  0.05200400  0.43358800  1
  O  O37  1  0.22543300  0.94799600  0.56641200  1
  O  O38  1  0.63070900  0.09286800  0.75000000  1
  O  O39  1  0.36929100  0.90713200  0.25000000  1
  O  O40  1  0.46215900  0.36929100  0.75000000  1
  O  O41  1  0.53784100  0.63070900  0.25000000  1
  O  O42  1  0.90713200  0.53784100  0.75000000  1
  O  O43  1  0.09286800  0.46215900  0.25000000  1
  O  O44  1  0.64295800  0.14393100  0.94106500  1
  O  O45  1  0.35704200  0.85606900  0.05893500  1
  O  O46  1  0.50097300  0.35704200  0.94106500  1
  O  O47  1  0.35704200  0.85606900  0.44106500  1
  O  O48  1  0.49902700  0.64295800  0.05893500  1
  O  O49  1  0.64295800  0.14393100  0.55893500  1
  O  O50  1  0.85606900  0.49902700  0.94106500  1
  O  O51  1  0.49902700  0.64295800  0.44106500  1
  O  O52  1  0.14393100  0.50097300  0.05893500  1
  O  O53  1  0.50097300  0.35704200  0.55893500  1
  O  O54  1  0.14393100  0.50097300  0.44106500  1
  O  O55  1  0.85606900  0.49902700  0.55893500  1
  O  O56  1  0.51592200  0.60147500  0.85055900  1
  O  O57  1  0.48407800  0.39852500  0.14944100  1
  O  O58  1  0.08555200  0.48407800  0.85055900  1
  O  O59  1  0.48407800  0.39852500  0.35055900  1
  O  O60  1  0.91444800  0.51592200  0.14944100  1
  O  O61  1  0.51592200  0.60147500  0.64944100  1
  O  O62  1  0.39852500  0.91444800  0.85055900  1
  O  O63  1  0.91444800  0.51592200  0.35055900  1
  O  O64  1  0.60147500  0.08555200  0.14944100  1
  O  O65  1  0.08555200  0.48407800  0.64944100  1
  O  O66  1  0.60147500  0.08555200  0.35055900  1
  O  O67  1  0.39852500  0.91444800  0.64944100  1
  O  O68  1  0.90157600  0.20563500  0.82599000  1
  O  O69  1  0.09842400  0.79436500  0.17401000  1
  O  O70  1  0.30405900  0.09842400  0.82599000  1
  O  O71  1  0.09842400  0.79436500  0.32599000  1
  O  O72  1  0.69594100  0.90157600  0.17401000  1
  O  O73  1  0.90157600  0.20563500  0.67401000  1
  O  O74  1  0.79436500  0.69594100  0.82599000  1
  O  O75  1  0.69594100  0.90157600  0.32599000  1
  O  O76  1  0.20563500  0.30405900  0.17401000  1
  O  O77  1  0.30405900  0.09842400  0.67401000  1
  O  O78  1  0.20563500  0.30405900  0.32599000  1
  O  O79  1  0.79436500  0.69594100  0.67401000  1
  O  O80  1  0.66666700  0.33333300  0.49991200  1
  O  O81  1  0.33333300  0.66666700  0.50008800  1
  O  O82  1  0.33333300  0.66666700  0.99991200  1
  O  O83  1  0.66666700  0.33333300  0.00008800  1
  O  O84  1  0.68974300  0.87896800  0.82373900  1
  O  O85  1  0.31025700  0.12103200  0.17626100  1
  O  O86  1  0.18922500  0.31025700  0.82373900  1
  O  O87  1  0.31025700  0.12103200  0.32373900  1
  O  O88  1  0.81077500  0.68974300  0.17626100  1
  O  O89  1  0.68974300  0.87896800  0.67626100  1
  O  O90  1  0.12103200  0.81077500  0.82373900  1
  O  O91  1  0.81077500  0.68974300  0.32373900  1
  O  O92  1  0.87896800  0.18922500  0.17626100  1
  O  O93  1  0.18922500  0.31025700  0.67626100  1
  O  O94  1  0.87896800  0.18922500  0.32373900  1
  O  O95  1  0.12103200  0.81077500  0.67626100  1
  O  O96  1  0.00000000  0.00000000  0.75000000  1
  O  O97  1  0.00000000  0.00000000  0.25000000  1
