# generated using pymatgen
data_Cs2MgZr(PO4)3
_symmetry_space_group_name_H-M   'P 1'
_cell_length_a   10.44449200
_cell_length_b   10.44449200
_cell_length_c   10.44449200
_cell_angle_alpha   90.00000000
_cell_angle_beta   90.00000000
_cell_angle_gamma   90.00000000
_symmetry_Int_Tables_number   1
_chemical_formula_structural   Cs2MgZr(PO4)3
_chemical_formula_sum   'Cs8 Mg4 Zr4 P12 O48'
_cell_volume   1139.36261382
_cell_formula_units_Z   4
loop_
 _symmetry_equiv_pos_site_id
 _symmetry_equiv_pos_as_xyz
  1  'x, y, z'
loop_
 _atom_site_type_symbol
 _atom_site_label
 _atom_site_symmetry_multiplicity
 _atom_site_fract_x
 _atom_site_fract_y
 _atom_site_fract_z
 _atom_site_occupancy
  Cs  Cs0  1  0.81631700  0.81631700  0.81631700  1
  Cs  Cs1  1  0.68368300  0.18368300  0.31631700  1
  Cs  Cs2  1  0.18368300  0.31631700  0.68368300  1
  Cs  Cs3  1  0.31631700  0.68368300  0.18368300  1
  Cs  Cs4  1  0.04141800  0.04141800  0.04141800  1
  Cs  Cs5  1  0.45858200  0.95858200  0.54141800  1
  Cs  Cs6  1  0.95858200  0.54141800  0.45858200  1
  Cs  Cs7  1  0.54141800  0.45858200  0.95858200  1
  Mg  Mg8  1  0.60777100  0.60777100  0.60777100  1
  Mg  Mg9  1  0.89222900  0.39222900  0.10777100  1
  Mg  Mg10  1  0.39222900  0.10777100  0.89222900  1
  Mg  Mg11  1  0.10777100  0.89222900  0.39222900  1
  Zr  Zr12  1  0.33629200  0.33629200  0.33629200  1
  Zr  Zr13  1  0.16370800  0.66370800  0.83629200  1
  Zr  Zr14  1  0.66370800  0.83629200  0.16370800  1
  Zr  Zr15  1  0.83629200  0.16370800  0.66370800  1
  P  P16  1  0.02102600  0.20584100  0.37250900  1
  P  P17  1  0.47897400  0.79415900  0.87250900  1
  P  P18  1  0.97897400  0.70584100  0.12749100  1
  P  P19  1  0.37250900  0.02102600  0.20584100  1
  P  P20  1  0.52102600  0.29415900  0.62749100  1
  P  P21  1  0.87250900  0.47897400  0.79415900  1
  P  P22  1  0.12749100  0.97897400  0.70584100  1
  P  P23  1  0.62749100  0.52102600  0.29415900  1
  P  P24  1  0.20584100  0.37250900  0.02102600  1
  P  P25  1  0.70584100  0.12749100  0.97897400  1
  P  P26  1  0.29415900  0.62749100  0.52102600  1
  P  P27  1  0.79415900  0.87250900  0.47897400  1
  O  O28  1  0.16118900  0.25764400  0.39242000  1
  O  O29  1  0.33881100  0.74235600  0.89242000  1
  O  O30  1  0.83881100  0.75764400  0.10758000  1
  O  O31  1  0.39242000  0.16118900  0.25764400  1
  O  O32  1  0.66118900  0.24235600  0.60758000  1
  O  O33  1  0.89242000  0.33881100  0.74235600  1
  O  O34  1  0.10758000  0.83881100  0.75764400  1
  O  O35  1  0.60758000  0.66118900  0.24235600  1
  O  O36  1  0.25764400  0.39242000  0.16118900  1
  O  O37  1  0.75764400  0.10758000  0.83881100  1
  O  O38  1  0.24235600  0.60758000  0.66118900  1
  O  O39  1  0.74235600  0.89242000  0.33881100  1
  O  O40  1  0.02150300  0.06433900  0.33530100  1
  O  O41  1  0.47849700  0.93566100  0.83530100  1
  O  O42  1  0.97849700  0.56433900  0.16469900  1
  O  O43  1  0.33530100  0.02150300  0.06433900  1
  O  O44  1  0.52150300  0.43566100  0.66469900  1
  O  O45  1  0.83530100  0.47849700  0.93566100  1
  O  O46  1  0.16469900  0.97849700  0.56433900  1
  O  O47  1  0.66469900  0.52150300  0.43566100  1
  O  O48  1  0.06433900  0.33530100  0.02150300  1
  O  O49  1  0.56433900  0.16469900  0.97849700  1
  O  O50  1  0.43566100  0.66469900  0.52150300  1
  O  O51  1  0.93566100  0.83530100  0.47849700  1
  O  O52  1  0.27654700  0.49611100  0.44969400  1
  O  O53  1  0.22345300  0.50388900  0.94969400  1
  O  O54  1  0.72345300  0.99611100  0.05030600  1
  O  O55  1  0.44969400  0.27654700  0.49611100  1
  O  O56  1  0.77654700  0.00388900  0.55030600  1
  O  O57  1  0.94969400  0.22345300  0.50388900  1
  O  O58  1  0.05030600  0.72345300  0.99611100  1
  O  O59  1  0.55030600  0.77654700  0.00388900  1
  O  O60  1  0.49611100  0.44969400  0.27654700  1
  O  O61  1  0.99611100  0.05030600  0.72345300  1
  O  O62  1  0.00388900  0.55030600  0.77654700  1
  O  O63  1  0.50388900  0.94969400  0.22345300  1
  O  O64  1  0.04700400  0.78846400  0.22778700  1
  O  O65  1  0.45299600  0.21153600  0.72778700  1
  O  O66  1  0.95299600  0.28846400  0.27221300  1
  O  O67  1  0.22778700  0.04700400  0.78846400  1
  O  O68  1  0.54700400  0.71153600  0.77221300  1
  O  O69  1  0.72778700  0.45299600  0.21153600  1
  O  O70  1  0.27221300  0.95299600  0.28846400  1
  O  O71  1  0.77221300  0.54700400  0.71153600  1
  O  O72  1  0.78846400  0.22778700  0.04700400  1
  O  O73  1  0.28846400  0.27221300  0.95299600  1
  O  O74  1  0.71153600  0.77221300  0.54700400  1
  O  O75  1  0.21153600  0.72778700  0.45299600  1
