# generated using pymatgen
data_Ca5V3CO12
_symmetry_space_group_name_H-M   'P 1'
_cell_length_a   10.17641979
_cell_length_b   10.17641979
_cell_length_c   6.92660400
_cell_angle_alpha   90.00000000
_cell_angle_beta   90.00000000
_cell_angle_gamma   119.99999865
_symmetry_Int_Tables_number   1
_chemical_formula_structural   Ca5V3CO12
_chemical_formula_sum   'Ca10 V6 C2 O24'
_cell_volume   621.21369996
_cell_formula_units_Z   2
loop_
 _symmetry_equiv_pos_site_id
 _symmetry_equiv_pos_as_xyz
  1  'x, y, z'
loop_
 _atom_site_type_symbol
 _atom_site_label
 _atom_site_symmetry_multiplicity
 _atom_site_fract_x
 _atom_site_fract_y
 _atom_site_fract_z
 _atom_site_occupancy
  Ca  Ca0  1  0.33333300  0.66666700  0.99646900  1
  Ca  Ca1  1  0.66666700  0.33333300  0.00353100  1
  Ca  Ca2  1  0.66666700  0.33333300  0.49646900  1
  Ca  Ca3  1  0.33333300  0.66666700  0.50353100  1
  Ca  Ca4  1  0.75319500  0.73429800  0.75000000  1
  Ca  Ca5  1  0.24680500  0.26570200  0.25000000  1
  Ca  Ca6  1  0.98110400  0.24680500  0.75000000  1
  Ca  Ca7  1  0.01889600  0.75319500  0.25000000  1
  Ca  Ca8  1  0.26570200  0.01889600  0.75000000  1
  Ca  Ca9  1  0.73429800  0.98110400  0.25000000  1
  V  V10  1  0.97035300  0.59662300  0.75000000  1
  V  V11  1  0.02964700  0.40337700  0.25000000  1
  V  V12  1  0.62627000  0.02964700  0.75000000  1
  V  V13  1  0.37373000  0.97035300  0.25000000  1
  V  V14  1  0.40337700  0.37373000  0.75000000  1
  V  V15  1  0.59662300  0.62627000  0.25000000  1
  C  C16  1  0.00000000  0.00000000  0.75000000  1
  C  C17  1  0.00000000  0.00000000  0.25000000  1
  O  O18  1  0.49763500  0.83670500  0.75000000  1
  O  O19  1  0.50236500  0.16329500  0.25000000  1
  O  O20  1  0.33907000  0.50236500  0.75000000  1
  O  O21  1  0.66093000  0.49763500  0.25000000  1
  O  O22  1  0.16329500  0.66093000  0.75000000  1
  O  O23  1  0.83670500  0.33907000  0.25000000  1
  O  O24  1  0.86178300  0.39626600  0.75000000  1
  O  O25  1  0.13821700  0.60373400  0.25000000  1
  O  O26  1  0.53448200  0.13821700  0.75000000  1
  O  O27  1  0.46551800  0.86178300  0.25000000  1
  O  O28  1  0.60373400  0.46551800  0.75000000  1
  O  O29  1  0.39626600  0.53448200  0.25000000  1
  O  O30  1  0.91032500  0.65830600  0.94753800  1
  O  O31  1  0.08967500  0.34169400  0.05246200  1
  O  O32  1  0.74798100  0.08967500  0.94753800  1
  O  O33  1  0.08967500  0.34169400  0.44753800  1
  O  O34  1  0.25201900  0.91032500  0.05246200  1
  O  O35  1  0.91032500  0.65830600  0.55246200  1
  O  O36  1  0.34169400  0.25201900  0.94753800  1
  O  O37  1  0.25201900  0.91032500  0.44753800  1
  O  O38  1  0.65830600  0.74798100  0.05246200  1
  O  O39  1  0.74798100  0.08967500  0.55246200  1
  O  O40  1  0.65830600  0.74798100  0.44753800  1
  O  O41  1  0.34169400  0.25201900  0.55246200  1
