# generated using pymatgen
data_CsInH2(SeO4)2
_symmetry_space_group_name_H-M   'P 1'
_cell_length_a   9.37399583
_cell_length_b   9.37399583
_cell_length_c   6.88144383
_cell_angle_alpha   80.51593958
_cell_angle_beta   80.51593958
_cell_angle_gamma   115.20731341
_symmetry_Int_Tables_number   1
_chemical_formula_structural   CsInH2(SeO4)2
_chemical_formula_sum   'Cs2 In2 H4 Se4 O16'
_cell_volume   520.58657006
_cell_formula_units_Z   2
loop_
 _symmetry_equiv_pos_site_id
 _symmetry_equiv_pos_as_xyz
  1  'x, y, z'
loop_
 _atom_site_type_symbol
 _atom_site_label
 _atom_site_symmetry_multiplicity
 _atom_site_fract_x
 _atom_site_fract_y
 _atom_site_fract_z
 _atom_site_occupancy
  Cs  Cs0  1  0.59802900  0.40197100  0.75000000  1
  Cs  Cs1  1  0.40197100  0.59802900  0.25000000  1
  In  In2  1  0.22644400  0.77355600  0.75000000  1
  In  In3  1  0.77355600  0.22644400  0.25000000  1
  H  H4  1  0.96289300  0.06581100  0.29458300  1
  H  H5  1  0.03710700  0.93418900  0.70541700  1
  H  H6  1  0.93418900  0.03710700  0.20541700  1
  H  H7  1  0.06581100  0.96289300  0.79458300  1
  Se  Se8  1  0.61520800  0.90445300  0.70701900  1
  Se  Se9  1  0.38479200  0.09554700  0.29298100  1
  Se  Se10  1  0.09554700  0.38479200  0.79298100  1
  Se  Se11  1  0.90445300  0.61520800  0.20701900  1
  O  O12  1  0.71625700  0.88219800  0.87124700  1
  O  O13  1  0.28374300  0.11780200  0.12875300  1
  O  O14  1  0.11780200  0.28374300  0.62875300  1
  O  O15  1  0.88219800  0.71625700  0.37124700  1
  O  O16  1  0.56131200  0.77011500  0.57040600  1
  O  O17  1  0.43868800  0.22988500  0.42959400  1
  O  O18  1  0.22988500  0.43868800  0.92959400  1
  O  O19  1  0.77011500  0.56131200  0.07040600  1
  O  O20  1  0.43544700  0.89114600  0.84648200  1
  O  O21  1  0.56455300  0.10885400  0.15351800  1
  O  O22  1  0.10885400  0.56455300  0.65351800  1
  O  O23  1  0.89114600  0.43544700  0.34648200  1
  O  O24  1  0.71458000  0.10167900  0.55746600  1
  O  O25  1  0.28542000  0.89832100  0.44253400  1
  O  O26  1  0.89832100  0.28542000  0.94253400  1
  O  O27  1  0.10167900  0.71458000  0.05746600  1
