# generated using pymatgen
data_AlSe2NO8
_symmetry_space_group_name_H-M   'P 1'
_cell_length_a   5.06736044
_cell_length_b   5.06736044
_cell_length_c   8.92981500
_cell_angle_alpha   90.00000000
_cell_angle_beta   90.00000000
_cell_angle_gamma   120.00000577
_symmetry_Int_Tables_number   1
_chemical_formula_structural   AlSe2NO8
_chemical_formula_sum   'Al1 Se2 N1 O8'
_cell_volume   198.58052826
_cell_formula_units_Z   1
loop_
 _symmetry_equiv_pos_site_id
 _symmetry_equiv_pos_as_xyz
  1  'x, y, z'
loop_
 _atom_site_type_symbol
 _atom_site_label
 _atom_site_symmetry_multiplicity
 _atom_site_fract_x
 _atom_site_fract_y
 _atom_site_fract_z
 _atom_site_occupancy
  Al  Al0  1  0.00000000  0.00000000  0.00000000  1
  Se  Se1  1  0.66666700  0.33333300  0.79864900  1
  Se  Se2  1  0.33333300  0.66666700  0.20135100  1
  N  N3  1  0.00000000  0.00000000  0.50000000  1
  O  O4  1  0.92702700  0.25033200  0.86488700  1
  O  O5  1  0.32330600  0.07297300  0.86488700  1
  O  O6  1  0.67669400  0.74966800  0.13511300  1
  O  O7  1  0.74966800  0.67669400  0.86488700  1
  O  O8  1  0.25033200  0.92702700  0.13511300  1
  O  O9  1  0.07297300  0.32330600  0.13511300  1
  O  O10  1  0.66666700  0.33333300  0.61560900  1
  O  O11  1  0.33333300  0.66666700  0.38439100  1
