# generated using pymatgen
data_Zr4Sc5N10
_symmetry_space_group_name_H-M   'P 1'
_cell_length_a   5.58379394
_cell_length_b   5.58379394
_cell_length_c   10.20429210
_cell_angle_alpha   89.94268716
_cell_angle_beta   89.94268716
_cell_angle_gamma   47.59899559
_symmetry_Int_Tables_number   1
_chemical_formula_structural   Zr4Sc5N10
_chemical_formula_sum   'Zr4 Sc5 N10'
_cell_volume   234.94092387
_cell_formula_units_Z   1
loop_
 _symmetry_equiv_pos_site_id
 _symmetry_equiv_pos_as_xyz
  1  'x, y, z'
loop_
 _atom_site_type_symbol
 _atom_site_label
 _atom_site_symmetry_multiplicity
 _atom_site_fract_x
 _atom_site_fract_y
 _atom_site_fract_z
 _atom_site_occupancy
  Zr  Zr0  1  0.69892500  0.69892500  0.09698600  1
  Zr  Zr1  1  0.40563100  0.40563100  0.19576400  1
  Zr  Zr2  1  0.59436900  0.59436900  0.80423600  1
  Zr  Zr3  1  0.30107500  0.30107500  0.90301400  1
  Sc  Sc4  1  0.09910900  0.09910900  0.29856900  1
  Sc  Sc5  1  0.80125200  0.80125200  0.40359900  1
  Sc  Sc6  1  0.50000000  0.50000000  0.50000000  1
  Sc  Sc7  1  0.19874800  0.19874800  0.59640100  1
  Sc  Sc8  1  0.90089100  0.90089100  0.70143100  1
  N  N9  1  0.40101000  0.40101000  0.70206300  1
  N  N10  1  0.30038900  0.30038900  0.40011500  1
  N  N11  1  0.10639000  0.10639000  0.78805800  1
  N  N12  1  0.00000000  0.00000000  0.50000000  1
  N  N13  1  0.69961100  0.69961100  0.59988500  1
  N  N14  1  0.89361000  0.89361000  0.21194200  1
  N  N15  1  0.59899000  0.59899000  0.29793700  1
  N  N16  1  0.78622300  0.78622300  0.89579100  1
  N  N17  1  0.50000000  0.50000000  0.00000000  1
  N  N18  1  0.21377700  0.21377700  0.10420900  1
