# generated using pymatgen
data_Ba2YbCu3O7
_symmetry_space_group_name_H-M   'P 1'
_cell_length_a   3.83803500
_cell_length_b   3.87561800
_cell_length_c   11.88327500
_cell_angle_alpha   90.00000000
_cell_angle_beta   90.00000000
_cell_angle_gamma   90.00000000
_symmetry_Int_Tables_number   1
_chemical_formula_structural   Ba2YbCu3O7
_chemical_formula_sum   'Ba2 Yb1 Cu3 O7'
_cell_volume   176.76083429
_cell_formula_units_Z   1
loop_
 _symmetry_equiv_pos_site_id
 _symmetry_equiv_pos_as_xyz
  1  'x, y, z'
loop_
 _atom_site_type_symbol
 _atom_site_label
 _atom_site_symmetry_multiplicity
 _atom_site_fract_x
 _atom_site_fract_y
 _atom_site_fract_z
 _atom_site_occupancy
  Ba  Ba0  1  0.50000000  0.50000000  0.18861900  1
  Ba  Ba1  1  0.50000000  0.50000000  0.81138100  1
  Yb  Yb2  1  0.50000000  0.50000000  0.50000000  1
  Cu  Cu3  1  0.00000000  0.00000000  0.35698800  1
  Cu  Cu4  1  0.00000000  0.00000000  0.64301200  1
  Cu  Cu5  1  0.00000000  0.00000000  0.00000000  1
  O  O6  1  0.50000000  0.00000000  0.37535500  1
  O  O7  1  0.50000000  0.00000000  0.62464500  1
  O  O8  1  0.00000000  0.50000000  0.37407900  1
  O  O9  1  0.00000000  0.50000000  0.62592100  1
  O  O10  1  0.00000000  0.00000000  0.15674900  1
  O  O11  1  0.00000000  0.00000000  0.84325100  1
  O  O12  1  0.00000000  0.50000000  0.00000000  1
