# generated using pymatgen
data_Ba4Ga22Sn
_symmetry_space_group_name_H-M   'P 1'
_cell_length_a   9.58816215
_cell_length_b   9.58816215
_cell_length_c   9.58816215
_cell_angle_alpha   109.47122063
_cell_angle_beta   109.47122063
_cell_angle_gamma   109.47122063
_symmetry_Int_Tables_number   1
_chemical_formula_structural   Ba4Ga22Sn
_chemical_formula_sum   'Ba4 Ga22 Sn1'
_cell_volume   678.55369476
_cell_formula_units_Z   1
loop_
 _symmetry_equiv_pos_site_id
 _symmetry_equiv_pos_as_xyz
  1  'x, y, z'
loop_
 _atom_site_type_symbol
 _atom_site_label
 _atom_site_symmetry_multiplicity
 _atom_site_fract_x
 _atom_site_fract_y
 _atom_site_fract_z
 _atom_site_occupancy
  Ba  Ba0  1  0.37601600  0.37601600  0.37601600  1
  Ba  Ba1  1  0.62398400  0.00000000  0.00000000  1
  Ba  Ba2  1  0.00000000  0.62398400  0.00000000  1
  Ba  Ba3  1  0.00000000  0.00000000  0.62398400  1
  Ga  Ga4  1  0.71952100  0.71952100  0.71952100  1
  Ga  Ga5  1  0.28047900  0.00000000  0.00000000  1
  Ga  Ga6  1  0.00000000  0.28047900  0.00000000  1
  Ga  Ga7  1  0.00000000  0.00000000  0.28047900  1
  Ga  Ga8  1  0.25000000  0.75000000  0.50000000  1
  Ga  Ga9  1  0.75000000  0.25000000  0.50000000  1
  Ga  Ga10  1  0.75000000  0.50000000  0.25000000  1
  Ga  Ga11  1  0.25000000  0.50000000  0.75000000  1
  Ga  Ga12  1  0.50000000  0.25000000  0.75000000  1
  Ga  Ga13  1  0.50000000  0.75000000  0.25000000  1
  Ga  Ga14  1  0.83561300  0.56004200  0.56004200  1
  Ga  Ga15  1  0.16438700  0.72442900  0.72442900  1
  Ga  Ga16  1  0.00000000  0.43995800  0.27557100  1
  Ga  Ga17  1  0.56004200  0.56004200  0.83561300  1
  Ga  Ga18  1  0.00000000  0.27557100  0.43995800  1
  Ga  Ga19  1  0.72442900  0.72442900  0.16438700  1
  Ga  Ga20  1  0.43995800  0.27557100  0.00000000  1
  Ga  Ga21  1  0.27557100  0.43995800  0.00000000  1
  Ga  Ga22  1  0.56004200  0.83561300  0.56004200  1
  Ga  Ga23  1  0.27557100  0.00000000  0.43995800  1
  Ga  Ga24  1  0.43995800  0.00000000  0.27557100  1
  Ga  Ga25  1  0.72442900  0.16438700  0.72442900  1
  Sn  Sn26  1  0.00000000  0.00000000  0.00000000  1
