# generated using pymatgen
data_BaCuH12(C2O7)2
_symmetry_space_group_name_H-M   'P 1'
_cell_length_a   9.80000175
_cell_length_b   9.80000175
_cell_length_c   16.15006984
_cell_angle_alpha   81.24622277
_cell_angle_beta   81.24622277
_cell_angle_gamma   66.21744616
_symmetry_Int_Tables_number   1
_chemical_formula_structural   BaCuH12(C2O7)2
_chemical_formula_sum   'Ba4 Cu4 H48 C16 O56'
_cell_volume   1395.71843249
_cell_formula_units_Z   4
loop_
 _symmetry_equiv_pos_site_id
 _symmetry_equiv_pos_as_xyz
  1  'x, y, z'
loop_
 _atom_site_type_symbol
 _atom_site_label
 _atom_site_symmetry_multiplicity
 _atom_site_fract_x
 _atom_site_fract_y
 _atom_site_fract_z
 _atom_site_occupancy
  Ba  Ba0  1  0.39069200  0.32631100  0.20906600  1
  Ba  Ba1  1  0.60930800  0.67368900  0.79093400  1
  Ba  Ba2  1  0.67368900  0.60930800  0.29093400  1
  Ba  Ba3  1  0.32631100  0.39069200  0.70906600  1
  Cu  Cu4  1  0.81758800  0.96872100  0.45659000  1
  Cu  Cu5  1  0.18241200  0.03127900  0.54341000  1
  Cu  Cu6  1  0.03127900  0.18241200  0.04341000  1
  Cu  Cu7  1  0.96872100  0.81758800  0.95659000  1
  H  H8  1  0.37822500  0.11130700  0.06939300  1
  H  H9  1  0.62177500  0.88869300  0.93060700  1
  H  H10  1  0.88869300  0.62177500  0.43060700  1
  H  H11  1  0.11130700  0.37822500  0.56939300  1
  H  H12  1  0.34245300  0.57414700  0.04327000  1
  H  H13  1  0.65754700  0.42585300  0.95673000  1
  H  H14  1  0.42585300  0.65754700  0.45673000  1
  H  H15  1  0.57414700  0.34245300  0.54327000  1
  H  H16  1  0.42074900  0.80123100  0.00898800  1
  H  H17  1  0.57925100  0.19876900  0.99101200  1
  H  H18  1  0.19876900  0.57925100  0.49101200  1
  H  H19  1  0.80123100  0.42074900  0.50898800  1
  H  H20  1  0.52758900  0.00583900  0.10818600  1
  H  H21  1  0.47241100  0.99416100  0.89181400  1
  H  H22  1  0.99416100  0.47241100  0.39181400  1
  H  H23  1  0.00583900  0.52758900  0.60818600  1
  H  H24  1  0.78572100  0.88634400  0.28697600  1
  H  H25  1  0.21427900  0.11365600  0.71302400  1
  H  H26  1  0.11365600  0.21427900  0.21302400  1
  H  H27  1  0.88634400  0.78572100  0.78697600  1
  H  H28  1  0.58008900  0.32655500  0.37167200  1
  H  H29  1  0.41991100  0.67344500  0.62832800  1
  H  H30  1  0.67344500  0.41991100  0.12832800  1
  H  H31  1  0.32655500  0.58008900  0.87167200  1
  H  H32  1  0.47967600  0.78693900  0.45489900  1
  H  H33  1  0.52032400  0.21306100  0.54510100  1
  H  H34  1  0.21306100  0.52032400  0.04510100  1
  H  H35  1  0.78693900  0.47967600  0.95489900  1
  H  H36  1  0.53915700  0.57645300  0.11265900  1
  H  H37  1  0.46084300  0.42354700  0.88734100  1
  H  H38  1  0.42354700  0.46084300  0.38734100  1
  H  H39  1  0.57645300  0.53915700  0.61265900  1
  H  H40  1  0.62457100  0.94670200  0.33614900  1
  H  H41  1  0.37542900  0.05329800  0.66385100  1
  H  H42  1  0.05329800  0.37542900  0.16385100  1
  H  H43  1  0.94670200  0.62457100  0.83614900  1
  H  H44  1  0.30164300  0.88767700  0.27925600  1
  H  H45  1  0.69835700  0.11232300  0.72074400  1
  H  H46  1  0.11232300  0.69835700  0.22074400  1
  H  H47  1  0.88767700  0.30164300  0.77925600  1
  H  H48  1  0.36563500  0.78893700  0.20444400  1
  H  H49  1  0.63436500  0.21106300  0.79555600  1
  H  H50  1  0.21106300  0.63436500  0.29555600  1
  H  H51  1  0.78893700  0.36563500  0.70444400  1
  H  H52  1  0.27212800  0.82316100  0.06838900  1
  H  H53  1  0.72787200  0.17683900  0.93161100  1
  H  H54  1  0.17683900  0.72787200  0.43161000  1
  H  H55  1  0.82316100  0.27212800  0.56838900  1
  C  C56  1  0.35210900  0.09297600  0.40401100  1
  C  C57  1  0.64789100  0.90702400  0.59598900  1
  C  C58  1  0.90702400  0.64789100  0.09598900  1
  C  C59  1  0.09297600  0.35210900  0.90401100  1
  C  C60  1  0.81165300  0.13076200  0.15148900  1
  C  C61  1  0.18834700  0.86923800  0.84851100  1
  C  C62  1  0.86923800  0.18834700  0.34851100  1
  C  C63  1  0.13076200  0.81165300  0.65148900  1
  C  C64  1  0.76400100  0.79195300  0.08487500  1
  C  C65  1  0.23599900  0.20804700  0.91512500  1
  C  C66  1  0.20804700  0.23599900  0.41512500  1
  C  C67  1  0.79195300  0.76400100  0.58487500  1
  C  C68  1  0.95205200  0.98049600  0.15386300  1
  C  C69  1  0.04794800  0.01950400  0.84613700  1
  C  C70  1  0.01950400  0.04794800  0.34613700  1
  C  C71  1  0.98049600  0.95205200  0.65386300  1
  O  O72  1  0.46616000  0.11222300  0.09056600  1
  O  O73  1  0.53384000  0.88777700  0.90943400  1
  O  O74  1  0.88777700  0.53384000  0.40943400  1
  O  O75  1  0.11222300  0.46616000  0.59056600  1
  O  O76  1  0.72338100  0.86102100  0.33589400  1
  O  O77  1  0.27661900  0.13897900  0.66410600  1
  O  O78  1  0.13897900  0.27661900  0.16410600  1
  O  O79  1  0.86102100  0.72338100  0.83589400  1
  O  O80  1  0.77092400  0.88139200  0.01828800  1
  O  O81  1  0.22907600  0.11860800  0.98171200  1
  O  O82  1  0.11860800  0.22907600  0.48171200  1
  O  O83  1  0.88139200  0.77092400  0.51828800  1
  O  O84  1  0.44651200  0.09058800  0.34219500  1
  O  O85  1  0.55348800  0.90941200  0.65780500  1
  O  O86  1  0.90941200  0.55348800  0.15780500  1
  O  O87  1  0.09058800  0.44651200  0.84219500  1
  O  O88  1  0.65245000  0.81496400  0.13805100  1
  O  O89  1  0.34755000  0.18503600  0.86194900  1
  O  O90  1  0.18503600  0.34755000  0.36194900  1
  O  O91  1  0.81496400  0.65245000  0.63805100  1
  O  O92  1  0.32156000  0.48227800  0.05051600  1
  O  O93  1  0.67844000  0.51772200  0.94948400  1
  O  O94  1  0.51772200  0.67844000  0.44948400  1
  O  O95  1  0.48227800  0.32156000  0.55051600  1
  O  O96  1  0.69321300  0.13882100  0.19479600  1
  O  O97  1  0.30678700  0.86117900  0.80520400  1
  O  O98  1  0.86117900  0.30678700  0.30520400  1
  O  O99  1  0.13882100  0.69321300  0.69479600  1
  O  O100  1  0.38626200  0.79784400  0.26011600  1
  O  O101  1  0.61373800  0.20215600  0.73988400  1
  O  O102  1  0.20215600  0.61373800  0.23988400  1
  O  O103  1  0.79784400  0.38626200  0.76011600  1
  O  O104  1  0.50471800  0.41632700  0.34367700  1
  O  O105  1  0.49528200  0.58367300  0.65632300  1
  O  O106  1  0.58367300  0.49528200  0.15632300  1
  O  O107  1  0.41632700  0.50471800  0.84367700  1
  O  O108  1  0.63677600  0.01563900  0.53792600  1
  O  O109  1  0.36322400  0.98436100  0.46207400  1
  O  O110  1  0.98436100  0.36322400  0.96207400  1
  O  O111  1  0.01563900  0.63677600  0.03792600  1
  O  O112  1  0.75948100  0.16905100  0.39787500  1
  O  O113  1  0.24051900  0.83094900  0.60212500  1
  O  O114  1  0.83094900  0.24051900  0.10212500  1
  O  O115  1  0.16905100  0.75948100  0.89787500  1
  O  O116  1  0.12981000  0.05346800  0.29769300  1
  O  O117  1  0.87019000  0.94653200  0.70230700  1
  O  O118  1  0.94653200  0.87019000  0.20230700  1
  O  O119  1  0.05346800  0.12981000  0.79769300  1
  O  O120  1  0.06679500  0.98175800  0.10333800  1
  O  O121  1  0.93320500  0.01824200  0.89666200  1
  O  O122  1  0.01824200  0.93320500  0.39666200  1
  O  O123  1  0.98175800  0.06679500  0.60333800  1
  O  O124  1  0.37465600  0.75029100  0.05517200  1
  O  O125  1  0.62534400  0.24970900  0.94482800  1
  O  O126  1  0.24970900  0.62534400  0.44482800  1
  O  O127  1  0.75029100  0.37465600  0.55517200  1
