# generated using pymatgen
data_Ba3Er(BO2)9
_symmetry_space_group_name_H-M   'P 1'
_cell_length_a   7.27135822
_cell_length_b   7.27135822
_cell_length_c   17.42291700
_cell_angle_alpha   90.00000000
_cell_angle_beta   90.00000000
_cell_angle_gamma   120.00000199
_symmetry_Int_Tables_number   1
_chemical_formula_structural   Ba3Er(BO2)9
_chemical_formula_sum   'Ba6 Er2 B18 O36'
_cell_volume   797.77894732
_cell_formula_units_Z   2
loop_
 _symmetry_equiv_pos_site_id
 _symmetry_equiv_pos_as_xyz
  1  'x, y, z'
loop_
 _atom_site_type_symbol
 _atom_site_label
 _atom_site_symmetry_multiplicity
 _atom_site_fract_x
 _atom_site_fract_y
 _atom_site_fract_z
 _atom_site_occupancy
  Ba  Ba0  1  0.66666700  0.33333300  0.86784900  1
  Ba  Ba1  1  0.33333300  0.66666700  0.13215100  1
  Ba  Ba2  1  0.33333300  0.66666700  0.36784900  1
  Ba  Ba3  1  0.66666700  0.33333300  0.63215100  1
  Ba  Ba4  1  0.00000000  0.00000000  0.75000000  1
  Ba  Ba5  1  0.00000000  0.00000000  0.25000000  1
  Er  Er6  1  0.00000000  0.00000000  0.00000000  1
  Er  Er7  1  0.00000000  0.00000000  0.50000000  1
  B  B8  1  0.55067200  0.83460000  0.91843900  1
  B  B9  1  0.44932800  0.16540000  0.08156100  1
  B  B10  1  0.28392800  0.44932800  0.91843900  1
  B  B11  1  0.44932800  0.16540000  0.41843900  1
  B  B12  1  0.71607200  0.55067200  0.08156100  1
  B  B13  1  0.55067200  0.83460000  0.58156100  1
  B  B14  1  0.16540000  0.71607200  0.91843900  1
  B  B15  1  0.71607200  0.55067200  0.41843900  1
  B  B16  1  0.83460000  0.28392800  0.08156100  1
  B  B17  1  0.28392800  0.44932800  0.58156100  1
  B  B18  1  0.83460000  0.28392800  0.41843900  1
  B  B19  1  0.16540000  0.71607200  0.58156100  1
  B  B20  1  0.50480400  0.62215400  0.75000000  1
  B  B21  1  0.49519600  0.37784600  0.25000000  1
  B  B22  1  0.11735000  0.49519600  0.75000000  1
  B  B23  1  0.88265000  0.50480400  0.25000000  1
  B  B24  1  0.37784600  0.88265000  0.75000000  1
  B  B25  1  0.62215400  0.11735000  0.25000000  1
  O  O26  1  0.54196000  0.83296600  0.75000000  1
  O  O27  1  0.45804000  0.16703400  0.25000000  1
  O  O28  1  0.29100600  0.45804000  0.75000000  1
  O  O29  1  0.70899400  0.54196000  0.25000000  1
  O  O30  1  0.16703400  0.70899400  0.75000000  1
  O  O31  1  0.83296600  0.29100600  0.25000000  1
  O  O32  1  0.91983400  0.33277200  0.75000000  1
  O  O33  1  0.08016600  0.66722800  0.25000000  1
  O  O34  1  0.41293800  0.08016600  0.75000000  1
  O  O35  1  0.58706200  0.91983400  0.25000000  1
  O  O36  1  0.66722800  0.58706200  0.75000000  1
  O  O37  1  0.33277200  0.41293800  0.25000000  1
  O  O38  1  0.75074800  0.99430700  0.91987500  1
  O  O39  1  0.24925200  0.00569300  0.08012500  1
  O  O40  1  0.24355900  0.24925200  0.91987500  1
  O  O41  1  0.24925200  0.00569300  0.41987500  1
  O  O42  1  0.75644100  0.75074800  0.08012500  1
  O  O43  1  0.75074800  0.99430700  0.58012500  1
  O  O44  1  0.00569300  0.75644100  0.91987500  1
  O  O45  1  0.75644100  0.75074800  0.41987500  1
  O  O46  1  0.99430700  0.24355900  0.08012500  1
  O  O47  1  0.24355900  0.24925200  0.58012500  1
  O  O48  1  0.99430700  0.24355900  0.41987500  1
  O  O49  1  0.00569300  0.75644100  0.58012500  1
  O  O50  1  0.49607300  0.61910900  0.91802700  1
  O  O51  1  0.50392700  0.38089100  0.08197300  1
  O  O52  1  0.12303600  0.50392700  0.91802700  1
  O  O53  1  0.50392700  0.38089100  0.41802700  1
  O  O54  1  0.87696400  0.49607300  0.08197300  1
  O  O55  1  0.49607300  0.61910900  0.58197300  1
  O  O56  1  0.38089100  0.87696400  0.91802700  1
  O  O57  1  0.87696400  0.49607300  0.41802700  1
  O  O58  1  0.61910900  0.12303600  0.08197300  1
  O  O59  1  0.12303600  0.50392700  0.58197300  1
  O  O60  1  0.61910900  0.12303600  0.41802700  1
  O  O61  1  0.38089100  0.87696400  0.58197300  1
