# generated using pymatgen
data_BC24Br(NF2)6
_symmetry_space_group_name_H-M   'P 1'
_cell_length_a   10.99349465
_cell_length_b   11.22744170
_cell_length_c   19.17755460
_cell_angle_alpha   95.22983324
_cell_angle_beta   90.00000000
_cell_angle_gamma   90.00000000
_symmetry_Int_Tables_number   1
_chemical_formula_structural   BC24Br(NF2)6
_chemical_formula_sum   'B4 C96 Br4 N24 F48'
_cell_volume   2357.20902874
_cell_formula_units_Z   4
loop_
 _symmetry_equiv_pos_site_id
 _symmetry_equiv_pos_as_xyz
  1  'x, y, z'
loop_
 _atom_site_type_symbol
 _atom_site_label
 _atom_site_symmetry_multiplicity
 _atom_site_fract_x
 _atom_site_fract_y
 _atom_site_fract_z
 _atom_site_occupancy
  B  B0  1  0.77627856  0.49080084  0.76291894  1
  B  B1  1  0.22372144  0.50919916  0.23708106  1
  B  B2  1  0.27627856  0.50919916  0.73708106  1
  B  B3  1  0.72372144  0.49080084  0.26291894  1
  C  C4  1  0.43543876  0.85299447  0.44989029  1
  C  C5  1  0.56456124  0.14700553  0.55010971  1
  C  C6  1  0.93543876  0.14700553  0.05010971  1
  C  C7  1  0.06456124  0.85299447  0.94989029  1
  C  C8  1  0.93021632  0.72974324  0.87456899  1
  C  C9  1  0.06978368  0.27025676  0.12543101  1
  C  C10  1  0.43021632  0.27025676  0.62543101  1
  C  C11  1  0.56978368  0.72974324  0.37456899  1
  C  C12  1  0.47161960  0.77396803  0.73134123  1
  C  C13  1  0.52838040  0.22603197  0.26865877  1
  C  C14  1  0.97161960  0.22603197  0.76865877  1
  C  C15  1  0.02838040  0.77396803  0.23134123  1
  C  C16  1  0.83824594  0.80000917  0.52227007  1
  C  C17  1  0.16175406  0.19999083  0.47772993  1
  C  C18  1  0.33824594  0.19999083  0.97772993  1
  C  C19  1  0.66175406  0.80000917  0.02227007  1
  C  C20  1  0.82264257  0.58533592  0.58567782  1
  C  C21  1  0.17735743  0.41466408  0.41432218  1
  C  C22  1  0.32264257  0.41466408  0.91432218  1
  C  C23  1  0.67735743  0.58533592  0.08567782  1
  C  C24  1  0.43655156  0.63802945  0.45672756  1
  C  C25  1  0.56344844  0.36197055  0.54327244  1
  C  C26  1  0.93655156  0.36197055  0.04327244  1
  C  C27  1  0.06344844  0.63802945  0.95672756  1
  C  C28  1  0.92188566  0.33794644  0.80095720  1
  C  C29  1  0.07811434  0.66205356  0.19904280  1
  C  C30  1  0.42188566  0.66205356  0.69904280  1
  C  C31  1  0.57811434  0.33794644  0.30095720  1
  C  C32  1  0.85344224  0.68885924  0.81538354  1
  C  C33  1  0.14655776  0.31114076  0.18461646  1
  C  C34  1  0.35344224  0.31114076  0.68461646  1
  C  C35  1  0.64655776  0.68885924  0.31538354  1
  C  C36  1  0.64888130  0.68925211  0.98261004  1
  C  C37  1  0.35111870  0.31074789  0.01738996  1
  C  C38  1  0.14888130  0.31074789  0.51738996  1
  C  C39  1  0.85111870  0.68925211  0.48261004  1
  C  C40  1  0.81198735  0.49288837  0.63382453  1
  C  C41  1  0.18801265  0.50711163  0.36617547  1
  C  C42  1  0.31198735  0.50711163  0.86617547  1
  C  C43  1  0.68801265  0.49288837  0.13382453  1
  C  C44  1  0.97494700  0.84240802  0.89790528  1
  C  C45  1  0.02505300  0.15759198  0.10209472  1
  C  C46  1  0.47494700  0.15759198  0.60209472  1
  C  C47  1  0.52505300  0.84240802  0.39790528  1
  C  C48  1  0.54382227  0.86222324  0.70576008  1
  C  C49  1  0.45617773  0.13777676  0.29423992  1
  C  C50  1  0.04382227  0.13777676  0.79423992  1
  C  C51  1  0.95617773  0.86222324  0.20576008  1
  C  C52  1  0.39197426  0.75109265  0.47961699  1
  C  C53  1  0.60802574  0.24890735  0.52038301  1
  C  C54  1  0.89197426  0.24890735  0.02038301  1
  C  C55  1  0.10802574  0.75109265  0.97961699  1
  C  C56  1  0.43767993  0.78291207  0.80405838  1
  C  C57  1  0.56232007  0.21708793  0.19594162  1
  C  C58  1  0.93767993  0.21708793  0.69594162  1
  C  C59  1  0.06232007  0.78291207  0.30405838  1
  C  C60  1  0.47848113  0.87877960  0.84902605  1
  C  C61  1  0.52151887  0.12122040  0.15097395  1
  C  C62  1  0.97848113  0.12122040  0.65097395  1
  C  C63  1  0.02151887  0.87877960  0.34902605  1
  C  C64  1  0.80021813  0.67458957  0.69924033  1
  C  C65  1  0.19978187  0.32541043  0.30075967  1
  C  C66  1  0.30021813  0.32541043  0.80075967  1
  C  C67  1  0.69978187  0.67458957  0.19924033  1
  C  C68  1  0.97394066  0.62518165  0.90468550  1
  C  C69  1  0.02605934  0.37481835  0.09531450  1
  C  C70  1  0.47394066  0.37481835  0.59531450  1
  C  C71  1  0.52605934  0.62518165  0.40468550  1
  C  C72  1  0.58319161  0.95878577  0.75130495  1
  C  C73  1  0.41680839  0.04121423  0.24869505  1
  C  C74  1  0.08319161  0.04121423  0.74869505  1
  C  C75  1  0.91680839  0.95878577  0.25130495  1
  C  C76  1  0.82373469  0.80471153  0.59461607  1
  C  C77  1  0.17626531  0.19528847  0.40538393  1
  C  C78  1  0.32373469  0.19528847  0.90538393  1
  C  C79  1  0.67626531  0.80471153  0.09461607  1
  C  C80  1  0.84558137  0.58213657  0.51392375  1
  C  C81  1  0.15441863  0.41786343  0.48607625  1
  C  C82  1  0.34558137  0.41786343  0.98607625  1
  C  C83  1  0.65441863  0.58213657  0.01392375  1
  C  C84  1  0.81347791  0.69871537  0.62649729  1
  C  C85  1  0.18652209  0.30128463  0.37350271  1
  C  C86  1  0.31347791  0.30128463  0.87350271  1
  C  C87  1  0.68652209  0.69871537  0.12649729  1
  C  C88  1  0.55119404  0.96653761  0.82263139  1
  C  C89  1  0.44880596  0.03346239  0.17736861  1
  C  C90  1  0.05119404  0.03346239  0.67736861  1
  C  C91  1  0.94880596  0.96653761  0.32263139  1
  C  C92  1  0.92034605  0.52154996  0.86465947  1
  C  C93  1  0.07965395  0.47845004  0.13534053  1
  C  C94  1  0.42034605  0.47845004  0.63534053  1
  C  C95  1  0.57965395  0.52154996  0.36465947  1
  C  C96  1  0.36684784  0.67651384  0.81520849  1
  C  C97  1  0.63315216  0.32348616  0.18479151  1
  C  C98  1  0.86684784  0.32348616  0.68479151  1
  C  C99  1  0.13315216  0.67651384  0.31520849  1
  Br  Br100  1  0.59985980  0.44983205  0.78870201  1
  Br  Br101  1  0.40014020  0.55016795  0.21129799  1
  Br  Br102  1  0.09985980  0.55016795  0.71129799  1
  Br  Br103  1  0.90014020  0.44983205  0.28870201  1
  N  N104  1  0.84103830  0.56760381  0.81847168  1
  N  N105  1  0.15896170  0.43239619  0.18152832  1
  N  N106  1  0.34103830  0.43239619  0.68152832  1
  N  N107  1  0.65896170  0.56760381  0.31847168  1
  N  N108  1  0.84257207  0.37661151  0.62640849  1
  N  N109  1  0.15742793  0.62338849  0.37359151  1
  N  N110  1  0.34257207  0.62338849  0.87359151  1
  N  N111  1  0.65742793  0.37661151  0.12640849  1
  N  N112  1  0.95349481  0.40594745  0.85939947  1
  N  N113  1  0.04650519  0.59405255  0.14060053  1
  N  N114  1  0.45349481  0.59405255  0.64060053  1
  N  N115  1  0.54650519  0.40594745  0.35939947  1
  N  N116  1  0.78598254  0.55289209  0.69787378  1
  N  N117  1  0.21401746  0.44710791  0.30212622  1
  N  N118  1  0.28598254  0.44710791  0.80212622  1
  N  N119  1  0.71401746  0.55289209  0.19787378  1
  N  N120  1  0.84963956  0.38042333  0.75044803  1
  N  N121  1  0.15036044  0.61957667  0.24955197  1
  N  N122  1  0.34963956  0.61957667  0.74955197  1
  N  N123  1  0.65036044  0.38042333  0.25044803  1
  N  N124  1  0.82481508  0.74387429  0.75834153  1
  N  N125  1  0.17518492  0.25612571  0.24165847  1
  N  N126  1  0.32481508  0.25612571  0.74165847  1
  N  N127  1  0.67518492  0.74387429  0.25834153  1
  F  F128  1  0.57335766  0.85631779  0.63729227  1
  F  F129  1  0.42664234  0.14368221  0.36270773  1
  F  F130  1  0.07335766  0.14368221  0.86270773  1
  F  F131  1  0.92664234  0.85631779  0.13729227  1
  F  F132  1  0.08884495  0.93795268  0.63536680  1
  F  F133  1  0.91115505  0.06204732  0.36463320  1
  F  F134  1  0.58884495  0.06204732  0.86463320  1
  F  F135  1  0.41115505  0.93795268  0.13536680  1
  F  F136  1  0.80633893  0.23561572  0.97022522  1
  F  F137  1  0.19366107  0.76438428  0.02977478  1
  F  F138  1  0.30633893  0.76438428  0.52977478  1
  F  F139  1  0.69366107  0.23561572  0.47022522  1
  F  F140  1  0.61105179  0.45778877  0.51572551  1
  F  F141  1  0.38894821  0.54221123  0.48427449  1
  F  F142  1  0.11105179  0.54221123  0.98427449  1
  F  F143  1  0.88894821  0.45778877  0.01572551  1
  F  F144  1  0.63974882  0.47827044  0.97390717  1
  F  F145  1  0.36025118  0.52172956  0.02609283  1
  F  F146  1  0.13974882  0.52172956  0.52609283  1
  F  F147  1  0.86025118  0.47827044  0.47390717  1
  F  F148  1  0.44560057  0.88998240  0.91693026  1
  F  F149  1  0.55439943  0.11001760  0.08306974  1
  F  F150  1  0.94560057  0.11001760  0.58306974  1
  F  F151  1  0.05439943  0.88998240  0.41693026  1
  F  F152  1  0.14996605  0.95269188  0.77238349  1
  F  F153  1  0.85003395  0.04730812  0.22761651  1
  F  F154  1  0.64996605  0.04730812  0.72761651  1
  F  F155  1  0.35003395  0.95269188  0.27238349  1
  F  F156  1  0.38811493  0.96017533  0.47219425  1
  F  F157  1  0.61188507  0.03982467  0.52780575  1
  F  F158  1  0.88811493  0.03982467  0.02780575  1
  F  F159  1  0.11188507  0.96017533  0.97219425  1
  F  F160  1  0.63276551  0.68828157  0.91286131  1
  F  F161  1  0.36723449  0.31171843  0.08713869  1
  F  F162  1  0.13276551  0.31171843  0.58713869  1
  F  F163  1  0.86723449  0.68828157  0.41286131  1
  F  F164  1  0.66170746  0.90081456  0.98950225  1
  F  F165  1  0.33829254  0.09918544  0.01049775  1
  F  F166  1  0.16170746  0.09918544  0.51049775  1
  F  F167  1  0.83829254  0.90081456  0.48950225  1
  F  F168  1  0.81594212  0.91178013  0.63214065  1
  F  F169  1  0.18405788  0.08821987  0.36785935  1
  F  F170  1  0.31594212  0.08821987  0.86785935  1
  F  F171  1  0.68405788  0.91178013  0.13214065  1
  F  F172  1  0.93287218  0.94095351  0.87065554  1
  F  F173  1  0.06712782  0.05904649  0.12934446  1
  F  F174  1  0.43287218  0.05904649  0.62934446  1
  F  F175  1  0.56712782  0.94095351  0.37065554  1
