# generated using pymatgen
data_ZrSiW4
_symmetry_space_group_name_H-M   'P 1'
_cell_length_a   5.33331188
_cell_length_b   5.33331188
_cell_length_c   5.33331188
_cell_angle_alpha   60.00000000
_cell_angle_beta   60.00000000
_cell_angle_gamma   60.00000000
_symmetry_Int_Tables_number   1
_chemical_formula_structural   ZrSiW4
_chemical_formula_sum   'Zr1 Si1 W4'
_cell_volume   107.26942343
_cell_formula_units_Z   1
loop_
 _symmetry_equiv_pos_site_id
 _symmetry_equiv_pos_as_xyz
  1  'x, y, z'
loop_
 _atom_site_type_symbol
 _atom_site_label
 _atom_site_symmetry_multiplicity
 _atom_site_fract_x
 _atom_site_fract_y
 _atom_site_fract_z
 _atom_site_occupancy
  Zr  Zr0  1  0.75000000  0.75000000  0.75000000  1
  Si  Si1  1  0.00000000  0.00000000  0.00000000  1
  W  W2  1  0.37439100  0.37439100  0.37439100  1
  W  W3  1  0.37439100  0.87682600  0.37439100  1
  W  W4  1  0.87682600  0.37439100  0.37439100  1
  W  W5  1  0.37439100  0.37439100  0.87682600  1
