# generated using pymatgen
data_CaAl2O12
_symmetry_space_group_name_H-M   'P 1'
_cell_length_a   16.06861270
_cell_length_b   16.06861270
_cell_length_c   9.06529800
_cell_angle_alpha   90.00000000
_cell_angle_beta   90.00000000
_cell_angle_gamma   120.00000287
_symmetry_Int_Tables_number   1
_chemical_formula_structural   CaAl2O12
_chemical_formula_sum   'Ca6 Al12 O72'
_cell_volume   2027.07337930
_cell_formula_units_Z   6
loop_
 _symmetry_equiv_pos_site_id
 _symmetry_equiv_pos_as_xyz
  1  'x, y, z'
loop_
 _atom_site_type_symbol
 _atom_site_label
 _atom_site_symmetry_multiplicity
 _atom_site_fract_x
 _atom_site_fract_y
 _atom_site_fract_z
 _atom_site_occupancy
  Ca  Ca0  1  0.72879800  0.24775700  0.75000000  1
  Ca  Ca1  1  0.27120200  0.75224300  0.25000000  1
  Ca  Ca2  1  0.51896000  0.27120200  0.75000000  1
  Ca  Ca3  1  0.48104000  0.72879800  0.25000000  1
  Ca  Ca4  1  0.75224300  0.48104000  0.75000000  1
  Ca  Ca5  1  0.24775700  0.51896000  0.25000000  1
  Al  Al6  1  0.92588200  0.48238700  0.90463200  1
  Al  Al7  1  0.07411800  0.51761300  0.09536800  1
  Al  Al8  1  0.55650500  0.07411800  0.90463200  1
  Al  Al9  1  0.07411800  0.51761300  0.40463200  1
  Al  Al10  1  0.44349500  0.92588200  0.09536800  1
  Al  Al11  1  0.92588200  0.48238700  0.59536800  1
  Al  Al12  1  0.51761300  0.44349500  0.90463200  1
  Al  Al13  1  0.44349500  0.92588200  0.40463200  1
  Al  Al14  1  0.48238700  0.55650500  0.09536800  1
  Al  Al15  1  0.55650500  0.07411800  0.59536800  1
  Al  Al16  1  0.48238700  0.55650500  0.40463200  1
  Al  Al17  1  0.51761300  0.44349500  0.59536800  1
  O  O18  1  0.80548900  0.38573600  0.88551500  1
  O  O19  1  0.19451100  0.61426400  0.11448500  1
  O  O20  1  0.58024700  0.19451100  0.88551500  1
  O  O21  1  0.19451100  0.61426400  0.38551500  1
  O  O22  1  0.41975300  0.80548900  0.11448500  1
  O  O23  1  0.80548900  0.38573600  0.61448500  1
  O  O24  1  0.61426400  0.41975300  0.88551500  1
  O  O25  1  0.41975300  0.80548900  0.38551500  1
  O  O26  1  0.38573600  0.58024700  0.11448500  1
  O  O27  1  0.58024700  0.19451100  0.61448500  1
  O  O28  1  0.38573600  0.58024700  0.38551500  1
  O  O29  1  0.61426400  0.41975300  0.61448500  1
  O  O30  1  0.91188100  0.23421500  0.89366500  1
  O  O31  1  0.08811900  0.76578500  0.10633500  1
  O  O32  1  0.32233400  0.08811900  0.89366500  1
  O  O33  1  0.08811900  0.76578500  0.39366500  1
  O  O34  1  0.67766600  0.91188100  0.10633500  1
  O  O35  1  0.91188100  0.23421500  0.60633500  1
  O  O36  1  0.76578500  0.67766600  0.89366500  1
  O  O37  1  0.67766600  0.91188100  0.39366500  1
  O  O38  1  0.23421500  0.32233400  0.10633500  1
  O  O39  1  0.32233400  0.08811900  0.60633500  1
  O  O40  1  0.23421500  0.32233400  0.39366500  1
  O  O41  1  0.76578500  0.67766600  0.60633500  1
  O  O42  1  0.92848500  0.55004300  0.75000000  1
  O  O43  1  0.07151500  0.44995700  0.25000000  1
  O  O44  1  0.62155900  0.07151500  0.75000000  1
  O  O45  1  0.37844100  0.92848500  0.25000000  1
  O  O46  1  0.44995700  0.37844100  0.75000000  1
  O  O47  1  0.55004300  0.62155900  0.25000000  1
  O  O48  1  0.82560200  0.18908700  0.93497100  1
  O  O49  1  0.17439800  0.81091300  0.06502900  1
  O  O50  1  0.36348400  0.17439800  0.93497100  1
  O  O51  1  0.17439800  0.81091300  0.43497100  1
  O  O52  1  0.63651600  0.82560200  0.06502900  1
  O  O53  1  0.82560200  0.18908700  0.56502900  1
  O  O54  1  0.81091300  0.63651600  0.93497100  1
  O  O55  1  0.63651600  0.82560200  0.43497100  1
  O  O56  1  0.18908700  0.36348400  0.06502900  1
  O  O57  1  0.36348400  0.17439800  0.56502900  1
  O  O58  1  0.18908700  0.36348400  0.43497100  1
  O  O59  1  0.81091300  0.63651600  0.56502900  1
  O  O60  1  0.92017800  0.00423800  0.96647500  1
  O  O61  1  0.07982200  0.99576200  0.03352500  1
  O  O62  1  0.08406100  0.07982200  0.96647500  1
  O  O63  1  0.07982200  0.99576200  0.46647500  1
  O  O64  1  0.91593900  0.92017800  0.03352500  1
  O  O65  1  0.92017800  0.00423800  0.53352500  1
  O  O66  1  0.99576200  0.91593900  0.96647500  1
  O  O67  1  0.91593900  0.92017800  0.46647500  1
  O  O68  1  0.00423800  0.08406100  0.03352500  1
  O  O69  1  0.08406100  0.07982200  0.53352500  1
  O  O70  1  0.00423800  0.08406100  0.46647500  1
  O  O71  1  0.99576200  0.91593900  0.53352500  1
  O  O72  1  0.54157300  0.56472200  0.92514800  1
  O  O73  1  0.45842700  0.43527800  0.07485200  1
  O  O74  1  0.02314900  0.45842700  0.92514800  1
  O  O75  1  0.45842700  0.43527800  0.42514800  1
  O  O76  1  0.97685100  0.54157300  0.07485200  1
  O  O77  1  0.54157300  0.56472200  0.57485200  1
  O  O78  1  0.43527800  0.97685100  0.92514800  1
  O  O79  1  0.97685100  0.54157300  0.42514800  1
  O  O80  1  0.56472200  0.02314900  0.07485200  1
  O  O81  1  0.02314900  0.45842700  0.57485200  1
  O  O82  1  0.56472200  0.02314900  0.42514800  1
  O  O83  1  0.43527800  0.97685100  0.57485200  1
  O  O84  1  0.92629100  0.29901700  0.75000000  1
  O  O85  1  0.07370900  0.70098300  0.25000000  1
  O  O86  1  0.37272700  0.07370900  0.75000000  1
  O  O87  1  0.62727300  0.92629100  0.25000000  1
  O  O88  1  0.70098300  0.62727300  0.75000000  1
  O  O89  1  0.29901700  0.37272700  0.25000000  1
