# generated using pymatgen
data_Ba3Co8Sn3O20
_symmetry_space_group_name_H-M   'P 1'
_cell_length_a   10.21136858
_cell_length_b   10.21136858
_cell_length_c   5.32636706
_cell_angle_alpha   75.74281848
_cell_angle_beta   75.74281848
_cell_angle_gamma   72.56308039
_symmetry_Int_Tables_number   1
_chemical_formula_structural   Ba3Co8Sn3O20
_chemical_formula_sum   'Ba3 Co8 Sn3 O20'
_cell_volume   504.53644603
_cell_formula_units_Z   1
loop_
 _symmetry_equiv_pos_site_id
 _symmetry_equiv_pos_as_xyz
  1  'x, y, z'
loop_
 _atom_site_type_symbol
 _atom_site_label
 _atom_site_symmetry_multiplicity
 _atom_site_fract_x
 _atom_site_fract_y
 _atom_site_fract_z
 _atom_site_occupancy
  Ba  Ba0  1  0.22619800  0.22619800  0.26978600  1
  Ba  Ba1  1  0.77380200  0.77380200  0.73021400  1
  Ba  Ba2  1  0.50000000  0.50000000  0.00000000  1
  Co  Co3  1  0.48716500  0.22270300  0.65971100  1
  Co  Co4  1  0.51283500  0.77729700  0.34028900  1
  Co  Co5  1  0.77729700  0.51283500  0.34028900  1
  Co  Co6  1  0.22270300  0.48716500  0.65971100  1
  Co  Co7  1  0.36618700  0.92269600  0.83720800  1
  Co  Co8  1  0.63381300  0.07730400  0.16279200  1
  Co  Co9  1  0.07730400  0.63381300  0.16279200  1
  Co  Co10  1  0.92269600  0.36618700  0.83720800  1
  Sn  Sn11  1  0.00000000  0.00000000  0.00000000  1
  Sn  Sn12  1  0.14409700  0.85590300  0.50000000  1
  Sn  Sn13  1  0.85590300  0.14409700  0.50000000  1
  O  O14  1  0.40635000  0.40635000  0.51654400  1
  O  O15  1  0.59365000  0.59365000  0.48345600  1
  O  O16  1  0.06592900  0.06592900  0.60174400  1
  O  O17  1  0.93407100  0.93407100  0.39825600  1
  O  O18  1  0.66238900  0.16693000  0.42474900  1
  O  O19  1  0.33761100  0.83307000  0.57525100  1
  O  O20  1  0.83307000  0.33761100  0.57525100  1
  O  O21  1  0.16693000  0.66238900  0.42474900  1
  O  O22  1  0.37969600  0.10269900  0.67832500  1
  O  O23  1  0.62030400  0.89730100  0.32167500  1
  O  O24  1  0.89730100  0.62030400  0.32167500  1
  O  O25  1  0.10269900  0.37969600  0.67832500  1
  O  O26  1  0.50604200  0.78287400  0.98797700  1
  O  O27  1  0.49395800  0.21712600  0.01202300  1
  O  O28  1  0.21712600  0.49395800  0.01202300  1
  O  O29  1  0.78287400  0.50604200  0.98797700  1
  O  O30  1  0.19523500  0.95348300  0.10903100  1
  O  O31  1  0.80476500  0.04651700  0.89096900  1
  O  O32  1  0.04651700  0.80476500  0.89096900  1
  O  O33  1  0.95348300  0.19523500  0.10903100  1
