# generated using pymatgen
data_ZrTiCr4
_symmetry_space_group_name_H-M   'P 1'
_cell_length_a   5.00078042
_cell_length_b   5.00078042
_cell_length_c   7.95203200
_cell_angle_alpha   90.00000000
_cell_angle_beta   90.00000000
_cell_angle_gamma   120.00000551
_symmetry_Int_Tables_number   1
_chemical_formula_structural   ZrTiCr4
_chemical_formula_sum   'Zr2 Ti2 Cr8'
_cell_volume   172.22028238
_cell_formula_units_Z   2
loop_
 _symmetry_equiv_pos_site_id
 _symmetry_equiv_pos_as_xyz
  1  'x, y, z'
loop_
 _atom_site_type_symbol
 _atom_site_label
 _atom_site_symmetry_multiplicity
 _atom_site_fract_x
 _atom_site_fract_y
 _atom_site_fract_z
 _atom_site_occupancy
  Zr  Zr0  1  0.66666700  0.33333300  0.93511500  1
  Zr  Zr1  1  0.33333300  0.66666700  0.06488500  1
  Ti  Ti2  1  0.33333300  0.66666700  0.44401700  1
  Ti  Ti3  1  0.66666700  0.33333300  0.55598300  1
  Cr  Cr4  1  0.00000000  0.00000000  0.50000000  1
  Cr  Cr5  1  0.00000000  0.00000000  0.00000000  1
  Cr  Cr6  1  0.83088400  0.16911600  0.25938400  1
  Cr  Cr7  1  0.83088400  0.66176700  0.25938400  1
  Cr  Cr8  1  0.33823300  0.16911600  0.25938400  1
  Cr  Cr9  1  0.16911600  0.83088400  0.74061600  1
  Cr  Cr10  1  0.16911600  0.33823300  0.74061600  1
  Cr  Cr11  1  0.66176700  0.83088400  0.74061600  1
