# generated using pymatgen
data_Ba(MgIn)2
_symmetry_space_group_name_H-M   'P 1'
_cell_length_a   7.21554965
_cell_length_b   7.21554965
_cell_length_c   7.21554965
_cell_angle_alpha   140.40415696
_cell_angle_beta   140.40415696
_cell_angle_gamma   57.24015514
_symmetry_Int_Tables_number   1
_chemical_formula_structural   Ba(MgIn)2
_chemical_formula_sum   'Ba1 Mg2 In2'
_cell_volume   151.32526502
_cell_formula_units_Z   1
loop_
 _symmetry_equiv_pos_site_id
 _symmetry_equiv_pos_as_xyz
  1  'x, y, z'
loop_
 _atom_site_type_symbol
 _atom_site_label
 _atom_site_symmetry_multiplicity
 _atom_site_fract_x
 _atom_site_fract_y
 _atom_site_fract_z
 _atom_site_occupancy
  Ba  Ba0  1  0.00000000  0.00000000  0.00000000  1
  Mg  Mg1  1  0.75000000  0.25000000  0.50000000  1
  Mg  Mg2  1  0.25000000  0.75000000  0.50000000  1
  In  In3  1  0.38566700  0.38566700  0.00000000  1
  In  In4  1  0.61433300  0.61433300  0.00000000  1
