# generated using pymatgen
data_Ag6H3IO6
_symmetry_space_group_name_H-M   'P 1'
_cell_length_a   5.31258351
_cell_length_b   6.59372019
_cell_length_c   6.58008868
_cell_angle_alpha   86.75171040
_cell_angle_beta   90.07990812
_cell_angle_gamma   111.62468783
_symmetry_Int_Tables_number   1
_chemical_formula_structural   Ag6H3IO6
_chemical_formula_sum   'Ag6 H3 I1 O6'
_cell_volume   213.88404460
_cell_formula_units_Z   1
loop_
 _symmetry_equiv_pos_site_id
 _symmetry_equiv_pos_as_xyz
  1  'x, y, z'
loop_
 _atom_site_type_symbol
 _atom_site_label
 _atom_site_symmetry_multiplicity
 _atom_site_fract_x
 _atom_site_fract_y
 _atom_site_fract_z
 _atom_site_occupancy
  Ag  Ag0  1  0.13911400  0.27639400  0.54473000  1
  Ag  Ag1  1  0.86088600  0.72360600  0.45527000  1
  Ag  Ag2  1  0.65070200  0.37069200  0.74130600  1
  Ag  Ag3  1  0.34929800  0.62930800  0.25869400  1
  Ag  Ag4  1  0.70393000  0.31521700  0.27942400  1
  Ag  Ag5  1  0.29607000  0.68478300  0.72057600  1
  H  H6  1  0.50000000  0.50000000  0.50000000  1
  H  H7  1  0.50000000  0.00000000  0.00000000  1
  H  H8  1  0.00000000  0.50000000  0.50000000  1
  I  I9  1  0.00000000  0.00000000  0.00000000  1
  O  O10  1  0.99089400  0.28416300  0.90823400  1
  O  O11  1  0.00910600  0.71583700  0.09176600  1
  O  O12  1  0.06196200  0.94466500  0.71532400  1
  O  O13  1  0.93803800  0.05533500  0.28467600  1
  O  O14  1  0.58672400  0.85436000  0.97597300  1
  O  O15  1  0.41327600  0.14564000  0.02402700  1
