# generated using pymatgen
data_ZrNb4CN4
_symmetry_space_group_name_H-M   'P 1'
_cell_length_a   13.14125152
_cell_length_b   13.14125152
_cell_length_c   13.14125145
_cell_angle_alpha   13.90513444
_cell_angle_beta   13.90513444
_cell_angle_gamma   13.90513316
_symmetry_Int_Tables_number   1
_chemical_formula_structural   ZrNb4CN4
_chemical_formula_sum   'Zr1 Nb4 C1 N4'
_cell_volume   114.05883138
_cell_formula_units_Z   1
loop_
 _symmetry_equiv_pos_site_id
 _symmetry_equiv_pos_as_xyz
  1  'x, y, z'
loop_
 _atom_site_type_symbol
 _atom_site_label
 _atom_site_symmetry_multiplicity
 _atom_site_fract_x
 _atom_site_fract_y
 _atom_site_fract_z
 _atom_site_occupancy
  Zr  Zr0  1  0.69935600  0.69935600  0.69935600  1
  Nb  Nb1  1  0.29963600  0.29963600  0.29963600  1
  Nb  Nb2  1  0.89924700  0.89924700  0.89924700  1
  Nb  Nb3  1  0.50007900  0.50007900  0.50007900  1
  Nb  Nb4  1  0.10251800  0.10251800  0.10251800  1
  C  C5  1  0.99783900  0.99783900  0.99783900  1
  N  N6  1  0.59770400  0.59770400  0.59770400  1
  N  N7  1  0.19923100  0.19923100  0.19923100  1
  N  N8  1  0.80159400  0.80159400  0.80159400  1
  N  N9  1  0.40279400  0.40279400  0.40279400  1
