# generated using pymatgen
data_C4Cl5
_symmetry_space_group_name_H-M   'P 1'
_cell_length_a   10.06505703
_cell_length_b   16.68624575
_cell_length_c   18.80913649
_cell_angle_alpha   90.00000000
_cell_angle_beta   90.00000000
_cell_angle_gamma   90.00000000
_symmetry_Int_Tables_number   1
_chemical_formula_structural   C4Cl5
_chemical_formula_sum   'C64 Cl80'
_cell_volume   3158.95713906
_cell_formula_units_Z   16
loop_
 _symmetry_equiv_pos_site_id
 _symmetry_equiv_pos_as_xyz
  1  'x, y, z'
loop_
 _atom_site_type_symbol
 _atom_site_label
 _atom_site_symmetry_multiplicity
 _atom_site_fract_x
 _atom_site_fract_y
 _atom_site_fract_z
 _atom_site_occupancy
  C  C0  1  0.16423477  0.03487458  0.33626866  1
  C  C1  1  0.83576523  0.96512542  0.66373134  1
  C  C2  1  0.33576523  0.96512542  0.83626866  1
  C  C3  1  0.83576523  0.53487458  0.16373134  1
  C  C4  1  0.66423477  0.03487458  0.16373134  1
  C  C5  1  0.16423477  0.46512542  0.83626866  1
  C  C6  1  0.66423477  0.46512542  0.66373134  1
  C  C7  1  0.33576523  0.53487458  0.33626866  1
  C  C8  1  0.07141970  0.14169432  0.24866855  1
  C  C9  1  0.92858030  0.85830568  0.75133145  1
  C  C10  1  0.42858030  0.85830568  0.74866855  1
  C  C11  1  0.92858030  0.64169432  0.25133145  1
  C  C12  1  0.57141970  0.14169432  0.25133145  1
  C  C13  1  0.07141970  0.35830568  0.74866855  1
  C  C14  1  0.57141970  0.35830568  0.75133145  1
  C  C15  1  0.42858030  0.64169432  0.24866855  1
  C  C16  1  0.15666087  0.05482447  0.13141121  1
  C  C17  1  0.84333913  0.94517553  0.86858879  1
  C  C18  1  0.34333913  0.94517553  0.63141121  1
  C  C19  1  0.84333913  0.55482447  0.36858879  1
  C  C20  1  0.65666087  0.05482447  0.36858879  1
  C  C21  1  0.15666087  0.44517553  0.63141121  1
  C  C22  1  0.65666087  0.44517553  0.86858879  1
  C  C23  1  0.34333913  0.55482447  0.13141121  1
  C  C24  1  0.13580766  0.13835219  0.12260998  1
  C  C25  1  0.86419234  0.86164781  0.87739002  1
  C  C26  1  0.36419234  0.86164781  0.62260998  1
  C  C27  1  0.86419234  0.63835219  0.37739002  1
  C  C28  1  0.63580766  0.13835219  0.37739002  1
  C  C29  1  0.13580766  0.36164781  0.62260998  1
  C  C30  1  0.63580766  0.36164781  0.87739002  1
  C  C31  1  0.36419234  0.63835219  0.12260998  1
  C  C32  1  0.13262778  0.06620648  0.26112035  1
  C  C33  1  0.86737222  0.93379352  0.73887965  1
  C  C34  1  0.36737222  0.93379352  0.76112035  1
  C  C35  1  0.86737222  0.56620648  0.23887965  1
  C  C36  1  0.63262778  0.06620648  0.23887965  1
  C  C37  1  0.13262778  0.43379352  0.76112035  1
  C  C38  1  0.63262778  0.43379352  0.73887965  1
  C  C39  1  0.36737222  0.56620648  0.26112035  1
  C  C40  1  0.15428586  0.01938052  0.19940736  1
  C  C41  1  0.84571414  0.98061948  0.80059264  1
  C  C42  1  0.34571414  0.98061948  0.69940736  1
  C  C43  1  0.84571414  0.51938052  0.30059264  1
  C  C44  1  0.65428586  0.01938052  0.30059264  1
  C  C45  1  0.15428586  0.48061948  0.69940736  1
  C  C46  1  0.65428586  0.48061948  0.80059264  1
  C  C47  1  0.34571414  0.51938052  0.19940736  1
  C  C48  1  0.07224259  0.17694661  0.18046386  1
  C  C49  1  0.92775741  0.82305339  0.81953614  1
  C  C50  1  0.42775741  0.82305339  0.68046386  1
  C  C51  1  0.92775741  0.67694661  0.31953614  1
  C  C52  1  0.57224259  0.17694661  0.31953614  1
  C  C53  1  0.07224259  0.32305339  0.68046386  1
  C  C54  1  0.57224259  0.32305339  0.81953614  1
  C  C55  1  0.42775741  0.67694661  0.18046386  1
  C  C56  1  0.17221892  0.18185942  0.05314409  1
  C  C57  1  0.82778108  0.81814058  0.94685591  1
  C  C58  1  0.32778108  0.81814058  0.55314409  1
  C  C59  1  0.82778108  0.68185942  0.44685591  1
  C  C60  1  0.67221892  0.18185942  0.44685591  1
  C  C61  1  0.17221892  0.31814058  0.55314409  1
  C  C62  1  0.67221892  0.31814058  0.94685591  1
  C  C63  1  0.32778108  0.68185942  0.05314409  1
  Cl  Cl64  1  0.47739396  0.48238924  0.37107597  1
  Cl  Cl65  1  0.52260604  0.51761076  0.62892403  1
  Cl  Cl66  1  0.02260604  0.51761076  0.87107597  1
  Cl  Cl67  1  0.52260604  0.98238924  0.12892403  1
  Cl  Cl68  1  0.97739396  0.48238924  0.12892403  1
  Cl  Cl69  1  0.47739396  0.01761076  0.87107597  1
  Cl  Cl70  1  0.97739396  0.01761076  0.62892403  1
  Cl  Cl71  1  0.02260604  0.98238924  0.37107597  1
  Cl  Cl72  1  0.03657330  0.32376184  0.49210602  1
  Cl  Cl73  1  0.96342670  0.67623816  0.50789398  1
  Cl  Cl74  1  0.46342670  0.67623816  0.99210602  1
  Cl  Cl75  1  0.96342670  0.82376184  0.00789398  1
  Cl  Cl76  1  0.53657330  0.32376184  0.00789398  1
  Cl  Cl77  1  0.03657330  0.17623816  0.99210602  1
  Cl  Cl78  1  0.53657330  0.17623816  0.50789398  1
  Cl  Cl79  1  0.46342670  0.82376184  0.49210602  1
  Cl  Cl80  1  0.19342071  0.46979000  0.33828865  1
  Cl  Cl81  1  0.80657929  0.53021000  0.66171135  1
  Cl  Cl82  1  0.30657929  0.53021000  0.83828865  1
  Cl  Cl83  1  0.80657929  0.96979000  0.16171135  1
  Cl  Cl84  1  0.69342071  0.46979000  0.16171135  1
  Cl  Cl85  1  0.19342071  0.03021000  0.83828865  1
  Cl  Cl86  1  0.69342071  0.03021000  0.66171135  1
  Cl  Cl87  1  0.30657929  0.96979000  0.33828865  1
  Cl  Cl88  1  0.48222535  0.26342306  0.33120895  1
  Cl  Cl89  1  0.51777465  0.73657694  0.66879105  1
  Cl  Cl90  1  0.01777465  0.73657694  0.83120895  1
  Cl  Cl91  1  0.51777465  0.76342306  0.16879105  1
  Cl  Cl92  1  0.98222535  0.26342306  0.16879105  1
  Cl  Cl93  1  0.48222535  0.23657694  0.83120895  1
  Cl  Cl94  1  0.98222535  0.23657694  0.66879105  1
  Cl  Cl95  1  0.01777465  0.76342306  0.33120895  1
  Cl  Cl96  1  0.31942093  0.14274422  0.01257777  1
  Cl  Cl97  1  0.68057907  0.85725578  0.98742223  1
  Cl  Cl98  1  0.18057907  0.85725578  0.51257777  1
  Cl  Cl99  1  0.68057907  0.64274422  0.48742223  1
  Cl  Cl100  1  0.81942093  0.14274422  0.48742223  1
  Cl  Cl101  1  0.31942093  0.35725578  0.51257777  1
  Cl  Cl102  1  0.81942093  0.35725578  0.98742223  1
  Cl  Cl103  1  0.18057907  0.64274422  0.01257777  1
  Cl  Cl104  1  0.32755503  0.49284559  0.05912508  1
  Cl  Cl105  1  0.67244497  0.50715441  0.94087492  1
  Cl  Cl106  1  0.17244497  0.50715441  0.55912508  1
  Cl  Cl107  1  0.67244497  0.99284559  0.44087492  1
  Cl  Cl108  1  0.82755503  0.49284559  0.44087492  1
  Cl  Cl109  1  0.32755503  0.00715441  0.55912508  1
  Cl  Cl110  1  0.82755503  0.00715441  0.94087492  1
  Cl  Cl111  1  0.17244497  0.99284559  0.05912508  1
  Cl  Cl112  1  0.21346148  0.28559947  0.06772716  1
  Cl  Cl113  1  0.78653852  0.71440053  0.93227284  1
  Cl  Cl114  1  0.28653852  0.71440053  0.56772716  1
  Cl  Cl115  1  0.78653852  0.78559947  0.43227284  1
  Cl  Cl116  1  0.71346148  0.28559947  0.43227284  1
  Cl  Cl117  1  0.21346148  0.21440053  0.56772716  1
  Cl  Cl118  1  0.71346148  0.21440053  0.93227284  1
  Cl  Cl119  1  0.28653852  0.78559947  0.06772716  1
  Cl  Cl120  1  0.20928698  0.11331204  0.39658260  1
  Cl  Cl121  1  0.79071302  0.88668796  0.60341740  1
  Cl  Cl122  1  0.29071302  0.88668796  0.89658260  1
  Cl  Cl123  1  0.79071302  0.61331204  0.10341740  1
  Cl  Cl124  1  0.70928698  0.11331204  0.10341740  1
  Cl  Cl125  1  0.20928698  0.38668796  0.89658260  1
  Cl  Cl126  1  0.70928698  0.38668796  0.60341740  1
  Cl  Cl127  1  0.29071302  0.61331204  0.39658260  1
  Cl  Cl128  1  0.48123825  0.18894588  0.18613973  1
  Cl  Cl129  1  0.51876175  0.81105412  0.81386027  1
  Cl  Cl130  1  0.01876175  0.81105412  0.68613973  1
  Cl  Cl131  1  0.51876175  0.68894588  0.31386027  1
  Cl  Cl132  1  0.98123825  0.18894588  0.31386027  1
  Cl  Cl133  1  0.48123825  0.31105412  0.68613973  1
  Cl  Cl134  1  0.98123825  0.31105412  0.81386027  1
  Cl  Cl135  1  0.01876175  0.68894588  0.18613973  1
  Cl  Cl136  1  0.33638105  0.41666778  0.20415112  1
  Cl  Cl137  1  0.66361895  0.58333222  0.79584888  1
  Cl  Cl138  1  0.16361895  0.58333222  0.70415112  1
  Cl  Cl139  1  0.66361895  0.91666778  0.29584888  1
  Cl  Cl140  1  0.83638105  0.41666778  0.29584888  1
  Cl  Cl141  1  0.33638105  0.08333222  0.70415112  1
  Cl  Cl142  1  0.83638105  0.08333222  0.79584888  1
  Cl  Cl143  1  0.16361895  0.91666778  0.20415112  1
