# generated using pymatgen
data_Ba2DyV3O11
_symmetry_space_group_name_H-M   'P 1'
_cell_length_a   7.76986700
_cell_length_b   12.43377798
_cell_length_c   11.35715390
_cell_angle_alpha   103.15118055
_cell_angle_beta   90.00000000
_cell_angle_gamma   90.00000000
_symmetry_Int_Tables_number   1
_chemical_formula_structural   Ba2DyV3O11
_chemical_formula_sum   'Ba8 Dy4 V12 O44'
_cell_volume   1068.42486200
_cell_formula_units_Z   4
loop_
 _symmetry_equiv_pos_site_id
 _symmetry_equiv_pos_as_xyz
  1  'x, y, z'
loop_
 _atom_site_type_symbol
 _atom_site_label
 _atom_site_symmetry_multiplicity
 _atom_site_fract_x
 _atom_site_fract_y
 _atom_site_fract_z
 _atom_site_occupancy
  Ba  Ba0  1  0.27323600  0.76993400  0.94228700  1
  Ba  Ba1  1  0.72676400  0.23006600  0.05771300  1
  Ba  Ba2  1  0.77323600  0.23006600  0.55771300  1
  Ba  Ba3  1  0.22676400  0.76993400  0.44228700  1
  Ba  Ba4  1  0.74778300  0.55479200  0.88961700  1
  Ba  Ba5  1  0.25221700  0.44520800  0.11038300  1
  Ba  Ba6  1  0.24778300  0.44520800  0.61038300  1
  Ba  Ba7  1  0.75221700  0.55479200  0.38961700  1
  Dy  Dy8  1  0.49888500  0.99795100  0.71985400  1
  Dy  Dy9  1  0.50111500  0.00204900  0.28014600  1
  Dy  Dy10  1  0.99888500  0.00204900  0.78014600  1
  Dy  Dy11  1  0.00111500  0.99795100  0.21985400  1
  V  V12  1  0.75380700  0.90589400  0.97601300  1
  V  V13  1  0.24619300  0.09410600  0.02398700  1
  V  V14  1  0.25380700  0.09410600  0.52398700  1
  V  V15  1  0.74619300  0.90589400  0.47601300  1
  V  V16  1  0.51869700  0.68482500  0.67369800  1
  V  V17  1  0.48130300  0.31517500  0.32630200  1
  V  V18  1  0.01869700  0.31517500  0.82630200  1
  V  V19  1  0.98130300  0.68482500  0.17369800  1
  V  V20  1  0.98190700  0.68833000  0.67116400  1
  V  V21  1  0.01809300  0.31167000  0.32883600  1
  V  V22  1  0.48190700  0.31167000  0.82883600  1
  V  V23  1  0.51809300  0.68833000  0.17116400  1
  O  O24  1  0.44485100  0.81964500  0.71796200  1
  O  O25  1  0.55514900  0.18035500  0.28203800  1
  O  O26  1  0.94485100  0.18035500  0.78203800  1
  O  O27  1  0.05514900  0.81964500  0.21796200  1
  O  O28  1  0.55012000  0.17591600  0.80600500  1
  O  O29  1  0.44988000  0.82408400  0.19399500  1
  O  O30  1  0.05012000  0.82408400  0.69399500  1
  O  O31  1  0.94988000  0.17591600  0.30600500  1
  O  O32  1  0.75045600  0.66577000  0.66729300  1
  O  O33  1  0.24954400  0.33423000  0.33270700  1
  O  O34  1  0.25045600  0.33423000  0.83270700  1
  O  O35  1  0.74954400  0.66577000  0.16729300  1
  O  O36  1  0.94392400  0.37526400  0.96635700  1
  O  O37  1  0.05607600  0.62473600  0.03364300  1
  O  O38  1  0.44392400  0.62473600  0.53364300  1
  O  O39  1  0.55607600  0.37526400  0.46635700  1
  O  O40  1  0.94001600  0.39152000  0.73089600  1
  O  O41  1  0.05998400  0.60848000  0.26910400  1
  O  O42  1  0.44001600  0.60848000  0.76910400  1
  O  O43  1  0.55998400  0.39152000  0.23089600  1
  O  O44  1  0.78384000  0.98709900  0.62501200  1
  O  O45  1  0.21616000  0.01290100  0.37498800  1
  O  O46  1  0.28384000  0.01290100  0.87498800  1
  O  O47  1  0.71616000  0.98709900  0.12501200  1
  O  O48  1  0.97193000  0.88191900  0.97323400  1
  O  O49  1  0.02807000  0.11808100  0.02676600  1
  O  O50  1  0.47193000  0.11808100  0.52676600  1
  O  O51  1  0.52807000  0.88191900  0.47323400  1
  O  O52  1  0.63926500  0.78627000  0.94657500  1
  O  O53  1  0.36073500  0.21373000  0.05342500  1
  O  O54  1  0.13926500  0.21373000  0.55342500  1
  O  O55  1  0.86073500  0.78627000  0.44657500  1
  O  O56  1  0.72009600  0.98358600  0.86315600  1
  O  O57  1  0.27990400  0.01641400  0.13684400  1
  O  O58  1  0.22009600  0.01641400  0.63684400  1
  O  O59  1  0.77990400  0.98358600  0.36315600  1
  O  O60  1  0.55957600  0.37030700  0.71860500  1
  O  O61  1  0.44042400  0.62969300  0.28139500  1
  O  O62  1  0.05957600  0.62969300  0.78139500  1
  O  O63  1  0.94042400  0.37030700  0.21860500  1
  O  O64  1  0.56393500  0.38683500  0.96168100  1
  O  O65  1  0.43606500  0.61316500  0.03831900  1
  O  O66  1  0.06393500  0.61316500  0.53831900  1
  O  O67  1  0.93606500  0.38683500  0.46168100  1
