# generated using pymatgen
data_NaGd3
_symmetry_space_group_name_H-M   'P 1'
_cell_length_a   7.23209029
_cell_length_b   7.23209029
_cell_length_c   5.85178000
_cell_angle_alpha   90.00000000
_cell_angle_beta   90.00000000
_cell_angle_gamma   120.00000267
_symmetry_Int_Tables_number   1
_chemical_formula_structural   NaGd3
_chemical_formula_sum   'Na2 Gd6'
_cell_volume   265.06127921
_cell_formula_units_Z   2
loop_
 _symmetry_equiv_pos_site_id
 _symmetry_equiv_pos_as_xyz
  1  'x, y, z'
loop_
 _atom_site_type_symbol
 _atom_site_label
 _atom_site_symmetry_multiplicity
 _atom_site_fract_x
 _atom_site_fract_y
 _atom_site_fract_z
 _atom_site_occupancy
  Na  Na0  1  0.33333300  0.66666700  0.75000000  1
  Na  Na1  1  0.66666700  0.33333300  0.25000000  1
  Gd  Gd2  1  0.83457400  0.66914900  0.75000000  1
  Gd  Gd3  1  0.33085100  0.16542600  0.75000000  1
  Gd  Gd4  1  0.83457400  0.16542600  0.75000000  1
  Gd  Gd5  1  0.16542600  0.83457400  0.25000000  1
  Gd  Gd6  1  0.66914900  0.83457400  0.25000000  1
  Gd  Gd7  1  0.16542600  0.33085100  0.25000000  1
