# generated using pymatgen
data_BaNbI5O16
_symmetry_space_group_name_H-M   'P 1'
_cell_length_a   8.11997864
_cell_length_b   8.11997864
_cell_length_c   15.27453817
_cell_angle_alpha   69.52522732
_cell_angle_beta   69.52522732
_cell_angle_gamma   56.10378671
_symmetry_Int_Tables_number   1
_chemical_formula_structural   BaNbI5O16
_chemical_formula_sum   'Ba2 Nb2 I10 O32'
_cell_volume   767.48468950
_cell_formula_units_Z   2
loop_
 _symmetry_equiv_pos_site_id
 _symmetry_equiv_pos_as_xyz
  1  'x, y, z'
loop_
 _atom_site_type_symbol
 _atom_site_label
 _atom_site_symmetry_multiplicity
 _atom_site_fract_x
 _atom_site_fract_y
 _atom_site_fract_z
 _atom_site_occupancy
  Ba  Ba0  1  0.97938700  0.26552300  0.50471900  1
  Ba  Ba1  1  0.26552300  0.97938700  0.00471900  1
  Nb  Nb2  1  0.40879800  0.46518900  0.91121900  1
  Nb  Nb3  1  0.46518900  0.40879800  0.41121900  1
  I  I4  1  0.41532300  0.76360100  0.67062900  1
  I  I5  1  0.76360100  0.41532300  0.17062900  1
  I  I6  1  0.02589300  0.71274900  0.57629700  1
  I  I7  1  0.71274900  0.02589300  0.07629700  1
  I  I8  1  0.91432000  0.23043600  0.78223800  1
  I  I9  1  0.23043600  0.91432000  0.28223800  1
  I  I10  1  0.12775700  0.53262800  0.23096500  1
  I  I11  1  0.53262800  0.12775700  0.73096500  1
  I  I12  1  0.90085900  0.65380500  0.88953800  1
  I  I13  1  0.65380500  0.90085900  0.38953800  1
  O  O14  1  0.17943300  0.59438700  0.66587600  1
  O  O15  1  0.59438700  0.17943300  0.16587600  1
  O  O16  1  0.79818300  0.02635000  0.66964000  1
  O  O17  1  0.02635000  0.79818300  0.16964000  1
  O  O18  1  0.31098700  0.53175600  0.27798700  1
  O  O19  1  0.53175600  0.31098700  0.77798700  1
  O  O20  1  0.19104600  0.00869700  0.64968400  1
  O  O21  1  0.00869700  0.19104600  0.14968400  1
  O  O22  1  0.88852300  0.11160900  0.00044800  1
  O  O23  1  0.11160900  0.88852300  0.50044800  1
  O  O24  1  0.15425800  0.44592400  0.92767700  1
  O  O25  1  0.44592400  0.15425800  0.42767700  1
  O  O26  1  0.88417700  0.40856200  0.66814000  1
  O  O27  1  0.40856200  0.88417700  0.16814000  1
  O  O28  1  0.31347800  0.71731900  0.80323000  1
  O  O29  1  0.71731900  0.31347800  0.30323000  1
  O  O30  1  0.69306000  0.42361100  0.85685500  1
  O  O31  1  0.42361100  0.69306000  0.35685500  1
  O  O32  1  0.33622200  0.61028600  0.99498600  1
  O  O33  1  0.61028600  0.33622200  0.49498600  1
  O  O34  1  0.55638700  0.93606000  0.84167800  1
  O  O35  1  0.93606000  0.55638700  0.34167800  1
  O  O36  1  0.18520400  0.50871300  0.49760300  1
  O  O37  1  0.50871300  0.18520400  0.99760300  1
  O  O38  1  0.10642000  0.23377300  0.81501900  1
  O  O39  1  0.23377300  0.10642000  0.31501900  1
  O  O40  1  0.73318300  0.60283900  0.99710800  1
  O  O41  1  0.60283900  0.73318300  0.49710800  1
  O  O42  1  0.89521600  0.86105100  0.91129800  1
  O  O43  1  0.86105100  0.89521600  0.41129800  1
  O  O44  1  0.57810200  0.85113900  0.67070500  1
  O  O45  1  0.85113900  0.57810200  0.17070500  1
