# generated using pymatgen
data_CrGaMo6(H19O20)2
_symmetry_space_group_name_H-M   'P 1'
_cell_length_a   6.88291200
_cell_length_b   11.44883225
_cell_length_c   11.82740389
_cell_angle_alpha   101.79294657
_cell_angle_beta   96.70924843
_cell_angle_gamma   102.28330685
_symmetry_Int_Tables_number   1
_chemical_formula_structural   CrGaMo6(H19O20)2
_chemical_formula_sum   'Cr1 Ga1 Mo6 H38 O40'
_cell_volume   878.84641112
_cell_formula_units_Z   1
loop_
 _symmetry_equiv_pos_site_id
 _symmetry_equiv_pos_as_xyz
  1  'x, y, z'
loop_
 _atom_site_type_symbol
 _atom_site_label
 _atom_site_symmetry_multiplicity
 _atom_site_fract_x
 _atom_site_fract_y
 _atom_site_fract_z
 _atom_site_occupancy
  Cr  Cr0  1  0.00000000  0.00000000  0.00000000  1
  Ga  Ga1  1  0.00000000  0.50000000  0.50000000  1
  Mo  Mo2  1  0.97773300  0.07192300  0.29107800  1
  Mo  Mo3  1  0.02226700  0.92807700  0.70892200  1
  Mo  Mo4  1  0.33824600  0.24493900  0.17956400  1
  Mo  Mo5  1  0.66175400  0.75506100  0.82043600  1
  Mo  Mo6  1  0.37173200  0.16717400  0.89495100  1
  Mo  Mo7  1  0.62826800  0.83282600  0.10504900  1
  H  H8  1  0.68358500  0.47895100  0.12580800  1
  H  H9  1  0.31641500  0.52104900  0.87419200  1
  H  H10  1  0.03530800  0.23379300  0.97849400  1
  H  H11  1  0.96469200  0.76620700  0.02150600  1
  H  H12  1  0.35765600  0.59818700  0.44636500  1
  H  H13  1  0.64234400  0.40181300  0.55363500  1
  H  H14  1  0.22401300  0.81481700  0.37605100  1
  H  H15  1  0.77598700  0.18518300  0.62394900  1
  H  H16  1  0.46365300  0.56544800  0.27592600  1
  H  H17  1  0.53634700  0.43455200  0.72407400  1
  H  H18  1  0.70237900  0.08882200  0.08527500  1
  H  H19  1  0.29762100  0.91117800  0.91472500  1
  H  H20  1  0.16937000  0.71332600  0.13905200  1
  H  H21  1  0.83063000  0.28667400  0.86094900  1
  H  H22  1  0.14620700  0.63168700  0.00823000  1
  H  H23  1  0.85379300  0.36831300  0.99177000  1
  H  H24  1  0.44959500  0.08142600  0.63356400  1
  H  H25  1  0.55040500  0.91857400  0.36643600  1
  H  H26  1  0.02673000  0.35162400  0.30191700  1
  H  H27  1  0.97327000  0.64837600  0.69808300  1
  H  H28  1  0.01071600  0.81137100  0.30343000  1
  H  H29  1  0.98928400  0.18862900  0.69657000  1
  H  H30  1  0.40497100  0.11001200  0.51084300  1
  H  H31  1  0.59502900  0.88998800  0.48915700  1
  H  H32  1  0.28235100  0.98290700  0.16175100  1
  H  H33  1  0.71764900  0.01709300  0.83824900  1
  H  H34  1  0.07436700  0.54394000  0.73937200  1
  H  H35  1  0.92563300  0.45606000  0.26062800  1
  H  H36  1  0.64720000  0.34023300  0.41492500  1
  H  H37  1  0.35280000  0.65976700  0.58507500  1
  H  H38  1  0.02216900  0.30752500  0.58155800  1
  H  H39  1  0.97783100  0.69247500  0.41844200  1
  H  H40  1  0.09800700  0.45160900  0.88614900  1
  H  H41  1  0.90199300  0.54839100  0.11385100  1
  H  H42  1  0.48073300  0.29338800  0.64610000  1
  H  H43  1  0.51926700  0.70661200  0.35390000  1
  H  H44  1  0.24986500  0.38023400  0.57510500  1
  H  H45  1  0.75013500  0.61976600  0.42489500  1
  O  O46  1  0.78980900  0.03356800  0.10047500  1
  O  O47  1  0.21019100  0.96643200  0.89952500  1
  O  O48  1  0.51477400  0.61903100  0.35491200  1
  O  O49  1  0.48522600  0.38096900  0.64508800  1
  O  O50  1  0.18776100  0.03707900  0.15194300  1
  O  O51  1  0.81223900  0.96292100  0.84805700  1
  O  O52  1  0.82264000  0.47106300  0.12884000  1
  O  O53  1  0.17736000  0.52893700  0.87116000  1
  O  O54  1  0.10626800  0.36098000  0.53590400  1
  O  O55  1  0.89373200  0.63902000  0.46409600  1
  O  O56  1  0.09084000  0.22924700  0.24976300  1
  O  O57  1  0.90916000  0.77075300  0.75023700  1
  O  O58  1  0.51006100  0.25018500  0.30184200  1
  O  O59  1  0.48993900  0.74981500  0.69815800  1
  O  O60  1  0.48728600  0.17979900  0.05857400  1
  O  O61  1  0.51271400  0.82020100  0.94142600  1
  O  O62  1  0.43459300  0.88792000  0.16796300  1
  O  O63  1  0.56540700  0.11208000  0.83203700  1
  O  O64  1  0.37302700  0.39786300  0.16902300  1
  O  O65  1  0.62697300  0.60213700  0.83097700  1
  O  O66  1  0.00681800  0.56675700  0.67005300  1
  O  O67  1  0.99318200  0.43324300  0.32994700  1
  O  O68  1  0.58264200  0.67940000  0.11078600  1
  O  O69  1  0.41735800  0.32060000  0.88921400  1
  O  O70  1  0.78856500  0.11311200  0.36234900  1
  O  O71  1  0.21143500  0.88688800  0.63765100  1
  O  O72  1  0.09275700  0.76008300  0.33486800  1
  O  O73  1  0.90724300  0.23991700  0.66513200  1
  O  O74  1  0.16798000  0.06686300  0.39950700  1
  O  O75  1  0.83202000  0.93313700  0.60049300  1
  O  O76  1  0.49552800  0.14064600  0.58736600  1
  O  O77  1  0.50447200  0.85935400  0.41263400  1
  O  O78  1  0.14314500  0.10672200  0.76506000  1
  O  O79  1  0.85685500  0.89327800  0.23494000  1
  O  O80  1  0.27864300  0.59548600  0.51269000  1
  O  O81  1  0.72135700  0.40451400  0.48731000  1
  O  O82  1  0.07214800  0.66677900  0.06906300  1
  O  O83  1  0.92785200  0.33322100  0.93093700  1
  O  O84  1  0.11870800  0.17740200  0.00275700  1
  O  O85  1  0.88129200  0.82259800  0.99724300  1
