# generated using pymatgen
data_Ba3NiF12
_symmetry_space_group_name_H-M   'P 1'
_cell_length_a   7.25385280
_cell_length_b   7.25385280
_cell_length_c   7.32214832
_cell_angle_alpha   85.12357415
_cell_angle_beta   85.12357415
_cell_angle_gamma   119.50148633
_symmetry_Int_Tables_number   1
_chemical_formula_structural   Ba3NiF12
_chemical_formula_sum   'Ba3 Ni1 F12'
_cell_volume   330.51676253
_cell_formula_units_Z   1
loop_
 _symmetry_equiv_pos_site_id
 _symmetry_equiv_pos_as_xyz
  1  'x, y, z'
loop_
 _atom_site_type_symbol
 _atom_site_label
 _atom_site_symmetry_multiplicity
 _atom_site_fract_x
 _atom_site_fract_y
 _atom_site_fract_z
 _atom_site_occupancy
  Ba  Ba0  1  0.00000000  0.00000000  0.50000000  1
  Ba  Ba1  1  0.00000000  0.50000000  0.00000000  1
  Ba  Ba2  1  0.50000000  0.00000000  0.00000000  1
  Ni  Ni3  1  0.00000000  0.00000000  0.00000000  1
  F  F4  1  0.32186800  0.60811900  0.18453400  1
  F  F5  1  0.67813200  0.39188100  0.81546600  1
  F  F6  1  0.52158800  0.09181100  0.41026300  1
  F  F7  1  0.39188100  0.67813200  0.81546600  1
  F  F8  1  0.47841200  0.90818900  0.58973700  1
  F  F9  1  0.60811900  0.32186800  0.18453400  1
  F  F10  1  0.90831800  0.12177800  0.81611000  1
  F  F11  1  0.90818900  0.47841200  0.58973700  1
  F  F12  1  0.09168200  0.87822200  0.18389000  1
  F  F13  1  0.09181100  0.52158800  0.41026300  1
  F  F14  1  0.87822200  0.09168200  0.18389000  1
  F  F15  1  0.12177800  0.90831800  0.81611000  1
