# generated using pymatgen
data_Ce12Sn5Ge3
_symmetry_space_group_name_H-M   'P 1'
_cell_length_a   11.62206805
_cell_length_b   11.62206805
_cell_length_c   11.62206805
_cell_angle_alpha   118.58004125
_cell_angle_beta   118.58004125
_cell_angle_gamma   92.47755546
_symmetry_Int_Tables_number   1
_chemical_formula_structural   Ce12Sn5Ge3
_chemical_formula_sum   'Ce24 Sn10 Ge6'
_cell_volume   1132.70994227
_cell_formula_units_Z   2
loop_
 _symmetry_equiv_pos_site_id
 _symmetry_equiv_pos_as_xyz
  1  'x, y, z'
loop_
 _atom_site_type_symbol
 _atom_site_label
 _atom_site_symmetry_multiplicity
 _atom_site_fract_x
 _atom_site_fract_y
 _atom_site_fract_z
 _atom_site_occupancy
  Ce  Ce0  1  0.16530400  0.66530400  0.83060800  1
  Ce  Ce1  1  0.83469600  0.33469600  0.16939100  1
  Ce  Ce2  1  0.66530400  0.83469600  0.50000000  1
  Ce  Ce3  1  0.33469600  0.16530400  0.50000000  1
  Ce  Ce4  1  0.14273500  0.64273500  0.50000000  1
  Ce  Ce5  1  0.85726500  0.35726500  0.50000000  1
  Ce  Ce6  1  0.64273500  0.14273500  0.50000000  1
  Ce  Ce7  1  0.35726500  0.85726500  0.50000000  1
  Ce  Ce8  1  0.83462900  0.69862500  0.26282300  1
  Ce  Ce9  1  0.16537100  0.30137500  0.73717700  1
  Ce  Ce10  1  0.43580200  0.57180600  0.73717700  1
  Ce  Ce11  1  0.69862500  0.43580200  0.86399600  1
  Ce  Ce12  1  0.06419800  0.80137500  0.13600400  1
  Ce  Ce13  1  0.56419800  0.42819400  0.26282300  1
  Ce  Ce14  1  0.30137500  0.56419800  0.13600400  1
  Ce  Ce15  1  0.93580200  0.19862500  0.86399600  1
  Ce  Ce16  1  0.57180600  0.83462900  0.13600400  1
  Ce  Ce17  1  0.66537100  0.92819400  0.86399600  1
  Ce  Ce18  1  0.42819400  0.16537100  0.86399600  1
  Ce  Ce19  1  0.33462900  0.07180600  0.13600400  1
  Ce  Ce20  1  0.92819400  0.06419800  0.26282300  1
  Ce  Ce21  1  0.07180600  0.93580200  0.73717700  1
  Ce  Ce22  1  0.80137500  0.66537100  0.73717700  1
  Ce  Ce23  1  0.19862500  0.33462900  0.26282300  1
  Sn  Sn24  1  0.50000000  0.50000000  0.00000000  1
  Sn  Sn25  1  0.00000000  0.00000000  0.00000000  1
  Sn  Sn26  1  0.37588700  0.87588700  0.84885000  1
  Sn  Sn27  1  0.62411300  0.12411300  0.15115000  1
  Sn  Sn28  1  0.02703700  0.52703700  0.15115000  1
  Sn  Sn29  1  0.87588700  0.02703700  0.50000000  1
  Sn  Sn30  1  0.47296300  0.62411300  0.50000000  1
  Sn  Sn31  1  0.97296300  0.47296300  0.84885000  1
  Sn  Sn32  1  0.12411300  0.97296300  0.50000000  1
  Sn  Sn33  1  0.52703700  0.37588700  0.50000000  1
  Ge  Ge34  1  0.75000000  0.75000000  0.00000000  1
  Ge  Ge35  1  0.25000000  0.25000000  0.00000000  1
  Ge  Ge36  1  0.62087600  0.12087600  0.74175200  1
  Ge  Ge37  1  0.37912400  0.87912400  0.25824800  1
  Ge  Ge38  1  0.12087600  0.37912400  0.50000000  1
  Ge  Ge39  1  0.87912400  0.62087600  0.50000000  1
