# generated using pymatgen
data_BaP2(HO3)2
_symmetry_space_group_name_H-M   'P 1'
_cell_length_a   7.71148100
_cell_length_b   11.88989545
_cell_length_c   13.16617657
_cell_angle_alpha   105.96238106
_cell_angle_beta   98.06553784
_cell_angle_gamma   99.41055245
_symmetry_Int_Tables_number   1
_chemical_formula_structural   BaP2(HO3)2
_chemical_formula_sum   'Ba6 P12 H12 O36'
_cell_volume   1122.96756007
_cell_formula_units_Z   6
loop_
 _symmetry_equiv_pos_site_id
 _symmetry_equiv_pos_as_xyz
  1  'x, y, z'
loop_
 _atom_site_type_symbol
 _atom_site_label
 _atom_site_symmetry_multiplicity
 _atom_site_fract_x
 _atom_site_fract_y
 _atom_site_fract_z
 _atom_site_occupancy
  Ba  Ba0  1  0.29424400  0.37647900  0.52451300  1
  Ba  Ba1  1  0.70575600  0.62352100  0.47548700  1
  Ba  Ba2  1  0.47958800  0.16977400  0.75524800  1
  Ba  Ba3  1  0.52041200  0.83022600  0.24475200  1
  Ba  Ba4  1  0.05674800  0.03530500  0.19218400  1
  Ba  Ba5  1  0.94325200  0.96469500  0.80781600  1
  P  P6  1  0.02932200  0.77854400  0.33746100  1
  P  P7  1  0.97067800  0.22145600  0.66253900  1
  P  P8  1  0.87593800  0.11573000  0.43104600  1
  P  P9  1  0.12406200  0.88427000  0.56895400  1
  P  P10  1  0.56578500  0.12213500  0.16199300  1
  P  P11  1  0.43421500  0.87786500  0.83800700  1
  P  P12  1  0.30297300  0.18722200  0.01888100  1
  P  P13  1  0.69702700  0.81277800  0.98111900  1
  P  P14  1  0.30879300  0.70545300  0.46163700  1
  P  P15  1  0.69120700  0.29454700  0.53836300  1
  P  P16  1  0.42439000  0.33560400  0.24271600  1
  P  P17  1  0.57561000  0.66439600  0.75728400  1
  H  H18  1  0.01832300  0.59199700  0.85592300  1
  H  H19  1  0.98167700  0.40800300  0.14407700  1
  H  H20  1  0.06108500  0.57931300  0.63492300  1
  H  H21  1  0.93891500  0.42068700  0.36507700  1
  H  H22  1  0.21543500  0.80770200  0.04897500  1
  H  H23  1  0.78456500  0.19229800  0.95102500  1
  H  H24  1  0.77717400  0.56507400  0.06761300  1
  H  H25  1  0.22282600  0.43492600  0.93238700  1
  H  H26  1  0.36379500  0.02578100  0.39389400  1
  H  H27  1  0.63620500  0.97421900  0.60610600  1
  H  H28  1  0.40259900  0.57128000  0.14988700  1
  H  H29  1  0.59740100  0.42872000  0.85011300  1
  O  O30  1  0.12201600  0.67704100  0.37638600  1
  O  O31  1  0.87798400  0.32295900  0.62361400  1
  O  O32  1  0.16817200  0.26902100  0.68014800  1
  O  O33  1  0.83182800  0.73097900  0.31985200  1
  O  O34  1  0.20333800  0.00594500  0.64634500  1
  O  O35  1  0.79666200  0.99405500  0.35365500  1
  O  O36  1  0.75146000  0.10403600  0.15778400  1
  O  O37  1  0.24854000  0.89596400  0.84221600  1
  O  O38  1  0.58092200  0.25841800  0.23676900  1
  O  O39  1  0.41907800  0.74158200  0.76323100  1
  O  O40  1  0.47598100  0.13057200  0.04515000  1
  O  O41  1  0.52401900  0.86942800  0.95485000  1
  O  O42  1  0.30851600  0.21126800  0.91341500  1
  O  O43  1  0.69148400  0.78873200  0.08658500  1
  O  O44  1  0.34782100  0.31350900  0.11469500  1
  O  O45  1  0.65217900  0.68649100  0.88530500  1
  O  O46  1  0.53705000  0.23959700  0.58035500  1
  O  O47  1  0.46295000  0.76040300  0.41964500  1
  O  O48  1  0.04353800  0.18224600  0.41056300  1
  O  O49  1  0.95646200  0.81775400  0.58943700  1
  O  O50  1  0.43547600  0.03457600  0.19460400  1
  O  O51  1  0.56452400  0.96542400  0.80539600  1
  O  O52  1  0.09474400  0.89324500  0.44764900  1
  O  O53  1  0.90525600  0.10675500  0.55235100  1
  O  O54  1  0.28118800  0.28043500  0.29242000  1
  O  O55  1  0.71881200  0.71956500  0.70758000  1
  O  O56  1  0.32967900  0.59480700  0.49187500  1
  O  O57  1  0.67032100  0.40519300  0.50812500  1
  O  O58  1  0.51290800  0.46483500  0.29098200  1
  O  O59  1  0.48709200  0.53516500  0.70901800  1
  O  O60  1  0.12190400  0.81609300  0.25534100  1
  O  O61  1  0.87809600  0.18390700  0.74465900  1
  O  O62  1  0.13408900  0.10939000  0.02717500  1
  O  O63  1  0.86591100  0.89061000  0.97282500  1
  O  O64  1  0.72362300  0.19597900  0.43468200  1
  O  O65  1  0.27637700  0.80402100  0.56531800  1
