# generated using pymatgen
data_Nb3Se
_symmetry_space_group_name_H-M   'P 1'
_cell_length_a   5.76708019
_cell_length_b   5.76708019
_cell_length_c   4.92535600
_cell_angle_alpha   90.00000000
_cell_angle_beta   90.00000000
_cell_angle_gamma   120.00000213
_symmetry_Int_Tables_number   1
_chemical_formula_structural   Nb3Se
_chemical_formula_sum   'Nb6 Se2'
_cell_volume   141.86662223
_cell_formula_units_Z   2
loop_
 _symmetry_equiv_pos_site_id
 _symmetry_equiv_pos_as_xyz
  1  'x, y, z'
loop_
 _atom_site_type_symbol
 _atom_site_label
 _atom_site_symmetry_multiplicity
 _atom_site_fract_x
 _atom_site_fract_y
 _atom_site_fract_z
 _atom_site_occupancy
  Nb  Nb0  1  0.16052600  0.32105100  0.25000000  1
  Nb  Nb1  1  0.67894900  0.83947400  0.25000000  1
  Nb  Nb2  1  0.16052600  0.83947400  0.25000000  1
  Nb  Nb3  1  0.83947400  0.67894900  0.75000000  1
  Nb  Nb4  1  0.32105100  0.16052600  0.75000000  1
  Nb  Nb5  1  0.83947400  0.16052600  0.75000000  1
  Se  Se6  1  0.33333300  0.66666700  0.75000000  1
  Se  Se7  1  0.66666700  0.33333300  0.25000000  1
