# generated using pymatgen
data_Zn3In2O6
_symmetry_space_group_name_H-M   'P 1'
_cell_length_a   6.84302400
_cell_length_b   5.91996000
_cell_length_c   14.46237999
_cell_angle_alpha   82.18825234
_cell_angle_beta   90.00000000
_cell_angle_gamma   90.00000000
_symmetry_Int_Tables_number   1
_chemical_formula_structural   Zn3In2O6
_chemical_formula_sum   'Zn12 In8 O24'
_cell_volume   580.44026379
_cell_formula_units_Z   4
loop_
 _symmetry_equiv_pos_site_id
 _symmetry_equiv_pos_as_xyz
  1  'x, y, z'
loop_
 _atom_site_type_symbol
 _atom_site_label
 _atom_site_symmetry_multiplicity
 _atom_site_fract_x
 _atom_site_fract_y
 _atom_site_fract_z
 _atom_site_occupancy
  Zn  Zn0  1  0.99968000  0.13390100  0.59356400  1
  Zn  Zn1  1  0.50032000  0.13390100  0.59356400  1
  Zn  Zn2  1  0.50469900  0.26231700  0.21422000  1
  Zn  Zn3  1  0.25000000  0.23761600  0.78463400  1
  Zn  Zn4  1  0.75000000  0.64053200  0.59421100  1
  Zn  Zn5  1  0.25000000  0.35946800  0.40578900  1
  Zn  Zn6  1  0.75000000  0.76238400  0.21536600  1
  Zn  Zn7  1  0.49530100  0.73768300  0.78578000  1
  Zn  Zn8  1  0.49968000  0.86609900  0.40643600  1
  Zn  Zn9  1  0.99530100  0.26231700  0.21422000  1
  Zn  Zn10  1  0.00469900  0.73768300  0.78578000  1
  Zn  Zn11  1  0.00032000  0.86609900  0.40643600  1
  In  In12  1  0.00000000  0.00000000  0.00000000  1
  In  In13  1  0.25000000  0.63496700  0.59137600  1
  In  In14  1  0.25000000  0.75741100  0.22402900  1
  In  In15  1  0.25000000  0.49751100  0.99789600  1
  In  In16  1  0.50000000  0.00000000  0.00000000  1
  In  In17  1  0.75000000  0.50248900  0.00210400  1
  In  In18  1  0.75000000  0.24258900  0.77597100  1
  In  In19  1  0.75000000  0.36503300  0.40862400  1
  O  O20  1  0.25000000  0.58087400  0.74802200  1
  O  O21  1  0.25000000  0.69071500  0.41852200  1
  O  O22  1  0.25000000  0.80613700  0.07512200  1
  O  O23  1  0.00006400  0.69171500  0.92645100  1
  O  O24  1  0.49121500  0.07850100  0.74666000  1
  O  O25  1  0.99226900  0.81224700  0.57800000  1
  O  O26  1  0.49226900  0.18775300  0.42200000  1
  O  O27  1  0.99121500  0.92149900  0.25334000  1
  O  O28  1  0.50006400  0.30828500  0.07354900  1
  O  O29  1  0.25000000  0.18759800  0.92564300  1
  O  O30  1  0.75000000  0.59919100  0.74744200  1
  O  O31  1  0.25000000  0.29368100  0.57886100  1
  O  O32  1  0.75000000  0.70631900  0.42113900  1
  O  O33  1  0.25000000  0.40080900  0.25255800  1
  O  O34  1  0.75000000  0.81240200  0.07435700  1
  O  O35  1  0.49993600  0.69171500  0.92645100  1
  O  O36  1  0.00878500  0.07850100  0.74666000  1
  O  O37  1  0.50773100  0.81224700  0.57800000  1
  O  O38  1  0.00773100  0.18775300  0.42200000  1
  O  O39  1  0.50878500  0.92149900  0.25334000  1
  O  O40  1  0.99993600  0.30828500  0.07354900  1
  O  O41  1  0.75000000  0.19386300  0.92487800  1
  O  O42  1  0.75000000  0.30928500  0.58147800  1
  O  O43  1  0.75000000  0.41912600  0.25197800  1
