# generated using pymatgen
data_Nd2Mg
_symmetry_space_group_name_H-M   'P 1'
_cell_length_a   6.93330693
_cell_length_b   6.93330693
_cell_length_c   6.93330693
_cell_angle_alpha   147.67921411
_cell_angle_beta   147.67921411
_cell_angle_gamma   46.35913661
_symmetry_Int_Tables_number   1
_chemical_formula_structural   Nd2Mg
_chemical_formula_sum   'Nd2 Mg1'
_cell_volume   94.93763817
_cell_formula_units_Z   1
loop_
 _symmetry_equiv_pos_site_id
 _symmetry_equiv_pos_as_xyz
  1  'x, y, z'
loop_
 _atom_site_type_symbol
 _atom_site_label
 _atom_site_symmetry_multiplicity
 _atom_site_fract_x
 _atom_site_fract_y
 _atom_site_fract_z
 _atom_site_occupancy
  Nd  Nd0  1  0.65282000  0.65282000  0.00000000  1
  Nd  Nd1  1  0.34718000  0.34718000  0.00000000  1
  Mg  Mg2  1  0.00000000  0.00000000  0.00000000  1
