# generated using pymatgen
data_V5W3O20
_symmetry_space_group_name_H-M   'P 1'
_cell_length_a   4.11790859
_cell_length_b   7.56516704
_cell_length_c   12.82852150
_cell_angle_alpha   72.77484797
_cell_angle_beta   90.68363327
_cell_angle_gamma   89.93567376
_symmetry_Int_Tables_number   1
_chemical_formula_structural   V5W3O20
_chemical_formula_sum   'V5 W3 O20'
_cell_volume   381.68635381
_cell_formula_units_Z   1
loop_
 _symmetry_equiv_pos_site_id
 _symmetry_equiv_pos_as_xyz
  1  'x, y, z'
loop_
 _atom_site_type_symbol
 _atom_site_label
 _atom_site_symmetry_multiplicity
 _atom_site_fract_x
 _atom_site_fract_y
 _atom_site_fract_z
 _atom_site_occupancy
  V  V0  1  0.90470500  0.82846900  0.34505800  1
  V  V1  1  0.08589800  0.17343000  0.66137000  1
  V  V2  1  0.10297800  0.17433200  0.15083900  1
  V  V3  1  0.90661600  0.32148400  0.85868700  1
  V  V4  1  0.89077700  0.82900000  0.84206500  1
  W  W5  1  0.92769800  0.31936900  0.35690600  1
  W  W6  1  0.07448900  0.67383100  0.64828300  1
  W  W7  1  0.08782700  0.67970600  0.14361100  1
  O  O8  1  0.00409400  0.41343600  0.18310500  1
  O  O9  1  0.99081600  0.58504400  0.81419200  1
  O  O10  1  0.00040200  0.10093400  0.81196100  1
  O  O11  1  0.00442700  0.90293700  0.18262700  1
  O  O12  1  0.50977200  0.82297400  0.35635200  1
  O  O13  1  0.47542000  0.17443800  0.64838700  1
  O  O14  1  0.98708800  0.24414000  0.50517900  1
  O  O15  1  0.00319800  0.75094800  0.50257400  1
  O  O16  1  0.51984100  0.67236500  0.15349000  1
  O  O17  1  0.50011900  0.17308200  0.14791700  1
  O  O18  1  0.51039300  0.32219600  0.84700900  1
  O  O19  1  0.49530200  0.83022200  0.85251500  1
  O  O20  1  0.01401000  0.74935800  0.99910300  1
  O  O21  1  0.99138500  0.25161000  0.99560000  1
  O  O22  1  0.01193000  0.58403000  0.31989700  1
  O  O23  1  0.01154000  0.09744500  0.31859800  1
  O  O24  1  0.99635600  0.41104400  0.67183400  1
  O  O25  1  0.99080300  0.91266400  0.67897300  1
  O  O26  1  0.49679900  0.32709000  0.34851200  1
  O  O27  1  0.50532000  0.67442200  0.65535800  1
