# generated using pymatgen
data_Zr2(SeS)3
_symmetry_space_group_name_H-M   'P 1'
_cell_length_a   3.73122500
_cell_length_b   5.42199400
_cell_length_c   9.60828672
_cell_angle_alpha   83.78712026
_cell_angle_beta   90.00000000
_cell_angle_gamma   90.00000000
_symmetry_Int_Tables_number   1
_chemical_formula_structural   Zr2(SeS)3
_chemical_formula_sum   'Zr2 Se3 S3'
_cell_volume   193.24049750
_cell_formula_units_Z   1
loop_
 _symmetry_equiv_pos_site_id
 _symmetry_equiv_pos_as_xyz
  1  'x, y, z'
loop_
 _atom_site_type_symbol
 _atom_site_label
 _atom_site_symmetry_multiplicity
 _atom_site_fract_x
 _atom_site_fract_y
 _atom_site_fract_z
 _atom_site_occupancy
  Zr  Zr0  1  0.50000000  0.72257400  0.65572100  1
  Zr  Zr1  1  0.00000000  0.27948000  0.34167500  1
  Se  Se2  1  0.00000000  0.47780700  0.83181600  1
  Se  Se3  1  0.50000000  0.24111100  0.55403000  1
  Se  Se4  1  0.00000000  0.76098500  0.44286500  1
  S  S5  1  0.50000000  0.12197900  0.17826900  1
  S  S6  1  0.00000000  0.89156900  0.81291600  1
  S  S7  1  0.50000000  0.50449500  0.18270700  1
