# generated using pymatgen
data_Y3HoFe4(Ge2O7)4
_symmetry_space_group_name_H-M   'P 1'
_cell_length_a   6.75551500
_cell_length_b   8.65185101
_cell_length_c   9.82039714
_cell_angle_alpha   89.99527914
_cell_angle_beta   79.45251013
_cell_angle_gamma   89.99680802
_symmetry_Int_Tables_number   1
_chemical_formula_structural   Y3HoFe4(Ge2O7)4
_chemical_formula_sum   'Y3 Ho1 Fe4 Ge8 O28'
_cell_volume   564.28147978
_cell_formula_units_Z   1
loop_
 _symmetry_equiv_pos_site_id
 _symmetry_equiv_pos_as_xyz
  1  'x, y, z'
loop_
 _atom_site_type_symbol
 _atom_site_label
 _atom_site_symmetry_multiplicity
 _atom_site_fract_x
 _atom_site_fract_y
 _atom_site_fract_z
 _atom_site_occupancy
  Y  Y0  1  0.75525700  0.95892700  0.25282500  1
  Y  Y1  1  0.24484700  0.45881400  0.74714600  1
  Y  Y2  1  0.24479700  0.04151900  0.74727100  1
  Ho  Ho3  1  0.75509400  0.54272600  0.25276300  1
  Fe  Fe4  1  0.25581900  0.05592500  0.24805500  1
  Fe  Fe5  1  0.74419400  0.55568700  0.75197500  1
  Fe  Fe6  1  0.74415900  0.94425700  0.75195000  1
  Fe  Fe7  1  0.25568300  0.44448600  0.24807200  1
  Ge  Ge8  1  0.54585000  0.25003400  0.96691600  1
  Ge  Ge9  1  0.45421900  0.74983900  0.03325500  1
  Ge  Ge10  1  0.04565400  0.74982700  0.46980600  1
  Ge  Ge11  1  0.95428200  0.25006600  0.53001900  1
  Ge  Ge12  1  0.48156300  0.25040800  0.44700400  1
  Ge  Ge13  1  0.51927300  0.74976900  0.55257000  1
  Ge  Ge14  1  0.02047000  0.25047800  0.05035000  1
  Ge  Ge15  1  0.97901000  0.74974500  0.95018500  1
  O  O16  1  0.03234400  0.42632300  0.14030300  1
  O  O17  1  0.96545500  0.92586100  0.86111600  1
  O  O18  1  0.96538000  0.57388800  0.86091400  1
  O  O19  1  0.03445900  0.07410200  0.13935800  1
  O  O20  1  0.04506200  0.91457000  0.36100400  1
  O  O21  1  0.95503600  0.41454300  0.63885700  1
  O  O22  1  0.95527100  0.08561000  0.63900800  1
  O  O23  1  0.04317200  0.58565100  0.36055700  1
  O  O24  1  0.35368400  0.25020000  0.61839200  1
  O  O25  1  0.64760800  0.74904800  0.38082700  1
  O  O26  1  0.47306500  0.07241600  0.35996600  1
  O  O27  1  0.52715200  0.57223500  0.63976900  1
  O  O28  1  0.52691200  0.92755900  0.63959100  1
  O  O29  1  0.47517400  0.42780600  0.35893800  1
  O  O30  1  0.53733600  0.41548400  0.86114600  1
  O  O31  1  0.46271700  0.91545700  0.13905600  1
  O  O32  1  0.46387300  0.58460500  0.13937200  1
  O  O33  1  0.53710300  0.08463800  0.86097700  1
  O  O34  1  0.35259300  0.25047000  0.11912900  1
  O  O35  1  0.64636300  0.75004000  0.88070900  1
  O  O36  1  0.75089300  0.24904800  0.05933500  1
  O  O37  1  0.24847500  0.74946900  0.94140100  1
  O  O38  1  0.16031800  0.25057400  0.38493600  1
  O  O39  1  0.84037300  0.75008100  0.61507400  1
  O  O40  1  0.15668800  0.25030600  0.88126000  1
  O  O41  1  0.84256800  0.74900400  0.11962100  1
  O  O42  1  0.75689600  0.24906600  0.43042500  1
  O  O43  1  0.24385700  0.74944000  0.56879700  1
