# generated using pymatgen
data_V3MoO6
_symmetry_space_group_name_H-M   'P 1'
_cell_length_a   5.63842749
_cell_length_b   5.63842749
_cell_length_c   5.63842756
_cell_angle_alpha   55.29750152
_cell_angle_beta   55.29750152
_cell_angle_gamma   55.29750766
_symmetry_Int_Tables_number   1
_chemical_formula_structural   V3MoO6
_chemical_formula_sum   'V3 Mo1 O6'
_cell_volume   112.90191297
_cell_formula_units_Z   1
loop_
 _symmetry_equiv_pos_site_id
 _symmetry_equiv_pos_as_xyz
  1  'x, y, z'
loop_
 _atom_site_type_symbol
 _atom_site_label
 _atom_site_symmetry_multiplicity
 _atom_site_fract_x
 _atom_site_fract_y
 _atom_site_fract_z
 _atom_site_occupancy
  V  V0  1  0.35041200  0.35041200  0.35041200  1
  V  V1  1  0.14928100  0.14928100  0.14928100  1
  V  V2  1  0.65065400  0.65065400  0.65065400  1
  Mo  Mo3  1  0.85079600  0.85079600  0.85079600  1
  O  O4  1  0.75294000  0.43430800  0.05614200  1
  O  O5  1  0.43430800  0.05614200  0.75294000  1
  O  O6  1  0.05614200  0.75294000  0.43430800  1
  O  O7  1  0.54021700  0.94819600  0.26705300  1
  O  O8  1  0.94819600  0.26705300  0.54021700  1
  O  O9  1  0.26705300  0.54021700  0.94819600  1
