# generated using pymatgen
data_Zr2Ti(PbO3)3
_symmetry_space_group_name_H-M   'P 1'
_cell_length_a   4.21468861
_cell_length_b   4.21468861
_cell_length_c   12.38816073
_cell_angle_alpha   89.28910244
_cell_angle_beta   89.28910244
_cell_angle_gamma   88.94671028
_symmetry_Int_Tables_number   1
_chemical_formula_structural   Zr2Ti(PbO3)3
_chemical_formula_sum   'Zr2 Ti1 Pb3 O9'
_cell_volume   219.98788870
_cell_formula_units_Z   1
loop_
 _symmetry_equiv_pos_site_id
 _symmetry_equiv_pos_as_xyz
  1  'x, y, z'
loop_
 _atom_site_type_symbol
 _atom_site_label
 _atom_site_symmetry_multiplicity
 _atom_site_fract_x
 _atom_site_fract_y
 _atom_site_fract_z
 _atom_site_occupancy
  Zr  Zr0  1  0.97261300  0.97261300  0.99460100  1
  Zr  Zr1  1  0.97371300  0.97371300  0.65245900  1
  Ti  Ti2  1  0.94943400  0.94943400  0.32457400  1
  Pb  Pb3  1  0.42190000  0.42190000  0.80823700  1
  Pb  Pb4  1  0.42313100  0.42313100  0.46565700  1
  Pb  Pb5  1  0.41885300  0.41885300  0.15198200  1
  O  O6  1  0.48941500  0.01302600  0.66848700  1
  O  O7  1  0.51399400  0.00882000  0.33344500  1
  O  O8  1  0.48816400  0.01315100  0.00922500  1
  O  O9  1  0.01142400  0.01142400  0.82957400  1
  O  O10  1  0.01842300  0.01842300  0.48566900  1
  O  O11  1  0.01459900  0.01459900  0.17515500  1
  O  O12  1  0.01302600  0.48941500  0.66848700  1
  O  O13  1  0.00882000  0.51399400  0.33344500  1
  O  O14  1  0.01315100  0.48816400  0.00922500  1
