# generated using pymatgen
data_ZnCd3GeS6
_symmetry_space_group_name_H-M   'P 1'
_cell_length_a   7.15877870
_cell_length_b   7.15877870
_cell_length_c   12.49009964
_cell_angle_alpha   72.52376424
_cell_angle_beta   72.52376424
_cell_angle_gamma   59.40164077
_symmetry_Int_Tables_number   1
_chemical_formula_structural   ZnCd3GeS6
_chemical_formula_sum   'Zn2 Cd6 Ge2 S12'
_cell_volume   516.98920788
_cell_formula_units_Z   2
loop_
 _symmetry_equiv_pos_site_id
 _symmetry_equiv_pos_as_xyz
  1  'x, y, z'
loop_
 _atom_site_type_symbol
 _atom_site_label
 _atom_site_symmetry_multiplicity
 _atom_site_fract_x
 _atom_site_fract_y
 _atom_site_fract_z
 _atom_site_occupancy
  Zn  Zn0  1  0.22254400  0.45599500  0.49650700  1
  Zn  Zn1  1  0.45599500  0.22254400  0.99650700  1
  Cd  Cd2  1  0.83382500  0.43148500  0.15207900  1
  Cd  Cd3  1  0.43148500  0.83382500  0.65207900  1
  Cd  Cd4  1  0.91484700  0.08071300  0.49991300  1
  Cd  Cd5  1  0.08071300  0.91484700  0.99991300  1
  Cd  Cd6  1  0.69728200  0.93636900  0.30882800  1
  Cd  Cd7  1  0.93636900  0.69728200  0.80882800  1
  Ge  Ge8  1  0.29904300  0.83631800  0.24901600  1
  Ge  Ge9  1  0.83631800  0.29904300  0.74901600  1
  S  S10  1  0.10491600  0.54371800  0.99235400  1
  S  S11  1  0.54371800  0.10491600  0.49235400  1
  S  S12  1  0.11841000  0.16456600  0.29661700  1
  S  S13  1  0.16456600  0.11841000  0.79661700  1
  S  S14  1  0.70905500  0.17585700  0.10839900  1
  S  S15  1  0.17585700  0.70905500  0.60839900  1
  S  S16  1  0.41688200  0.88059200  0.06021600  1
  S  S17  1  0.88059200  0.41688200  0.56021600  1
  S  S18  1  0.59950100  0.62682400  0.32742200  1
  S  S19  1  0.62682400  0.59950100  0.82742200  1
  S  S20  1  0.11842200  0.63683700  0.31064900  1
  S  S21  1  0.63683700  0.11842200  0.81064900  1
