# generated using pymatgen
data_ZnFe4CoO8
_symmetry_space_group_name_H-M   'P 1'
_cell_length_a   6.04126012
_cell_length_b   6.04126012
_cell_length_c   6.04126012
_cell_angle_alpha   60.00000000
_cell_angle_beta   60.00000000
_cell_angle_gamma   60.00000000
_symmetry_Int_Tables_number   1
_chemical_formula_structural   ZnFe4CoO8
_chemical_formula_sum   'Zn1 Fe4 Co1 O8'
_cell_volume   155.90771618
_cell_formula_units_Z   1
loop_
 _symmetry_equiv_pos_site_id
 _symmetry_equiv_pos_as_xyz
  1  'x, y, z'
loop_
 _atom_site_type_symbol
 _atom_site_label
 _atom_site_symmetry_multiplicity
 _atom_site_fract_x
 _atom_site_fract_y
 _atom_site_fract_z
 _atom_site_occupancy
  Zn  Zn0  1  0.00000000  0.00000000  0.00000000  1
  Fe  Fe1  1  0.62500300  0.62500300  0.12499000  1
  Fe  Fe2  1  0.62500300  0.12499000  0.62500300  1
  Fe  Fe3  1  0.12499000  0.62500300  0.62500300  1
  Fe  Fe4  1  0.62500300  0.62500300  0.62500300  1
  Co  Co5  1  0.25000000  0.25000000  0.25000000  1
  O  O6  1  0.86475400  0.86475400  0.40573800  1
  O  O7  1  0.86475400  0.40573800  0.86475400  1
  O  O8  1  0.40573800  0.86475400  0.86475400  1
  O  O9  1  0.86475400  0.86475400  0.86475400  1
  O  O10  1  0.38520200  0.38520200  0.84439300  1
  O  O11  1  0.38520200  0.84439300  0.38520200  1
  O  O12  1  0.84439300  0.38520200  0.38520200  1
  O  O13  1  0.38520200  0.38520200  0.38520200  1
