# generated using pymatgen
data_YbAlNi
_symmetry_space_group_name_H-M   'P 1'
_cell_length_a   5.40168784
_cell_length_b   5.28415139
_cell_length_c   8.52882300
_cell_angle_alpha   90.00000000
_cell_angle_beta   90.00000000
_cell_angle_gamma   120.64588179
_symmetry_Int_Tables_number   1
_chemical_formula_structural   YbAlNi
_chemical_formula_sum   'Yb4 Al4 Ni4'
_cell_volume   209.44065187
_cell_formula_units_Z   4
loop_
 _symmetry_equiv_pos_site_id
 _symmetry_equiv_pos_as_xyz
  1  'x, y, z'
loop_
 _atom_site_type_symbol
 _atom_site_label
 _atom_site_symmetry_multiplicity
 _atom_site_fract_x
 _atom_site_fract_y
 _atom_site_fract_z
 _atom_site_occupancy
  Yb  Yb0  1  0.66031300  0.32035500  0.54170600  1
  Yb  Yb1  1  0.32707000  0.65406000  0.42829000  1
  Yb  Yb2  1  0.32707000  0.65406000  0.07171000  1
  Yb  Yb3  1  0.66031300  0.32035500  0.95829400  1
  Al  Al4  1  0.16352500  0.32717400  0.75000000  1
  Al  Al5  1  0.16030400  0.83246100  0.75000000  1
  Al  Al6  1  0.67225200  0.83252600  0.75000000  1
  Al  Al7  1  0.85613800  0.71236100  0.25000000  1
  Ni  Ni8  1  0.83418000  0.17780800  0.25000000  1
  Ni  Ni9  1  0.34275900  0.17690400  0.25000000  1
  Ni  Ni10  1  0.99803700  0.99596800  0.50692900  1
  Ni  Ni11  1  0.99803700  0.99596800  0.99307100  1
