# generated using pymatgen
data_Yb2NiSb2
_symmetry_space_group_name_H-M   'P 1'
_cell_length_a   7.83897708
_cell_length_b   7.83897708
_cell_length_c   7.83897725
_cell_angle_alpha   33.83452218
_cell_angle_beta   33.83452218
_cell_angle_gamma   33.83451707
_symmetry_Int_Tables_number   1
_chemical_formula_structural   Yb2NiSb2
_chemical_formula_sum   'Yb2 Ni1 Sb2'
_cell_volume   133.07986345
_cell_formula_units_Z   1
loop_
 _symmetry_equiv_pos_site_id
 _symmetry_equiv_pos_as_xyz
  1  'x, y, z'
loop_
 _atom_site_type_symbol
 _atom_site_label
 _atom_site_symmetry_multiplicity
 _atom_site_fract_x
 _atom_site_fract_y
 _atom_site_fract_z
 _atom_site_occupancy
  Yb  Yb0  1  0.99618700  0.99618700  0.99618700  1
  Yb  Yb1  1  0.50510800  0.50510800  0.50510800  1
  Ni  Ni2  1  0.37252200  0.37252200  0.37252200  1
  Sb  Sb3  1  0.74608600  0.74608600  0.74608600  1
  Sb  Sb4  1  0.25509700  0.25509700  0.25509700  1
