# generated using pymatgen
data_Zn(WSe2)2
_symmetry_space_group_name_H-M   'P 1'
_cell_length_a   3.31124444
_cell_length_b   3.31121500
_cell_length_c   17.95800508
_cell_angle_alpha   90.00000000
_cell_angle_beta   90.00941788
_cell_angle_gamma   60.00028412
_symmetry_Int_Tables_number   1
_chemical_formula_structural   Zn(WSe2)2
_chemical_formula_sum   'Zn1 W2 Se4'
_cell_volume   170.51735215
_cell_formula_units_Z   1
loop_
 _symmetry_equiv_pos_site_id
 _symmetry_equiv_pos_as_xyz
  1  'x, y, z'
loop_
 _atom_site_type_symbol
 _atom_site_label
 _atom_site_symmetry_multiplicity
 _atom_site_fract_x
 _atom_site_fract_y
 _atom_site_fract_z
 _atom_site_occupancy
  Zn  Zn0  1  0.33292000  0.33354000  0.51315400  1
  W  W1  1  0.33346900  0.33326600  0.77425700  1
  W  W2  1  0.66666700  0.66666700  0.24042900  1
  Se  Se3  1  0.33325800  0.33337100  0.14627200  1
  Se  Se4  1  0.66695900  0.66652000  0.86820900  1
  Se  Se5  1  0.66668300  0.66665800  0.68001600  1
  Se  Se6  1  0.33344400  0.33327800  0.33466400  1
