# generated using pymatgen
data_Nd2Ho2O5
_symmetry_space_group_name_H-M   'P 1'
_cell_length_a   3.85604000
_cell_length_b   3.85604000
_cell_length_c   11.06819500
_cell_angle_alpha   90.00000000
_cell_angle_beta   90.00000000
_cell_angle_gamma   90.00000000
_symmetry_Int_Tables_number   1
_chemical_formula_structural   Nd2Ho2O5
_chemical_formula_sum   'Nd2 Ho2 O5'
_cell_volume   164.57348379
_cell_formula_units_Z   1
loop_
 _symmetry_equiv_pos_site_id
 _symmetry_equiv_pos_as_xyz
  1  'x, y, z'
loop_
 _atom_site_type_symbol
 _atom_site_label
 _atom_site_symmetry_multiplicity
 _atom_site_fract_x
 _atom_site_fract_y
 _atom_site_fract_z
 _atom_site_occupancy
  Nd  Nd0  1  0.50000000  0.50000000  0.22543100  1
  Nd  Nd1  1  0.50000000  0.50000000  0.77456900  1
  Ho  Ho2  1  0.00000000  0.00000000  0.00000000  1
  Ho  Ho3  1  0.00000000  0.00000000  0.50000000  1
  O  O4  1  0.50000000  0.00000000  0.12501100  1
  O  O5  1  0.50000000  0.00000000  0.87498900  1
  O  O6  1  0.50000000  0.50000000  0.50000000  1
  O  O7  1  0.00000000  0.50000000  0.12501100  1
  O  O8  1  0.00000000  0.50000000  0.87498900  1
