# generated using pymatgen
data_YTaBi2O7
_symmetry_space_group_name_H-M   'P 1'
_cell_length_a   7.70475266
_cell_length_b   7.70475266
_cell_length_c   7.70475266
_cell_angle_alpha   120.32677548
_cell_angle_beta   119.89815684
_cell_angle_gamma   89.80571519
_symmetry_Int_Tables_number   1
_chemical_formula_structural   YTaBi2O7
_chemical_formula_sum   'Y2 Ta2 Bi4 O14'
_cell_volume   322.85824263
_cell_formula_units_Z   2
loop_
 _symmetry_equiv_pos_site_id
 _symmetry_equiv_pos_as_xyz
  1  'x, y, z'
loop_
 _atom_site_type_symbol
 _atom_site_label
 _atom_site_symmetry_multiplicity
 _atom_site_fract_x
 _atom_site_fract_y
 _atom_site_fract_z
 _atom_site_occupancy
  Y  Y0  1  0.00000000  0.50000000  0.00000000  1
  Y  Y1  1  0.00000000  0.00000000  0.50000000  1
  Ta  Ta2  1  0.00000000  0.50000000  0.50000000  1
  Ta  Ta3  1  0.50000000  0.50000000  0.00000000  1
  Bi  Bi4  1  0.50000000  0.00000000  0.00000000  1
  Bi  Bi5  1  0.50000000  0.50000000  0.50000000  1
  Bi  Bi6  1  0.50000000  0.00000000  0.50000000  1
  Bi  Bi7  1  0.00000000  0.00000000  0.00000000  1
  O  O8  1  0.61907400  0.86907400  0.75000000  1
  O  O9  1  0.38092600  0.13092600  0.25000000  1
  O  O10  1  0.26657100  0.51657100  0.75000000  1
  O  O11  1  0.89076200  0.14076200  0.75000000  1
  O  O12  1  0.36243400  0.18171100  0.79729400  1
  O  O13  1  0.88441700  0.56514000  0.70270600  1
  O  O14  1  0.36243400  0.56514000  0.18072300  1
  O  O15  1  0.88441700  0.18171100  0.31927700  1
  O  O16  1  0.73342900  0.48342900  0.25000000  1
  O  O17  1  0.10923800  0.85923800  0.25000000  1
  O  O18  1  0.63756600  0.81828900  0.20270600  1
  O  O19  1  0.11558300  0.43486000  0.29729400  1
  O  O20  1  0.63756600  0.43486000  0.81927700  1
  O  O21  1  0.11558300  0.81828900  0.68072300  1
