# generated using pymatgen
data_Y6Al2SiS14
_symmetry_space_group_name_H-M   'P 1'
_cell_length_a   9.71160506
_cell_length_b   9.71160506
_cell_length_c   5.96973600
_cell_angle_alpha   90.00000000
_cell_angle_beta   90.00000000
_cell_angle_gamma   120.00000722
_symmetry_Int_Tables_number   1
_chemical_formula_structural   Y6Al2SiS14
_chemical_formula_sum   'Y6 Al2 Si1 S14'
_cell_volume   487.60455199
_cell_formula_units_Z   1
loop_
 _symmetry_equiv_pos_site_id
 _symmetry_equiv_pos_as_xyz
  1  'x, y, z'
loop_
 _atom_site_type_symbol
 _atom_site_label
 _atom_site_symmetry_multiplicity
 _atom_site_fract_x
 _atom_site_fract_y
 _atom_site_fract_z
 _atom_site_occupancy
  Y  Y0  1  0.81067200  0.70112100  0.51562000  1
  Y  Y1  1  0.89044900  0.18932800  0.51562000  1
  Y  Y2  1  0.29887900  0.10955100  0.51562000  1
  Y  Y3  1  0.51591200  0.96447800  0.02827000  1
  Y  Y4  1  0.44856600  0.48408800  0.02827000  1
  Y  Y5  1  0.03552200  0.55143400  0.02827000  1
  Al  Al6  1  0.66666700  0.33333300  0.33930100  1
  Al  Al7  1  0.33333300  0.66666700  0.44211500  1
  Si  Si8  1  0.00000000  0.00000000  0.93850300  1
  S  S9  1  0.00000000  0.00000000  0.29690300  1
  S  S10  1  0.33333300  0.66666700  0.81603700  1
  S  S11  1  0.08873300  0.85799700  0.79402900  1
  S  S12  1  0.76926400  0.91126700  0.79402900  1
  S  S13  1  0.14200300  0.23073600  0.79402900  1
  S  S14  1  0.23622400  0.81249500  0.28710900  1
  S  S15  1  0.57627000  0.76377600  0.28710900  1
  S  S16  1  0.18750500  0.42373000  0.28710900  1
  S  S17  1  0.91044500  0.47908200  0.57153800  1
  S  S18  1  0.56863800  0.08955500  0.57153800  1
  S  S19  1  0.52091800  0.43136200  0.57153800  1
  S  S20  1  0.43142500  0.19818200  0.10648600  1
  S  S21  1  0.76675700  0.56857500  0.10648600  1
  S  S22  1  0.80181800  0.23324300  0.10648600  1
