# generated using pymatgen
data_TiBi2(O2F)2
_symmetry_space_group_name_H-M   'P 1'
_cell_length_a   8.29015484
_cell_length_b   8.29015484
_cell_length_c   8.29015484
_cell_angle_alpha   152.99929227
_cell_angle_beta   152.99929227
_cell_angle_gamma   38.55577151
_symmetry_Int_Tables_number   1
_chemical_formula_structural   TiBi2(O2F)2
_chemical_formula_sum   'Ti1 Bi2 O4 F2'
_cell_volume   117.24108933
_cell_formula_units_Z   1
loop_
 _symmetry_equiv_pos_site_id
 _symmetry_equiv_pos_as_xyz
  1  'x, y, z'
loop_
 _atom_site_type_symbol
 _atom_site_label
 _atom_site_symmetry_multiplicity
 _atom_site_fract_x
 _atom_site_fract_y
 _atom_site_fract_z
 _atom_site_occupancy
  Ti  Ti0  1  0.00000000  0.00000000  0.00000000  1
  Bi  Bi1  1  0.66838100  0.66838100  0.00000000  1
  Bi  Bi2  1  0.33161900  0.33161900  0.00000000  1
  O  O3  1  0.75000000  0.25000000  0.50000000  1
  O  O4  1  0.25000000  0.75000000  0.50000000  1
  O  O5  1  0.00000000  0.50000000  0.50000000  1
  O  O6  1  0.50000000  0.00000000  0.50000000  1
  F  F7  1  0.87269500  0.87269500  0.00000000  1
  F  F8  1  0.12730500  0.12730500  0.00000000  1
