# generated using pymatgen
data_TbCuTe2
_symmetry_space_group_name_H-M   'P 1'
_cell_length_a   8.69909648
_cell_length_b   8.69894291
_cell_length_c   13.93904600
_cell_angle_alpha   90.00002558
_cell_angle_beta   90.00044993
_cell_angle_gamma   119.99956417
_symmetry_Int_Tables_number   1
_chemical_formula_structural   TbCuTe2
_chemical_formula_sum   'Tb8 Cu8 Te16'
_cell_volume   913.49509205
_cell_formula_units_Z   8
loop_
 _symmetry_equiv_pos_site_id
 _symmetry_equiv_pos_as_xyz
  1  'x, y, z'
loop_
 _atom_site_type_symbol
 _atom_site_label
 _atom_site_symmetry_multiplicity
 _atom_site_fract_x
 _atom_site_fract_y
 _atom_site_fract_z
 _atom_site_occupancy
  Tb  Tb0  1  0.99102200  0.49551000  0.23980800  1
  Tb  Tb1  1  0.50449400  0.49550800  0.23981100  1
  Tb  Tb2  1  0.50449200  0.00898400  0.23981200  1
  Tb  Tb3  1  0.00897800  0.50449000  0.76019200  1
  Tb  Tb4  1  0.49550600  0.50449200  0.76018900  1
  Tb  Tb5  1  0.49550800  0.99101600  0.76018800  1
  Tb  Tb6  1  0.99999700  0.99999800  0.25468300  1
  Tb  Tb7  1  0.00000300  0.00000200  0.74531700  1
  Cu  Cu8  1  0.33338100  0.66668900  0.92754900  1
  Cu  Cu9  1  0.66661900  0.33331100  0.07245100  1
  Cu  Cu10  1  0.16497600  0.32996100  0.57282700  1
  Cu  Cu11  1  0.67000400  0.83500000  0.57281800  1
  Cu  Cu12  1  0.16501800  0.83503800  0.57281500  1
  Cu  Cu13  1  0.83502400  0.67003900  0.42717300  1
  Cu  Cu14  1  0.32999600  0.16500000  0.42718200  1
  Cu  Cu15  1  0.83498200  0.16496200  0.42718500  1
  Te  Te16  1  0.83709600  0.67417100  0.11943900  1
  Te  Te17  1  0.32581000  0.16290600  0.11944100  1
  Te  Te18  1  0.83709200  0.16291700  0.11943800  1
  Te  Te19  1  0.16290400  0.32582900  0.88056100  1
  Te  Te20  1  0.67419000  0.83709400  0.88055900  1
  Te  Te21  1  0.16290800  0.83708300  0.88056200  1
  Te  Te22  1  0.17275000  0.82724100  0.38076200  1
  Te  Te23  1  0.17275100  0.34550800  0.38076300  1
  Te  Te24  1  0.65448800  0.82724100  0.38076000  1
  Te  Te25  1  0.82725000  0.17275900  0.61923800  1
  Te  Te26  1  0.82724900  0.65449200  0.61923700  1
  Te  Te27  1  0.34551200  0.17275900  0.61924000  1
  Te  Te28  1  0.33334100  0.66667000  0.12021700  1
  Te  Te29  1  0.66665900  0.33333000  0.87978300  1
  Te  Te30  1  0.66666600  0.33332900  0.38294500  1
  Te  Te31  1  0.33333400  0.66667100  0.61705500  1
