# generated using pymatgen
data_UPClO6
_symmetry_space_group_name_H-M   'P 1'
_cell_length_a   10.41729907
_cell_length_b   10.41729907
_cell_length_c   10.41729907
_cell_angle_alpha   96.41518412
_cell_angle_beta   96.41518412
_cell_angle_gamma   140.94444724
_symmetry_Int_Tables_number   1
_chemical_formula_structural   UPClO6
_chemical_formula_sum   'U4 P4 Cl4 O24'
_cell_volume   671.31850421
_cell_formula_units_Z   4
loop_
 _symmetry_equiv_pos_site_id
 _symmetry_equiv_pos_as_xyz
  1  'x, y, z'
loop_
 _atom_site_type_symbol
 _atom_site_label
 _atom_site_symmetry_multiplicity
 _atom_site_fract_x
 _atom_site_fract_y
 _atom_site_fract_z
 _atom_site_occupancy
  U  U0  1  0.36622300  0.17227100  0.55916400  1
  U  U1  1  0.61310800  0.80706000  0.44083600  1
  U  U2  1  0.19294000  0.63377700  0.80604800  1
  U  U3  1  0.82772900  0.38689200  0.19395200  1
  P  P4  1  0.65567000  0.19665900  0.82831000  1
  P  P5  1  0.36834900  0.82736000  0.17169000  1
  P  P6  1  0.17264000  0.34433000  0.54098900  1
  P  P7  1  0.80334100  0.63165100  0.45901100  1
  Cl  Cl8  1  0.24004700  0.14101300  0.82191300  1
  Cl  Cl9  1  0.31910000  0.41813400  0.17808700  1
  Cl  Cl10  1  0.85898700  0.68090000  0.09903400  1
  Cl  Cl11  1  0.58186600  0.75995300  0.90096600  1
  O  O12  1  0.40590100  0.04806300  0.45220800  1
  O  O13  1  0.59585500  0.95369300  0.54779200  1
  O  O14  1  0.04630700  0.59409900  0.64216100  1
  O  O15  1  0.95193700  0.40414500  0.35783900  1
  O  O16  1  0.23687600  0.10246600  0.37329700  1
  O  O17  1  0.72917000  0.86358000  0.62670300  1
  O  O18  1  0.13642000  0.76312400  0.86559000  1
  O  O19  1  0.89753400  0.27083000  0.13441000  1
  O  O20  1  0.04149200  0.84170900  0.54090500  1
  O  O21  1  0.30080400  0.50058700  0.45909500  1
  O  O22  1  0.87427400  0.32271700  0.81978600  1
  O  O23  1  0.50293000  0.05448800  0.18021400  1
  O  O24  1  0.94551200  0.12572600  0.44844300  1
  O  O25  1  0.67728300  0.49707000  0.55155700  1
  O  O26  1  0.15829100  0.69919600  0.19978300  1
  O  O27  1  0.49941300  0.95850800  0.80021700  1
  O  O28  1  0.29296000  0.31911900  0.60544200  1
  O  O29  1  0.71367700  0.68751800  0.39455800  1
  O  O30  1  0.31248200  0.70704000  0.02615900  1
  O  O31  1  0.68088100  0.28632300  0.97384100  1
  O  O32  1  0.56065300  0.22191300  0.72571600  1
  O  O33  1  0.49619700  0.83493700  0.27428400  1
  O  O34  1  0.16506300  0.43934700  0.66126000  1
  O  O35  1  0.77808700  0.50380300  0.33874000  1
