# generated using pymatgen
data_TbSbPd
_symmetry_space_group_name_H-M   'P 1'
_cell_length_a   6.10796884
_cell_length_b   4.51126200
_cell_length_c   5.68269586
_cell_angle_alpha   90.00000000
_cell_angle_beta   103.59934412
_cell_angle_gamma   68.32795981
_symmetry_Int_Tables_number   1
_chemical_formula_structural   TbSbPd
_chemical_formula_sum   'Tb2 Sb2 Pd2'
_cell_volume   140.78137499
_cell_formula_units_Z   2
loop_
 _symmetry_equiv_pos_site_id
 _symmetry_equiv_pos_as_xyz
  1  'x, y, z'
loop_
 _atom_site_type_symbol
 _atom_site_label
 _atom_site_symmetry_multiplicity
 _atom_site_fract_x
 _atom_site_fract_y
 _atom_site_fract_z
 _atom_site_occupancy
  Tb  Tb0  1  0.74846900  0.62576500  0.20312300  1
  Tb  Tb1  1  0.25153100  0.37423500  0.79687700  1
  Sb  Sb2  1  0.83073400  0.08463300  0.70664200  1
  Sb  Sb3  1  0.16926600  0.91536700  0.29335800  1
  Pd  Pd4  1  0.41871600  0.29064200  0.31127900  1
  Pd  Pd5  1  0.58128400  0.70935800  0.68872100  1
