# generated using pymatgen
data_SrSmGa3O7
_symmetry_space_group_name_H-M   'P 1'
_cell_length_a   8.05004996
_cell_length_b   8.05004996
_cell_length_c   5.32908100
_cell_angle_alpha   90.00000000
_cell_angle_beta   90.00000000
_cell_angle_gamma   90.94587384
_symmetry_Int_Tables_number   1
_chemical_formula_structural   SrSmGa3O7
_chemical_formula_sum   'Sr2 Sm2 Ga6 O14'
_cell_volume   345.29500026
_cell_formula_units_Z   2
loop_
 _symmetry_equiv_pos_site_id
 _symmetry_equiv_pos_as_xyz
  1  'x, y, z'
loop_
 _atom_site_type_symbol
 _atom_site_label
 _atom_site_symmetry_multiplicity
 _atom_site_fract_x
 _atom_site_fract_y
 _atom_site_fract_z
 _atom_site_occupancy
  Sr  Sr0  1  0.16176900  0.83823100  0.49060100  1
  Sr  Sr1  1  0.83823100  0.16176900  0.49060100  1
  Sm  Sm2  1  0.66095500  0.66095500  0.51459800  1
  Sm  Sm3  1  0.33904500  0.33904500  0.51459800  1
  Ga  Ga4  1  0.50000000  0.00000000  0.99519400  1
  Ga  Ga5  1  0.00000000  0.50000000  0.99519400  1
  Ga  Ga6  1  0.35898600  0.64101400  0.03440700  1
  Ga  Ga7  1  0.85245300  0.85245300  0.96712700  1
  Ga  Ga8  1  0.64101400  0.35898600  0.03440700  1
  Ga  Ga9  1  0.14754700  0.14754700  0.96712700  1
  O  O10  1  0.41829200  0.83541500  0.20472500  1
  O  O11  1  0.90136700  0.65666500  0.78679400  1
  O  O12  1  0.58170800  0.16458500  0.20472500  1
  O  O13  1  0.09863300  0.34333500  0.78679400  1
  O  O14  1  0.34333500  0.09863300  0.78679400  1
  O  O15  1  0.83541500  0.41829200  0.20472500  1
  O  O16  1  0.65666500  0.90136700  0.78679400  1
  O  O17  1  0.16458500  0.58170800  0.20472500  1
  O  O18  1  0.00000000  0.00000000  0.81873000  1
  O  O19  1  0.50000000  0.50000000  0.21336100  1
  O  O20  1  0.37330600  0.62669400  0.69336400  1
  O  O21  1  0.84581400  0.84581400  0.30562400  1
  O  O22  1  0.62669400  0.37330600  0.69336400  1
  O  O23  1  0.15418600  0.15418600  0.30562400  1
