# generated using pymatgen
data_VNO6F
_symmetry_space_group_name_H-M   'P 1'
_cell_length_a   8.07893700
_cell_length_b   9.46354200
_cell_length_c   11.18090500
_cell_angle_alpha   90.00000000
_cell_angle_beta   90.00000000
_cell_angle_gamma   90.00000000
_symmetry_Int_Tables_number   1
_chemical_formula_structural   VNO6F
_chemical_formula_sum   'V4 N4 O24 F4'
_cell_volume   854.84011259
_cell_formula_units_Z   4
loop_
 _symmetry_equiv_pos_site_id
 _symmetry_equiv_pos_as_xyz
  1  'x, y, z'
loop_
 _atom_site_type_symbol
 _atom_site_label
 _atom_site_symmetry_multiplicity
 _atom_site_fract_x
 _atom_site_fract_y
 _atom_site_fract_z
 _atom_site_occupancy
  V  V0  1  0.50000000  0.50000000  0.25004300  1
  V  V1  1  0.00000000  0.50000000  0.74995700  1
  V  V2  1  0.50000000  0.00000000  0.68033000  1
  V  V3  1  0.00000000  0.00000000  0.31967000  1
  N  N4  1  0.75000000  0.74090600  0.00000000  1
  N  N5  1  0.25000000  0.25909400  0.00000000  1
  N  N6  1  0.25000000  0.77179300  0.50000000  1
  N  N7  1  0.75000000  0.22820700  0.50000000  1
  O  O8  1  0.36540000  0.67824400  0.22517500  1
  O  O9  1  0.63460000  0.32175600  0.22517500  1
  O  O10  1  0.86540000  0.32175600  0.77482500  1
  O  O11  1  0.13460000  0.67824400  0.77482500  1
  O  O12  1  0.51246900  0.71016600  0.27083700  1
  O  O13  1  0.48753100  0.28983400  0.27083700  1
  O  O14  1  0.01246900  0.28983400  0.72916300  1
  O  O15  1  0.98753100  0.71016600  0.72916300  1
  O  O16  1  0.04761700  0.83390800  0.23258300  1
  O  O17  1  0.95238300  0.16609200  0.23258300  1
  O  O18  1  0.54761700  0.16609200  0.76741700  1
  O  O19  1  0.45238300  0.83390800  0.76741700  1
  O  O20  1  0.50000000  0.00000000  0.26722300  1
  O  O21  1  0.00000000  0.00000000  0.73277700  1
  O  O22  1  0.87670400  0.86287900  0.23542600  1
  O  O23  1  0.12329600  0.13712100  0.23542600  1
  O  O24  1  0.37670400  0.13712100  0.76457400  1
  O  O25  1  0.62329600  0.86287900  0.76457400  1
  O  O26  1  0.58185700  0.49663500  0.42161300  1
  O  O27  1  0.41814300  0.50336500  0.42161300  1
  O  O28  1  0.08185700  0.50336500  0.57838700  1
  O  O29  1  0.91814300  0.49663500  0.57838700  1
  O  O30  1  0.00000000  0.50000000  0.18943000  1
  O  O31  1  0.50000000  0.50000000  0.81057000  1
  F  F32  1  0.50000000  0.50000000  0.08923300  1
  F  F33  1  0.00000000  0.50000000  0.91076700  1
  F  F34  1  0.50000000  0.00000000  0.52134200  1
  F  F35  1  0.00000000  0.00000000  0.47865800  1
