# generated using pymatgen
data_ThPbI6
_symmetry_space_group_name_H-M   'P 1'
_cell_length_a   7.78032934
_cell_length_b   7.78032934
_cell_length_c   10.10694800
_cell_angle_alpha   90.00000000
_cell_angle_beta   90.00000000
_cell_angle_gamma   146.60166812
_symmetry_Int_Tables_number   1
_chemical_formula_structural   ThPbI6
_chemical_formula_sum   'Th1 Pb1 I6'
_cell_volume   336.77430222
_cell_formula_units_Z   1
loop_
 _symmetry_equiv_pos_site_id
 _symmetry_equiv_pos_as_xyz
  1  'x, y, z'
loop_
 _atom_site_type_symbol
 _atom_site_label
 _atom_site_symmetry_multiplicity
 _atom_site_fract_x
 _atom_site_fract_y
 _atom_site_fract_z
 _atom_site_occupancy
  Th  Th0  1  0.23807500  0.76192500  0.50000000  1
  Pb  Pb1  1  0.76413100  0.23586900  0.00000000  1
  I  I2  1  0.15075800  0.84924200  0.79534500  1
  I  I3  1  0.84667600  0.15332400  0.67435300  1
  I  I4  1  0.15075800  0.84924200  0.20465500  1
  I  I5  1  0.84667600  0.15332400  0.32564700  1
  I  I6  1  0.41361700  0.58638300  0.00000000  1
  I  I7  1  0.58720800  0.41279200  0.50000000  1
