# generated using pymatgen
data_UNbO5
_symmetry_space_group_name_H-M   'P 1'
_cell_length_a   4.13327700
_cell_length_b   6.50515400
_cell_length_c   7.54647600
_cell_angle_alpha   90.00000000
_cell_angle_beta   90.00000000
_cell_angle_gamma   90.00000000
_symmetry_Int_Tables_number   1
_chemical_formula_structural   UNbO5
_chemical_formula_sum   'U2 Nb2 O10'
_cell_volume   202.90665383
_cell_formula_units_Z   2
loop_
 _symmetry_equiv_pos_site_id
 _symmetry_equiv_pos_as_xyz
  1  'x, y, z'
loop_
 _atom_site_type_symbol
 _atom_site_label
 _atom_site_symmetry_multiplicity
 _atom_site_fract_x
 _atom_site_fract_y
 _atom_site_fract_z
 _atom_site_occupancy
  U  U0  1  0.00000000  0.54261500  0.25000000  1
  U  U1  1  0.00000000  0.45738500  0.75000000  1
  Nb  Nb2  1  0.92468600  0.00000000  0.50000000  1
  Nb  Nb3  1  0.07531400  0.00000000  0.00000000  1
  O  O4  1  0.00000000  0.91229200  0.25000000  1
  O  O5  1  0.00000000  0.08770800  0.75000000  1
  O  O6  1  0.50000000  0.54954200  0.25000000  1
  O  O7  1  0.50000000  0.45045800  0.75000000  1
  O  O8  1  0.99569000  0.69367500  0.54525400  1
  O  O9  1  0.99569000  0.30632500  0.45474600  1
  O  O10  1  0.00431000  0.69367500  0.95474600  1
  O  O11  1  0.00431000  0.30632500  0.04525400  1
  O  O12  1  0.50880900  0.00000000  0.00000000  1
  O  O13  1  0.49119100  0.00000000  0.50000000  1
