# generated using pymatgen
data_Ti2HCSe4Cl16O5
_symmetry_space_group_name_H-M   'P 1'
_cell_length_a   8.88728000
_cell_length_b   13.22376400
_cell_length_c   18.23655120
_cell_angle_alpha   50.64021786
_cell_angle_beta   90.00000000
_cell_angle_gamma   90.00000000
_symmetry_Int_Tables_number   1
_chemical_formula_structural   Ti2HCSe4Cl16O5
_chemical_formula_sum   'Ti4 H2 C2 Se8 Cl32 O10'
_cell_volume   1657.09218606
_cell_formula_units_Z   2
loop_
 _symmetry_equiv_pos_site_id
 _symmetry_equiv_pos_as_xyz
  1  'x, y, z'
loop_
 _atom_site_type_symbol
 _atom_site_label
 _atom_site_symmetry_multiplicity
 _atom_site_fract_x
 _atom_site_fract_y
 _atom_site_fract_z
 _atom_site_occupancy
  Ti  Ti0  1  0.99693200  0.38886900  0.72450600  1
  Ti  Ti1  1  0.00253900  0.61024300  0.27533300  1
  Ti  Ti2  1  0.99746100  0.61024300  0.77533300  1
  Ti  Ti3  1  0.00306800  0.38886900  0.22450600  1
  H  H4  1  0.86477800  0.92307300  0.76709400  1
  H  H5  1  0.13522200  0.92307300  0.26709400  1
  C  C6  1  0.76964600  0.98416100  0.75358900  1
  C  C7  1  0.23035400  0.98416100  0.25358900  1
  Se  Se8  1  0.16742400  0.33097900  0.58867700  1
  Se  Se9  1  0.83221400  0.66877400  0.41157500  1
  Se  Se10  1  0.16778600  0.66877400  0.91157500  1
  Se  Se11  1  0.83257600  0.33097900  0.08867700  1
  Se  Se12  1  0.26568400  0.25060200  0.88824000  1
  Se  Se13  1  0.73407000  0.74948500  0.11161200  1
  Se  Se14  1  0.26593000  0.74948500  0.61161200  1
  Se  Se15  1  0.73431600  0.25060200  0.38824000  1
  Cl  Cl16  1  0.67683400  0.06413100  0.64906200  1
  Cl  Cl17  1  0.32204700  0.95373600  0.34735000  1
  Cl  Cl18  1  0.67795300  0.95373600  0.84735000  1
  Cl  Cl19  1  0.32316600  0.06413100  0.14906200  1
  Cl  Cl20  1  0.48794300  0.32367600  0.88836800  1
  Cl  Cl21  1  0.51215700  0.67568300  0.11224400  1
  Cl  Cl22  1  0.48784300  0.67568300  0.61224400  1
  Cl  Cl23  1  0.51205700  0.32367600  0.38836800  1
  Cl  Cl24  1  0.76996200  0.41189000  0.66006700  1
  Cl  Cl25  1  0.22967500  0.58857500  0.33976000  1
  Cl  Cl26  1  0.77032500  0.58857500  0.83976000  1
  Cl  Cl27  1  0.23003800  0.41189000  0.16006700  1
  Cl  Cl28  1  0.94841400  0.19532400  0.87469800  1
  Cl  Cl29  1  0.05164600  0.80503100  0.12548500  1
  Cl  Cl30  1  0.94835400  0.80503100  0.62548500  1
  Cl  Cl31  1  0.05158600  0.19532400  0.37469800  1
  Cl  Cl32  1  0.17001000  0.15139300  0.60417800  1
  Cl  Cl33  1  0.83021700  0.84827100  0.39641700  1
  Cl  Cl34  1  0.16978300  0.84827100  0.89641700  1
  Cl  Cl35  1  0.82999000  0.15139300  0.10417800  1
  Cl  Cl36  1  0.40734100  0.32846800  0.62121100  1
  Cl  Cl37  1  0.59247100  0.67196000  0.37830700  1
  Cl  Cl38  1  0.40752900  0.67196000  0.87830700  1
  Cl  Cl39  1  0.59265900  0.32846800  0.12121100  1
  Cl  Cl40  1  0.11140200  0.56483700  0.57094200  1
  Cl  Cl41  1  0.88800800  0.43595200  0.42876400  1
  Cl  Cl42  1  0.11199200  0.43595200  0.92876400  1
  Cl  Cl43  1  0.88859800  0.56483700  0.07094200  1
  Cl  Cl44  1  0.34907900  0.08117700  0.90220400  1
  Cl  Cl45  1  0.64942700  0.91869300  0.09789200  1
  Cl  Cl46  1  0.35057300  0.91869300  0.59789200  1
  Cl  Cl47  1  0.65092100  0.08117700  0.40220400  1
  O  O48  1  0.22398100  0.36284800  0.77281500  1
  O  O49  1  0.77641100  0.63759900  0.22709800  1
  O  O50  1  0.22358900  0.63759900  0.72709800  1
  O  O51  1  0.77601900  0.36284800  0.27281500  1
  O  O52  1  0.07572000  0.27161300  0.68923500  1
  O  O53  1  0.92530000  0.72910600  0.31118100  1
  O  O54  1  0.07470000  0.72910600  0.81118100  1
  O  O55  1  0.92428000  0.27161300  0.18923500  1
  O  O56  1  0.96652600  0.49995000  0.74989600  1
  O  O57  1  0.03347400  0.49995000  0.24989600  1
