# generated using pymatgen
data_TlSbPbS3
_symmetry_space_group_name_H-M   'P 1'
_cell_length_a   4.17568242
_cell_length_b   4.09691223
_cell_length_c   12.13595649
_cell_angle_alpha   88.59289850
_cell_angle_beta   106.98457905
_cell_angle_gamma   89.80744945
_symmetry_Int_Tables_number   1
_chemical_formula_structural   TlSbPbS3
_chemical_formula_sum   'Tl1 Sb1 Pb1 S3'
_cell_volume   198.48734660
_cell_formula_units_Z   1
loop_
 _symmetry_equiv_pos_site_id
 _symmetry_equiv_pos_as_xyz
  1  'x, y, z'
loop_
 _atom_site_type_symbol
 _atom_site_label
 _atom_site_symmetry_multiplicity
 _atom_site_fract_x
 _atom_site_fract_y
 _atom_site_fract_z
 _atom_site_occupancy
  Tl  Tl0  1  0.43460200  0.74009700  0.67670800  1
  Sb  Sb1  1  0.68254500  0.25563500  0.38509400  1
  Pb  Pb2  1  0.94009000  0.77845700  0.11766000  1
  S  S3  1  0.86480300  0.24349400  0.59648500  1
  S  S4  1  0.08725100  0.75089600  0.36724300  1
  S  S5  1  0.41000900  0.27242100  0.12690900  1
