# generated using pymatgen
data_U3Ga2Ge3
_symmetry_space_group_name_H-M   'P 1'
_cell_length_a   7.80395409
_cell_length_b   7.80395409
_cell_length_c   7.65592978
_cell_angle_alpha   58.34057183
_cell_angle_beta   58.34057183
_cell_angle_gamma   88.29078847
_symmetry_Int_Tables_number   1
_chemical_formula_structural   U3Ga2Ge3
_chemical_formula_sum   'U6 Ga4 Ge6'
_cell_volume   317.79902972
_cell_formula_units_Z   2
loop_
 _symmetry_equiv_pos_site_id
 _symmetry_equiv_pos_as_xyz
  1  'x, y, z'
loop_
 _atom_site_type_symbol
 _atom_site_label
 _atom_site_symmetry_multiplicity
 _atom_site_fract_x
 _atom_site_fract_y
 _atom_site_fract_z
 _atom_site_occupancy
  U  U0  1  0.44870300  0.94870300  0.39848700  1
  U  U1  1  0.15281000  0.65281000  0.39848700  1
  U  U2  1  0.33382400  0.53629800  0.62987800  1
  U  U3  1  0.03629800  0.83382400  0.62987800  1
  U  U4  1  0.51036600  0.01036600  0.66897700  1
  U  U5  1  0.82065700  0.32065700  0.66897700  1
  Ga  Ga6  1  0.50827500  0.50827500  0.98345000  1
  Ga  Ga7  1  0.00827500  0.00827500  0.98345000  1
  Ga  Ga8  1  0.72264700  0.50172700  0.27562600  1
  Ga  Ga9  1  0.00172700  0.22264700  0.27562600  1
  Ge  Ge10  1  0.63891300  0.83218500  0.02890200  1
  Ge  Ge11  1  0.33218500  0.13891300  0.02890200  1
  Ge  Ge12  1  0.83052000  0.33052000  0.03432900  1
  Ge  Ge13  1  0.13515100  0.63515100  0.03432900  1
  Ge  Ge14  1  0.25982500  0.25982500  0.48035000  1
  Ge  Ge15  1  0.75982500  0.75982500  0.48035000  1
