# generated using pymatgen
data_Tm(CuTe)3
_symmetry_space_group_name_H-M   'P 1'
_cell_length_a   8.19923546
_cell_length_b   8.19923546
_cell_length_c   8.19923455
_cell_angle_alpha   53.96348403
_cell_angle_beta   53.96348403
_cell_angle_gamma   53.96348705
_symmetry_Int_Tables_number   1
_chemical_formula_structural   Tm(CuTe)3
_chemical_formula_sum   'Tm2 Cu6 Te6'
_cell_volume   334.80318946
_cell_formula_units_Z   2
loop_
 _symmetry_equiv_pos_site_id
 _symmetry_equiv_pos_as_xyz
  1  'x, y, z'
loop_
 _atom_site_type_symbol
 _atom_site_label
 _atom_site_symmetry_multiplicity
 _atom_site_fract_x
 _atom_site_fract_y
 _atom_site_fract_z
 _atom_site_occupancy
  Tm  Tm0  1  0.66603600  0.66603600  0.66603600  1
  Tm  Tm1  1  0.33396400  0.33396400  0.33396400  1
  Cu  Cu2  1  0.87151200  0.52884500  0.22439200  1
  Cu  Cu3  1  0.52884500  0.22439200  0.87151200  1
  Cu  Cu4  1  0.22439200  0.87151200  0.52884500  1
  Cu  Cu5  1  0.77560800  0.12848800  0.47115500  1
  Cu  Cu6  1  0.47115500  0.77560800  0.12848800  1
  Cu  Cu7  1  0.12848800  0.47115500  0.77560800  1
  Te  Te8  1  0.07943200  0.75925500  0.40546900  1
  Te  Te9  1  0.40546900  0.07943200  0.75925500  1
  Te  Te10  1  0.75925500  0.40546900  0.07943200  1
  Te  Te11  1  0.24074500  0.59453100  0.92056800  1
  Te  Te12  1  0.59453100  0.92056800  0.24074500  1
  Te  Te13  1  0.92056800  0.24074500  0.59453100  1
