# generated using pymatgen
data_TeRuSe
_symmetry_space_group_name_H-M   'P 1'
_cell_length_a   6.24606400
_cell_length_b   6.24606400
_cell_length_c   6.24606400
_cell_angle_alpha   90.00000000
_cell_angle_beta   90.00000000
_cell_angle_gamma   90.00000000
_symmetry_Int_Tables_number   1
_chemical_formula_structural   TeRuSe
_chemical_formula_sum   'Te4 Ru4 Se4'
_cell_volume   243.67966542
_cell_formula_units_Z   4
loop_
 _symmetry_equiv_pos_site_id
 _symmetry_equiv_pos_as_xyz
  1  'x, y, z'
loop_
 _atom_site_type_symbol
 _atom_site_label
 _atom_site_symmetry_multiplicity
 _atom_site_fract_x
 _atom_site_fract_y
 _atom_site_fract_z
 _atom_site_occupancy
  Te  Te0  1  0.12483700  0.62483700  0.87516300  1
  Te  Te1  1  0.62483700  0.87516300  0.12483700  1
  Te  Te2  1  0.87516300  0.12483700  0.62483700  1
  Te  Te3  1  0.37516300  0.37516300  0.37516300  1
  Ru  Ru4  1  0.49308400  0.99308400  0.50691600  1
  Ru  Ru5  1  0.99308400  0.50691600  0.49308400  1
  Ru  Ru6  1  0.50691600  0.49308400  0.99308400  1
  Ru  Ru7  1  0.00691600  0.00691600  0.00691600  1
  Se  Se8  1  0.87708700  0.37708700  0.12291300  1
  Se  Se9  1  0.37708700  0.12291300  0.87708700  1
  Se  Se10  1  0.12291300  0.87708700  0.37708700  1
  Se  Se11  1  0.62291300  0.62291300  0.62291300  1
