# generated using pymatgen
data_Tl(V3S4)4
_symmetry_space_group_name_H-M   'P 1'
_cell_length_a   3.26756400
_cell_length_b   9.11316703
_cell_length_c   15.81287309
_cell_angle_alpha   90.09945327
_cell_angle_beta   90.01058022
_cell_angle_gamma   90.00461476
_symmetry_Int_Tables_number   1
_chemical_formula_structural   Tl(V3S4)4
_chemical_formula_sum   'Tl1 V12 S16'
_cell_volume   470.87274704
_cell_formula_units_Z   1
loop_
 _symmetry_equiv_pos_site_id
 _symmetry_equiv_pos_as_xyz
  1  'x, y, z'
loop_
 _atom_site_type_symbol
 _atom_site_label
 _atom_site_symmetry_multiplicity
 _atom_site_fract_x
 _atom_site_fract_y
 _atom_site_fract_z
 _atom_site_occupancy
  Tl  Tl0  1  0.50000000  0.00000000  0.00000000  1
  V  V1  1  0.74998800  0.07076500  0.55988200  1
  V  V2  1  0.74956400  0.56870900  0.06015500  1
  V  V3  1  0.74945900  0.12533100  0.75383200  1
  V  V4  1  0.75005600  0.62380600  0.25579900  1
  V  V5  1  0.75004500  0.80470700  0.68406000  1
  V  V6  1  0.74969100  0.30641200  0.18566900  1
  V  V7  1  0.25043600  0.43129100  0.93984500  1
  V  V8  1  0.25001200  0.92923500  0.44011800  1
  V  V9  1  0.24994400  0.37619400  0.74420100  1
  V  V10  1  0.25054100  0.87466900  0.24616800  1
  V  V11  1  0.25030900  0.69358800  0.81433100  1
  V  V12  1  0.24995500  0.19529300  0.31594000  1
  S  S13  1  0.74997800  0.49975900  0.83304800  1
  S  S14  1  0.74995200  0.99960100  0.33353800  1
  S  S15  1  0.25004800  0.00039900  0.66646200  1
  S  S16  1  0.25002200  0.50024100  0.16695200  1
  S  S17  1  0.75011000  0.30104000  0.64811000  1
  S  S18  1  0.75308400  0.80074600  0.14889200  1
  S  S19  1  0.75302000  0.87551800  0.82587900  1
  S  S20  1  0.75022600  0.37691200  0.32624100  1
  S  S21  1  0.75029200  0.82278900  0.52544900  1
  S  S22  1  0.75309200  0.32235100  0.02468800  1
  S  S23  1  0.24691600  0.19925400  0.85110800  1
  S  S24  1  0.24989000  0.69896000  0.35189000  1
  S  S25  1  0.24977400  0.62308800  0.67375900  1
  S  S26  1  0.24698000  0.12448200  0.17412100  1
  S  S27  1  0.24690800  0.67764900  0.97531200  1
  S  S28  1  0.24970800  0.17721100  0.47455100  1
