# generated using pymatgen
data_Ti4In2CoNi
_symmetry_space_group_name_H-M   'P 1'
_cell_length_a   7.86465382
_cell_length_b   7.86465382
_cell_length_c   7.86465351
_cell_angle_alpha   33.57597198
_cell_angle_beta   33.57597198
_cell_angle_gamma   33.57596790
_symmetry_Int_Tables_number   1
_chemical_formula_structural   Ti4In2CoNi
_chemical_formula_sum   'Ti4 In2 Co1 Ni1'
_cell_volume   132.52920424
_cell_formula_units_Z   1
loop_
 _symmetry_equiv_pos_site_id
 _symmetry_equiv_pos_as_xyz
  1  'x, y, z'
loop_
 _atom_site_type_symbol
 _atom_site_label
 _atom_site_symmetry_multiplicity
 _atom_site_fract_x
 _atom_site_fract_y
 _atom_site_fract_z
 _atom_site_occupancy
  Ti  Ti0  1  0.12486500  0.12486500  0.12486500  1
  Ti  Ti1  1  0.62503000  0.62503000  0.62503000  1
  Ti  Ti2  1  0.37497000  0.37497000  0.37497000  1
  Ti  Ti3  1  0.87513500  0.87513500  0.87513500  1
  In  In4  1  0.74985700  0.74985700  0.74985700  1
  In  In5  1  0.25014300  0.25014300  0.25014300  1
  Co  Co6  1  0.00000000  0.00000000  0.00000000  1
  Ni  Ni7  1  0.50000000  0.50000000  0.50000000  1
