# generated using pymatgen
data_Tc3Pd
_symmetry_space_group_name_H-M   'P 1'
_cell_length_a   9.20999188
_cell_length_b   9.20999188
_cell_length_c   9.20999148
_cell_angle_alpha   17.12397135
_cell_angle_beta   17.12397135
_cell_angle_gamma   17.12397009
_symmetry_Int_Tables_number   1
_chemical_formula_structural   Tc3Pd
_chemical_formula_sum   'Tc3 Pd1'
_cell_volume   59.09119284
_cell_formula_units_Z   1
loop_
 _symmetry_equiv_pos_site_id
 _symmetry_equiv_pos_as_xyz
  1  'x, y, z'
loop_
 _atom_site_type_symbol
 _atom_site_label
 _atom_site_symmetry_multiplicity
 _atom_site_fract_x
 _atom_site_fract_y
 _atom_site_fract_z
 _atom_site_occupancy
  Tc  Tc0  1  0.24790400  0.24790400  0.24790400  1
  Tc  Tc1  1  0.50000000  0.50000000  0.50000000  1
  Tc  Tc2  1  0.75209600  0.75209600  0.75209600  1
  Pd  Pd3  1  0.00000000  0.00000000  0.00000000  1
