# generated using pymatgen
data_Nd3Br
_symmetry_space_group_name_H-M   'P 1'
_cell_length_a   7.16975168
_cell_length_b   7.16975168
_cell_length_c   5.60145200
_cell_angle_alpha   90.00000000
_cell_angle_beta   90.00000000
_cell_angle_gamma   119.99999704
_symmetry_Int_Tables_number   1
_chemical_formula_structural   Nd3Br
_chemical_formula_sum   'Nd6 Br2'
_cell_volume   249.36729372
_cell_formula_units_Z   2
loop_
 _symmetry_equiv_pos_site_id
 _symmetry_equiv_pos_as_xyz
  1  'x, y, z'
loop_
 _atom_site_type_symbol
 _atom_site_label
 _atom_site_symmetry_multiplicity
 _atom_site_fract_x
 _atom_site_fract_y
 _atom_site_fract_z
 _atom_site_occupancy
  Nd  Nd0  1  0.16945300  0.33890500  0.25000000  1
  Nd  Nd1  1  0.66109500  0.83054700  0.25000000  1
  Nd  Nd2  1  0.16945300  0.83054700  0.25000000  1
  Nd  Nd3  1  0.83054700  0.66109500  0.75000000  1
  Nd  Nd4  1  0.33890500  0.16945300  0.75000000  1
  Nd  Nd5  1  0.83054700  0.16945300  0.75000000  1
  Br  Br6  1  0.33333300  0.66666700  0.75000000  1
  Br  Br7  1  0.66666700  0.33333300  0.25000000  1
