# generated using pymatgen
data_SrNdNiO4
_symmetry_space_group_name_H-M   'P 1'
_cell_length_a   6.79048696
_cell_length_b   6.79048696
_cell_length_c   5.40911500
_cell_angle_alpha   90.00000000
_cell_angle_beta   90.00000000
_cell_angle_gamma   133.18976843
_symmetry_Int_Tables_number   1
_chemical_formula_structural   SrNdNiO4
_chemical_formula_sum   'Sr2 Nd2 Ni2 O8'
_cell_volume   181.84849320
_cell_formula_units_Z   2
loop_
 _symmetry_equiv_pos_site_id
 _symmetry_equiv_pos_as_xyz
  1  'x, y, z'
loop_
 _atom_site_type_symbol
 _atom_site_label
 _atom_site_symmetry_multiplicity
 _atom_site_fract_x
 _atom_site_fract_y
 _atom_site_fract_z
 _atom_site_occupancy
  Sr  Sr0  1  0.89409900  0.10590100  0.25000000  1
  Sr  Sr1  1  0.10590100  0.89409900  0.75000000  1
  Nd  Nd2  1  0.38542500  0.61457500  0.75000000  1
  Nd  Nd3  1  0.61457500  0.38542500  0.25000000  1
  Ni  Ni4  1  0.24969400  0.75030600  0.25000000  1
  Ni  Ni5  1  0.75030600  0.24969400  0.75000000  1
  O  O6  1  0.57461100  0.42538900  0.75000000  1
  O  O7  1  0.08867100  0.91132900  0.25000000  1
  O  O8  1  0.42538900  0.57461100  0.25000000  1
  O  O9  1  0.91132900  0.08867100  0.75000000  1
  O  O10  1  0.00000000  0.50000000  0.00000000  1
  O  O11  1  0.50000000  0.00000000  0.50000000  1
  O  O12  1  0.00000000  0.50000000  0.50000000  1
  O  O13  1  0.50000000  0.00000000  0.00000000  1
