# generated using pymatgen
data_SrCa3Mg4(SiO3)8
_symmetry_space_group_name_H-M   'P 1'
_cell_length_a   9.09073800
_cell_length_b   5.32391000
_cell_length_c   9.87785418
_cell_angle_alpha   74.57128517
_cell_angle_beta   90.00000000
_cell_angle_gamma   90.00000000
_symmetry_Int_Tables_number   1
_chemical_formula_structural   SrCa3Mg4(SiO3)8
_chemical_formula_sum   'Sr1 Ca3 Mg4 Si8 O24'
_cell_volume   460.84243135
_cell_formula_units_Z   1
loop_
 _symmetry_equiv_pos_site_id
 _symmetry_equiv_pos_as_xyz
  1  'x, y, z'
loop_
 _atom_site_type_symbol
 _atom_site_label
 _atom_site_symmetry_multiplicity
 _atom_site_fract_x
 _atom_site_fract_y
 _atom_site_fract_z
 _atom_site_occupancy
  Sr  Sr0  1  0.80614600  0.50000000  0.50000000  1
  Ca  Ca1  1  0.29965700  0.00000000  0.00000000  1
  Ca  Ca2  1  0.20116800  0.00000000  0.50000000  1
  Ca  Ca3  1  0.70015900  0.50000000  0.00000000  1
  Mg  Mg4  1  0.40646800  0.50000000  0.50000000  1
  Mg  Mg5  1  0.90689200  0.00000000  0.00000000  1
  Mg  Mg6  1  0.59004900  0.00000000  0.50000000  1
  Mg  Mg7  1  0.09339000  0.50000000  0.00000000  1
  Si  Si8  1  0.09468000  0.69198900  0.28469600  1
  Si  Si9  1  0.59160200  0.19065500  0.78679100  1
  Si  Si10  1  0.09468000  0.30801100  0.71530400  1
  Si  Si11  1  0.59160200  0.80934500  0.21320900  1
  Si  Si12  1  0.90788500  0.81006800  0.71670200  1
  Si  Si13  1  0.40690300  0.30792300  0.21347500  1
  Si  Si14  1  0.90788500  0.18993200  0.28329800  1
  Si  Si15  1  0.40690300  0.69207700  0.78652500  1
  O  O16  1  0.24791800  0.70565100  0.36303400  1
  O  O17  1  0.74713000  0.20697400  0.86157800  1
  O  O18  1  0.24791800  0.29434900  0.63696600  1
  O  O19  1  0.74713000  0.79302600  0.13842200  1
  O  O20  1  0.75126800  0.80625000  0.64238900  1
  O  O21  1  0.25239900  0.29360700  0.13724600  1
  O  O22  1  0.75126800  0.19375000  0.35761100  1
  O  O23  1  0.25239900  0.70639300  0.86275400  1
  O  O24  1  0.08796200  0.77700700  0.11479300  1
  O  O25  1  0.58074900  0.27253600  0.61679900  1
  O  O26  1  0.08796200  0.22299300  0.88520700  1
  O  O27  1  0.58074900  0.72746400  0.38320100  1
  O  O28  1  0.91307600  0.72314900  0.88657800  1
  O  O29  1  0.41202900  0.22405500  0.38408900  1
  O  O30  1  0.91307600  0.27685100  0.11342200  1
  O  O31  1  0.41202900  0.77594500  0.61591100  1
  O  O32  1  0.01934400  0.39230600  0.34624900  1
  O  O33  1  0.51689300  0.89290900  0.85094500  1
  O  O34  1  0.01934400  0.60769400  0.65375100  1
  O  O35  1  0.51689300  0.10709100  0.14905500  1
  O  O36  1  0.98561000  0.10501300  0.65188600  1
  O  O37  1  0.48259100  0.60539300  0.14999100  1
  O  O38  1  0.98561000  0.89498700  0.34811400  1
  O  O39  1  0.48259100  0.39460700  0.85000900  1
