# generated using pymatgen
data_SrNd2(CuO3)2
_symmetry_space_group_name_H-M   'P 1'
_cell_length_a   10.19058665
_cell_length_b   10.19058665
_cell_length_c   10.19058665
_cell_angle_alpha   158.26129066
_cell_angle_beta   158.26129066
_cell_angle_gamma   30.93343156
_symmetry_Int_Tables_number   1
_chemical_formula_structural   SrNd2(CuO3)2
_chemical_formula_sum   'Sr1 Nd2 Cu2 O6'
_cell_volume   145.07216540
_cell_formula_units_Z   1
loop_
 _symmetry_equiv_pos_site_id
 _symmetry_equiv_pos_as_xyz
  1  'x, y, z'
loop_
 _atom_site_type_symbol
 _atom_site_label
 _atom_site_symmetry_multiplicity
 _atom_site_fract_x
 _atom_site_fract_y
 _atom_site_fract_z
 _atom_site_occupancy
  Sr  Sr0  1  0.00000000  0.00000000  0.00000000  1
  Nd  Nd1  1  0.82289200  0.82289200  0.00000000  1
  Nd  Nd2  1  0.17710800  0.17710800  0.00000000  1
  Cu  Cu3  1  0.41070400  0.41070400  0.00000000  1
  Cu  Cu4  1  0.58929600  0.58929600  0.00000000  1
  O  O5  1  0.29351700  0.29351700  0.00000000  1
  O  O6  1  0.70648300  0.70648300  0.00000000  1
  O  O7  1  0.90912100  0.40912100  0.50000000  1
  O  O8  1  0.40912100  0.90912100  0.50000000  1
  O  O9  1  0.09087900  0.59087900  0.50000000  1
  O  O10  1  0.59087900  0.09087900  0.50000000  1
