# generated using pymatgen
data_Sr2V11NiO22
_symmetry_space_group_name_H-M   'P 1'
_cell_length_a   5.91043333
_cell_length_b   5.91043333
_cell_length_c   13.22695500
_cell_angle_alpha   90.00000000
_cell_angle_beta   90.00000000
_cell_angle_gamma   119.39593290
_symmetry_Int_Tables_number   1
_chemical_formula_structural   Sr2V11NiO22
_chemical_formula_sum   'Sr2 V11 Ni1 O22'
_cell_volume   402.56929090
_cell_formula_units_Z   1
loop_
 _symmetry_equiv_pos_site_id
 _symmetry_equiv_pos_as_xyz
  1  'x, y, z'
loop_
 _atom_site_type_symbol
 _atom_site_label
 _atom_site_symmetry_multiplicity
 _atom_site_fract_x
 _atom_site_fract_y
 _atom_site_fract_z
 _atom_site_occupancy
  Sr  Sr0  1  0.33444200  0.66555800  0.00000000  1
  Sr  Sr1  1  0.66452000  0.33548000  0.50000000  1
  V  V2  1  0.00013600  0.50165600  0.24913700  1
  V  V3  1  0.49740300  0.50259700  0.25143500  1
  V  V4  1  0.49834400  0.99986400  0.24913700  1
  V  V5  1  0.00013600  0.50165600  0.75086300  1
  V  V6  1  0.49740300  0.50259700  0.74856500  1
  V  V7  1  0.49834400  0.99986400  0.75086300  1
  V  V8  1  0.00317900  0.99682100  0.10692600  1
  V  V9  1  0.99493200  0.00506800  0.39900100  1
  V  V10  1  0.99493200  0.00506800  0.60099900  1
  V  V11  1  0.00317900  0.99682100  0.89307400  1
  V  V12  1  0.66885800  0.33114200  0.00000000  1
  Ni  Ni13  1  0.33392500  0.66607500  0.50000000  1
  O  O14  1  0.33939700  0.66060300  0.66518400  1
  O  O15  1  0.66207900  0.33792100  0.83947800  1
  O  O16  1  0.66207900  0.33792100  0.16052200  1
  O  O17  1  0.33939700  0.66060300  0.33481600  1
  O  O18  1  0.64754600  0.81860500  0.16873800  1
  O  O19  1  0.17544900  0.82455100  0.16684600  1
  O  O20  1  0.18139500  0.35245400  0.16873800  1
  O  O21  1  0.34717800  0.17812900  0.33164700  1
  O  O22  1  0.83316800  0.16683200  0.33343200  1
  O  O23  1  0.82187100  0.65282200  0.33164700  1
  O  O24  1  0.34717800  0.17812900  0.66835300  1
  O  O25  1  0.83316800  0.16683200  0.66656800  1
  O  O26  1  0.82187100  0.65282200  0.66835300  1
  O  O27  1  0.64754600  0.81860500  0.83126200  1
  O  O28  1  0.17544900  0.82455100  0.83315400  1
  O  O29  1  0.18139500  0.35245400  0.83126200  1
  O  O30  1  0.71142000  0.85340600  0.50000000  1
  O  O31  1  0.14099600  0.85900400  0.50000000  1
  O  O32  1  0.14659400  0.28858000  0.50000000  1
  O  O33  1  0.30827600  0.15931600  0.00000000  1
  O  O34  1  0.84612800  0.15387200  0.00000000  1
  O  O35  1  0.84068400  0.69172400  0.00000000  1
