# generated using pymatgen
data_Sr5ZrTi4O15
_symmetry_space_group_name_H-M   'P 1'
_cell_length_a   12.00292396
_cell_length_b   12.00292396
_cell_length_c   12.00292369
_cell_angle_alpha   27.20523158
_cell_angle_beta   27.20523158
_cell_angle_gamma   27.20523631
_symmetry_Int_Tables_number   1
_chemical_formula_structural   Sr5ZrTi4O15
_chemical_formula_sum   'Sr5 Zr1 Ti4 O15'
_cell_volume   318.88978521
_cell_formula_units_Z   1
loop_
 _symmetry_equiv_pos_site_id
 _symmetry_equiv_pos_as_xyz
  1  'x, y, z'
loop_
 _atom_site_type_symbol
 _atom_site_label
 _atom_site_symmetry_multiplicity
 _atom_site_fract_x
 _atom_site_fract_y
 _atom_site_fract_z
 _atom_site_occupancy
  Sr  Sr0  1  0.89765300  0.89765300  0.89765300  1
  Sr  Sr1  1  0.10234700  0.10234700  0.10234700  1
  Sr  Sr2  1  0.50000000  0.50000000  0.50000000  1
  Sr  Sr3  1  0.29770300  0.29770300  0.29770300  1
  Sr  Sr4  1  0.70229700  0.70229700  0.70229700  1
  Zr  Zr5  1  0.00000000  0.00000000  0.00000000  1
  Ti  Ti6  1  0.40198500  0.40198500  0.40198500  1
  Ti  Ti7  1  0.80049100  0.80049100  0.80049100  1
  Ti  Ti8  1  0.19950900  0.19950900  0.19950900  1
  Ti  Ti9  1  0.59801500  0.59801500  0.59801500  1
  O  O10  1  0.39798700  0.39798700  0.89987900  1
  O  O11  1  0.60201300  0.60201300  0.10012100  1
  O  O12  1  0.00000000  0.00000000  0.50000000  1
  O  O13  1  0.79240800  0.79240800  0.30818800  1
  O  O14  1  0.20759200  0.20759200  0.69181200  1
  O  O15  1  0.89987900  0.39798700  0.39798700  1
  O  O16  1  0.10012100  0.60201300  0.60201300  1
  O  O17  1  0.50000000  0.00000000  0.00000000  1
  O  O18  1  0.30818800  0.79240800  0.79240800  1
  O  O19  1  0.69181200  0.20759200  0.20759200  1
  O  O20  1  0.39798700  0.89987900  0.39798700  1
  O  O21  1  0.60201300  0.10012100  0.60201300  1
  O  O22  1  0.00000000  0.50000000  0.00000000  1
  O  O23  1  0.79240800  0.30818800  0.79240800  1
  O  O24  1  0.20759200  0.69181200  0.20759200  1
