# generated using pymatgen
data_Ta4InBi3O16
_symmetry_space_group_name_H-M   'P 1'
_cell_length_a   5.51665753
_cell_length_b   7.81554574
_cell_length_c   7.74474477
_cell_angle_alpha   101.61818041
_cell_angle_beta   89.32393713
_cell_angle_gamma   87.41045335
_symmetry_Int_Tables_number   1
_chemical_formula_structural   Ta4InBi3O16
_chemical_formula_sum   'Ta4 In1 Bi3 O16'
_cell_volume   326.66992473
_cell_formula_units_Z   1
loop_
 _symmetry_equiv_pos_site_id
 _symmetry_equiv_pos_as_xyz
  1  'x, y, z'
loop_
 _atom_site_type_symbol
 _atom_site_label
 _atom_site_symmetry_multiplicity
 _atom_site_fract_x
 _atom_site_fract_y
 _atom_site_fract_z
 _atom_site_occupancy
  Ta  Ta0  1  0.75279300  0.33088400  0.19082000  1
  Ta  Ta1  1  0.24313700  0.67301800  0.81490600  1
  Ta  Ta2  1  0.22676200  0.65916700  0.31007600  1
  Ta  Ta3  1  0.77655000  0.34424900  0.69030500  1
  In  In4  1  0.70908600  0.84583500  0.12324800  1
  Bi  Bi5  1  0.28897200  0.17173800  0.88842100  1
  Bi  Bi6  1  0.23634100  0.11821800  0.37536400  1
  Bi  Bi7  1  0.75492500  0.88237000  0.61811900  1
  O  O8  1  0.08667300  0.44462400  0.77967500  1
  O  O9  1  0.92973600  0.55177300  0.20881300  1
  O  O10  1  0.54183200  0.15444000  0.63202000  1
  O  O11  1  0.47635900  0.84439800  0.36146500  1
  O  O12  1  0.68762400  0.33625300  0.94796100  1
  O  O13  1  0.35629900  0.67721900  0.05371400  1
  O  O14  1  0.55384200  0.54025500  0.70519400  1
  O  O15  1  0.43596500  0.45327700  0.29478700  1
  O  O16  1  0.55119100  0.10946100  0.16591300  1
  O  O17  1  0.42273900  0.89251000  0.81905500  1
  O  O18  1  0.00099200  0.10741900  0.68548100  1
  O  O19  1  0.99593800  0.88694100  0.31640100  1
  O  O20  1  0.03309500  0.16763100  0.12802800  1
  O  O21  1  0.92975300  0.79877000  0.88997400  1
  O  O22  1  0.86143100  0.32268800  0.44248500  1
  O  O23  1  0.14796500  0.68686500  0.55777300  1
