# generated using pymatgen
data_SrCaSi4
_symmetry_space_group_name_H-M   'P 1'
_cell_length_a   7.52218493
_cell_length_b   7.52218493
_cell_length_c   7.52218493
_cell_angle_alpha   146.24290031
_cell_angle_beta   146.24290031
_cell_angle_gamma   48.48611521
_symmetry_Int_Tables_number   1
_chemical_formula_structural   SrCaSi4
_chemical_formula_sum   'Sr1 Ca1 Si4'
_cell_volume   130.86479428
_cell_formula_units_Z   1
loop_
 _symmetry_equiv_pos_site_id
 _symmetry_equiv_pos_as_xyz
  1  'x, y, z'
loop_
 _atom_site_type_symbol
 _atom_site_label
 _atom_site_symmetry_multiplicity
 _atom_site_fract_x
 _atom_site_fract_y
 _atom_site_fract_z
 _atom_site_occupancy
  Sr  Sr0  1  0.00000000  0.00000000  0.00000000  1
  Ca  Ca1  1  0.25000000  0.75000000  0.50000000  1
  Si  Si2  1  0.66666400  0.16666400  0.50000000  1
  Si  Si3  1  0.58545600  0.58545600  0.00000000  1
  Si  Si4  1  0.83333600  0.33333600  0.50000000  1
  Si  Si5  1  0.41454400  0.41454400  0.00000000  1
