# generated using pymatgen
data_SrLa3MnO12
_symmetry_space_group_name_H-M   'P 1'
_cell_length_a   9.30508716
_cell_length_b   9.30508716
_cell_length_c   9.30508739
_cell_angle_alpha   33.53992881
_cell_angle_beta   33.53992881
_cell_angle_gamma   33.53992918
_symmetry_Int_Tables_number   1
_chemical_formula_structural   SrLa3MnO12
_chemical_formula_sum   'Sr1 La3 Mn1 O12'
_cell_volume   219.07090233
_cell_formula_units_Z   1
loop_
 _symmetry_equiv_pos_site_id
 _symmetry_equiv_pos_as_xyz
  1  'x, y, z'
loop_
 _atom_site_type_symbol
 _atom_site_label
 _atom_site_symmetry_multiplicity
 _atom_site_fract_x
 _atom_site_fract_y
 _atom_site_fract_z
 _atom_site_occupancy
  Sr  Sr0  1  0.62826300  0.62826300  0.62826300  1
  La  La1  1  0.12379700  0.12379700  0.12379700  1
  La  La2  1  0.37756600  0.37756600  0.37756600  1
  La  La3  1  0.87240000  0.87240000  0.87240000  1
  Mn  Mn4  1  0.25346000  0.25346000  0.25346000  1
  O  O5  1  0.13073700  0.62243300  0.12027500  1
  O  O6  1  0.64089600  0.11339300  0.61160700  1
  O  O7  1  0.12027500  0.13073700  0.62243300  1
  O  O8  1  0.61160700  0.64089600  0.11339300  1
  O  O9  1  0.62243300  0.12027500  0.13073700  1
  O  O10  1  0.11339300  0.61160700  0.64089600  1
  O  O11  1  0.39375600  0.33761200  0.88757200  1
  O  O12  1  0.88751700  0.86618300  0.38253500  1
  O  O13  1  0.88757200  0.39375600  0.33761200  1
  O  O14  1  0.38253500  0.88751700  0.86618300  1
  O  O15  1  0.33761200  0.88757200  0.39375600  1
  O  O16  1  0.86618300  0.38253500  0.88751700  1
