# generated using pymatgen
data_Sr3Ta4Ti4O21
_symmetry_space_group_name_H-M   'P 1'
_cell_length_a   9.09450435
_cell_length_b   9.09450435
_cell_length_c   11.58370767
_cell_angle_alpha   89.96055401
_cell_angle_beta   89.96055401
_cell_angle_gamma   60.15758566
_symmetry_Int_Tables_number   1
_chemical_formula_structural   Sr3Ta4Ti4O21
_chemical_formula_sum   'Sr6 Ta8 Ti8 O42'
_cell_volume   831.04319506
_cell_formula_units_Z   2
loop_
 _symmetry_equiv_pos_site_id
 _symmetry_equiv_pos_as_xyz
  1  'x, y, z'
loop_
 _atom_site_type_symbol
 _atom_site_label
 _atom_site_symmetry_multiplicity
 _atom_site_fract_x
 _atom_site_fract_y
 _atom_site_fract_z
 _atom_site_occupancy
  Sr  Sr0  1  0.40438700  0.99643300  0.25050700  1
  Sr  Sr1  1  0.00356700  0.59561300  0.24949300  1
  Sr  Sr2  1  0.59179000  0.40821000  0.25000000  1
  Sr  Sr3  1  0.59561300  0.00356700  0.74949300  1
  Sr  Sr4  1  0.99643300  0.40438700  0.75050700  1
  Sr  Sr5  1  0.40821000  0.59179000  0.75000000  1
  Ta  Ta6  1  0.33130900  0.33706600  0.50009900  1
  Ta  Ta7  1  0.66869100  0.66293400  0.49990100  1
  Ta  Ta8  1  0.66293400  0.66869100  0.99990100  1
  Ta  Ta9  1  0.33706600  0.33130900  0.00009900  1
  Ta  Ta10  1  0.75640100  0.00172000  0.40723900  1
  Ta  Ta11  1  0.24359900  0.99828000  0.59276100  1
  Ta  Ta12  1  0.00172000  0.75640100  0.90723900  1
  Ta  Ta13  1  0.99828000  0.24359900  0.09276100  1
  Ti  Ti14  1  0.99934500  0.25287400  0.40689900  1
  Ti  Ti15  1  0.25238500  0.74848900  0.40345900  1
  Ti  Ti16  1  0.00065500  0.74712600  0.59310100  1
  Ti  Ti17  1  0.74761500  0.25151100  0.59654100  1
  Ti  Ti18  1  0.25287400  0.99934500  0.90689900  1
  Ti  Ti19  1  0.74848900  0.25238500  0.90345900  1
  Ti  Ti20  1  0.74712600  0.00065500  0.09310100  1
  Ti  Ti21  1  0.25151100  0.74761500  0.09654100  1
  O  O22  1  0.31794500  0.51449900  0.39413600  1
  O  O23  1  0.51201900  0.16629300  0.39434500  1
  O  O24  1  0.16473900  0.32005900  0.39680900  1
  O  O25  1  0.83283700  0.48552300  0.39448400  1
  O  O26  1  0.67843500  0.83440000  0.39455600  1
  O  O27  1  0.48561600  0.68010800  0.39605900  1
  O  O28  1  0.68205500  0.48550100  0.60586400  1
  O  O29  1  0.48798100  0.83370700  0.60565500  1
  O  O30  1  0.83526100  0.67994100  0.60319100  1
  O  O31  1  0.16716300  0.51447700  0.60551600  1
  O  O32  1  0.32156500  0.16560000  0.60544400  1
  O  O33  1  0.51438400  0.31989200  0.60394100  1
  O  O34  1  0.68010800  0.48561600  0.89605900  1
  O  O35  1  0.48552300  0.83283700  0.89448400  1
  O  O36  1  0.83440000  0.67843500  0.89455600  1
  O  O37  1  0.16629300  0.51201900  0.89434500  1
  O  O38  1  0.32005900  0.16473900  0.89680900  1
  O  O39  1  0.51449900  0.31794500  0.89413600  1
  O  O40  1  0.31989200  0.51438400  0.10394100  1
  O  O41  1  0.51447700  0.16716300  0.10551600  1
  O  O42  1  0.16560000  0.32156500  0.10544400  1
  O  O43  1  0.83370700  0.48798100  0.10565500  1
  O  O44  1  0.67994100  0.83526100  0.10319100  1
  O  O45  1  0.48550100  0.68205500  0.10586400  1
  O  O46  1  0.80443800  0.00133900  0.24660500  1
  O  O47  1  0.99866100  0.19556200  0.25339500  1
  O  O48  1  0.20112400  0.79887600  0.25000000  1
  O  O49  1  0.19556200  0.99866100  0.75339500  1
  O  O50  1  0.00133900  0.80443800  0.74660500  1
  O  O51  1  0.79887600  0.20112400  0.75000000  1
  O  O52  1  0.21350300  0.99971100  0.42249600  1
  O  O53  1  0.99671100  0.79104100  0.42531000  1
  O  O54  1  0.78667300  0.21057100  0.42629000  1
  O  O55  1  0.78649700  0.00028900  0.57750400  1
  O  O56  1  0.00328900  0.20895900  0.57469000  1
  O  O57  1  0.21332700  0.78942900  0.57371000  1
  O  O58  1  0.79104100  0.99671100  0.92531000  1
  O  O59  1  0.99971100  0.21350300  0.92249600  1
  O  O60  1  0.21057100  0.78667300  0.92629000  1
  O  O61  1  0.20895900  0.00328900  0.07469000  1
  O  O62  1  0.00028900  0.78649700  0.07750400  1
  O  O63  1  0.78942900  0.21332700  0.07371000  1
