# generated using pymatgen
data_Sr5ZnCd4
_symmetry_space_group_name_H-M   'P 1'
_cell_length_a   4.05579300
_cell_length_b   4.05579300
_cell_length_c   20.04646400
_cell_angle_alpha   90.00000000
_cell_angle_beta   90.00000000
_cell_angle_gamma   90.00000000
_symmetry_Int_Tables_number   1
_chemical_formula_structural   Sr5ZnCd4
_chemical_formula_sum   'Sr5 Zn1 Cd4'
_cell_volume   329.75344474
_cell_formula_units_Z   1
loop_
 _symmetry_equiv_pos_site_id
 _symmetry_equiv_pos_as_xyz
  1  'x, y, z'
loop_
 _atom_site_type_symbol
 _atom_site_label
 _atom_site_symmetry_multiplicity
 _atom_site_fract_x
 _atom_site_fract_y
 _atom_site_fract_z
 _atom_site_occupancy
  Sr  Sr0  1  0.50000000  0.50000000  0.09608200  1
  Sr  Sr1  1  0.50000000  0.50000000  0.29966900  1
  Sr  Sr2  1  0.50000000  0.50000000  0.50000000  1
  Sr  Sr3  1  0.50000000  0.50000000  0.70033100  1
  Sr  Sr4  1  0.50000000  0.50000000  0.90391800  1
  Zn  Zn5  1  0.00000000  0.00000000  0.00000000  1
  Cd  Cd6  1  0.00000000  0.00000000  0.19959900  1
  Cd  Cd7  1  0.00000000  0.00000000  0.39997400  1
  Cd  Cd8  1  0.00000000  0.00000000  0.60002600  1
  Cd  Cd9  1  0.00000000  0.00000000  0.80040100  1
