# generated using pymatgen
data_SrAl2O4
_symmetry_space_group_name_H-M   'P 1'
_cell_length_a   5.21055069
_cell_length_b   5.21055069
_cell_length_c   8.67047411
_cell_angle_alpha   86.63988765
_cell_angle_beta   86.63988765
_cell_angle_gamma   59.78095815
_symmetry_Int_Tables_number   1
_chemical_formula_structural   SrAl2O4
_chemical_formula_sum   'Sr2 Al4 O8'
_cell_volume   202.94726485
_cell_formula_units_Z   2
loop_
 _symmetry_equiv_pos_site_id
 _symmetry_equiv_pos_as_xyz
  1  'x, y, z'
loop_
 _atom_site_type_symbol
 _atom_site_label
 _atom_site_symmetry_multiplicity
 _atom_site_fract_x
 _atom_site_fract_y
 _atom_site_fract_z
 _atom_site_occupancy
  Sr  Sr0  1  0.99137100  0.01181800  0.75135400  1
  Sr  Sr1  1  0.98818200  0.00862900  0.24864600  1
  Al  Al2  1  0.67565600  0.65876100  0.44536100  1
  Al  Al3  1  0.34123900  0.32434400  0.55463900  1
  Al  Al4  1  0.34827700  0.31364700  0.94552900  1
  Al  Al5  1  0.68635300  0.65172300  0.05447100  1
  O  O6  1  0.43268100  0.21842300  0.74973400  1
  O  O7  1  0.78157700  0.56731900  0.25026600  1
  O  O8  1  0.62377700  0.02142200  0.45400200  1
  O  O9  1  0.33883200  0.66116800  0.50000000  1
  O  O10  1  0.97857800  0.37622300  0.54599800  1
  O  O11  1  0.35432800  0.00057400  0.04182600  1
  O  O12  1  0.64820500  0.35179500  0.00000000  1
  O  O13  1  0.99942600  0.64567200  0.95817400  1
