# generated using pymatgen
data_SrHoMn2O6
_symmetry_space_group_name_H-M   'P 1'
_cell_length_a   5.44771800
_cell_length_b   5.57790900
_cell_length_c   7.66150200
_cell_angle_alpha   90.00000000
_cell_angle_beta   90.00000000
_cell_angle_gamma   90.00000000
_symmetry_Int_Tables_number   1
_chemical_formula_structural   SrHoMn2O6
_chemical_formula_sum   'Sr2 Ho2 Mn4 O12'
_cell_volume   232.80910559
_cell_formula_units_Z   2
loop_
 _symmetry_equiv_pos_site_id
 _symmetry_equiv_pos_as_xyz
  1  'x, y, z'
loop_
 _atom_site_type_symbol
 _atom_site_label
 _atom_site_symmetry_multiplicity
 _atom_site_fract_x
 _atom_site_fract_y
 _atom_site_fract_z
 _atom_site_occupancy
  Sr  Sr0  1  0.50355800  0.27767000  0.50000000  1
  Sr  Sr1  1  0.00355800  0.72233000  0.00000000  1
  Ho  Ho2  1  0.98316400  0.81157800  0.50000000  1
  Ho  Ho3  1  0.48316400  0.18842200  0.00000000  1
  Mn  Mn4  1  0.99959600  0.25633400  0.75093100  1
  Mn  Mn5  1  0.49959600  0.74366600  0.25093100  1
  Mn  Mn6  1  0.99959600  0.25633400  0.24906900  1
  Mn  Mn7  1  0.49959600  0.74366600  0.74906900  1
  O  O8  1  0.22588600  0.97788100  0.78628300  1
  O  O9  1  0.30348000  0.44936500  0.20064400  1
  O  O10  1  0.80348000  0.55063500  0.29935600  1
  O  O11  1  0.72588600  0.02211900  0.71371700  1
  O  O12  1  0.80348000  0.55063500  0.70064400  1
  O  O13  1  0.72588600  0.02211900  0.28628300  1
  O  O14  1  0.22588600  0.97788100  0.21371700  1
  O  O15  1  0.30348000  0.44936500  0.79935600  1
  O  O16  1  0.05735800  0.21793200  0.50000000  1
  O  O17  1  0.39799600  0.73638900  0.50000000  1
  O  O18  1  0.89799600  0.26361100  0.00000000  1
  O  O19  1  0.55735800  0.78206800  0.00000000  1
