# generated using pymatgen
data_SrMgO2
_symmetry_space_group_name_H-M   'P 1'
_cell_length_a   3.35649305
_cell_length_b   3.35649305
_cell_length_c   5.85170522
_cell_angle_alpha   106.66625751
_cell_angle_beta   73.33374249
_cell_angle_gamma   120.00000000
_symmetry_Int_Tables_number   1
_chemical_formula_structural   SrMgO2
_chemical_formula_sum   'Sr1 Mg1 O2'
_cell_volume   53.87163899
_cell_formula_units_Z   1
loop_
 _symmetry_equiv_pos_site_id
 _symmetry_equiv_pos_as_xyz
  1  'x, y, z'
loop_
 _atom_site_type_symbol
 _atom_site_label
 _atom_site_symmetry_multiplicity
 _atom_site_fract_x
 _atom_site_fract_y
 _atom_site_fract_z
 _atom_site_occupancy
  Sr  Sr0  1  0.50000000  0.50000000  0.50000000  1
  Mg  Mg1  1  0.00000000  0.00000000  0.00000000  1
  O  O2  1  0.26230400  0.73769600  0.21308700  1
  O  O3  1  0.73769600  0.26230400  0.78691300  1
