# generated using pymatgen
data_TaNb(AgO3)2
_symmetry_space_group_name_H-M   'P 1'
_cell_length_a   5.61427100
_cell_length_b   5.68672800
_cell_length_c   15.85188400
_cell_angle_alpha   90.00000000
_cell_angle_beta   90.00000000
_cell_angle_gamma   90.00000000
_symmetry_Int_Tables_number   1
_chemical_formula_structural   TaNb(AgO3)2
_chemical_formula_sum   'Ta4 Nb4 Ag8 O24'
_cell_volume   506.10043886
_cell_formula_units_Z   4
loop_
 _symmetry_equiv_pos_site_id
 _symmetry_equiv_pos_as_xyz
  1  'x, y, z'
loop_
 _atom_site_type_symbol
 _atom_site_label
 _atom_site_symmetry_multiplicity
 _atom_site_fract_x
 _atom_site_fract_y
 _atom_site_fract_z
 _atom_site_occupancy
  Ta  Ta0  1  0.25291600  0.98125700  0.87506200  1
  Ta  Ta1  1  0.74708400  0.51874300  0.37506200  1
  Ta  Ta2  1  0.25291600  0.01874300  0.12493800  1
  Ta  Ta3  1  0.74708400  0.48125700  0.62493800  1
  Nb  Nb4  1  0.74699600  0.51944800  0.12534600  1
  Nb  Nb5  1  0.25300400  0.98055200  0.62534600  1
  Nb  Nb6  1  0.74699600  0.48055200  0.87465400  1
  Nb  Nb7  1  0.25300400  0.01944800  0.37465400  1
  Ag  Ag8  1  0.74848200  0.00000000  0.00000000  1
  Ag  Ag9  1  0.25151800  0.50000000  0.50000000  1
  Ag  Ag10  1  0.25025600  0.50000000  0.00000000  1
  Ag  Ag11  1  0.74974400  0.00000000  0.50000000  1
  Ag  Ag12  1  0.75258400  0.01318200  0.24990500  1
  Ag  Ag13  1  0.24741600  0.48681800  0.74990500  1
  Ag  Ag14  1  0.75258400  0.98681800  0.75009500  1
  Ag  Ag15  1  0.24741600  0.51318200  0.25009500  1
  O  O16  1  0.46562000  0.71486000  0.11083800  1
  O  O17  1  0.53438000  0.78514000  0.61083800  1
  O  O18  1  0.46562000  0.28514000  0.88916200  1
  O  O19  1  0.53438000  0.21486000  0.38916200  1
  O  O20  1  0.53236600  0.78716700  0.88948000  1
  O  O21  1  0.46763400  0.71283300  0.38948000  1
  O  O22  1  0.53236600  0.21283300  0.11052000  1
  O  O23  1  0.46763400  0.28716700  0.61052000  1
  O  O24  1  0.80797500  0.50000000  0.00000000  1
  O  O25  1  0.19202500  0.00000000  0.50000000  1
  O  O26  1  0.19303600  0.00000000  0.00000000  1
  O  O27  1  0.80696400  0.50000000  0.50000000  1
  O  O28  1  0.69176400  0.48158200  0.25069600  1
  O  O29  1  0.30823600  0.01841800  0.75069600  1
  O  O30  1  0.69176400  0.51841800  0.74930400  1
  O  O31  1  0.30823600  0.98158200  0.24930400  1
  O  O32  1  0.96840700  0.77822500  0.13963700  1
  O  O33  1  0.03159300  0.72177500  0.63963700  1
  O  O34  1  0.96840700  0.22177500  0.86036300  1
  O  O35  1  0.03159300  0.27822500  0.36036300  1
  O  O36  1  0.03390600  0.72423700  0.86001200  1
  O  O37  1  0.96609400  0.77576300  0.36001200  1
  O  O38  1  0.03390600  0.27576300  0.13998800  1
  O  O39  1  0.96609400  0.22423700  0.63998800  1
