# generated using pymatgen
data_Nd3Zn
_symmetry_space_group_name_H-M   'P 1'
_cell_length_a   7.11120013
_cell_length_b   7.11120013
_cell_length_c   5.39049700
_cell_angle_alpha   90.00000000
_cell_angle_beta   90.00000000
_cell_angle_gamma   120.00000120
_symmetry_Int_Tables_number   1
_chemical_formula_structural   Nd3Zn
_chemical_formula_sum   'Nd6 Zn2'
_cell_volume   236.07241195
_cell_formula_units_Z   2
loop_
 _symmetry_equiv_pos_site_id
 _symmetry_equiv_pos_as_xyz
  1  'x, y, z'
loop_
 _atom_site_type_symbol
 _atom_site_label
 _atom_site_symmetry_multiplicity
 _atom_site_fract_x
 _atom_site_fract_y
 _atom_site_fract_z
 _atom_site_occupancy
  Nd  Nd0  1  0.82353800  0.64707500  0.75000000  1
  Nd  Nd1  1  0.35292500  0.17646200  0.75000000  1
  Nd  Nd2  1  0.82353800  0.17646200  0.75000000  1
  Nd  Nd3  1  0.17646200  0.35292500  0.25000000  1
  Nd  Nd4  1  0.64707500  0.82353800  0.25000000  1
  Nd  Nd5  1  0.17646200  0.82353800  0.25000000  1
  Zn  Zn6  1  0.33333300  0.66666700  0.75000000  1
  Zn  Zn7  1  0.66666700  0.33333300  0.25000000  1
