# generated using pymatgen
data_Sm2Al2Fe15C
_symmetry_space_group_name_H-M   'P 1'
_cell_length_a   6.49038387
_cell_length_b   6.49038387
_cell_length_c   6.47047634
_cell_angle_alpha   82.97494279
_cell_angle_beta   82.97494279
_cell_angle_gamma   82.82855703
_symmetry_Int_Tables_number   1
_chemical_formula_structural   Sm2Al2Fe15C
_chemical_formula_sum   'Sm2 Al2 Fe15 C1'
_cell_volume   266.81654317
_cell_formula_units_Z   1
loop_
 _symmetry_equiv_pos_site_id
 _symmetry_equiv_pos_as_xyz
  1  'x, y, z'
loop_
 _atom_site_type_symbol
 _atom_site_label
 _atom_site_symmetry_multiplicity
 _atom_site_fract_x
 _atom_site_fract_y
 _atom_site_fract_z
 _atom_site_occupancy
  Sm  Sm0  1  0.34554000  0.34554000  0.35967500  1
  Sm  Sm1  1  0.65446000  0.65446000  0.64032500  1
  Al  Al2  1  0.10406400  0.10406400  0.10256700  1
  Al  Al3  1  0.89593600  0.89593600  0.89743300  1
  Fe  Fe4  1  0.65561900  0.65561900  0.14804900  1
  Fe  Fe5  1  0.65824700  0.14980500  0.65576000  1
  Fe  Fe6  1  0.14980500  0.65824700  0.65576000  1
  Fe  Fe7  1  0.34438100  0.34438100  0.85195100  1
  Fe  Fe8  1  0.34175300  0.85019500  0.34424000  1
  Fe  Fe9  1  0.85019500  0.34175300  0.34424000  1
  Fe  Fe10  1  0.00000000  0.00000000  0.50000000  1
  Fe  Fe11  1  0.00000000  0.50000000  0.00000000  1
  Fe  Fe12  1  0.50000000  0.00000000  0.00000000  1
  Fe  Fe13  1  0.71510500  0.28489500  0.00000000  1
  Fe  Fe14  1  0.28400100  0.99881000  0.71574500  1
  Fe  Fe15  1  0.00119000  0.71599900  0.28425500  1
  Fe  Fe16  1  0.71599900  0.00119000  0.28425500  1
  Fe  Fe17  1  0.99881000  0.28400100  0.71574500  1
  Fe  Fe18  1  0.28489500  0.71510500  0.00000000  1
  C  C19  1  0.50000000  0.50000000  0.00000000  1
