# generated using pymatgen
data_RbCrO3F
_symmetry_space_group_name_H-M   'P 1'
_cell_length_a   7.13498000
_cell_length_b   7.82887500
_cell_length_c   8.11564900
_cell_angle_alpha   90.00000000
_cell_angle_beta   90.00000000
_cell_angle_gamma   90.00000000
_symmetry_Int_Tables_number   1
_chemical_formula_structural   RbCrO3F
_chemical_formula_sum   'Rb4 Cr4 O12 F4'
_cell_volume   453.33095444
_cell_formula_units_Z   4
loop_
 _symmetry_equiv_pos_site_id
 _symmetry_equiv_pos_as_xyz
  1  'x, y, z'
loop_
 _atom_site_type_symbol
 _atom_site_label
 _atom_site_symmetry_multiplicity
 _atom_site_fract_x
 _atom_site_fract_y
 _atom_site_fract_z
 _atom_site_occupancy
  Rb  Rb0  1  0.24968600  0.14833300  0.62881800  1
  Rb  Rb1  1  0.25031400  0.35166700  0.12881800  1
  Rb  Rb2  1  0.74968600  0.85166700  0.37118200  1
  Rb  Rb3  1  0.75031400  0.64833300  0.87118200  1
  Cr  Cr4  1  0.24450600  0.64830900  0.62030500  1
  Cr  Cr5  1  0.25549400  0.85169100  0.12030500  1
  Cr  Cr6  1  0.74450600  0.35169100  0.37969500  1
  Cr  Cr7  1  0.75549400  0.14830900  0.87969500  1
  O  O8  1  0.24413400  0.51672100  0.46555700  1
  O  O9  1  0.25586600  0.98327900  0.96555700  1
  O  O10  1  0.74413400  0.48327900  0.53444300  1
  O  O11  1  0.75586600  0.01672100  0.03444300  1
  O  O12  1  0.24603900  0.54064100  0.79169500  1
  O  O13  1  0.25396100  0.95935900  0.29169500  1
  O  O14  1  0.74603900  0.45935900  0.20830500  1
  O  O15  1  0.75396100  0.04064100  0.70830500  1
  O  O16  1  0.05955200  0.76954800  0.61407500  1
  O  O17  1  0.44044800  0.73045200  0.11407500  1
  O  O18  1  0.55955200  0.23045200  0.38592500  1
  O  O19  1  0.94044800  0.26954800  0.88592500  1
  F  F20  1  0.95108100  0.21819600  0.38595400  1
  F  F21  1  0.54891900  0.28180400  0.88595400  1
  F  F22  1  0.45108100  0.78180400  0.61404600  1
  F  F23  1  0.04891900  0.71819600  0.11404600  1
