# generated using pymatgen
data_Sn2SeS
_symmetry_space_group_name_H-M   'P 1'
_cell_length_a   4.12421900
_cell_length_b   4.48565000
_cell_length_c   11.61257000
_cell_angle_alpha   90.00000000
_cell_angle_beta   90.00000000
_cell_angle_gamma   90.00000000
_symmetry_Int_Tables_number   1
_chemical_formula_structural   Sn2SeS
_chemical_formula_sum   'Sn4 Se2 S2'
_cell_volume   214.83025683
_cell_formula_units_Z   2
loop_
 _symmetry_equiv_pos_site_id
 _symmetry_equiv_pos_as_xyz
  1  'x, y, z'
loop_
 _atom_site_type_symbol
 _atom_site_label
 _atom_site_symmetry_multiplicity
 _atom_site_fract_x
 _atom_site_fract_y
 _atom_site_fract_z
 _atom_site_occupancy
  Sn  Sn0  1  0.00000000  0.12133900  0.61782500  1
  Sn  Sn1  1  0.00000000  0.87866100  0.11782500  1
  Sn  Sn2  1  0.50000000  0.35254400  0.37645400  1
  Sn  Sn3  1  0.50000000  0.64745600  0.87645400  1
  Se  Se4  1  0.00000000  0.77416300  0.35539200  1
  Se  Se5  1  0.00000000  0.22583700  0.85539200  1
  S  S6  1  0.50000000  0.73737000  0.65033000  1
  S  S7  1  0.50000000  0.26263000  0.15033000  1
