# generated using pymatgen
data_Pr5Al4(AgGe2)2
_symmetry_space_group_name_H-M   'P 1'
_cell_length_a   19.18435295
_cell_length_b   19.18435295
_cell_length_c   4.30981400
_cell_angle_alpha   90.00000000
_cell_angle_beta   90.00000000
_cell_angle_gamma   167.03533933
_symmetry_Int_Tables_number   1
_chemical_formula_structural   Pr5Al4(AgGe2)2
_chemical_formula_sum   'Pr5 Al4 Ag2 Ge4'
_cell_volume   355.85983699
_cell_formula_units_Z   1
loop_
 _symmetry_equiv_pos_site_id
 _symmetry_equiv_pos_as_xyz
  1  'x, y, z'
loop_
 _atom_site_type_symbol
 _atom_site_label
 _atom_site_symmetry_multiplicity
 _atom_site_fract_x
 _atom_site_fract_y
 _atom_site_fract_z
 _atom_site_occupancy
  Pr  Pr0  1  0.99380700  0.00619300  0.00000000  1
  Pr  Pr1  1  0.60502700  0.39497300  0.00000000  1
  Pr  Pr2  1  0.20390400  0.79609600  0.00000000  1
  Pr  Pr3  1  0.80081100  0.19918900  0.00000000  1
  Pr  Pr4  1  0.39795500  0.60204500  0.00000000  1
  Al  Al5  1  0.26809300  0.73190700  0.50000000  1
  Al  Al6  1  0.86570700  0.13429300  0.50000000  1
  Al  Al7  1  0.46455200  0.53544800  0.50000000  1
  Al  Al8  1  0.53218800  0.46781200  0.50000000  1
  Ag  Ag9  1  0.06567600  0.93432400  0.50000000  1
  Ag  Ag10  1  0.66892000  0.33108000  0.50000000  1
  Ge  Ge11  1  0.13346700  0.86653300  0.50000000  1
  Ge  Ge12  1  0.73578300  0.26421700  0.50000000  1
  Ge  Ge13  1  0.33363800  0.66636200  0.50000000  1
  Ge  Ge14  1  0.93098500  0.06901500  0.50000000  1
