# generated using pymatgen
data_PrTl2InTe4
_symmetry_space_group_name_H-M   'P 1'
_cell_length_a   7.16570940
_cell_length_b   7.16570940
_cell_length_c   7.16570940
_cell_angle_alpha   106.90741176
_cell_angle_beta   106.90741176
_cell_angle_gamma   114.73033820
_symmetry_Int_Tables_number   1
_chemical_formula_structural   PrTl2InTe4
_chemical_formula_sum   'Pr1 Tl2 In1 Te4'
_cell_volume   281.43427375
_cell_formula_units_Z   1
loop_
 _symmetry_equiv_pos_site_id
 _symmetry_equiv_pos_as_xyz
  1  'x, y, z'
loop_
 _atom_site_type_symbol
 _atom_site_label
 _atom_site_symmetry_multiplicity
 _atom_site_fract_x
 _atom_site_fract_y
 _atom_site_fract_z
 _atom_site_occupancy
  Pr  Pr0  1  0.50000000  0.50000000  0.00000000  1
  Tl  Tl1  1  0.50000000  0.00000000  0.50000000  1
  Tl  Tl2  1  0.00000000  0.50000000  0.50000000  1
  In  In3  1  0.00000000  0.00000000  0.00000000  1
  Te  Te4  1  0.58851900  0.96500100  0.00000000  1
  Te  Te5  1  0.96500100  0.58851900  0.00000000  1
  Te  Te6  1  0.03499900  0.03499900  0.62351800  1
  Te  Te7  1  0.41148100  0.41148100  0.37648200  1
