# generated using pymatgen
data_Sr9Nd3Cu12(PbO4)8
_symmetry_space_group_name_H-M   'P 1'
_cell_length_a   16.58052478
_cell_length_b   16.58052478
_cell_length_c   10.92708419
_cell_angle_alpha   80.51630013
_cell_angle_beta   80.51630013
_cell_angle_gamma   18.96994685
_symmetry_Int_Tables_number   1
_chemical_formula_structural   Sr9Nd3Cu12(PbO4)8
_chemical_formula_sum   'Sr9 Nd3 Cu12 Pb8 O32'
_cell_volume   962.79704776
_cell_formula_units_Z   1
loop_
 _symmetry_equiv_pos_site_id
 _symmetry_equiv_pos_as_xyz
  1  'x, y, z'
loop_
 _atom_site_type_symbol
 _atom_site_label
 _atom_site_symmetry_multiplicity
 _atom_site_fract_x
 _atom_site_fract_y
 _atom_site_fract_z
 _atom_site_occupancy
  Sr  Sr0  1  0.11066300  0.11066300  0.94478700  1
  Sr  Sr1  1  0.61152300  0.61152300  0.69513400  1
  Sr  Sr2  1  0.11176800  0.11176800  0.44395500  1
  Sr  Sr3  1  0.61150600  0.61150600  0.19337800  1
  Sr  Sr4  1  0.38849400  0.38849400  0.80662200  1
  Sr  Sr5  1  0.88823200  0.88823200  0.55604500  1
  Sr  Sr6  1  0.38847700  0.38847700  0.30486600  1
  Sr  Sr7  1  0.88933700  0.88933700  0.05521300  1
  Sr  Sr8  1  0.00000000  0.00000000  0.00000000  1
  Nd  Nd9  1  0.50003500  0.50003500  0.24704000  1
  Nd  Nd10  1  0.00000000  0.00000000  0.50000000  1
  Nd  Nd11  1  0.49996500  0.49996500  0.75296000  1
  Cu  Cu12  1  0.05524300  0.05524300  0.72313200  1
  Cu  Cu13  1  0.55515000  0.55515000  0.47252300  1
  Cu  Cu14  1  0.05529300  0.05529300  0.22158000  1
  Cu  Cu15  1  0.55538000  0.55538000  0.97220100  1
  Cu  Cu16  1  0.44485000  0.44485000  0.52747700  1
  Cu  Cu17  1  0.94475700  0.94475700  0.27686800  1
  Cu  Cu18  1  0.44462000  0.44462000  0.02779900  1
  Cu  Cu19  1  0.94470700  0.94470700  0.77842000  1
  Cu  Cu20  1  0.24999500  0.24999500  0.87506300  1
  Cu  Cu21  1  0.75005400  0.75005400  0.62500900  1
  Cu  Cu22  1  0.24994600  0.24994600  0.37499100  1
  Cu  Cu23  1  0.75000500  0.75000500  0.12493700  1
  Pb  Pb24  1  0.19417300  0.19417300  0.65302200  1
  Pb  Pb25  1  0.69416700  0.69416700  0.40275500  1
  Pb  Pb26  1  0.19421000  0.19421000  0.15255200  1
  Pb  Pb27  1  0.69425900  0.69425900  0.90271200  1
  Pb  Pb28  1  0.30583300  0.30583300  0.59724500  1
  Pb  Pb29  1  0.80582700  0.80582700  0.34697800  1
  Pb  Pb30  1  0.30574100  0.30574100  0.09728800  1
  Pb  Pb31  1  0.80579000  0.80579000  0.84744800  1
  O  O32  1  0.29742600  0.79979600  0.60051400  1
  O  O33  1  0.79964900  0.29759000  0.35096200  1
  O  O34  1  0.30802400  0.79345800  0.10284600  1
  O  O35  1  0.79366300  0.30782700  0.84630000  1
  O  O36  1  0.20020400  0.70257400  0.39948600  1
  O  O37  1  0.69217300  0.20633700  0.15370000  1
  O  O38  1  0.20654200  0.69197600  0.89715400  1
  O  O39  1  0.70241000  0.20035100  0.64903800  1
  O  O40  1  0.70257400  0.20020400  0.39948600  1
  O  O41  1  0.20633700  0.69217300  0.15370000  1
  O  O42  1  0.69197600  0.20654200  0.89715400  1
  O  O43  1  0.20035100  0.70241000  0.64903800  1
  O  O44  1  0.79979600  0.29742600  0.60051400  1
  O  O45  1  0.29759000  0.79964900  0.35096200  1
  O  O46  1  0.79345800  0.30802400  0.10284600  1
  O  O47  1  0.30782700  0.79366300  0.84630000  1
  O  O48  1  0.19239500  0.19239500  0.90381300  1
  O  O49  1  0.69250600  0.69250600  0.65360900  1
  O  O50  1  0.19237500  0.19237500  0.40376000  1
  O  O51  1  0.69244500  0.69244500  0.15397100  1
  O  O52  1  0.30755500  0.30755500  0.84602900  1
  O  O53  1  0.80762500  0.80762500  0.59624000  1
  O  O54  1  0.30749400  0.30749400  0.34639100  1
  O  O55  1  0.80760500  0.80760500  0.09618700  1
  O  O56  1  0.12669100  0.12669100  0.68577500  1
  O  O57  1  0.62644200  0.62644200  0.43671500  1
  O  O58  1  0.12666300  0.12666300  0.18737200  1
  O  O59  1  0.62695300  0.62695300  0.93645800  1
  O  O60  1  0.37355800  0.37355800  0.56328500  1
  O  O61  1  0.87330900  0.87330900  0.31422500  1
  O  O62  1  0.37304700  0.37304700  0.06354200  1
  O  O63  1  0.87333700  0.87333700  0.81262800  1
