# generated using pymatgen
data_Sr2GdCr(CuO4)2
_symmetry_space_group_name_H-M   'P 1'
_cell_length_a   3.85364215
_cell_length_b   3.85364215
_cell_length_c   11.52667000
_cell_angle_alpha   90.00000000
_cell_angle_beta   90.00000000
_cell_angle_gamma   90.16987287
_symmetry_Int_Tables_number   1
_chemical_formula_structural   Sr2GdCr(CuO4)2
_chemical_formula_sum   'Sr2 Gd1 Cr1 Cu2 O8'
_cell_volume   171.17672666
_cell_formula_units_Z   1
loop_
 _symmetry_equiv_pos_site_id
 _symmetry_equiv_pos_as_xyz
  1  'x, y, z'
loop_
 _atom_site_type_symbol
 _atom_site_label
 _atom_site_symmetry_multiplicity
 _atom_site_fract_x
 _atom_site_fract_y
 _atom_site_fract_z
 _atom_site_occupancy
  Sr  Sr0  1  0.50924600  0.49075400  0.66561900  1
  Sr  Sr1  1  0.50924600  0.49075400  0.33438100  1
  Gd  Gd2  1  0.50088700  0.49911300  0.00000000  1
  Cr  Cr3  1  0.01068800  0.98931200  0.50000000  1
  Cu  Cu4  1  0.00201600  0.99798400  0.84358900  1
  Cu  Cu5  1  0.00201600  0.99798400  0.15641100  1
  O  O6  1  0.00055200  0.49780500  0.87312600  1
  O  O7  1  0.50219500  0.99944800  0.87312600  1
  O  O8  1  0.00055200  0.49780500  0.12687400  1
  O  O9  1  0.50219500  0.99944800  0.12687400  1
  O  O10  1  0.00648100  0.99351900  0.66645800  1
  O  O11  1  0.00648100  0.99351900  0.33354200  1
  O  O12  1  0.01325400  0.49058400  0.50000000  1
  O  O13  1  0.50941600  0.98674600  0.50000000  1
