# generated using pymatgen
data_Sr20P12Br3ClO48
_symmetry_space_group_name_H-M   'P 1'
_cell_length_a   10.10610200
_cell_length_b   12.43761320
_cell_length_c   12.43762715
_cell_angle_alpha   71.31579600
_cell_angle_beta   66.03114296
_cell_angle_gamma   66.03116480
_symmetry_Int_Tables_number   1
_chemical_formula_structural   Sr20P12Br3ClO48
_chemical_formula_sum   'Sr20 P12 Br3 Cl1 O48'
_cell_volume   1282.57145776
_cell_formula_units_Z   1
loop_
 _symmetry_equiv_pos_site_id
 _symmetry_equiv_pos_as_xyz
  1  'x, y, z'
loop_
 _atom_site_type_symbol
 _atom_site_label
 _atom_site_symmetry_multiplicity
 _atom_site_fract_x
 _atom_site_fract_y
 _atom_site_fract_z
 _atom_site_occupancy
  Sr  Sr0  1  0.66687000  0.58237900  0.08428300  1
  Sr  Sr1  1  0.66647900  0.08235800  0.58433300  1
  Sr  Sr2  1  0.33343300  0.66564700  0.66758400  1
  Sr  Sr3  1  0.33321700  0.16571600  0.16769900  1
  Sr  Sr4  1  0.33313000  0.41762100  0.91571700  1
  Sr  Sr5  1  0.33352100  0.91764200  0.41566700  1
  Sr  Sr6  1  0.66656700  0.33435300  0.33241600  1
  Sr  Sr7  1  0.66678300  0.83428400  0.83230100  1
  Sr  Sr8  1  0.99596500  0.25454100  0.00658800  1
  Sr  Sr9  1  0.99555100  0.75670600  0.50676700  1
  Sr  Sr10  1  0.74091700  0.62281400  0.37280100  1
  Sr  Sr11  1  0.74296800  0.12190100  0.87402000  1
  Sr  Sr12  1  0.26344400  0.49542600  0.24549800  1
  Sr  Sr13  1  0.26119700  0.99544200  0.74747900  1
  Sr  Sr14  1  0.00403500  0.74545900  0.99341200  1
  Sr  Sr15  1  0.00444900  0.24329400  0.49323300  1
  Sr  Sr16  1  0.25908300  0.37718600  0.62719900  1
  Sr  Sr17  1  0.25703200  0.87809900  0.12598000  1
  Sr  Sr18  1  0.73655600  0.50457400  0.75450200  1
  Sr  Sr19  1  0.73880300  0.00455800  0.25252100  1
  P  P20  1  0.59082400  0.31145100  0.06136000  1
  P  P21  1  0.59058300  0.81161000  0.56140400  1
  P  P22  1  0.03641100  0.42040100  0.17018400  1
  P  P23  1  0.03637700  0.92045600  0.67037100  1
  P  P24  1  0.37304600  0.14319600  0.89312400  1
  P  P25  1  0.37280700  0.64332300  0.39309900  1
  P  P26  1  0.40917600  0.68854900  0.93864000  1
  P  P27  1  0.40941700  0.18839000  0.43859600  1
  P  P28  1  0.96358900  0.57959900  0.82981600  1
  P  P29  1  0.96362300  0.07954400  0.32962900  1
  P  P30  1  0.62695400  0.85680400  0.10687600  1
  P  P31  1  0.62719300  0.35667700  0.60690100  1
  Br  Br32  1  0.00000000  0.50000000  0.50000000  1
  Br  Br33  1  0.00001100  0.75078300  0.24921900  1
  Br  Br34  1  0.99998900  0.24921700  0.75078100  1
  Cl  Cl35  1  0.00000000  0.00000000  0.00000000  1
  O  O36  1  0.64150200  0.34655900  0.92240300  1
  O  O37  1  0.64149900  0.84668300  0.42236700  1
  O  O38  1  0.08946000  0.53291400  0.10861000  1
  O  O39  1  0.08947700  0.03285100  0.60870500  1
  O  O40  1  0.26905100  0.25678800  0.83272400  1
  O  O41  1  0.26899600  0.75689200  0.33250600  1
  O  O42  1  0.35769200  0.82766800  0.90390600  1
  O  O43  1  0.35864600  0.32745100  0.40349300  1
  O  O44  1  0.91042300  0.64127200  0.71733600  1
  O  O45  1  0.91076900  0.14070500  0.21694200  1
  O  O46  1  0.73148300  0.91724300  0.99350600  1
  O  O47  1  0.73100800  0.41721500  0.49325000  1
  O  O48  1  0.35849800  0.65344100  0.07759700  1
  O  O49  1  0.35850100  0.15331700  0.57763300  1
  O  O50  1  0.91054000  0.46708600  0.89139000  1
  O  O51  1  0.91052300  0.96714900  0.39129500  1
  O  O52  1  0.73094900  0.74321200  0.16727600  1
  O  O53  1  0.73100400  0.24310800  0.66749400  1
  O  O54  1  0.64230800  0.17233200  0.09609400  1
  O  O55  1  0.64135400  0.67254900  0.59650700  1
  O  O56  1  0.08957700  0.35872800  0.28266400  1
  O  O57  1  0.08923100  0.85929500  0.78305800  1
  O  O58  1  0.26851700  0.08275700  0.00649400  1
  O  O59  1  0.26899200  0.58278500  0.50675000  1
  O  O60  1  0.41200900  0.35653100  0.10682400  1
  O  O61  1  0.41167100  0.85699700  0.60701900  1
  O  O62  1  0.12431600  0.33082800  0.08085400  1
  O  O63  1  0.12460800  0.83086500  0.58114900  1
  O  O64  1  0.46387500  0.18698300  0.93733800  1
  O  O65  1  0.46350300  0.68733000  0.43728700  1
  O  O66  1  0.58799100  0.64346900  0.89317600  1
  O  O67  1  0.58832900  0.14300300  0.39298100  1
  O  O68  1  0.87568400  0.66917200  0.91914600  1
  O  O69  1  0.87539200  0.16913500  0.41885100  1
  O  O70  1  0.53612500  0.81301700  0.06266200  1
  O  O71  1  0.53649700  0.31267000  0.56271300  1
  O  O72  1  0.65472500  0.36717800  0.11728600  1
  O  O73  1  0.65485400  0.86718800  0.61725700  1
  O  O74  1  0.86071200  0.45240100  0.20245400  1
  O  O75  1  0.86080400  0.95231500  0.70243700  1
  O  O76  1  0.48451900  0.55538400  0.30538500  1
  O  O77  1  0.48443000  0.05526700  0.80544200  1
  O  O78  1  0.34527500  0.63282200  0.88271400  1
  O  O79  1  0.34514600  0.13281200  0.38274300  1
  O  O80  1  0.13928800  0.54759900  0.79754600  1
  O  O81  1  0.13919600  0.04768500  0.29756300  1
  O  O82  1  0.51548100  0.44461600  0.69461500  1
  O  O83  1  0.51557000  0.94473300  0.19455800  1
