# generated using pymatgen
data_SmGa3Pt
_symmetry_space_group_name_H-M   'P 1'
_cell_length_a   6.21173529
_cell_length_b   6.21173529
_cell_length_c   6.21173529
_cell_angle_alpha   140.74822732
_cell_angle_beta   140.74822732
_cell_angle_gamma   56.71896484
_symmetry_Int_Tables_number   1
_chemical_formula_structural   SmGa3Pt
_chemical_formula_sum   'Sm1 Ga3 Pt1'
_cell_volume   95.17762718
_cell_formula_units_Z   1
loop_
 _symmetry_equiv_pos_site_id
 _symmetry_equiv_pos_as_xyz
  1  'x, y, z'
loop_
 _atom_site_type_symbol
 _atom_site_label
 _atom_site_symmetry_multiplicity
 _atom_site_fract_x
 _atom_site_fract_y
 _atom_site_fract_z
 _atom_site_occupancy
  Sm  Sm0  1  0.00000000  0.00000000  0.00000000  1
  Ga  Ga1  1  0.61213200  0.61213200  0.00000000  1
  Ga  Ga2  1  0.38786800  0.38786800  0.00000000  1
  Ga  Ga3  1  0.75000000  0.25000000  0.50000000  1
  Pt  Pt4  1  0.25000000  0.75000000  0.50000000  1
