# generated using pymatgen
data_RbTi3NbO9
_symmetry_space_group_name_H-M   'P 1'
_cell_length_a   3.85186300
_cell_length_b   6.43783000
_cell_length_c   15.17372100
_cell_angle_alpha   90.00000000
_cell_angle_beta   90.00000000
_cell_angle_gamma   90.00000000
_symmetry_Int_Tables_number   1
_chemical_formula_structural   RbTi3NbO9
_chemical_formula_sum   'Rb2 Ti6 Nb2 O18'
_cell_volume   376.27245833
_cell_formula_units_Z   2
loop_
 _symmetry_equiv_pos_site_id
 _symmetry_equiv_pos_as_xyz
  1  'x, y, z'
loop_
 _atom_site_type_symbol
 _atom_site_label
 _atom_site_symmetry_multiplicity
 _atom_site_fract_x
 _atom_site_fract_y
 _atom_site_fract_z
 _atom_site_occupancy
  Rb  Rb0  1  0.50000000  0.21154700  0.24864500  1
  Rb  Rb1  1  0.00000000  0.78845300  0.74864500  1
  Ti  Ti2  1  0.00000000  0.30301000  0.46503700  1
  Ti  Ti3  1  0.00000000  0.30603000  0.04370200  1
  Ti  Ti4  1  0.50000000  0.69397000  0.54370200  1
  Ti  Ti5  1  0.50000000  0.69699000  0.96503700  1
  Ti  Ti6  1  0.00000000  0.75294500  0.12232500  1
  Ti  Ti7  1  0.50000000  0.24705500  0.62232500  1
  Nb  Nb8  1  0.00000000  0.75368100  0.36867400  1
  Nb  Nb9  1  0.50000000  0.24631900  0.86867400  1
  O  O10  1  0.00000000  0.65341200  0.99140600  1
  O  O11  1  0.00000000  0.65216100  0.51039100  1
  O  O12  1  0.50000000  0.34783900  0.01039100  1
  O  O13  1  0.50000000  0.34658800  0.49140600  1
  O  O14  1  0.00000000  0.05434600  0.41363300  1
  O  O15  1  0.00000000  0.05372500  0.08910300  1
  O  O16  1  0.50000000  0.94627500  0.58910300  1
  O  O17  1  0.50000000  0.94565400  0.91363300  1
  O  O18  1  0.00000000  0.82393700  0.24774800  1
  O  O19  1  0.50000000  0.17606300  0.74774800  1
  O  O20  1  0.00000000  0.45378100  0.35592200  1
  O  O21  1  0.00000000  0.46116200  0.14532500  1
  O  O22  1  0.50000000  0.53883800  0.64532500  1
  O  O23  1  0.50000000  0.54621900  0.85592200  1
  O  O24  1  0.00000000  0.24362200  0.90090500  1
  O  O25  1  0.00000000  0.24714300  0.59718400  1
  O  O26  1  0.50000000  0.75285700  0.09718400  1
  O  O27  1  0.50000000  0.75637800  0.40090500  1
