# generated using pymatgen
data_Sr20P12Br(O16F)3
_symmetry_space_group_name_H-M   'P 1'
_cell_length_a   7.34727100
_cell_length_b   9.92827207
_cell_length_c   17.19897151
_cell_angle_alpha   89.98607496
_cell_angle_beta   89.99995669
_cell_angle_gamma   89.99317871
_symmetry_Int_Tables_number   1
_chemical_formula_structural   Sr20P12Br(O16F)3
_chemical_formula_sum   'Sr20 P12 Br1 O48 F3'
_cell_volume   1254.59106394
_cell_formula_units_Z   1
loop_
 _symmetry_equiv_pos_site_id
 _symmetry_equiv_pos_as_xyz
  1  'x, y, z'
loop_
 _atom_site_type_symbol
 _atom_site_label
 _atom_site_symmetry_multiplicity
 _atom_site_fract_x
 _atom_site_fract_y
 _atom_site_fract_z
 _atom_site_occupancy
  Sr  Sr0  1  0.50056800  0.50197600  0.16781900  1
  Sr  Sr1  1  0.50117900  0.99795200  0.66559100  1
  Sr  Sr2  1  0.00235200  0.99430500  0.33232500  1
  Sr  Sr3  1  0.00445100  0.50458900  0.83487200  1
  Sr  Sr4  1  0.50213600  0.99906400  0.33650300  1
  Sr  Sr5  1  0.50522500  0.50105200  0.83015500  1
  Sr  Sr6  1  0.99595700  0.50061200  0.16656700  1
  Sr  Sr7  1  0.99685900  0.99916900  0.66668400  1
  Sr  Sr8  1  0.25135700  0.61675300  0.37600800  1
  Sr  Sr9  1  0.25520400  0.12583400  0.86255000  1
  Sr  Sr10  1  0.25811000  0.73450900  0.00541600  1
  Sr  Sr11  1  0.24948200  0.25308100  0.50409200  1
  Sr  Sr12  1  0.25589800  0.14115200  0.13195200  1
  Sr  Sr13  1  0.25106100  0.62944200  0.62013100  1
  Sr  Sr14  1  0.74821600  0.88179500  0.12360800  1
  Sr  Sr15  1  0.75035800  0.38350500  0.62400400  1
  Sr  Sr16  1  0.75065100  0.74723900  0.49670700  1
  Sr  Sr17  1  0.74771000  0.24195800  0.99700300  1
  Sr  Sr18  1  0.75036000  0.37155100  0.37994600  1
  Sr  Sr19  1  0.74794300  0.87423900  0.87883200  1
  P  P20  1  0.25007500  0.28743100  0.31771200  1
  P  P21  1  0.24836200  0.78295500  0.81410200  1
  P  P22  1  0.24826800  0.82996200  0.20180600  1
  P  P23  1  0.25026800  0.33261900  0.69716200  1
  P  P24  1  0.24979400  0.88416100  0.48590800  1
  P  P25  1  0.24854400  0.38313400  0.98327300  1
  P  P26  1  0.75038400  0.21765700  0.18759100  1
  P  P27  1  0.75053700  0.71349100  0.68467900  1
  P  P28  1  0.74969500  0.67059700  0.30117500  1
  P  P29  1  0.75091500  0.17195900  0.79708800  1
  P  P30  1  0.75016000  0.60982000  0.01543000  1
  P  P31  1  0.75062200  0.11607500  0.51397000  1
  Br  Br32  1  0.07965700  0.00057400  0.99997100  1
  O  O33  1  0.42080400  0.29334300  0.37096600  1
  O  O34  1  0.41222100  0.79232500  0.87155300  1
  O  O35  1  0.41158100  0.91199800  0.16821700  1
  O  O36  1  0.42138800  0.40892100  0.66768000  1
  O  O37  1  0.42159100  0.80326500  0.46095100  1
  O  O38  1  0.41017800  0.28904500  0.96096200  1
  O  O39  1  0.92346300  0.21874400  0.13538300  1
  O  O40  1  0.92258900  0.71380500  0.63182600  1
  O  O41  1  0.92258500  0.59231500  0.32755800  1
  O  O42  1  0.92332800  0.09220100  0.82257600  1
  O  O43  1  0.92449500  0.68547700  0.04252500  1
  O  O44  1  0.92147500  0.19737200  0.54000200  1
  O  O45  1  0.58013600  0.21777100  0.13334000  1
  O  O46  1  0.58045200  0.71200900  0.63064800  1
  O  O47  1  0.57957000  0.59043400  0.32882700  1
  O  O48  1  0.58083600  0.09023700  0.82421400  1
  O  O49  1  0.58180200  0.69209400  0.04378500  1
  O  O50  1  0.57876200  0.19679200  0.53922900  1
  O  O51  1  0.07885700  0.29319100  0.37054300  1
  O  O52  1  0.07018800  0.76874300  0.86192400  1
  O  O53  1  0.06954800  0.90834100  0.18498900  1
  O  O54  1  0.07929900  0.40949200  0.66809900  1
  O  O55  1  0.07910400  0.80268500  0.45983600  1
  O  O56  1  0.06870800  0.31943400  0.95402100  1
  O  O57  1  0.25146100  0.14859300  0.27434300  1
  O  O58  1  0.26801200  0.65072300  0.76507300  1
  O  O59  1  0.26822700  0.82321100  0.29244300  1
  O  O60  1  0.25144100  0.33644100  0.78827900  1
  O  O61  1  0.24976300  0.02158200  0.44162600  1
  O  O62  1  0.27115600  0.51971000  0.93806900  1
  O  O63  1  0.74798000  0.35203100  0.23466000  1
  O  O64  1  0.74718000  0.84820100  0.73220400  1
  O  O65  1  0.74701900  0.67481200  0.21000200  1
  O  O66  1  0.74814300  0.17547700  0.70645900  1
  O  O67  1  0.74492500  0.47108400  0.05807700  1
  O  O68  1  0.75018400  0.97832100  0.55837000  1
  O  O69  1  0.24998300  0.40534600  0.25771100  1
  O  O70  1  0.24582600  0.90910500  0.75993300  1
  O  O71  1  0.24596100  0.68582900  0.16578800  1
  O  O72  1  0.24990800  0.18354600  0.66819100  1
  O  O73  1  0.24732600  0.40936600  0.07261900  1
  O  O74  1  0.24861500  0.90660100  0.57573800  1
  O  O75  1  0.74791000  0.09233200  0.24180400  1
  O  O76  1  0.75198500  0.58934200  0.73987900  1
  O  O77  1  0.74955300  0.81561500  0.33574700  1
  O  O78  1  0.74931300  0.31574300  0.83262200  1
  O  O79  1  0.75223900  0.09357800  0.42441600  1
  O  O80  1  0.74726600  0.59332100  0.92558800  1
  F  F81  1  0.25025400  0.49961500  0.50004700  1
  F  F82  1  0.65277700  0.99863600  0.00010400  1
  F  F83  1  0.75027500  0.50159000  0.49992400  1
