# generated using pymatgen
data_SmYS2
_symmetry_space_group_name_H-M   'P 1'
_cell_length_a   6.95775978
_cell_length_b   6.95775978
_cell_length_c   6.95775961
_cell_angle_alpha   32.81902191
_cell_angle_beta   32.81902191
_cell_angle_gamma   32.81902215
_symmetry_Int_Tables_number   1
_chemical_formula_structural   SmYS2
_chemical_formula_sum   'Sm1 Y1 S2'
_cell_volume   88.02527284
_cell_formula_units_Z   1
loop_
 _symmetry_equiv_pos_site_id
 _symmetry_equiv_pos_as_xyz
  1  'x, y, z'
loop_
 _atom_site_type_symbol
 _atom_site_label
 _atom_site_symmetry_multiplicity
 _atom_site_fract_x
 _atom_site_fract_y
 _atom_site_fract_z
 _atom_site_occupancy
  Sm  Sm0  1  0.00000000  0.00000000  0.00000000  1
  Y  Y1  1  0.50000000  0.50000000  0.50000000  1
  S  S2  1  0.24650200  0.24650200  0.24650200  1
  S  S3  1  0.75349800  0.75349800  0.75349800  1
