# generated using pymatgen
data_Sr2FeCu(PbO3)2
_symmetry_space_group_name_H-M   'P 1'
_cell_length_a   3.92305300
_cell_length_b   3.97830600
_cell_length_c   12.27314287
_cell_angle_alpha   88.43025460
_cell_angle_beta   90.00000000
_cell_angle_gamma   90.00000000
_symmetry_Int_Tables_number   1
_chemical_formula_structural   Sr2FeCu(PbO3)2
_chemical_formula_sum   'Sr2 Fe1 Cu1 Pb2 O6'
_cell_volume   191.47634869
_cell_formula_units_Z   1
loop_
 _symmetry_equiv_pos_site_id
 _symmetry_equiv_pos_as_xyz
  1  'x, y, z'
loop_
 _atom_site_type_symbol
 _atom_site_label
 _atom_site_symmetry_multiplicity
 _atom_site_fract_x
 _atom_site_fract_y
 _atom_site_fract_z
 _atom_site_occupancy
  Sr  Sr0  1  0.00000000  0.01713300  0.35716100  1
  Sr  Sr1  1  0.00000000  0.98286700  0.64283900  1
  Fe  Fe2  1  0.50000000  0.50000000  0.50000000  1
  Cu  Cu3  1  0.00000000  0.00000000  0.00000000  1
  Pb  Pb4  1  0.50000000  0.50207500  0.14322700  1
  Pb  Pb5  1  0.50000000  0.49792500  0.85677300  1
  O  O6  1  0.50000000  0.51758700  0.32115400  1
  O  O7  1  0.50000000  0.48241300  0.67884600  1
  O  O8  1  0.00000000  0.50000000  0.50000000  1
  O  O9  1  0.50000000  0.00000000  0.50000000  1
  O  O10  1  0.00000000  0.12319400  0.14407600  1
  O  O11  1  0.00000000  0.87680600  0.85592400  1
