# generated using pymatgen
data_RbTa7(CuO7)3
_symmetry_space_group_name_H-M   'P 1'
_cell_length_a   14.73801439
_cell_length_b   14.73801439
_cell_length_c   7.68054100
_cell_angle_alpha   90.00000000
_cell_angle_beta   90.00000000
_cell_angle_gamma   150.30927830
_symmetry_Int_Tables_number   1
_chemical_formula_structural   RbTa7(CuO7)3
_chemical_formula_sum   'Rb2 Ta14 Cu6 O42'
_cell_volume   826.33067263
_cell_formula_units_Z   2
loop_
 _symmetry_equiv_pos_site_id
 _symmetry_equiv_pos_as_xyz
  1  'x, y, z'
loop_
 _atom_site_type_symbol
 _atom_site_label
 _atom_site_symmetry_multiplicity
 _atom_site_fract_x
 _atom_site_fract_y
 _atom_site_fract_z
 _atom_site_occupancy
  Rb  Rb0  1  0.99862300  0.00137700  0.00000000  1
  Rb  Rb1  1  0.00024700  0.99975300  0.50000000  1
  Ta  Ta2  1  0.50380600  0.00442600  0.75020200  1
  Ta  Ta3  1  0.99557400  0.49619400  0.24979800  1
  Ta  Ta4  1  0.50380600  0.00442600  0.24979800  1
  Ta  Ta5  1  0.99557400  0.49619400  0.75020200  1
  Ta  Ta6  1  0.50009800  0.49990200  0.75165300  1
  Ta  Ta7  1  0.50009800  0.49990200  0.24834700  1
  Ta  Ta8  1  0.63443000  0.86187200  0.74566400  1
  Ta  Ta9  1  0.36011700  0.13257900  0.75063600  1
  Ta  Ta10  1  0.13812800  0.36557000  0.25433600  1
  Ta  Ta11  1  0.86742100  0.63988300  0.24936400  1
  Ta  Ta12  1  0.36011700  0.13257900  0.24936400  1
  Ta  Ta13  1  0.63443000  0.86187200  0.25433600  1
  Ta  Ta14  1  0.86742100  0.63988300  0.75063600  1
  Ta  Ta15  1  0.13812800  0.36557000  0.74566400  1
  Cu  Cu16  1  0.67948000  0.32052000  0.00000000  1
  Cu  Cu17  1  0.31688100  0.68311900  0.00000000  1
  Cu  Cu18  1  0.81520700  0.18479300  0.50000000  1
  Cu  Cu19  1  0.18256300  0.81743700  0.50000000  1
  Cu  Cu20  1  0.68010200  0.31989800  0.50000000  1
  Cu  Cu21  1  0.81952000  0.18048000  0.00000000  1
  O  O22  1  0.90049200  0.09950800  0.71735200  1
  O  O23  1  0.09921500  0.90078500  0.69382900  1
  O  O24  1  0.90049200  0.09950800  0.28264800  1
  O  O25  1  0.09921500  0.90078500  0.30617100  1
  O  O26  1  0.58581900  0.81010800  0.50000000  1
  O  O27  1  0.44888900  0.19550900  0.50000000  1
  O  O28  1  0.18989200  0.41418100  0.50000000  1
  O  O29  1  0.80449100  0.55111100  0.50000000  1
  O  O30  1  0.63300100  0.00351600  0.68648800  1
  O  O31  1  0.35471800  0.98420600  0.71848700  1
  O  O32  1  0.99648400  0.36699900  0.31351200  1
  O  O33  1  0.01579400  0.64528200  0.28151300  1
  O  O34  1  0.35471800  0.98420600  0.28151300  1
  O  O35  1  0.63300100  0.00351600  0.31351200  1
  O  O36  1  0.01579400  0.64528200  0.71848700  1
  O  O37  1  0.99648400  0.36699900  0.68648800  1
  O  O38  1  0.50669100  0.49330900  0.00000000  1
  O  O39  1  0.63394400  0.36605600  0.81163000  1
  O  O40  1  0.36419200  0.63580800  0.81362800  1
  O  O41  1  0.63394400  0.36605600  0.18837000  1
  O  O42  1  0.36419200  0.63580800  0.18637200  1
  O  O43  1  0.67882400  0.94393000  0.00000000  1
  O  O44  1  0.32238600  0.08328300  0.00000000  1
  O  O45  1  0.05607000  0.32117600  0.00000000  1
  O  O46  1  0.91671700  0.67761400  0.00000000  1
  O  O47  1  0.63887800  0.73791800  0.77728000  1
  O  O48  1  0.35768100  0.25956700  0.74096300  1
  O  O49  1  0.26208200  0.36112200  0.22272000  1
  O  O50  1  0.74043300  0.64231900  0.25903700  1
  O  O51  1  0.35768100  0.25956700  0.25903700  1
  O  O52  1  0.63887800  0.73791800  0.22272000  1
  O  O53  1  0.74043300  0.64231900  0.74096300  1
  O  O54  1  0.26208200  0.36112200  0.77728000  1
  O  O55  1  0.72503900  0.27496100  0.80516900  1
  O  O56  1  0.26770200  0.73229800  0.78692000  1
  O  O57  1  0.72503900  0.27496100  0.19483100  1
  O  O58  1  0.26770200  0.73229800  0.21308000  1
  O  O59  1  0.49409300  0.50590700  0.50000000  1
  O  O60  1  0.56479300  0.08762200  0.50000000  1
  O  O61  1  0.91237800  0.43520700  0.50000000  1
  O  O62  1  0.55237200  0.01249700  0.00000000  1
  O  O63  1  0.98750300  0.44762800  0.00000000  1
