# generated using pymatgen
data_Na6Cd7S10
_symmetry_space_group_name_H-M   'P 1'
_cell_length_a   13.51985037
_cell_length_b   13.51985037
_cell_length_c   10.50526894
_cell_angle_alpha   72.33446748
_cell_angle_beta   72.33446748
_cell_angle_gamma   17.97915972
_symmetry_Int_Tables_number   1
_chemical_formula_structural   Na6Cd7S10
_chemical_formula_sum   'Na6 Cd7 S10'
_cell_volume   564.04899075
_cell_formula_units_Z   1
loop_
 _symmetry_equiv_pos_site_id
 _symmetry_equiv_pos_as_xyz
  1  'x, y, z'
loop_
 _atom_site_type_symbol
 _atom_site_label
 _atom_site_symmetry_multiplicity
 _atom_site_fract_x
 _atom_site_fract_y
 _atom_site_fract_z
 _atom_site_occupancy
  Na  Na0  1  0.70777700  0.70777700  0.39738700  1
  Na  Na1  1  0.29846300  0.29846300  0.57834000  1
  Na  Na2  1  0.12107900  0.12107900  0.25700700  1
  Na  Na3  1  0.88768800  0.88768800  0.72930700  1
  Na  Na4  1  0.99047200  0.99047200  0.19520200  1
  Na  Na5  1  0.00822500  0.00822500  0.80594700  1
  Cd  Cd6  1  0.55837100  0.55837100  0.52507100  1
  Cd  Cd7  1  0.44221900  0.44221900  0.47409900  1
  Cd  Cd8  1  0.84032400  0.84032400  0.27913400  1
  Cd  Cd9  1  0.15742200  0.15742200  0.72402600  1
  Cd  Cd10  1  0.75121200  0.75121200  0.91085500  1
  Cd  Cd11  1  0.60924400  0.60924400  0.03584900  1
  Cd  Cd12  1  0.38258500  0.38258500  0.97141600  1
  S  S13  1  0.53495000  0.53495000  0.30058200  1
  S  S14  1  0.46522500  0.46522500  0.70089900  1
  S  S15  1  0.88898900  0.88898900  0.46385600  1
  S  S16  1  0.11353500  0.11353500  0.53326200  1
  S  S17  1  0.68298500  0.68298500  0.13305400  1
  S  S18  1  0.31434500  0.31434500  0.84876300  1
  S  S19  1  0.28532700  0.28532700  0.32414300  1
  S  S20  1  0.71554800  0.71554800  0.69916500  1
  S  S21  1  0.91545400  0.91545400  0.05109600  1
  S  S22  1  0.07976100  0.07976100  0.94454200  1
