# generated using pymatgen
data_Nd2PdRu3
_symmetry_space_group_name_H-M   'P 1'
_cell_length_a   5.34207718
_cell_length_b   5.34207718
_cell_length_c   5.57964441
_cell_angle_alpha   90.00000000
_cell_angle_beta   61.39873401
_cell_angle_gamma   120.00000000
_symmetry_Int_Tables_number   1
_chemical_formula_structural   Nd2PdRu3
_chemical_formula_sum   'Nd2 Pd1 Ru3'
_cell_volume   114.91511101
_cell_formula_units_Z   1
loop_
 _symmetry_equiv_pos_site_id
 _symmetry_equiv_pos_as_xyz
  1  'x, y, z'
loop_
 _atom_site_type_symbol
 _atom_site_label
 _atom_site_symmetry_multiplicity
 _atom_site_fract_x
 _atom_site_fract_y
 _atom_site_fract_z
 _atom_site_occupancy
  Nd  Nd0  1  0.50742400  0.75371200  0.73886500  1
  Nd  Nd1  1  0.99257600  0.99628800  0.01113500  1
  Pd  Pd2  1  0.75000000  0.37500000  0.87500000  1
  Ru  Ru3  1  0.25000000  0.37500000  0.37500000  1
  Ru  Ru4  1  0.25000000  0.87500000  0.37500000  1
  Ru  Ru5  1  0.75000000  0.37500000  0.37500000  1
