# generated using pymatgen
data_Na3TbTi2Nb2O12
_symmetry_space_group_name_H-M   'P 1'
_cell_length_a   5.44402300
_cell_length_b   5.59471136
_cell_length_c   7.78116526
_cell_angle_alpha   89.86383129
_cell_angle_beta   89.93146152
_cell_angle_gamma   89.26657664
_symmetry_Int_Tables_number   1
_chemical_formula_structural   Na3TbTi2Nb2O12
_chemical_formula_sum   'Na3 Tb1 Ti2 Nb2 O12'
_cell_volume   236.97644082
_cell_formula_units_Z   1
loop_
 _symmetry_equiv_pos_site_id
 _symmetry_equiv_pos_as_xyz
  1  'x, y, z'
loop_
 _atom_site_type_symbol
 _atom_site_label
 _atom_site_symmetry_multiplicity
 _atom_site_fract_x
 _atom_site_fract_y
 _atom_site_fract_z
 _atom_site_occupancy
  Na  Na0  1  0.49139200  0.52858400  0.74853300  1
  Na  Na1  1  0.00400500  0.01948200  0.74965900  1
  Na  Na2  1  0.50766300  0.46458600  0.25013500  1
  Tb  Tb3  1  0.99136000  0.93519100  0.25018800  1
  Ti  Ti4  1  0.48999800  0.98156800  0.00898200  1
  Ti  Ti5  1  0.00432500  0.47544700  0.49225400  1
  Nb  Nb6  1  0.49442300  0.99251200  0.51238700  1
  Nb  Nb7  1  0.00351200  0.47680900  0.98762000  1
  O  O8  1  0.20487300  0.80364900  0.97732500  1
  O  O9  1  0.29251200  0.30298900  0.53639500  1
  O  O10  1  0.80384400  0.21174400  0.44703300  1
  O  O11  1  0.71927400  0.73454900  0.05283700  1
  O  O12  1  0.80103700  0.20964700  0.05365000  1
  O  O13  1  0.72303400  0.73248200  0.44797700  1
  O  O14  1  0.20307300  0.80230000  0.52396900  1
  O  O15  1  0.29929000  0.29952900  0.96130500  1
  O  O16  1  0.56636900  0.98299200  0.75333000  1
  O  O17  1  0.91901200  0.48784700  0.74695500  1
  O  O18  1  0.40463500  0.02945600  0.24622100  1
  O  O19  1  0.07637100  0.52863600  0.25324400  1
