# generated using pymatgen
data_Ni2P2(SeS)3
_symmetry_space_group_name_H-M   'P 1'
_cell_length_a   5.97154900
_cell_length_b   6.00990883
_cell_length_c   6.99547722
_cell_angle_alpha   82.04836425
_cell_angle_beta   106.61426082
_cell_angle_gamma   119.46965531
_symmetry_Int_Tables_number   1
_chemical_formula_structural   Ni2P2(SeS)3
_chemical_formula_sum   'Ni2 P2 Se3 S3'
_cell_volume   209.44830360
_cell_formula_units_Z   1
loop_
 _symmetry_equiv_pos_site_id
 _symmetry_equiv_pos_as_xyz
  1  'x, y, z'
loop_
 _atom_site_type_symbol
 _atom_site_label
 _atom_site_symmetry_multiplicity
 _atom_site_fract_x
 _atom_site_fract_y
 _atom_site_fract_z
 _atom_site_occupancy
  Ni  Ni0  1  0.33177400  0.67132000  0.99555300  1
  Ni  Ni1  1  0.66529300  0.32291000  0.99479600  1
  P  P2  1  0.95571900  0.01057100  0.83761600  1
  P  P3  1  0.04393700  0.00044300  0.16438500  1
  Se  Se4  1  0.57059900  0.64948400  0.75792400  1
  Se  Se5  1  0.07600300  0.64250300  0.23841200  1
  Se  Se6  1  0.43514600  0.35641000  0.23945500  1
  S  S7  1  0.27021000  0.00285100  0.77762200  1
  S  S8  1  0.72211700  0.99972100  0.21836700  1
  S  S9  1  0.92920200  0.34378600  0.77586900  1
