# generated using pymatgen
data_NaTi2BiO6
_symmetry_space_group_name_H-M   'P 1'
_cell_length_a   5.47688318
_cell_length_b   5.47688318
_cell_length_c   4.23080900
_cell_angle_alpha   90.00000000
_cell_angle_beta   90.00000000
_cell_angle_gamma   90.64439837
_symmetry_Int_Tables_number   1
_chemical_formula_structural   NaTi2BiO6
_chemical_formula_sum   'Na1 Ti2 Bi1 O6'
_cell_volume   126.90037525
_cell_formula_units_Z   1
loop_
 _symmetry_equiv_pos_site_id
 _symmetry_equiv_pos_as_xyz
  1  'x, y, z'
loop_
 _atom_site_type_symbol
 _atom_site_label
 _atom_site_symmetry_multiplicity
 _atom_site_fract_x
 _atom_site_fract_y
 _atom_site_fract_z
 _atom_site_occupancy
  Na  Na0  1  0.00000000  0.00000000  0.56501600  1
  Ti  Ti1  1  0.50000000  0.00000000  0.02279300  1
  Ti  Ti2  1  0.00000000  0.50000000  0.02279300  1
  Bi  Bi3  1  0.50000000  0.50000000  0.61136600  1
  O  O4  1  0.50000000  0.00000000  0.44041500  1
  O  O5  1  0.00000000  0.50000000  0.44041500  1
  O  O6  1  0.73352200  0.73352200  0.93723300  1
  O  O7  1  0.26647800  0.26647800  0.93723300  1
  O  O8  1  0.75069400  0.24930600  0.92136800  1
  O  O9  1  0.24930600  0.75069400  0.92136800  1
