# generated using pymatgen
data_NaScTiO4
_symmetry_space_group_name_H-M   'P 1'
_cell_length_a   3.06786800
_cell_length_b   9.42018100
_cell_length_c   11.02675200
_cell_angle_alpha   90.00000000
_cell_angle_beta   90.00000000
_cell_angle_gamma   90.00000000
_symmetry_Int_Tables_number   1
_chemical_formula_structural   NaScTiO4
_chemical_formula_sum   'Na4 Sc4 Ti4 O16'
_cell_volume   318.67171966
_cell_formula_units_Z   4
loop_
 _symmetry_equiv_pos_site_id
 _symmetry_equiv_pos_as_xyz
  1  'x, y, z'
loop_
 _atom_site_type_symbol
 _atom_site_label
 _atom_site_symmetry_multiplicity
 _atom_site_fract_x
 _atom_site_fract_y
 _atom_site_fract_z
 _atom_site_occupancy
  Na  Na0  1  0.50000000  0.25500100  0.89992300  1
  Na  Na1  1  0.50000000  0.75500100  0.10007700  1
  Na  Na2  1  0.00000000  0.74268300  0.59795000  1
  Na  Na3  1  0.00000000  0.24268300  0.40205000  1
  Sc  Sc4  1  0.50000000  0.42793500  0.13990800  1
  Sc  Sc5  1  0.50000000  0.92793500  0.86009200  1
  Sc  Sc6  1  0.50000000  0.42120600  0.64377700  1
  Sc  Sc7  1  0.50000000  0.92120600  0.35622300  1
  Ti  Ti8  1  0.00000000  0.56241800  0.36182500  1
  Ti  Ti9  1  0.00000000  0.06241800  0.63817500  1
  Ti  Ti10  1  0.00000000  0.58033200  0.85437000  1
  Ti  Ti11  1  0.00000000  0.08033200  0.14563000  1
  O  O12  1  0.50000000  0.19730900  0.60170800  1
  O  O13  1  0.50000000  0.69730900  0.39829200  1
  O  O14  1  0.00000000  0.78358400  0.90447100  1
  O  O15  1  0.00000000  0.28358400  0.09552900  1
  O  O16  1  0.50000000  0.12175200  0.26126700  1
  O  O17  1  0.50000000  0.62175200  0.73873300  1
  O  O18  1  0.00000000  0.89538700  0.22618300  1
  O  O19  1  0.00000000  0.39538700  0.77381700  1
  O  O20  1  0.50000000  0.42714300  0.33057200  1
  O  O21  1  0.50000000  0.92714300  0.66942800  1
  O  O22  1  0.00000000  0.57489000  0.18653800  1
  O  O23  1  0.00000000  0.07489000  0.81346200  1
  O  O24  1  0.50000000  0.02650200  0.03824400  1
  O  O25  1  0.50000000  0.52650200  0.96175600  1
  O  O26  1  0.00000000  0.98385800  0.47215500  1
  O  O27  1  0.00000000  0.48385800  0.52784500  1
