# generated using pymatgen
data_NaHf8(NCl)8
_symmetry_space_group_name_H-M   'P 1'
_cell_length_a   3.63272800
_cell_length_b   6.23039700
_cell_length_c   19.81168794
_cell_angle_alpha   84.17737463
_cell_angle_beta   90.00000000
_cell_angle_gamma   90.00000000
_symmetry_Int_Tables_number   1
_chemical_formula_structural   NaHf8(NCl)8
_chemical_formula_sum   'Na1 Hf8 N8 Cl8'
_cell_volume   446.09117961
_cell_formula_units_Z   1
loop_
 _symmetry_equiv_pos_site_id
 _symmetry_equiv_pos_as_xyz
  1  'x, y, z'
loop_
 _atom_site_type_symbol
 _atom_site_label
 _atom_site_symmetry_multiplicity
 _atom_site_fract_x
 _atom_site_fract_y
 _atom_site_fract_z
 _atom_site_occupancy
  Na  Na0  1  0.00000000  0.00000000  0.00000000  1
  Hf  Hf1  1  0.50000000  0.60662500  0.67876500  1
  Hf  Hf2  1  0.00000000  0.10553800  0.67928800  1
  Hf  Hf3  1  0.50000000  0.39337500  0.32123500  1
  Hf  Hf4  1  0.00000000  0.89446200  0.32071200  1
  Hf  Hf5  1  0.00000000  0.40020300  0.80648700  1
  Hf  Hf6  1  0.50000000  0.89748500  0.80777500  1
  Hf  Hf7  1  0.00000000  0.59979700  0.19351300  1
  Hf  Hf8  1  0.50000000  0.10251500  0.19222500  1
  N  N9  1  0.50000000  0.56818200  0.78978100  1
  N  N10  1  0.00000000  0.06999900  0.79038200  1
  N  N11  1  0.50000000  0.43181800  0.21021900  1
  N  N12  1  0.00000000  0.93000100  0.20961800  1
  N  N13  1  0.00000000  0.43436100  0.69998000  1
  N  N14  1  0.50000000  0.93418600  0.70055500  1
  N  N15  1  0.00000000  0.56563900  0.30002000  1
  N  N16  1  0.50000000  0.06581400  0.29944500  1
  Cl  Cl17  1  0.50000000  0.80286500  0.09064900  1
  Cl  Cl18  1  0.00000000  0.30292300  0.09282300  1
  Cl  Cl19  1  0.50000000  0.19713500  0.90935100  1
  Cl  Cl20  1  0.00000000  0.69707700  0.90717700  1
  Cl  Cl21  1  0.50000000  0.69564700  0.41302000  1
  Cl  Cl22  1  0.00000000  0.19547900  0.41306900  1
  Cl  Cl23  1  0.50000000  0.30435300  0.58698000  1
  Cl  Cl24  1  0.00000000  0.80452100  0.58693100  1
