# generated using pymatgen
data_NaNbWO7
_symmetry_space_group_name_H-M   'P 1'
_cell_length_a   7.44118754
_cell_length_b   7.44118754
_cell_length_c   7.44118754
_cell_angle_alpha   119.57269667
_cell_angle_beta   119.51534209
_cell_angle_gamma   90.79161995
_symmetry_Int_Tables_number   1
_chemical_formula_structural   NaNbWO7
_chemical_formula_sum   'Na2 Nb2 W2 O14'
_cell_volume   293.32541653
_cell_formula_units_Z   2
loop_
 _symmetry_equiv_pos_site_id
 _symmetry_equiv_pos_as_xyz
  1  'x, y, z'
loop_
 _atom_site_type_symbol
 _atom_site_label
 _atom_site_symmetry_multiplicity
 _atom_site_fract_x
 _atom_site_fract_y
 _atom_site_fract_z
 _atom_site_occupancy
  Na  Na0  1  0.00000000  0.50000000  0.50000000  1
  Na  Na1  1  0.50000000  0.50000000  0.00000000  1
  Nb  Nb2  1  0.00000000  0.50000000  0.00000000  1
  Nb  Nb3  1  0.00000000  0.00000000  0.50000000  1
  W  W4  1  0.50000000  0.00000000  0.50000000  1
  W  W5  1  0.00000000  0.00000000  0.00000000  1
  O  O6  1  0.61928500  0.36928500  0.25000000  1
  O  O7  1  0.38071500  0.63071500  0.75000000  1
  O  O8  1  0.31568800  0.06217000  0.62125600  1
  O  O9  1  0.31568800  0.69443200  0.25351700  1
  O  O10  1  0.30705900  0.05705900  0.25000000  1
  O  O11  1  0.94091500  0.69443200  0.87874400  1
  O  O12  1  0.94091500  0.06217000  0.24648300  1
  O  O13  1  0.92961100  0.67961100  0.25000000  1
  O  O14  1  0.68431200  0.93783000  0.37874400  1
  O  O15  1  0.68431200  0.30556800  0.74648300  1
  O  O16  1  0.69294100  0.94294100  0.75000000  1
  O  O17  1  0.05908500  0.30556800  0.12125600  1
  O  O18  1  0.05908500  0.93783000  0.75351700  1
  O  O19  1  0.07038900  0.32038900  0.75000000  1
