# generated using pymatgen
data_NdFe6Bi(BO3)8
_symmetry_space_group_name_H-M   'P 1'
_cell_length_a   7.51279340
_cell_length_b   7.51279340
_cell_length_c   7.51279317
_cell_angle_alpha   79.55827528
_cell_angle_beta   79.55827528
_cell_angle_gamma   79.55827642
_symmetry_Int_Tables_number   1
_chemical_formula_structural   NdFe6Bi(BO3)8
_chemical_formula_sum   'Nd1 Fe6 Bi1 B8 O24'
_cell_volume   405.25370371
_cell_formula_units_Z   1
loop_
 _symmetry_equiv_pos_site_id
 _symmetry_equiv_pos_as_xyz
  1  'x, y, z'
loop_
 _atom_site_type_symbol
 _atom_site_label
 _atom_site_symmetry_multiplicity
 _atom_site_fract_x
 _atom_site_fract_y
 _atom_site_fract_z
 _atom_site_occupancy
  Nd  Nd0  1  0.00000000  0.00000000  0.00000000  1
  Fe  Fe1  1  0.44549100  0.00000000  0.55450900  1
  Fe  Fe2  1  0.94789100  0.50000000  0.05210900  1
  Fe  Fe3  1  0.00000000  0.55450900  0.44549100  1
  Fe  Fe4  1  0.50000000  0.05210900  0.94789100  1
  Fe  Fe5  1  0.05210900  0.94789100  0.50000000  1
  Fe  Fe6  1  0.55450900  0.44549100  0.00000000  1
  Bi  Bi7  1  0.50000000  0.50000000  0.50000000  1
  B  B8  1  0.25403200  0.25403200  0.25403200  1
  B  B9  1  0.74596800  0.74596800  0.74596800  1
  B  B10  1  0.80544800  0.25375300  0.69523300  1
  B  B11  1  0.30476700  0.74624700  0.19455200  1
  B  B12  1  0.25375300  0.69523300  0.80544800  1
  B  B13  1  0.74624700  0.19455200  0.30476700  1
  B  B14  1  0.69523300  0.80544800  0.25375300  1
  B  B15  1  0.19455200  0.30476700  0.74624700  1
  O  O16  1  0.66199700  0.25399300  0.84152700  1
  O  O17  1  0.15847300  0.74600700  0.33800300  1
  O  O18  1  0.25399300  0.84152700  0.66199700  1
  O  O19  1  0.74600700  0.33800300  0.15847300  1
  O  O20  1  0.84152700  0.66199700  0.25399300  1
  O  O21  1  0.33800300  0.15847300  0.74600700  1
  O  O22  1  0.93205000  0.09647100  0.69295800  1
  O  O23  1  0.43623300  0.59270900  0.19001500  1
  O  O24  1  0.09647100  0.69295800  0.93205000  1
  O  O25  1  0.59270900  0.19001500  0.43623300  1
  O  O26  1  0.69295800  0.93205000  0.09647100  1
  O  O27  1  0.19001500  0.43623300  0.59270900  1
  O  O28  1  0.80998500  0.40729100  0.56376700  1
  O  O29  1  0.30704200  0.90352900  0.06795000  1
  O  O30  1  0.56376700  0.80998500  0.40729100  1
  O  O31  1  0.06795000  0.30704200  0.90352900  1
  O  O32  1  0.40729100  0.56376700  0.80998500  1
  O  O33  1  0.90352900  0.06795000  0.30704200  1
  O  O34  1  0.39612800  0.25468100  0.10638000  1
  O  O35  1  0.89362000  0.74531900  0.60387200  1
  O  O36  1  0.25468100  0.10638000  0.39612800  1
  O  O37  1  0.74531900  0.60387200  0.89362000  1
  O  O38  1  0.10638000  0.39612800  0.25468100  1
  O  O39  1  0.60387200  0.89362000  0.74531900  1
