# generated using pymatgen
data_NaSr2(FeAs)6
_symmetry_space_group_name_H-M   'P 1'
_cell_length_a   8.58585000
_cell_length_b   8.58585000
_cell_length_c   6.51737242
_cell_angle_alpha   70.27013352
_cell_angle_beta   70.27013352
_cell_angle_gamma   37.47350279
_symmetry_Int_Tables_number   1
_chemical_formula_structural   NaSr2(FeAs)6
_chemical_formula_sum   'Na1 Sr2 Fe6 As6'
_cell_volume   273.09422499
_cell_formula_units_Z   1
loop_
 _symmetry_equiv_pos_site_id
 _symmetry_equiv_pos_as_xyz
  1  'x, y, z'
loop_
 _atom_site_type_symbol
 _atom_site_label
 _atom_site_symmetry_multiplicity
 _atom_site_fract_x
 _atom_site_fract_y
 _atom_site_fract_z
 _atom_site_occupancy
  Na  Na0  1  0.00000000  0.00000000  0.00000000  1
  Sr  Sr1  1  0.66298500  0.66298500  0.67469300  1
  Sr  Sr2  1  0.33701500  0.33701500  0.32530700  1
  Fe  Fe3  1  0.08332400  0.58322700  0.83176400  1
  Fe  Fe4  1  0.41677300  0.91667600  0.16823600  1
  Fe  Fe5  1  0.75029600  0.24970400  0.50000000  1
  Fe  Fe6  1  0.24970400  0.75029600  0.50000000  1
  Fe  Fe7  1  0.58322700  0.08332400  0.83176400  1
  Fe  Fe8  1  0.91667600  0.41677300  0.16823600  1
  As  As9  1  0.88023600  0.88023600  0.52564600  1
  As  As10  1  0.21477900  0.21477900  0.86131800  1
  As  As11  1  0.54908600  0.54908600  0.18964300  1
  As  As12  1  0.45091400  0.45091400  0.81035700  1
  As  As13  1  0.78522100  0.78522100  0.13868200  1
  As  As14  1  0.11976400  0.11976400  0.47435400  1
