# generated using pymatgen
data_Nd(SmSb)3
_symmetry_space_group_name_H-M   'P 1'
_cell_length_a   8.16468434
_cell_length_b   8.16468434
_cell_length_c   8.15253598
_cell_angle_alpha   70.53407692
_cell_angle_beta   70.53407692
_cell_angle_gamma   109.53868672
_symmetry_Int_Tables_number   1
_chemical_formula_structural   Nd(SmSb)3
_chemical_formula_sum   'Nd2 Sm6 Sb6'
_cell_volume   418.06543769
_cell_formula_units_Z   2
loop_
 _symmetry_equiv_pos_site_id
 _symmetry_equiv_pos_as_xyz
  1  'x, y, z'
loop_
 _atom_site_type_symbol
 _atom_site_label
 _atom_site_symmetry_multiplicity
 _atom_site_fract_x
 _atom_site_fract_y
 _atom_site_fract_z
 _atom_site_occupancy
  Nd  Nd0  1  0.49996800  0.64196600  0.99991500  1
  Nd  Nd1  1  0.64196600  0.49996800  0.49991500  1
  Sm  Sm2  1  0.14275300  0.49956100  0.49979800  1
  Sm  Sm3  1  0.99955800  0.99923800  0.85808600  1
  Sm  Sm4  1  0.35802800  0.85743700  0.64235900  1
  Sm  Sm5  1  0.49956100  0.14275300  0.99979800  1
  Sm  Sm6  1  0.99923800  0.99955800  0.35808600  1
  Sm  Sm7  1  0.85743700  0.35802800  0.14235900  1
  Sb  Sb8  1  0.62597000  0.87856800  0.24916600  1
  Sb  Sb9  1  0.87856800  0.62597000  0.74916600  1
  Sb  Sb10  1  0.37323200  0.24672100  0.37615700  1
  Sb  Sb11  1  0.12568800  0.75131100  0.12452000  1
  Sb  Sb12  1  0.75131100  0.12568800  0.62452000  1
  Sb  Sb13  1  0.24672100  0.37323200  0.87615700  1
