# generated using pymatgen
data_NaLaScNbO6
_symmetry_space_group_name_H-M   'P 1'
_cell_length_a   5.69240413
_cell_length_b   5.69240413
_cell_length_c   8.13016686
_cell_angle_alpha   89.72470722
_cell_angle_beta   89.72470722
_cell_angle_gamma   90.65402142
_symmetry_Int_Tables_number   1
_chemical_formula_structural   NaLaScNbO6
_chemical_formula_sum   'Na2 La2 Sc2 Nb2 O12'
_cell_volume   263.42226029
_cell_formula_units_Z   2
loop_
 _symmetry_equiv_pos_site_id
 _symmetry_equiv_pos_as_xyz
  1  'x, y, z'
loop_
 _atom_site_type_symbol
 _atom_site_label
 _atom_site_symmetry_multiplicity
 _atom_site_fract_x
 _atom_site_fract_y
 _atom_site_fract_z
 _atom_site_occupancy
  Na  Na0  1  0.73545400  0.26454600  0.00000000  1
  Na  Na1  1  0.26454600  0.73545400  0.00000000  1
  La  La2  1  0.74243000  0.25757000  0.50000000  1
  La  La3  1  0.25757000  0.74243000  0.50000000  1
  Sc  Sc4  1  0.75571700  0.75571700  0.24690600  1
  Sc  Sc5  1  0.24428300  0.24428300  0.75309400  1
  Nb  Nb6  1  0.74787900  0.74787900  0.76330100  1
  Nb  Nb7  1  0.25212100  0.25212100  0.23669900  1
  O  O8  1  0.49815500  0.00988000  0.27870200  1
  O  O9  1  0.00988000  0.49815500  0.27870200  1
  O  O10  1  0.50184500  0.99012000  0.72129800  1
  O  O11  1  0.99012000  0.50184500  0.72129800  1
  O  O12  1  0.80335300  0.80335300  0.99169700  1
  O  O13  1  0.19664700  0.19664700  0.00830300  1
  O  O14  1  0.00847100  0.00847100  0.31888100  1
  O  O15  1  0.99152900  0.99152900  0.68111900  1
  O  O16  1  0.68531000  0.68531000  0.49976800  1
  O  O17  1  0.31469000  0.31469000  0.50023200  1
  O  O18  1  0.49651100  0.49651100  0.20475000  1
  O  O19  1  0.50348900  0.50348900  0.79525000  1
