# generated using pymatgen
data_NdFe5Bi4O15
_symmetry_space_group_name_H-M   'P 1'
_cell_length_a   3.75528876
_cell_length_b   22.07687924
_cell_length_c   4.89426159
_cell_angle_alpha   88.00459171
_cell_angle_beta   91.01804529
_cell_angle_gamma   120.78336180
_symmetry_Int_Tables_number   1
_chemical_formula_structural   NdFe5Bi4O15
_chemical_formula_sum   'Nd1 Fe5 Bi4 O15'
_cell_volume   348.37967735
_cell_formula_units_Z   1
loop_
 _symmetry_equiv_pos_site_id
 _symmetry_equiv_pos_as_xyz
  1  'x, y, z'
loop_
 _atom_site_type_symbol
 _atom_site_label
 _atom_site_symmetry_multiplicity
 _atom_site_fract_x
 _atom_site_fract_y
 _atom_site_fract_z
 _atom_site_occupancy
  Nd  Nd0  1  0.60405200  0.19577700  0.02663900  1
  Fe  Fe1  1  0.80693100  0.09485300  0.48342600  1
  Fe  Fe2  1  0.38987400  0.28934900  0.47504400  1
  Fe  Fe3  1  0.00016500  0.49217400  0.48712200  1
  Fe  Fe4  1  0.59645000  0.69139300  0.48234800  1
  Fe  Fe5  1  0.19458200  0.89066300  0.48320000  1
  Bi  Bi6  1  0.00003600  0.99733300  0.06917700  1
  Bi  Bi7  1  0.20633100  0.39929800  0.06716600  1
  Bi  Bi8  1  0.78334500  0.59822200  0.05383500  1
  Bi  Bi9  1  0.37816900  0.79769600  0.05159300  1
  O  O10  1  0.28607800  0.08847200  0.33987800  1
  O  O11  1  0.90594000  0.29525000  0.33119500  1
  O  O12  1  0.49934100  0.49250100  0.33756600  1
  O  O13  1  0.09667000  0.69197200  0.33346200  1
  O  O14  1  0.69840400  0.89255100  0.33179700  1
  O  O15  1  0.09743900  0.19159100  0.34399500  1
  O  O16  1  0.70172400  0.39313400  0.33869600  1
  O  O17  1  0.30039700  0.59258800  0.33791100  1
  O  O18  1  0.89892000  0.79229700  0.33843900  1
  O  O19  1  0.49567800  0.99168400  0.33550800  1
  O  O20  1  0.82982400  0.10103000  0.86402700  1
  O  O21  1  0.34232300  0.27343100  0.85290900  1
  O  O22  1  0.00862800  0.48881800  0.86454800  1
  O  O23  1  0.61359200  0.68704200  0.86132100  1
  O  O24  1  0.19510500  0.88388000  0.86069600  1
