# generated using pymatgen
data_NiAg2Sn3S8
_symmetry_space_group_name_H-M   'P 1'
_cell_length_a   7.11975400
_cell_length_b   7.74613663
_cell_length_c   7.95685369
_cell_angle_alpha   94.21466960
_cell_angle_beta   109.87862557
_cell_angle_gamma   116.59918872
_symmetry_Int_Tables_number   1
_chemical_formula_structural   NiAg2Sn3S8
_chemical_formula_sum   'Ni1 Ag2 Sn3 S8'
_cell_volume   355.45487457
_cell_formula_units_Z   1
loop_
 _symmetry_equiv_pos_site_id
 _symmetry_equiv_pos_as_xyz
  1  'x, y, z'
loop_
 _atom_site_type_symbol
 _atom_site_label
 _atom_site_symmetry_multiplicity
 _atom_site_fract_x
 _atom_site_fract_y
 _atom_site_fract_z
 _atom_site_occupancy
  Ni  Ni0  1  0.50000000  0.00000000  0.00000000  1
  Ag  Ag1  1  0.50000000  0.00000000  0.50000000  1
  Ag  Ag2  1  0.00000000  0.50000000  0.00000000  1
  Sn  Sn3  1  0.25620100  0.45044000  0.58433700  1
  Sn  Sn4  1  0.74379900  0.54956000  0.41566300  1
  Sn  Sn5  1  0.00000000  0.00000000  0.00000000  1
  S  S6  1  0.14430300  0.65209300  0.36739900  1
  S  S7  1  0.30771000  0.13101600  0.84677700  1
  S  S8  1  0.63644000  0.31978500  0.05584700  1
  S  S9  1  0.73192900  0.81480800  0.67980300  1
  S  S10  1  0.85569700  0.34790700  0.63260100  1
  S  S11  1  0.69229000  0.86898400  0.15322300  1
  S  S12  1  0.36356000  0.68021500  0.94415300  1
  S  S13  1  0.26807100  0.18519200  0.32019700  1
