# generated using pymatgen
data_Nd2Y
_symmetry_space_group_name_H-M   'P 1'
_cell_length_a   9.21347113
_cell_length_b   9.21347113
_cell_length_c   9.21347118
_cell_angle_alpha   22.83277481
_cell_angle_beta   22.83277481
_cell_angle_gamma   22.83277076
_symmetry_Int_Tables_number   1
_chemical_formula_structural   Nd2Y
_chemical_formula_sum   'Nd2 Y1'
_cell_volume   103.33962007
_cell_formula_units_Z   1
loop_
 _symmetry_equiv_pos_site_id
 _symmetry_equiv_pos_as_xyz
  1  'x, y, z'
loop_
 _atom_site_type_symbol
 _atom_site_label
 _atom_site_symmetry_multiplicity
 _atom_site_fract_x
 _atom_site_fract_y
 _atom_site_fract_z
 _atom_site_occupancy
  Nd  Nd0  1  0.77563800  0.77563800  0.77563800  1
  Nd  Nd1  1  0.22436200  0.22436200  0.22436200  1
  Y  Y2  1  0.00000000  0.00000000  0.00000000  1
