# generated using pymatgen
data_NaNi4(PO4)3
_symmetry_space_group_name_H-M   'P 1'
_cell_length_a   6.41321600
_cell_length_b   8.13885607
_cell_length_c   9.95577200
_cell_angle_alpha   90.00000000
_cell_angle_beta   90.00000000
_cell_angle_gamma   66.79715462
_symmetry_Int_Tables_number   1
_chemical_formula_structural   NaNi4(PO4)3
_chemical_formula_sum   'Na2 Ni8 P6 O24'
_cell_volume   477.62208233
_cell_formula_units_Z   2
loop_
 _symmetry_equiv_pos_site_id
 _symmetry_equiv_pos_as_xyz
  1  'x, y, z'
loop_
 _atom_site_type_symbol
 _atom_site_label
 _atom_site_symmetry_multiplicity
 _atom_site_fract_x
 _atom_site_fract_y
 _atom_site_fract_z
 _atom_site_occupancy
  Na  Na0  1  0.97302100  0.05395700  0.75103800  1
  Na  Na1  1  0.02697900  0.94604300  0.25103800  1
  Ni  Ni2  1  0.62942000  0.74116100  0.05996400  1
  Ni  Ni3  1  0.37408400  0.25183100  0.94025900  1
  Ni  Ni4  1  0.62591600  0.74816900  0.44025900  1
  Ni  Ni5  1  0.37058000  0.25883900  0.55996400  1
  Ni  Ni6  1  0.94607200  0.59938200  0.75041900  1
  Ni  Ni7  1  0.54545400  0.40061800  0.25041900  1
  Ni  Ni8  1  0.05392800  0.40061800  0.25041900  1
  Ni  Ni9  1  0.45454600  0.59938200  0.75041900  1
  P  P10  1  0.81403300  0.37193400  0.53276500  1
  P  P11  1  0.18597700  0.62804700  0.46648000  1
  P  P12  1  0.81402300  0.37195300  0.96648000  1
  P  P13  1  0.18596700  0.62806600  0.03276500  1
  P  P14  1  0.47675200  0.04649700  0.20440000  1
  P  P15  1  0.52324800  0.95350300  0.70440000  1
  O  O16  1  0.21572500  0.56855000  0.87945100  1
  O  O17  1  0.78359500  0.43281100  0.11983600  1
  O  O18  1  0.21640500  0.56718900  0.61983600  1
  O  O19  1  0.78427500  0.43145000  0.37945100  1
  O  O20  1  0.72050600  0.55898700  0.61241600  1
  O  O21  1  0.28010200  0.43979600  0.38770800  1
  O  O22  1  0.71989800  0.56020400  0.88770800  1
  O  O23  1  0.27949400  0.44101300  0.11241600  1
  O  O24  1  0.36870500  0.85907600  0.75269700  1
  O  O25  1  0.22778100  0.14092400  0.25269700  1
  O  O26  1  0.63129500  0.14092400  0.25269700  1
  O  O27  1  0.77221900  0.85907600  0.75269700  1
  O  O28  1  0.42428600  0.15142800  0.75269100  1
  O  O29  1  0.57571400  0.84857200  0.25269100  1
  O  O30  1  0.67360800  0.26772500  0.92842900  1
  O  O31  1  0.94081800  0.73288100  0.07068700  1
  O  O32  1  0.67369900  0.26711900  0.57068700  1
  O  O33  1  0.94133300  0.73227500  0.42842900  1
  O  O34  1  0.32630100  0.73288100  0.07068700  1
  O  O35  1  0.05866700  0.26772500  0.92842900  1
  O  O36  1  0.32639200  0.73227500  0.42842900  1
  O  O37  1  0.05918200  0.26711900  0.57068700  1
  O  O38  1  0.51216400  0.97567200  0.54832800  1
  O  O39  1  0.48783600  0.02432800  0.04832800  1
