# generated using pymatgen
data_NdEr3Fe34
_symmetry_space_group_name_H-M   'P 1'
_cell_length_a   8.24254400
_cell_length_b   8.49786564
_cell_length_c   8.49786564
_cell_angle_alpha   119.99256976
_cell_angle_beta   90.00000000
_cell_angle_gamma   90.00000000
_symmetry_Int_Tables_number   1
_chemical_formula_structural   NdEr3Fe34
_chemical_formula_sum   'Nd1 Er3 Fe34'
_cell_volume   515.51836067
_cell_formula_units_Z   1
loop_
 _symmetry_equiv_pos_site_id
 _symmetry_equiv_pos_as_xyz
  1  'x, y, z'
loop_
 _atom_site_type_symbol
 _atom_site_label
 _atom_site_symmetry_multiplicity
 _atom_site_fract_x
 _atom_site_fract_y
 _atom_site_fract_z
 _atom_site_occupancy
  Nd  Nd0  1  0.25000000  0.66663400  0.33336600  1
  Er  Er1  1  0.75000000  0.33326300  0.66673700  1
  Er  Er2  1  0.75000000  0.00004700  0.99995300  1
  Er  Er3  1  0.25000000  0.00001200  0.99998800  1
  Fe  Fe4  1  0.48468800  0.83496000  0.66997000  1
  Fe  Fe5  1  0.48463000  0.83499800  0.16500200  1
  Fe  Fe6  1  0.48468800  0.33003000  0.16504000  1
  Fe  Fe7  1  0.51725100  0.16596300  0.33184400  1
  Fe  Fe8  1  0.51725900  0.16590800  0.83409200  1
  Fe  Fe9  1  0.51725100  0.66815600  0.83403700  1
  Fe  Fe10  1  0.98274900  0.16596300  0.33184400  1
  Fe  Fe11  1  0.98274100  0.16590800  0.83409200  1
  Fe  Fe12  1  0.98274900  0.66815600  0.83403700  1
  Fe  Fe13  1  0.01531200  0.83496000  0.66997000  1
  Fe  Fe14  1  0.01537000  0.83499800  0.16500200  1
  Fe  Fe15  1  0.01531200  0.33003000  0.16504000  1
  Fe  Fe16  1  0.75000000  0.67126600  0.04017800  1
  Fe  Fe17  1  0.75000000  0.36896600  0.32877400  1
  Fe  Fe18  1  0.75000000  0.95974900  0.63106700  1
  Fe  Fe19  1  0.75000000  0.36893300  0.04025100  1
  Fe  Fe20  1  0.75000000  0.95982200  0.32873400  1
  Fe  Fe21  1  0.75000000  0.67122600  0.63103400  1
  Fe  Fe22  1  0.25000000  0.32751000  0.95792100  1
  Fe  Fe23  1  0.25000000  0.63037700  0.67244700  1
  Fe  Fe24  1  0.25000000  0.04213800  0.36960400  1
  Fe  Fe25  1  0.25000000  0.63039600  0.95786200  1
  Fe  Fe26  1  0.25000000  0.04207900  0.67249000  1
  Fe  Fe27  1  0.25000000  0.32755300  0.36962300  1
  Fe  Fe28  1  0.60737500  0.66666600  0.33333400  1
  Fe  Fe29  1  0.39409200  0.33333900  0.66666100  1
  Fe  Fe30  1  0.10590800  0.33333900  0.66666100  1
  Fe  Fe31  1  0.89262500  0.66666600  0.33333400  1
  Fe  Fe32  1  0.50118500  0.49921600  0.99844000  1
  Fe  Fe33  1  0.50120400  0.49921900  0.50078100  1
  Fe  Fe34  1  0.50118500  0.00156000  0.50078400  1
  Fe  Fe35  1  0.99881500  0.49921600  0.99844000  1
  Fe  Fe36  1  0.99879600  0.49921900  0.50078100  1
  Fe  Fe37  1  0.99881500  0.00156000  0.50078400  1
