# generated using pymatgen
data_NaDyTi2O6
_symmetry_space_group_name_H-M   'P 1'
_cell_length_a   5.33060300
_cell_length_b   5.54139600
_cell_length_c   7.63665800
_cell_angle_alpha   90.00000000
_cell_angle_beta   90.00000000
_cell_angle_gamma   90.00000000
_symmetry_Int_Tables_number   1
_chemical_formula_structural   NaDyTi2O6
_chemical_formula_sum   'Na2 Dy2 Ti4 O12'
_cell_volume   225.57910428
_cell_formula_units_Z   2
loop_
 _symmetry_equiv_pos_site_id
 _symmetry_equiv_pos_as_xyz
  1  'x, y, z'
loop_
 _atom_site_type_symbol
 _atom_site_label
 _atom_site_symmetry_multiplicity
 _atom_site_fract_x
 _atom_site_fract_y
 _atom_site_fract_z
 _atom_site_occupancy
  Na  Na0  1  0.49474800  0.71681300  0.50000000  1
  Na  Na1  1  0.99474800  0.28318700  0.00000000  1
  Dy  Dy2  1  0.01768200  0.18014200  0.50000000  1
  Dy  Dy3  1  0.51768200  0.81985800  0.00000000  1
  Ti  Ti4  1  0.51184400  0.26457200  0.75246900  1
  Ti  Ti5  1  0.01184400  0.73542800  0.25246900  1
  Ti  Ti6  1  0.51184400  0.26457200  0.24753100  1
  Ti  Ti7  1  0.01184400  0.73542800  0.74753100  1
  O  O8  1  0.92259200  0.77371100  0.50000000  1
  O  O9  1  0.60150400  0.27540200  0.50000000  1
  O  O10  1  0.10150400  0.72459800  0.00000000  1
  O  O11  1  0.42259200  0.22628900  0.00000000  1
  O  O12  1  0.19176300  0.44600200  0.69787800  1
  O  O13  1  0.27813000  0.96463500  0.29101800  1
  O  O14  1  0.77813000  0.03536500  0.20898200  1
  O  O15  1  0.69176300  0.55399800  0.80212200  1
  O  O16  1  0.77813000  0.03536500  0.79101800  1
  O  O17  1  0.69176300  0.55399800  0.19787800  1
  O  O18  1  0.19176300  0.44600200  0.30212200  1
  O  O19  1  0.27813000  0.96463500  0.70898200  1
