# generated using pymatgen
data_NbCu3(TeSe)2
_symmetry_space_group_name_H-M   'P 1'
_cell_length_a   5.85784740
_cell_length_b   5.85784740
_cell_length_c   5.83873300
_cell_angle_alpha   90.00000000
_cell_angle_beta   90.00000000
_cell_angle_gamma   91.08876236
_symmetry_Int_Tables_number   1
_chemical_formula_structural   NbCu3(TeSe)2
_chemical_formula_sum   'Nb1 Cu3 Te2 Se2'
_cell_volume   200.31630864
_cell_formula_units_Z   1
loop_
 _symmetry_equiv_pos_site_id
 _symmetry_equiv_pos_as_xyz
  1  'x, y, z'
loop_
 _atom_site_type_symbol
 _atom_site_label
 _atom_site_symmetry_multiplicity
 _atom_site_fract_x
 _atom_site_fract_y
 _atom_site_fract_z
 _atom_site_occupancy
  Nb  Nb0  1  0.00000000  0.00000000  0.99682400  1
  Cu  Cu1  1  0.00000000  0.50000000  0.98686000  1
  Cu  Cu2  1  0.50000000  0.00000000  0.98686000  1
  Cu  Cu3  1  0.00000000  0.00000000  0.50533700  1
  Te  Te4  1  0.73442900  0.73442900  0.25965600  1
  Te  Te5  1  0.26557100  0.26557100  0.25965600  1
  Se  Se6  1  0.75873300  0.24126700  0.75240300  1
  Se  Se7  1  0.24126700  0.75873300  0.75240300  1
