# generated using pymatgen
data_Nb4V3FeSe20
_symmetry_space_group_name_H-M   'P 1'
_cell_length_a   3.49155700
_cell_length_b   9.47656000
_cell_length_c   18.77735269
_cell_angle_alpha   86.55993401
_cell_angle_beta   90.00000000
_cell_angle_gamma   90.00000000
_symmetry_Int_Tables_number   1
_chemical_formula_structural   Nb4V3FeSe20
_chemical_formula_sum   'Nb4 V3 Fe1 Se20'
_cell_volume   620.18457524
_cell_formula_units_Z   1
loop_
 _symmetry_equiv_pos_site_id
 _symmetry_equiv_pos_as_xyz
  1  'x, y, z'
loop_
 _atom_site_type_symbol
 _atom_site_label
 _atom_site_symmetry_multiplicity
 _atom_site_fract_x
 _atom_site_fract_y
 _atom_site_fract_z
 _atom_site_occupancy
  Nb  Nb0  1  0.50000000  0.59892800  0.67905600  1
  Nb  Nb1  1  0.50000000  0.09420600  0.18285400  1
  Nb  Nb2  1  0.00000000  0.90801500  0.81609100  1
  Nb  Nb3  1  0.00000000  0.40267300  0.31916500  1
  V  V4  1  0.00000000  0.39247000  0.04790700  1
  V  V5  1  0.50000000  0.60854100  0.95127300  1
  V  V6  1  0.50000000  0.08914700  0.45847900  1
  Fe  Fe7  1  0.00000000  0.90027600  0.54929500  1
  Se  Se8  1  0.00000000  0.42773200  0.61816400  1
  Se  Se9  1  0.00000000  0.92305600  0.12222500  1
  Se  Se10  1  0.50000000  0.07626700  0.87794100  1
  Se  Se11  1  0.50000000  0.57464800  0.37949200  1
  Se  Se12  1  0.00000000  0.80898300  0.67604000  1
  Se  Se13  1  0.00000000  0.30473200  0.18298500  1
  Se  Se14  1  0.50000000  0.69806400  0.81485500  1
  Se  Se15  1  0.50000000  0.19109900  0.32098200  1
  Se  Se16  1  0.00000000  0.42226300  0.74444900  1
  Se  Se17  1  0.00000000  0.91790100  0.24797600  1
  Se  Se18  1  0.50000000  0.08499000  0.75139800  1
  Se  Se19  1  0.50000000  0.58104000  0.25381000  1
  Se  Se20  1  0.50000000  0.72132100  0.54353300  1
  Se  Se21  1  0.50000000  0.19840600  0.04465000  1
  Se  Se22  1  0.00000000  0.80253300  0.95467100  1
  Se  Se23  1  0.00000000  0.29090900  0.45685300  1
  Se  Se24  1  0.50000000  0.05918600  0.58279700  1
  Se  Se25  1  0.50000000  0.57080300  0.08009400  1
  Se  Se26  1  0.00000000  0.42986200  0.91914300  1
  Se  Se27  1  0.00000000  0.92195000  0.42382200  1
