# generated using pymatgen
data_Ni5Ge(BO5)2
_symmetry_space_group_name_H-M   'P 1'
_cell_length_a   3.00371600
_cell_length_b   9.39449300
_cell_length_c   12.23353200
_cell_angle_alpha   90.00000000
_cell_angle_beta   90.00000000
_cell_angle_gamma   90.00000000
_symmetry_Int_Tables_number   1
_chemical_formula_structural   Ni5Ge(BO5)2
_chemical_formula_sum   'Ni10 Ge2 B4 O20'
_cell_volume   345.21056404
_cell_formula_units_Z   2
loop_
 _symmetry_equiv_pos_site_id
 _symmetry_equiv_pos_as_xyz
  1  'x, y, z'
loop_
 _atom_site_type_symbol
 _atom_site_label
 _atom_site_symmetry_multiplicity
 _atom_site_fract_x
 _atom_site_fract_y
 _atom_site_fract_z
 _atom_site_occupancy
  Ni  Ni0  1  0.50000000  0.25847100  0.21948300  1
  Ni  Ni1  1  0.50000000  0.26020900  0.78329100  1
  Ni  Ni2  1  0.50000000  0.73979100  0.28329100  1
  Ni  Ni3  1  0.50000000  0.74152900  0.71948300  1
  Ni  Ni4  1  0.50000000  0.25971500  0.49720200  1
  Ni  Ni5  1  0.50000000  0.74028500  0.99720200  1
  Ni  Ni6  1  0.00000000  0.73637600  0.49577900  1
  Ni  Ni7  1  0.00000000  0.26362400  0.99577900  1
  Ni  Ni8  1  0.00000000  0.48652700  0.38457400  1
  Ni  Ni9  1  0.00000000  0.51347300  0.88457400  1
  Ge  Ge10  1  0.00000000  0.00898700  0.61433000  1
  Ge  Ge11  1  0.00000000  0.99101300  0.11433000  1
  B  B12  1  0.00000000  0.52497900  0.13941100  1
  B  B13  1  0.00000000  0.98444500  0.86114000  1
  B  B14  1  0.00000000  0.01555500  0.36114000  1
  B  B15  1  0.00000000  0.47502100  0.63941100  1
  O  O16  1  0.50000000  0.35212700  0.35625400  1
  O  O17  1  0.50000000  0.13417800  0.64309800  1
  O  O18  1  0.50000000  0.86582200  0.14309800  1
  O  O19  1  0.50000000  0.64787300  0.85625400  1
  O  O20  1  0.50000000  0.63861400  0.42405200  1
  O  O21  1  0.50000000  0.87921700  0.58091100  1
  O  O22  1  0.50000000  0.12078300  0.08091100  1
  O  O23  1  0.50000000  0.36138600  0.92405200  1
  O  O24  1  0.00000000  0.37531500  0.13993900  1
  O  O25  1  0.00000000  0.12849800  0.85928600  1
  O  O26  1  0.00000000  0.87150200  0.35928600  1
  O  O27  1  0.00000000  0.62468500  0.63993900  1
  O  O28  1  0.00000000  0.39860300  0.54303200  1
  O  O29  1  0.00000000  0.09262200  0.46100300  1
  O  O30  1  0.00000000  0.90737800  0.96100300  1
  O  O31  1  0.00000000  0.60139700  0.04303200  1
  O  O32  1  0.00000000  0.59944600  0.23652500  1
  O  O33  1  0.00000000  0.90985900  0.76068900  1
  O  O34  1  0.00000000  0.09014100  0.26068900  1
  O  O35  1  0.00000000  0.40055400  0.73652500  1
