# generated using pymatgen
data_Pr7Y(Fe14B)4
_symmetry_space_group_name_H-M   'P 1'
_cell_length_a   8.79103932
_cell_length_b   8.79103932
_cell_length_c   12.13397000
_cell_angle_alpha   90.00000000
_cell_angle_beta   90.00000000
_cell_angle_gamma   90.04687851
_symmetry_Int_Tables_number   1
_chemical_formula_structural   Pr7Y(Fe14B)4
_chemical_formula_sum   'Pr7 Y1 Fe56 B4'
_cell_volume   937.74167445
_cell_formula_units_Z   1
loop_
 _symmetry_equiv_pos_site_id
 _symmetry_equiv_pos_as_xyz
  1  'x, y, z'
loop_
 _atom_site_type_symbol
 _atom_site_label
 _atom_site_symmetry_multiplicity
 _atom_site_fract_x
 _atom_site_fract_y
 _atom_site_fract_z
 _atom_site_occupancy
  Pr  Pr0  1  0.64323500  0.64037500  0.50000000  1
  Pr  Pr1  1  0.35962500  0.35676500  0.50000000  1
  Pr  Pr2  1  0.14208600  0.85791400  0.00000000  1
  Pr  Pr3  1  0.85752900  0.14247100  0.00000000  1
  Pr  Pr4  1  0.23154400  0.76845600  0.50000000  1
  Pr  Pr5  1  0.26854400  0.26834300  0.00000000  1
  Pr  Pr6  1  0.73165700  0.73145600  0.00000000  1
  Y  Y7  1  0.77070100  0.22929900  0.50000000  1
  Fe  Fe8  1  0.81739700  0.18260300  0.74385400  1
  Fe  Fe9  1  0.18200800  0.81799200  0.74568700  1
  Fe  Fe10  1  0.31786600  0.31774400  0.24587300  1
  Fe  Fe11  1  0.68225600  0.68213400  0.24587300  1
  Fe  Fe12  1  0.18200800  0.81799200  0.25431300  1
  Fe  Fe13  1  0.81739700  0.18260300  0.25614600  1
  Fe  Fe14  1  0.68225600  0.68213400  0.75412700  1
  Fe  Fe15  1  0.31786600  0.31774400  0.75412700  1
  Fe  Fe16  1  0.53800500  0.13985800  0.67513200  1
  Fe  Fe17  1  0.46380600  0.86146400  0.67604100  1
  Fe  Fe18  1  0.03605700  0.36086900  0.17679800  1
  Fe  Fe19  1  0.96339500  0.63882300  0.17680700  1
  Fe  Fe20  1  0.46380600  0.86146400  0.32395900  1
  Fe  Fe21  1  0.53800500  0.13985800  0.32486800  1
  Fe  Fe22  1  0.96339500  0.63882300  0.82319300  1
  Fe  Fe23  1  0.03605700  0.36086900  0.82320200  1
  Fe  Fe24  1  0.13853600  0.53619400  0.67604100  1
  Fe  Fe25  1  0.86014200  0.46199500  0.67513200  1
  Fe  Fe26  1  0.36117700  0.03660500  0.17680700  1
  Fe  Fe27  1  0.63913100  0.96394300  0.17679800  1
  Fe  Fe28  1  0.86014200  0.46199500  0.32486800  1
  Fe  Fe29  1  0.13853600  0.53619400  0.32395900  1
  Fe  Fe30  1  0.63913100  0.96394300  0.82320200  1
  Fe  Fe31  1  0.36117700  0.03660500  0.82319300  1
  Fe  Fe32  1  0.59882100  0.40117900  0.70368600  1
  Fe  Fe33  1  0.40209600  0.59790400  0.70492300  1
  Fe  Fe34  1  0.09763400  0.09817300  0.20481800  1
  Fe  Fe35  1  0.90182700  0.90236600  0.20481800  1
  Fe  Fe36  1  0.40209600  0.59790400  0.29507700  1
  Fe  Fe37  1  0.59882100  0.40117900  0.29631400  1
  Fe  Fe38  1  0.90182700  0.90236600  0.79518200  1
  Fe  Fe39  1  0.09763400  0.09817300  0.79518200  1
  Fe  Fe40  1  0.72545600  0.93432300  0.62692900  1
  Fe  Fe41  1  0.27464100  0.06788400  0.62801400  1
  Fe  Fe42  1  0.22525500  0.56762800  0.12788300  1
  Fe  Fe43  1  0.77456900  0.43231100  0.12830300  1
  Fe  Fe44  1  0.27464100  0.06788400  0.37198600  1
  Fe  Fe45  1  0.72545600  0.93432300  0.37307100  1
  Fe  Fe46  1  0.77456900  0.43231100  0.87169700  1
  Fe  Fe47  1  0.22525500  0.56762800  0.87211700  1
  Fe  Fe48  1  0.93211600  0.72535900  0.62801400  1
  Fe  Fe49  1  0.06567700  0.27454400  0.62692900  1
  Fe  Fe50  1  0.56768900  0.22543100  0.12830300  1
  Fe  Fe51  1  0.43237200  0.77474500  0.12788300  1
  Fe  Fe52  1  0.06567700  0.27454400  0.37307100  1
  Fe  Fe53  1  0.93211600  0.72535900  0.37198600  1
  Fe  Fe54  1  0.43237200  0.77474500  0.87211700  1
  Fe  Fe55  1  0.56768900  0.22543100  0.87169700  1
  Fe  Fe56  1  0.99898500  0.00101500  0.61444800  1
  Fe  Fe57  1  0.50015700  0.49984300  0.11474400  1
  Fe  Fe58  1  0.99898500  0.00101500  0.38555200  1
  Fe  Fe59  1  0.50015700  0.49984300  0.88525600  1
  Fe  Fe60  1  0.50149300  0.00158300  0.50000000  1
  Fe  Fe61  1  0.00021800  0.49995900  0.00000000  1
  Fe  Fe62  1  0.99841700  0.49850700  0.50000000  1
  Fe  Fe63  1  0.50004100  0.99978200  0.00000000  1
  B  B64  1  0.87640500  0.87606300  0.50000000  1
  B  B65  1  0.12393700  0.12359500  0.50000000  1
  B  B66  1  0.37687800  0.62312200  0.00000000  1
  B  B67  1  0.62354900  0.37645100  0.00000000  1
