# generated using pymatgen
data_NdTiNbBi2O9
_symmetry_space_group_name_H-M   'P 1'
_cell_length_a   5.51266300
_cell_length_b   5.47848700
_cell_length_c   12.96928732
_cell_angle_alpha   78.18561184
_cell_angle_beta   90.00000000
_cell_angle_gamma   90.00000000
_symmetry_Int_Tables_number   1
_chemical_formula_structural   NdTiNbBi2O9
_chemical_formula_sum   'Nd2 Ti2 Nb2 Bi4 O18'
_cell_volume   383.38865124
_cell_formula_units_Z   2
loop_
 _symmetry_equiv_pos_site_id
 _symmetry_equiv_pos_as_xyz
  1  'x, y, z'
loop_
 _atom_site_type_symbol
 _atom_site_label
 _atom_site_symmetry_multiplicity
 _atom_site_fract_x
 _atom_site_fract_y
 _atom_site_fract_z
 _atom_site_occupancy
  Nd  Nd0  1  0.49824000  0.24480200  0.00019800  1
  Nd  Nd1  1  0.99824000  0.75519800  0.99980200  1
  Ti  Ti2  1  0.52787200  0.66787200  0.17117100  1
  Ti  Ti3  1  0.02787200  0.33212800  0.82882900  1
  Nb  Nb4  1  0.53199300  0.82584900  0.82901300  1
  Nb  Nb5  1  0.03199300  0.17415100  0.17098700  1
  Bi  Bi6  1  0.47411800  0.01828700  0.39881700  1
  Bi  Bi7  1  0.46768400  0.42314100  0.60137600  1
  Bi  Bi8  1  0.97411800  0.98171300  0.60118300  1
  Bi  Bi9  1  0.96768400  0.57685900  0.39862400  1
  O  O10  1  0.56524900  0.67415900  0.99888700  1
  O  O11  1  0.06524900  0.32584100  0.00111300  1
  O  O12  1  0.84139400  0.46654400  0.17205500  1
  O  O13  1  0.84691600  0.63044700  0.82814700  1
  O  O14  1  0.34139400  0.53345600  0.82794500  1
  O  O15  1  0.34691600  0.36955300  0.17185300  1
  O  O16  1  0.54847000  0.67740200  0.30904300  1
  O  O17  1  0.54235200  0.98293300  0.68552400  1
  O  O18  1  0.04847000  0.32259800  0.69095700  1
  O  O19  1  0.04235200  0.01706700  0.31447600  1
  O  O20  1  0.76776100  0.97178900  0.12362700  1
  O  O21  1  0.76971600  0.09583400  0.87572400  1
  O  O22  1  0.26776100  0.02821100  0.87637300  1
  O  O23  1  0.26971600  0.90416600  0.12427600  1
  O  O24  1  0.74002000  0.25883600  0.49768300  1
  O  O25  1  0.73891500  0.75507400  0.50245700  1
  O  O26  1  0.24002000  0.74116400  0.50231700  1
  O  O27  1  0.23891500  0.24492600  0.49754300  1
