# generated using pymatgen
data_NdTa3O9
_symmetry_space_group_name_H-M   'P 1'
_cell_length_a   12.60910000
_cell_length_b   11.81214200
_cell_length_c   14.86387889
_cell_angle_alpha   57.99510343
_cell_angle_beta   90.00000000
_cell_angle_gamma   90.00000000
_symmetry_Int_Tables_number   1
_chemical_formula_structural   NdTa3O9
_chemical_formula_sum   'Nd10 Ta30 O90'
_cell_volume   1877.33680867
_cell_formula_units_Z   10
loop_
 _symmetry_equiv_pos_site_id
 _symmetry_equiv_pos_as_xyz
  1  'x, y, z'
loop_
 _atom_site_type_symbol
 _atom_site_label
 _atom_site_symmetry_multiplicity
 _atom_site_fract_x
 _atom_site_fract_y
 _atom_site_fract_z
 _atom_site_occupancy
  Nd  Nd0  1  0.50164500  0.33121900  0.50115100  1
  Nd  Nd1  1  0.50000000  0.00000000  0.50000000  1
  Nd  Nd2  1  0.49835500  0.66878100  0.49884900  1
  Nd  Nd3  1  0.00164500  0.66878100  0.99884900  1
  Nd  Nd4  1  0.99835500  0.33121900  0.00115100  1
  Nd  Nd5  1  0.00000000  0.00000000  0.00000000  1
  Nd  Nd6  1  0.14585700  0.76525000  0.35422300  1
  Nd  Nd7  1  0.85414300  0.23475000  0.64577700  1
  Nd  Nd8  1  0.64585700  0.23475000  0.14577700  1
  Nd  Nd9  1  0.35414300  0.76525000  0.85422300  1
  Ta  Ta10  1  0.21244700  0.78065700  0.07954800  1
  Ta  Ta11  1  0.21028900  0.44520600  0.08084500  1
  Ta  Ta12  1  0.21058600  0.11375500  0.08041200  1
  Ta  Ta13  1  0.78755300  0.21934300  0.92045200  1
  Ta  Ta14  1  0.78941400  0.88624500  0.91958800  1
  Ta  Ta15  1  0.78971100  0.55479400  0.91915500  1
  Ta  Ta16  1  0.92025000  0.69234300  0.21000100  1
  Ta  Ta17  1  0.91909200  0.35985900  0.21093000  1
  Ta  Ta18  1  0.91980600  0.02428700  0.21270400  1
  Ta  Ta19  1  0.07975000  0.30765700  0.78999900  1
  Ta  Ta20  1  0.08019400  0.97571300  0.78729600  1
  Ta  Ta21  1  0.08090800  0.64014100  0.78907000  1
  Ta  Ta22  1  0.41909200  0.64014100  0.28907000  1
  Ta  Ta23  1  0.42025000  0.30765700  0.28999900  1
  Ta  Ta24  1  0.41980600  0.97571300  0.28729600  1
  Ta  Ta25  1  0.58090800  0.35985900  0.71093000  1
  Ta  Ta26  1  0.58019400  0.02428700  0.71270400  1
  Ta  Ta27  1  0.57975000  0.69234300  0.71000100  1
  Ta  Ta28  1  0.71028900  0.55479400  0.41915500  1
  Ta  Ta29  1  0.71244700  0.21934300  0.42045200  1
  Ta  Ta30  1  0.71058600  0.88624500  0.41958800  1
  Ta  Ta31  1  0.28971100  0.44520600  0.58084500  1
  Ta  Ta32  1  0.28941400  0.11375500  0.58041200  1
  Ta  Ta33  1  0.28755300  0.78065700  0.57954800  1
  Ta  Ta34  1  0.50455700  0.83389700  0.00444600  1
  Ta  Ta35  1  0.50000000  0.50000000  0.00000000  1
  Ta  Ta36  1  0.49544300  0.16610300  0.99555400  1
  Ta  Ta37  1  0.00000000  0.50000000  0.50000000  1
  Ta  Ta38  1  0.00455700  0.16610300  0.49555400  1
  Ta  Ta39  1  0.99544300  0.83389700  0.50444600  1
  O  O40  1  0.19075900  0.61800100  0.07383800  1
  O  O41  1  0.19736400  0.28329400  0.07530000  1
  O  O42  1  0.19149700  0.94862700  0.07626900  1
  O  O43  1  0.80850300  0.05137300  0.92373100  1
  O  O44  1  0.80263600  0.71670600  0.92470000  1
  O  O45  1  0.80924100  0.38199900  0.92616200  1
  O  O46  1  0.92294700  0.53643900  0.19506500  1
  O  O47  1  0.92418100  0.20497300  0.19128800  1
  O  O48  1  0.92728500  0.87203400  0.19248000  1
  O  O49  1  0.07271500  0.12796600  0.80752000  1
  O  O50  1  0.07581900  0.79502700  0.80871200  1
  O  O51  1  0.07705300  0.46356100  0.80493500  1
  O  O52  1  0.42294700  0.46356100  0.30493500  1
  O  O53  1  0.42728500  0.12796600  0.30752000  1
  O  O54  1  0.42418100  0.79502700  0.30871200  1
  O  O55  1  0.57581900  0.20497300  0.69128800  1
  O  O56  1  0.57271500  0.87203400  0.69248000  1
  O  O57  1  0.57705300  0.53643900  0.69506500  1
  O  O58  1  0.69075900  0.38199900  0.42616200  1
  O  O59  1  0.69149700  0.05137300  0.42373100  1
  O  O60  1  0.69736400  0.71670600  0.42470000  1
  O  O61  1  0.30263600  0.28329400  0.57530000  1
  O  O62  1  0.30850300  0.94862700  0.57626900  1
  O  O63  1  0.30924100  0.61800100  0.57383800  1
  O  O64  1  0.28896600  0.35954600  0.21126900  1
  O  O65  1  0.27546100  0.00056400  0.22512500  1
  O  O66  1  0.27478700  0.70025700  0.22306000  1
  O  O67  1  0.72521300  0.29974300  0.77694000  1
  O  O68  1  0.72453900  0.99943600  0.77487500  1
  O  O69  1  0.71103400  0.64045400  0.78873100  1
  O  O70  1  0.78896600  0.64045400  0.28873100  1
  O  O71  1  0.77478700  0.29974300  0.27694000  1
  O  O72  1  0.77546100  0.99943600  0.27487500  1
  O  O73  1  0.21103400  0.35954600  0.71126900  1
  O  O74  1  0.22453900  0.00056400  0.72512500  1
  O  O75  1  0.22521300  0.70025700  0.72306000  1
  O  O76  1  0.36638500  0.54083500  0.43928600  1
  O  O77  1  0.36767900  0.20454300  0.44012000  1
  O  O78  1  0.36995900  0.87607500  0.43953700  1
  O  O79  1  0.63361500  0.45916500  0.56071400  1
  O  O80  1  0.63004100  0.12392500  0.56046300  1
  O  O81  1  0.63232100  0.79545700  0.55988000  1
  O  O82  1  0.55951200  0.58969800  0.36825700  1
  O  O83  1  0.56080500  0.25553300  0.36904900  1
  O  O84  1  0.56011400  0.91810800  0.36756800  1
  O  O85  1  0.44048800  0.41030200  0.63174300  1
  O  O86  1  0.43988600  0.08189200  0.63243200  1
  O  O87  1  0.43919500  0.74446700  0.63095100  1
  O  O88  1  0.06080500  0.74446700  0.13095100  1
  O  O89  1  0.05951200  0.41030200  0.13174300  1
  O  O90  1  0.06011400  0.08189200  0.13243200  1
  O  O91  1  0.93919500  0.25553300  0.86904900  1
  O  O92  1  0.93988600  0.91810800  0.86756800  1
  O  O93  1  0.94048800  0.58969800  0.86825700  1
  O  O94  1  0.86638500  0.45916500  0.06071400  1
  O  O95  1  0.86995900  0.12392500  0.06046300  1
  O  O96  1  0.86767900  0.79545700  0.05988000  1
  O  O97  1  0.13004100  0.87607500  0.93953700  1
  O  O98  1  0.13361500  0.54083500  0.93928600  1
  O  O99  1  0.13232100  0.20454300  0.94012000  1
  O  O100  1  0.00907900  0.62225600  0.34056900  1
  O  O101  1  0.99104600  0.27280900  0.34501400  1
  O  O102  1  0.00915200  0.92113400  0.33960000  1
  O  O103  1  0.99092100  0.37774400  0.65943100  1
  O  O104  1  0.99084800  0.07886600  0.66040000  1
  O  O105  1  0.00895400  0.72719100  0.65498600  1
  O  O106  1  0.65455200  0.83679300  0.99079500  1
  O  O107  1  0.65892900  0.47883400  0.00779700  1
  O  O108  1  0.66085400  0.17932200  0.00973200  1
  O  O109  1  0.33914600  0.82067800  0.99026800  1
  O  O110  1  0.34107100  0.52116600  0.99220300  1
  O  O111  1  0.34544800  0.16320700  0.00920500  1
  O  O112  1  0.50907900  0.37774400  0.15943100  1
  O  O113  1  0.50915200  0.07886600  0.16040000  1
  O  O114  1  0.49104600  0.72719100  0.15498600  1
  O  O115  1  0.50895400  0.27280900  0.84501400  1
  O  O116  1  0.49084800  0.92113400  0.83960000  1
  O  O117  1  0.49092100  0.62225600  0.84056900  1
  O  O118  1  0.84107100  0.47883400  0.50779700  1
  O  O119  1  0.83914600  0.17932200  0.50973200  1
  O  O120  1  0.84544800  0.83679300  0.49079500  1
  O  O121  1  0.15892900  0.52116600  0.49220300  1
  O  O122  1  0.15455200  0.16320700  0.50920500  1
  O  O123  1  0.16085400  0.82067800  0.49026800  1
  O  O124  1  0.49566100  0.66764400  0.99636400  1
  O  O125  1  0.50433900  0.33235600  0.00363600  1
  O  O126  1  0.50000000  0.00000000  0.00000000  1
  O  O127  1  0.99566100  0.33235600  0.50363600  1
  O  O128  1  0.00000000  0.00000000  0.50000000  1
  O  O129  1  0.00433900  0.66764400  0.49636400  1
