# generated using pymatgen
data_Na7Si51
_symmetry_space_group_name_H-M   'P 1'
_cell_length_a   10.43489555
_cell_length_b   10.43489555
_cell_length_c   25.61032577
_cell_angle_alpha   89.98154641
_cell_angle_beta   89.98154641
_cell_angle_gamma   60.01016012
_symmetry_Int_Tables_number   1
_chemical_formula_structural   Na7Si51
_chemical_formula_sum   'Na14 Si102'
_cell_volume   2415.27380532
_cell_formula_units_Z   2
loop_
 _symmetry_equiv_pos_site_id
 _symmetry_equiv_pos_as_xyz
  1  'x, y, z'
loop_
 _atom_site_type_symbol
 _atom_site_label
 _atom_site_symmetry_multiplicity
 _atom_site_fract_x
 _atom_site_fract_y
 _atom_site_fract_z
 _atom_site_occupancy
  Na  Na0  1  0.33332900  0.33332900  0.04168000  1
  Na  Na1  1  0.66666600  0.66666600  0.70836500  1
  Na  Na2  1  0.00001800  0.00001800  0.37499900  1
  Na  Na3  1  0.66667100  0.66667100  0.95832000  1
  Na  Na4  1  0.99998200  0.99998200  0.62500100  1
  Na  Na5  1  0.33333400  0.33333400  0.29163500  1
  Na  Na6  1  0.83332700  0.83332700  0.16667800  1
  Na  Na7  1  0.16667300  0.16667300  0.83332200  1
  Na  Na8  1  0.16667000  0.66669100  0.83330700  1
  Na  Na9  1  0.50000000  0.00000000  0.50000000  1
  Na  Na10  1  0.83333000  0.33330900  0.16669300  1
  Na  Na11  1  0.66669100  0.16667000  0.83330700  1
  Na  Na12  1  0.00000000  0.50000000  0.50000000  1
  Na  Na13  1  0.33330900  0.83333000  0.16669300  1
  Si  Si14  1  0.00001600  0.00001600  0.12503400  1
  Si  Si15  1  0.33333700  0.33333700  0.79171000  1
  Si  Si16  1  0.66623200  0.66623200  0.45840500  1
  Si  Si17  1  0.99998400  0.99998400  0.87496600  1
  Si  Si18  1  0.33376800  0.33376800  0.54159500  1
  Si  Si19  1  0.66666300  0.66666300  0.20829000  1
  Si  Si20  1  0.08108700  0.45946300  0.91234000  1
  Si  Si21  1  0.41445800  0.79260200  0.57892800  1
  Si  Si22  1  0.74787800  0.12610200  0.24561700  1
  Si  Si23  1  0.32839400  0.95097500  0.04286800  1
  Si  Si24  1  0.66188200  0.28431900  0.70933100  1
  Si  Si25  1  0.99540700  0.61774200  0.37627400  1
  Si  Si26  1  0.32838500  0.72066600  0.04285500  1
  Si  Si27  1  0.66180400  0.05408600  0.70955300  1
  Si  Si28  1  0.99442400  0.38734300  0.37634600  1
  Si  Si29  1  0.92936900  0.53526800  0.83513100  1
  Si  Si30  1  0.26283200  0.86843200  0.50180900  1
  Si  Si31  1  0.59620000  0.20181400  0.16846400  1
  Si  Si32  1  0.95090500  0.72079100  0.04286500  1
  Si  Si33  1  0.28429800  0.05392300  0.70954800  1
  Si  Si34  1  0.61747100  0.38771100  0.37637200  1
  Si  Si35  1  0.45941100  0.45941100  0.91231300  1
  Si  Si36  1  0.79241300  0.79241300  0.57896600  1
  Si  Si37  1  0.12608500  0.12608500  0.24561200  1
  Si  Si38  1  0.53530600  0.53530600  0.83505700  1
  Si  Si39  1  0.86913900  0.86913900  0.50178700  1
  Si  Si40  1  0.20193000  0.20193000  0.16845100  1
  Si  Si41  1  0.72079100  0.95090500  0.04286500  1
  Si  Si42  1  0.05392300  0.28429800  0.70954800  1
  Si  Si43  1  0.38771100  0.61747100  0.37637200  1
  Si  Si44  1  0.95097500  0.32839400  0.04286800  1
  Si  Si45  1  0.28431900  0.66188200  0.70933100  1
  Si  Si46  1  0.61774200  0.99540700  0.37627400  1
  Si  Si47  1  0.53526800  0.92936900  0.83513100  1
  Si  Si48  1  0.86843200  0.26283200  0.50180900  1
  Si  Si49  1  0.20181400  0.59620000  0.16846400  1
  Si  Si50  1  0.45946300  0.08108700  0.91234000  1
  Si  Si51  1  0.79260200  0.41445800  0.57892800  1
  Si  Si52  1  0.12610200  0.74787800  0.24561700  1
  Si  Si53  1  0.72066600  0.32838500  0.04285500  1
  Si  Si54  1  0.05408600  0.66180400  0.70955300  1
  Si  Si55  1  0.38734300  0.99442400  0.37634600  1
  Si  Si56  1  0.91891300  0.54053700  0.08766000  1
  Si  Si57  1  0.25212200  0.87389800  0.75438300  1
  Si  Si58  1  0.58554200  0.20739800  0.42107200  1
  Si  Si59  1  0.67160600  0.04902500  0.95713200  1
  Si  Si60  1  0.00459300  0.38225800  0.62372600  1
  Si  Si61  1  0.33811800  0.71568100  0.29066900  1
  Si  Si62  1  0.67161500  0.27933400  0.95714500  1
  Si  Si63  1  0.00557600  0.61265700  0.62365400  1
  Si  Si64  1  0.33819600  0.94591400  0.29044700  1
  Si  Si65  1  0.07063100  0.46473200  0.16486900  1
  Si  Si66  1  0.40380000  0.79818600  0.83153600  1
  Si  Si67  1  0.73716800  0.13156800  0.49819100  1
  Si  Si68  1  0.04909500  0.27920900  0.95713500  1
  Si  Si69  1  0.38252900  0.61228900  0.62362800  1
  Si  Si70  1  0.71570200  0.94607700  0.29045200  1
  Si  Si71  1  0.54058900  0.54058900  0.08768700  1
  Si  Si72  1  0.87391500  0.87391500  0.75438800  1
  Si  Si73  1  0.20758700  0.20758700  0.42103400  1
  Si  Si74  1  0.46469400  0.46469400  0.16494300  1
  Si  Si75  1  0.79807000  0.79807000  0.83154900  1
  Si  Si76  1  0.13086100  0.13086100  0.49821300  1
  Si  Si77  1  0.27920900  0.04909500  0.95713500  1
  Si  Si78  1  0.61228900  0.38252900  0.62362800  1
  Si  Si79  1  0.94607700  0.71570200  0.29045200  1
  Si  Si80  1  0.04902500  0.67160600  0.95713200  1
  Si  Si81  1  0.38225800  0.00459300  0.62372600  1
  Si  Si82  1  0.71568100  0.33811800  0.29066900  1
  Si  Si83  1  0.46473200  0.07063100  0.16486900  1
  Si  Si84  1  0.79818600  0.40380000  0.83153600  1
  Si  Si85  1  0.13156800  0.73716800  0.49819100  1
  Si  Si86  1  0.54053700  0.91891300  0.08766000  1
  Si  Si87  1  0.87389800  0.25212200  0.75438300  1
  Si  Si88  1  0.20739800  0.58554200  0.42107200  1
  Si  Si89  1  0.27933400  0.67161500  0.95714500  1
  Si  Si90  1  0.61265700  0.00557600  0.62365400  1
  Si  Si91  1  0.94591400  0.33819600  0.29044700  1
  Si  Si92  1  0.33331500  0.33331500  0.88432300  1
  Si  Si93  1  0.66643400  0.66643400  0.55088600  1
  Si  Si94  1  0.00000400  0.00000400  0.21770600  1
  Si  Si95  1  0.12467600  0.12467600  0.09378400  1
  Si  Si96  1  0.45802100  0.45802100  0.76041600  1
  Si  Si97  1  0.79082700  0.79082700  0.42716400  1
  Si  Si98  1  0.12457600  0.75062600  0.09375100  1
  Si  Si99  1  0.45801200  0.08380700  0.76040200  1
  Si  Si100  1  0.79071600  0.41769700  0.42716000  1
  Si  Si101  1  0.75062600  0.12457600  0.09375100  1
  Si  Si102  1  0.08380700  0.45801200  0.76040200  1
  Si  Si103  1  0.41769700  0.79071600  0.42716000  1
  Si  Si104  1  0.66668500  0.66668500  0.11567700  1
  Si  Si105  1  0.99999600  0.99999600  0.78229400  1
  Si  Si106  1  0.33356600  0.33356600  0.44911400  1
  Si  Si107  1  0.87532400  0.87532400  0.90621600  1
  Si  Si108  1  0.20917300  0.20917300  0.57283600  1
  Si  Si109  1  0.54197900  0.54197900  0.23958400  1
  Si  Si110  1  0.87542400  0.24937400  0.90624900  1
  Si  Si111  1  0.20928400  0.58230300  0.57284000  1
  Si  Si112  1  0.54198800  0.91619300  0.23959800  1
  Si  Si113  1  0.24937400  0.87542400  0.90624900  1
  Si  Si114  1  0.58230300  0.20928400  0.57284000  1
  Si  Si115  1  0.91619300  0.54198800  0.23959800  1
