# generated using pymatgen
data_PrCd6
_symmetry_space_group_name_H-M   'P 1'
_cell_length_a   13.86507251
_cell_length_b   13.86507251
_cell_length_c   13.86507251
_cell_angle_alpha   110.49203775
_cell_angle_beta   109.78450835
_cell_angle_gamma   108.14598941
_symmetry_Int_Tables_number   1
_chemical_formula_structural   PrCd6
_chemical_formula_sum   'Pr12 Cd72'
_cell_volume   2050.94387585
_cell_formula_units_Z   12
loop_
 _symmetry_equiv_pos_site_id
 _symmetry_equiv_pos_as_xyz
  1  'x, y, z'
loop_
 _atom_site_type_symbol
 _atom_site_label
 _atom_site_symmetry_multiplicity
 _atom_site_fract_x
 _atom_site_fract_y
 _atom_site_fract_z
 _atom_site_occupancy
  Pr  Pr0  1  0.80401500  0.50608700  0.70207200  1
  Pr  Pr1  1  0.19598500  0.49391300  0.29792800  1
  Pr  Pr2  1  0.19598500  0.89805800  0.70207200  1
  Pr  Pr3  1  0.80401500  0.10194200  0.29792800  1
  Pr  Pr4  1  0.11049200  0.30130900  0.80918300  1
  Pr  Pr5  1  0.88950800  0.69869100  0.19081700  1
  Pr  Pr6  1  0.49212600  0.30130900  0.19081700  1
  Pr  Pr7  1  0.50787400  0.69869100  0.80918300  1
  Pr  Pr8  1  0.29721600  0.18833200  0.48554800  1
  Pr  Pr9  1  0.70278400  0.81166800  0.51445200  1
  Pr  Pr10  1  0.29721600  0.81166800  0.10888400  1
  Pr  Pr11  1  0.70278400  0.18833200  0.89111600  1
  Cd  Cd12  1  0.99817800  0.67701400  0.99963300  1
  Cd  Cd13  1  0.32261900  0.32298600  0.32116500  1
  Cd  Cd14  1  0.00182200  0.00145500  0.67883500  1
  Cd  Cd15  1  0.67738100  0.99854500  0.00036700  1
  Cd  Cd16  1  0.00182200  0.32298600  0.00036700  1
  Cd  Cd17  1  0.67738100  0.67701400  0.67883500  1
  Cd  Cd18  1  0.99817800  0.99854500  0.32116500  1
  Cd  Cd19  1  0.32261900  0.00145500  0.99963300  1
  Cd  Cd20  1  0.74353000  0.64745400  0.90392500  1
  Cd  Cd21  1  0.25647000  0.35254600  0.09607500  1
  Cd  Cd22  1  0.25647000  0.16039500  0.90392500  1
  Cd  Cd23  1  0.74353000  0.83960500  0.09607500  1
  Cd  Cd24  1  0.85455400  0.09026100  0.76429300  1
  Cd  Cd25  1  0.14544600  0.90973900  0.23570700  1
  Cd  Cd26  1  0.32596700  0.09026100  0.23570700  1
  Cd  Cd27  1  0.67403300  0.90973900  0.76429300  1
  Cd  Cd28  1  0.09449900  0.24219000  0.33668900  1
  Cd  Cd29  1  0.90550100  0.75781000  0.66331100  1
  Cd  Cd30  1  0.09449900  0.75781000  0.85230900  1
  Cd  Cd31  1  0.90550100  0.24219000  0.14769100  1
  Cd  Cd32  1  0.59636300  0.24261400  0.64625100  1
  Cd  Cd33  1  0.40363700  0.75738600  0.35374900  1
  Cd  Cd34  1  0.40363700  0.04988800  0.64625100  1
  Cd  Cd35  1  0.59636300  0.95011200  0.35374900  1
  Cd  Cd36  1  0.94841100  0.35279500  0.59561600  1
  Cd  Cd37  1  0.05158900  0.64720500  0.40438400  1
  Cd  Cd38  1  0.75717900  0.35279500  0.40438400  1
  Cd  Cd39  1  0.24282100  0.64720500  0.59561600  1
  Cd  Cd40  1  0.35001300  0.40369900  0.75371200  1
  Cd  Cd41  1  0.64998700  0.59630100  0.24628800  1
  Cd  Cd42  1  0.35001300  0.59630100  0.94631400  1
  Cd  Cd43  1  0.64998700  0.40369900  0.05368600  1
  Cd  Cd44  1  0.59187300  0.59187300  0.00000000  1
  Cd  Cd45  1  0.40812700  0.40812700  0.00000000  1
  Cd  Cd46  1  0.59573600  0.00000000  0.59573600  1
  Cd  Cd47  1  0.40426400  0.00000000  0.40426400  1
  Cd  Cd48  1  0.00000000  0.40467100  0.40467100  1
  Cd  Cd49  1  0.00000000  0.59532900  0.59532900  1
  Cd  Cd50  1  0.77249200  0.45249200  0.91465800  1
  Cd  Cd51  1  0.46216600  0.54750800  0.32000000  1
  Cd  Cd52  1  0.22750800  0.14216600  0.68000000  1
  Cd  Cd53  1  0.53783400  0.85783400  0.08534200  1
  Cd  Cd54  1  0.86014900  0.08970200  0.54852000  1
  Cd  Cd55  1  0.13985100  0.68837100  0.22955300  1
  Cd  Cd56  1  0.54118200  0.31162900  0.45148000  1
  Cd  Cd57  1  0.45881800  0.91029800  0.77044700  1
  Cd  Cd58  1  0.31567400  0.45591300  0.54051900  1
  Cd  Cd59  1  0.91539400  0.77515500  0.45948100  1
  Cd  Cd60  1  0.08460600  0.54408700  0.85976100  1
  Cd  Cd61  1  0.68432600  0.22484500  0.14023900  1
  Cd  Cd62  1  0.22750800  0.54750800  0.08534200  1
  Cd  Cd63  1  0.53783400  0.45249200  0.68000000  1
  Cd  Cd64  1  0.77249200  0.85783400  0.32000000  1
  Cd  Cd65  1  0.46216600  0.14216600  0.91465800  1
  Cd  Cd66  1  0.13985100  0.91029800  0.45148000  1
  Cd  Cd67  1  0.86014900  0.31162900  0.77044700  1
  Cd  Cd68  1  0.45881800  0.68837100  0.54852000  1
  Cd  Cd69  1  0.54118200  0.08970200  0.22955300  1
  Cd  Cd70  1  0.68432600  0.54408700  0.45948100  1
  Cd  Cd71  1  0.08460600  0.22484500  0.54051900  1
  Cd  Cd72  1  0.91539400  0.45591300  0.14023900  1
  Cd  Cd73  1  0.31567400  0.77515500  0.85976100  1
  Cd  Cd74  1  0.50000000  0.30196100  0.80196100  1
  Cd  Cd75  1  0.50000000  0.69803900  0.19803900  1
  Cd  Cd76  1  0.69874300  0.19874300  0.50000000  1
  Cd  Cd77  1  0.30125700  0.80125700  0.50000000  1
  Cd  Cd78  1  0.19361100  0.50000000  0.69361100  1
  Cd  Cd79  1  0.80638900  0.50000000  0.30638900  1
  Cd  Cd80  1  0.91526700  0.82099900  0.90573200  1
  Cd  Cd81  1  0.08473300  0.17900100  0.09426800  1
  Cd  Cd82  1  0.08473300  0.99046500  0.90573200  1
  Cd  Cd83  1  0.91526700  0.00953500  0.09426800  1
