# generated using pymatgen
data_MgZnAg2
_symmetry_space_group_name_H-M   'P 1'
_cell_length_a   3.13726100
_cell_length_b   3.13726100
_cell_length_c   7.15923700
_cell_angle_alpha   90.00000000
_cell_angle_beta   90.00000000
_cell_angle_gamma   90.00000000
_symmetry_Int_Tables_number   1
_chemical_formula_structural   MgZnAg2
_chemical_formula_sum   'Mg1 Zn1 Ag2'
_cell_volume   70.46412137
_cell_formula_units_Z   1
loop_
 _symmetry_equiv_pos_site_id
 _symmetry_equiv_pos_as_xyz
  1  'x, y, z'
loop_
 _atom_site_type_symbol
 _atom_site_label
 _atom_site_symmetry_multiplicity
 _atom_site_fract_x
 _atom_site_fract_y
 _atom_site_fract_z
 _atom_site_occupancy
  Mg  Mg0  1  0.50000000  0.50000000  0.25000000  1
  Zn  Zn1  1  0.50000000  0.50000000  0.75000000  1
  Ag  Ag2  1  0.00000000  0.00000000  0.98226100  1
  Ag  Ag3  1  0.00000000  0.00000000  0.51773900  1
