# generated using pymatgen
data_Mg5Ti(BO5)2
_symmetry_space_group_name_H-M   'P 1'
_cell_length_a   3.04738400
_cell_length_b   9.38979700
_cell_length_c   12.46751200
_cell_angle_alpha   90.00000000
_cell_angle_beta   90.00000000
_cell_angle_gamma   90.00000000
_symmetry_Int_Tables_number   1
_chemical_formula_structural   Mg5Ti(BO5)2
_chemical_formula_sum   'Mg10 Ti2 B4 O20'
_cell_volume   356.74934233
_cell_formula_units_Z   2
loop_
 _symmetry_equiv_pos_site_id
 _symmetry_equiv_pos_as_xyz
  1  'x, y, z'
loop_
 _atom_site_type_symbol
 _atom_site_label
 _atom_site_symmetry_multiplicity
 _atom_site_fract_x
 _atom_site_fract_y
 _atom_site_fract_z
 _atom_site_occupancy
  Mg  Mg0  1  0.00000000  0.26523100  0.50442100  1
  Mg  Mg1  1  0.00000000  0.73476900  0.00442100  1
  Mg  Mg2  1  0.50000000  0.26563900  0.27902300  1
  Mg  Mg3  1  0.50000000  0.26103300  0.71461500  1
  Mg  Mg4  1  0.50000000  0.73896700  0.21461500  1
  Mg  Mg5  1  0.50000000  0.73436100  0.77902300  1
  Mg  Mg6  1  0.50000000  0.26480100  0.00423000  1
  Mg  Mg7  1  0.50000000  0.73519900  0.50423000  1
  Mg  Mg8  1  0.00000000  0.48562700  0.11747400  1
  Mg  Mg9  1  0.00000000  0.51437300  0.61747400  1
  Ti  Ti10  1  0.00000000  0.00994300  0.88436700  1
  Ti  Ti11  1  0.00000000  0.99005700  0.38436700  1
  B  B12  1  0.00000000  0.52682900  0.35983700  1
  B  B13  1  0.00000000  0.97910400  0.63997900  1
  B  B14  1  0.00000000  0.02089600  0.13997900  1
  B  B15  1  0.00000000  0.47317100  0.85983700  1
  O  O16  1  0.00000000  0.60250200  0.45472400  1
  O  O17  1  0.00000000  0.90573300  0.54043300  1
  O  O18  1  0.00000000  0.09426700  0.04043300  1
  O  O19  1  0.00000000  0.39749800  0.95472400  1
  O  O20  1  0.50000000  0.63870800  0.07449900  1
  O  O21  1  0.50000000  0.87686100  0.92141700  1
  O  O22  1  0.50000000  0.12313900  0.42141700  1
  O  O23  1  0.50000000  0.36129200  0.57449900  1
  O  O24  1  0.00000000  0.37636100  0.35849100  1
  O  O25  1  0.00000000  0.12362800  0.64331800  1
  O  O26  1  0.00000000  0.87637200  0.14331800  1
  O  O27  1  0.00000000  0.62363900  0.85849100  1
  O  O28  1  0.50000000  0.35196800  0.14309500  1
  O  O29  1  0.50000000  0.13513500  0.85589400  1
  O  O30  1  0.50000000  0.86486500  0.35589400  1
  O  O31  1  0.50000000  0.64803200  0.64309500  1
  O  O32  1  0.00000000  0.60263800  0.26461000  1
  O  O33  1  0.00000000  0.90469600  0.73957200  1
  O  O34  1  0.00000000  0.09530400  0.23957200  1
  O  O35  1  0.00000000  0.39736200  0.76461000  1
