# generated using pymatgen
data_Mn3V2O8
_symmetry_space_group_name_H-M   'P 1'
_cell_length_a   11.13356124
_cell_length_b   11.13356124
_cell_length_c   11.13356124
_cell_angle_alpha   142.64695297
_cell_angle_beta   142.64695297
_cell_angle_gamma   53.85546775
_symmetry_Int_Tables_number   1
_chemical_formula_structural   Mn3V2O8
_chemical_formula_sum   'Mn9 V6 O24'
_cell_volume   504.69838631
_cell_formula_units_Z   3
loop_
 _symmetry_equiv_pos_site_id
 _symmetry_equiv_pos_as_xyz
  1  'x, y, z'
loop_
 _atom_site_type_symbol
 _atom_site_label
 _atom_site_symmetry_multiplicity
 _atom_site_fract_x
 _atom_site_fract_y
 _atom_site_fract_z
 _atom_site_occupancy
  Mn  Mn0  1  0.47754900  0.97754900  0.50000000  1
  Mn  Mn1  1  0.77395100  0.77395100  0.00000000  1
  Mn  Mn2  1  0.02245100  0.52245100  0.50000000  1
  Mn  Mn3  1  0.22604900  0.22604900  0.00000000  1
  Mn  Mn4  1  0.75000000  0.25000000  0.50000000  1
  Mn  Mn5  1  0.13058600  0.11747300  0.49481200  1
  Mn  Mn6  1  0.62266100  0.63577400  0.50518800  1
  Mn  Mn7  1  0.36422600  0.86941400  0.98688700  1
  Mn  Mn8  1  0.88252700  0.37733900  0.01311300  1
  V  V9  1  0.12205200  0.52703500  0.90040400  1
  V  V10  1  0.62663100  0.22164800  0.09959600  1
  V  V11  1  0.77835200  0.87794800  0.40498300  1
  V  V12  1  0.47296500  0.37336900  0.59501700  1
  V  V13  1  0.25000000  0.75000000  0.50000000  1
  V  V14  1  0.00000000  0.00000000  0.00000000  1
  O  O15  1  0.08796600  0.84877800  0.34839700  1
  O  O16  1  0.16203900  0.00464100  0.25565600  1
  O  O17  1  0.50038100  0.73956900  0.65160300  1
  O  O18  1  0.74898500  0.90638300  0.74434400  1
  O  O19  1  0.26043100  0.91203400  0.76081200  1
  O  O20  1  0.99535900  0.25101500  0.15739800  1
  O  O21  1  0.15122200  0.49961900  0.23918800  1
  O  O22  1  0.09361700  0.83796100  0.84260200  1
  O  O23  1  0.07802000  0.29966400  0.77174300  1
  O  O24  1  0.13681700  0.43747900  0.69646000  1
  O  O25  1  0.52792200  0.30627700  0.22825700  1
  O  O26  1  0.74101900  0.44035700  0.30354000  1
  O  O27  1  0.69372300  0.92198000  0.22164500  1
  O  O28  1  0.56252100  0.25898100  0.69933800  1
  O  O29  1  0.70033600  0.47207800  0.77835500  1
  O  O30  1  0.55964300  0.86318300  0.30066200  1
  O  O31  1  0.37656800  0.19180900  0.26898600  1
  O  O32  1  0.88060700  0.65432500  0.32621800  1
  O  O33  1  0.92282200  0.10758200  0.73101400  1
  O  O34  1  0.32810700  0.55438900  0.67378200  1
  O  O35  1  0.89241800  0.62343200  0.81524100  1
  O  O36  1  0.34567500  0.67189300  0.22628100  1
  O  O37  1  0.80819100  0.07717800  0.18475900  1
  O  O38  1  0.44561100  0.11939300  0.77371900  1
