# generated using pymatgen
data_MnCd2Te3
_symmetry_space_group_name_H-M   'P 1'
_cell_length_a   4.63238021
_cell_length_b   4.63238021
_cell_length_c   11.24926700
_cell_angle_alpha   90.00000000
_cell_angle_beta   90.00000000
_cell_angle_gamma   120.00000297
_symmetry_Int_Tables_number   1
_chemical_formula_structural   MnCd2Te3
_chemical_formula_sum   'Mn1 Cd2 Te3'
_cell_volume   209.05628969
_cell_formula_units_Z   1
loop_
 _symmetry_equiv_pos_site_id
 _symmetry_equiv_pos_as_xyz
  1  'x, y, z'
loop_
 _atom_site_type_symbol
 _atom_site_label
 _atom_site_symmetry_multiplicity
 _atom_site_fract_x
 _atom_site_fract_y
 _atom_site_fract_z
 _atom_site_occupancy
  Mn  Mn0  1  0.33333300  0.66666700  0.66380800  1
  Cd  Cd1  1  0.00000000  0.00000000  0.99688400  1
  Cd  Cd2  1  0.66666700  0.33333300  0.33831900  1
  Te  Te3  1  0.00000000  0.00000000  0.25035300  1
  Te  Te4  1  0.66666700  0.33333300  0.59400400  1
  Te  Te5  1  0.33333300  0.66666700  0.90663200  1
