# generated using pymatgen
data_Na2Sr(SiO3)2
_symmetry_space_group_name_H-M   'P 1'
_cell_length_a   7.75985353
_cell_length_b   7.75985353
_cell_length_c   7.75691752
_cell_angle_alpha   88.41842122
_cell_angle_beta   88.41842122
_cell_angle_gamma   89.36572819
_symmetry_Int_Tables_number   1
_chemical_formula_structural   Na2Sr(SiO3)2
_chemical_formula_sum   'Na6 Sr3 Si6 O18'
_cell_volume   466.70467524
_cell_formula_units_Z   3
loop_
 _symmetry_equiv_pos_site_id
 _symmetry_equiv_pos_as_xyz
  1  'x, y, z'
loop_
 _atom_site_type_symbol
 _atom_site_label
 _atom_site_symmetry_multiplicity
 _atom_site_fract_x
 _atom_site_fract_y
 _atom_site_fract_z
 _atom_site_occupancy
  Na  Na0  1  0.50000000  0.50000000  0.00000000  1
  Na  Na1  1  0.50000000  0.00000000  0.50000000  1
  Na  Na2  1  0.00000000  0.50000000  0.50000000  1
  Na  Na3  1  0.00000000  0.00000000  0.50000000  1
  Na  Na4  1  0.25253500  0.25253500  0.26758800  1
  Na  Na5  1  0.74746500  0.74746500  0.73241200  1
  Sr  Sr6  1  0.00000000  0.00000000  0.00000000  1
  Sr  Sr7  1  0.00000000  0.50000000  0.00000000  1
  Sr  Sr8  1  0.50000000  0.00000000  0.00000000  1
  Si  Si9  1  0.26003800  0.71203400  0.71160600  1
  Si  Si10  1  0.71358800  0.71358800  0.26363400  1
  Si  Si11  1  0.71203400  0.26003800  0.71160600  1
  Si  Si12  1  0.73996200  0.28796600  0.28839400  1
  Si  Si13  1  0.28641200  0.28641200  0.73636600  1
  Si  Si14  1  0.28796600  0.73996200  0.28839400  1
  O  O15  1  0.07640400  0.77399000  0.79275100  1
  O  O16  1  0.78242600  0.78242600  0.07485600  1
  O  O17  1  0.77399000  0.07640400  0.79275100  1
  O  O18  1  0.92359600  0.22601000  0.20724900  1
  O  O19  1  0.21757400  0.21757400  0.92514400  1
  O  O20  1  0.22601000  0.92359600  0.20724900  1
  O  O21  1  0.25329600  0.74670400  0.50000000  1
  O  O22  1  0.74641600  0.50116000  0.25273200  1
  O  O23  1  0.49884000  0.25358400  0.74726800  1
  O  O24  1  0.25358400  0.49884000  0.74726800  1
  O  O25  1  0.50116000  0.74641600  0.25273200  1
  O  O26  1  0.74670400  0.25329600  0.50000000  1
  O  O27  1  0.43747000  0.78639000  0.78349400  1
  O  O28  1  0.78838300  0.78838300  0.43680900  1
  O  O29  1  0.78639000  0.43747000  0.78349400  1
  O  O30  1  0.56253000  0.21361000  0.21650600  1
  O  O31  1  0.21161700  0.21161700  0.56319100  1
  O  O32  1  0.21361000  0.56253000  0.21650600  1
