# generated using pymatgen
data_NaNp3FeF15
_symmetry_space_group_name_H-M   'P 1'
_cell_length_a   9.83067004
_cell_length_b   9.83067004
_cell_length_c   13.16974600
_cell_angle_alpha   90.00000000
_cell_angle_beta   90.00000000
_cell_angle_gamma   120.00000026
_symmetry_Int_Tables_number   1
_chemical_formula_structural   NaNp3FeF15
_chemical_formula_sum   'Na4 Np12 Fe4 F60'
_cell_volume   1102.23518041
_cell_formula_units_Z   4
loop_
 _symmetry_equiv_pos_site_id
 _symmetry_equiv_pos_as_xyz
  1  'x, y, z'
loop_
 _atom_site_type_symbol
 _atom_site_label
 _atom_site_symmetry_multiplicity
 _atom_site_fract_x
 _atom_site_fract_y
 _atom_site_fract_z
 _atom_site_occupancy
  Na  Na0  1  0.00000000  0.00000000  0.49989500  1
  Na  Na1  1  0.00000000  0.00000000  0.99989500  1
  Na  Na2  1  0.33333300  0.66666700  0.65834600  1
  Na  Na3  1  0.33333300  0.66666700  0.15834600  1
  Np  Np4  1  0.68266500  0.60035900  0.60175500  1
  Np  Np5  1  0.39964100  0.08230600  0.60175500  1
  Np  Np6  1  0.91769400  0.31733500  0.60175500  1
  Np  Np7  1  0.68266500  0.08230600  0.10175500  1
  Np  Np8  1  0.91769400  0.60035900  0.10175500  1
  Np  Np9  1  0.39964100  0.31733500  0.10175500  1
  Np  Np10  1  0.32012100  0.39772800  0.39753800  1
  Np  Np11  1  0.60227200  0.92239200  0.39753800  1
  Np  Np12  1  0.07760800  0.67987900  0.39753800  1
  Np  Np13  1  0.32012100  0.92239200  0.89753800  1
  Np  Np14  1  0.07760800  0.39772800  0.89753800  1
  Np  Np15  1  0.60227200  0.67987900  0.89753800  1
  Fe  Fe16  1  0.00000000  0.00000000  0.74977800  1
  Fe  Fe17  1  0.00000000  0.00000000  0.24977800  1
  Fe  Fe18  1  0.66666700  0.33333300  0.35325600  1
  Fe  Fe19  1  0.66666700  0.33333300  0.85325600  1
  F  F20  1  0.31460800  0.88051100  0.71831500  1
  F  F21  1  0.11948900  0.43409700  0.71831500  1
  F  F22  1  0.56590300  0.68539200  0.71831500  1
  F  F23  1  0.31460800  0.43409700  0.21831500  1
  F  F24  1  0.56590300  0.88051100  0.21831500  1
  F  F25  1  0.11948900  0.68539200  0.21831500  1
  F  F26  1  0.69087900  0.15042600  0.28781000  1
  F  F27  1  0.84957400  0.54045300  0.28781000  1
  F  F28  1  0.45954700  0.30912100  0.28781000  1
  F  F29  1  0.69087900  0.54045300  0.78781000  1
  F  F30  1  0.45954700  0.15042600  0.78781000  1
  F  F31  1  0.84957400  0.30912100  0.78781000  1
  F  F32  1  0.19135200  0.87906100  0.52005500  1
  F  F33  1  0.12093900  0.31229100  0.52005500  1
  F  F34  1  0.68770900  0.80864800  0.52005500  1
  F  F35  1  0.19135200  0.31229100  0.02005500  1
  F  F36  1  0.68770900  0.87906100  0.02005500  1
  F  F37  1  0.12093900  0.80864800  0.02005500  1
  F  F38  1  0.80888000  0.11886500  0.48053400  1
  F  F39  1  0.88113500  0.69001500  0.48053400  1
  F  F40  1  0.30998500  0.19112000  0.48053400  1
  F  F41  1  0.80888000  0.69001500  0.98053400  1
  F  F42  1  0.30998500  0.11886500  0.98053400  1
  F  F43  1  0.88113500  0.19112000  0.98053400  1
  F  F44  1  0.89350600  0.80853100  0.65996600  1
  F  F45  1  0.19146900  0.08497500  0.65996600  1
  F  F46  1  0.91502500  0.10649400  0.65996600  1
  F  F47  1  0.89350600  0.08497500  0.15996600  1
  F  F48  1  0.91502500  0.80853100  0.15996600  1
  F  F49  1  0.19146900  0.10649400  0.15996600  1
  F  F50  1  0.10679100  0.18772900  0.34138500  1
  F  F51  1  0.81227100  0.91906200  0.34138500  1
  F  F52  1  0.08093800  0.89320900  0.34138500  1
  F  F53  1  0.10679100  0.91906200  0.84138500  1
  F  F54  1  0.08093800  0.18772900  0.84138500  1
  F  F55  1  0.81227100  0.89320900  0.84138500  1
  F  F56  1  0.11079200  0.57891400  0.54661300  1
  F  F57  1  0.42108600  0.53187800  0.54661300  1
  F  F58  1  0.46812200  0.88920800  0.54661300  1
  F  F59  1  0.11079200  0.53187800  0.04661300  1
  F  F60  1  0.46812200  0.57891400  0.04661300  1
  F  F61  1  0.42108600  0.88920800  0.04661300  1
  F  F62  1  0.86275900  0.40312100  0.44651800  1
  F  F63  1  0.59687900  0.45963700  0.44651800  1
  F  F64  1  0.54036300  0.13724100  0.44651800  1
  F  F65  1  0.86275900  0.45963700  0.94651800  1
  F  F66  1  0.54036300  0.40312100  0.94651800  1
  F  F67  1  0.59687900  0.13724100  0.94651800  1
  F  F68  1  0.51280300  0.34136500  0.63366200  1
  F  F69  1  0.65863500  0.17143800  0.63366200  1
  F  F70  1  0.82856200  0.48719700  0.63366200  1
  F  F71  1  0.51280300  0.17143800  0.13366200  1
  F  F72  1  0.82856200  0.34136500  0.13366200  1
  F  F73  1  0.65863500  0.48719700  0.13366200  1
  F  F74  1  0.48885500  0.65887600  0.36275500  1
  F  F75  1  0.34112400  0.82997900  0.36275500  1
  F  F76  1  0.17002100  0.51114500  0.36275500  1
  F  F77  1  0.48885500  0.82997900  0.86275500  1
  F  F78  1  0.17002100  0.65887600  0.86275500  1
  F  F79  1  0.34112400  0.51114500  0.86275500  1
