# generated using pymatgen
data_Mo3Ru2
_symmetry_space_group_name_H-M   'P 1'
_cell_length_a   4.96730500
_cell_length_b   9.61140189
_cell_length_c   9.61140189
_cell_angle_alpha   90.33425858
_cell_angle_beta   90.00000000
_cell_angle_gamma   90.00000000
_symmetry_Int_Tables_number   1
_chemical_formula_structural   Mo3Ru2
_chemical_formula_sum   'Mo18 Ru12'
_cell_volume   458.86708975
_cell_formula_units_Z   6
loop_
 _symmetry_equiv_pos_site_id
 _symmetry_equiv_pos_as_xyz
  1  'x, y, z'
loop_
 _atom_site_type_symbol
 _atom_site_label
 _atom_site_symmetry_multiplicity
 _atom_site_fract_x
 _atom_site_fract_y
 _atom_site_fract_z
 _atom_site_occupancy
  Mo  Mo0  1  0.49826900  0.10502700  0.89497300  1
  Mo  Mo1  1  0.49826900  0.89497300  0.10502700  1
  Mo  Mo2  1  0.99674800  0.39585900  0.39585900  1
  Mo  Mo3  1  0.99674800  0.60414100  0.60414100  1
  Mo  Mo4  1  0.49925100  0.37126400  0.95890400  1
  Mo  Mo5  1  0.49925100  0.62873600  0.04109600  1
  Mo  Mo6  1  0.00112100  0.13247800  0.46478100  1
  Mo  Mo7  1  0.00112100  0.86752200  0.53521900  1
  Mo  Mo8  1  0.49925100  0.95890400  0.37126400  1
  Mo  Mo9  1  0.49925100  0.04109600  0.62873600  1
  Mo  Mo10  1  0.00112100  0.46478100  0.13247800  1
  Mo  Mo11  1  0.00112100  0.53521900  0.86752200  1
  Mo  Mo12  1  0.74887200  0.17818900  0.17818900  1
  Mo  Mo13  1  0.74887200  0.82181100  0.82181100  1
  Mo  Mo14  1  0.74951200  0.67906600  0.32093400  1
  Mo  Mo15  1  0.74951200  0.32093400  0.67906600  1
  Mo  Mo16  1  0.24889500  0.81783100  0.81783100  1
  Mo  Mo17  1  0.24889500  0.18216900  0.18216900  1
  Ru  Ru18  1  0.50845400  0.50000000  0.50000000  1
  Ru  Ru19  1  0.00366100  0.00000000  0.00000000  1
  Ru  Ru20  1  0.49715900  0.43235600  0.23448700  1
  Ru  Ru21  1  0.49715900  0.56764400  0.76551300  1
  Ru  Ru22  1  0.00229300  0.06914200  0.73523800  1
  Ru  Ru23  1  0.00229300  0.93085800  0.26476200  1
  Ru  Ru24  1  0.49715900  0.23448700  0.43235600  1
  Ru  Ru25  1  0.49715900  0.76551300  0.56764400  1
  Ru  Ru26  1  0.00229300  0.73523800  0.06914200  1
  Ru  Ru27  1  0.00229300  0.26476200  0.93085800  1
  Ru  Ru28  1  0.25199900  0.31887800  0.68112200  1
  Ru  Ru29  1  0.25199900  0.68112200  0.31887800  1
