# generated using pymatgen
data_Na(Ti3Se4)2
_symmetry_space_group_name_H-M   'P 1'
_cell_length_a   9.84664550
_cell_length_b   9.84664550
_cell_length_c   3.59549800
_cell_angle_alpha   90.00000000
_cell_angle_beta   90.00000000
_cell_angle_gamma   119.99999664
_symmetry_Int_Tables_number   1
_chemical_formula_structural   Na(Ti3Se4)2
_chemical_formula_sum   'Na1 Ti6 Se8'
_cell_volume   301.90221769
_cell_formula_units_Z   1
loop_
 _symmetry_equiv_pos_site_id
 _symmetry_equiv_pos_as_xyz
  1  'x, y, z'
loop_
 _atom_site_type_symbol
 _atom_site_label
 _atom_site_symmetry_multiplicity
 _atom_site_fract_x
 _atom_site_fract_y
 _atom_site_fract_z
 _atom_site_occupancy
  Na  Na0  1  0.00000000  0.00000000  0.50000000  1
  Ti  Ti1  1  0.12832600  0.49201200  0.74978100  1
  Ti  Ti2  1  0.50798800  0.63631400  0.74978100  1
  Ti  Ti3  1  0.36368600  0.87167400  0.74978100  1
  Ti  Ti4  1  0.87167400  0.50798800  0.25021900  1
  Ti  Ti5  1  0.49201200  0.36368600  0.25021900  1
  Ti  Ti6  1  0.63631400  0.12832600  0.25021900  1
  Se  Se7  1  0.66666700  0.33333300  0.75003500  1
  Se  Se8  1  0.33333300  0.66666700  0.24996500  1
  Se  Se9  1  0.29561800  0.34613600  0.75066700  1
  Se  Se10  1  0.65386400  0.94948200  0.75066700  1
  Se  Se11  1  0.05051800  0.70438200  0.75066700  1
  Se  Se12  1  0.70438200  0.65386400  0.24933300  1
  Se  Se13  1  0.34613600  0.05051800  0.24933300  1
  Se  Se14  1  0.94948200  0.29561800  0.24933300  1
