# generated using pymatgen
data_MnCu3(SeO3)4
_symmetry_space_group_name_H-M   'P 1'
_cell_length_a   5.34825700
_cell_length_b   6.07806898
_cell_length_c   7.55432478
_cell_angle_alpha   90.47283152
_cell_angle_beta   91.02591159
_cell_angle_gamma   91.27336134
_symmetry_Int_Tables_number   1
_chemical_formula_structural   MnCu3(SeO3)4
_chemical_formula_sum   'Mn1 Cu3 Se4 O12'
_cell_volume   245.45981223
_cell_formula_units_Z   1
loop_
 _symmetry_equiv_pos_site_id
 _symmetry_equiv_pos_as_xyz
  1  'x, y, z'
loop_
 _atom_site_type_symbol
 _atom_site_label
 _atom_site_symmetry_multiplicity
 _atom_site_fract_x
 _atom_site_fract_y
 _atom_site_fract_z
 _atom_site_occupancy
  Mn  Mn0  1  0.50000000  0.00000000  0.00000000  1
  Cu  Cu1  1  0.00000000  0.50000000  0.00000000  1
  Cu  Cu2  1  0.50000000  0.00000000  0.50000000  1
  Cu  Cu3  1  0.00000000  0.50000000  0.50000000  1
  Se  Se4  1  0.49847400  0.53569000  0.25307600  1
  Se  Se5  1  0.99783000  0.04077100  0.25457000  1
  Se  Se6  1  0.50152600  0.46431000  0.74692400  1
  Se  Se7  1  0.00217000  0.95922900  0.74543000  1
  O  O8  1  0.16676500  0.57508100  0.24756000  1
  O  O9  1  0.32645400  0.07548100  0.25550800  1
  O  O10  1  0.83323500  0.42491900  0.75244000  1
  O  O11  1  0.67354600  0.92451900  0.74449200  1
  O  O12  1  0.60874100  0.69029700  0.07840400  1
  O  O13  1  0.89748100  0.20445000  0.42857000  1
  O  O14  1  0.39871000  0.29467900  0.57189000  1
  O  O15  1  0.10850600  0.80298800  0.92662500  1
  O  O16  1  0.39125900  0.30970300  0.92159600  1
  O  O17  1  0.10251900  0.79555000  0.57143000  1
  O  O18  1  0.60129000  0.70532100  0.42811000  1
  O  O19  1  0.89149400  0.19701200  0.07337500  1
