# generated using pymatgen
data_Mn2P2O7
_symmetry_space_group_name_H-M   'P 1'
_cell_length_a   4.60700525
_cell_length_b   5.49577054
_cell_length_c   5.49571371
_cell_angle_alpha   104.67690414
_cell_angle_beta   97.74121925
_cell_angle_gamma   97.73665509
_symmetry_Int_Tables_number   1
_chemical_formula_structural   Mn2P2O7
_chemical_formula_sum   'Mn2 P2 O7'
_cell_volume   131.29604746
_cell_formula_units_Z   1
loop_
 _symmetry_equiv_pos_site_id
 _symmetry_equiv_pos_as_xyz
  1  'x, y, z'
loop_
 _atom_site_type_symbol
 _atom_site_label
 _atom_site_symmetry_multiplicity
 _atom_site_fract_x
 _atom_site_fract_y
 _atom_site_fract_z
 _atom_site_occupancy
  Mn  Mn0  1  0.50000900  0.30969400  0.69034300  1
  Mn  Mn1  1  0.50000500  0.68877900  0.31121300  1
  P  P2  1  0.90743800  0.21298400  0.21740900  1
  P  P3  1  0.09256100  0.78258900  0.78700900  1
  O  O4  1  0.99999700  0.99206500  0.00793100  1
  O  O5  1  0.72497400  0.07781100  0.37543000  1
  O  O6  1  0.27502000  0.62456500  0.92218700  1
  O  O7  1  0.72545400  0.36651500  0.07665600  1
  O  O8  1  0.27454400  0.92334300  0.63348100  1
  O  O9  1  0.20555100  0.37156900  0.37251500  1
  O  O10  1  0.79444700  0.62748500  0.62842700  1
