# generated using pymatgen
data_Mo(PO4)2
_symmetry_space_group_name_H-M   'P 1'
_cell_length_a   4.95401000
_cell_length_b   7.54415600
_cell_length_c   7.93616900
_cell_angle_alpha   90.00000000
_cell_angle_beta   90.00000000
_cell_angle_gamma   90.00000000
_symmetry_Int_Tables_number   1
_chemical_formula_structural   Mo(PO4)2
_chemical_formula_sum   'Mo2 P4 O16'
_cell_volume   296.60498555
_cell_formula_units_Z   2
loop_
 _symmetry_equiv_pos_site_id
 _symmetry_equiv_pos_as_xyz
  1  'x, y, z'
loop_
 _atom_site_type_symbol
 _atom_site_label
 _atom_site_symmetry_multiplicity
 _atom_site_fract_x
 _atom_site_fract_y
 _atom_site_fract_z
 _atom_site_occupancy
  Mo  Mo0  1  0.50000000  0.75000000  0.77641600  1
  Mo  Mo1  1  0.00000000  0.25000000  0.22358400  1
  P  P2  1  0.25360000  0.64084300  0.36003300  1
  P  P3  1  0.75360000  0.35915700  0.63996700  1
  P  P4  1  0.74640000  0.85915700  0.36003300  1
  P  P5  1  0.24640000  0.14084300  0.63996700  1
  O  O6  1  0.27019600  0.63740300  0.54791700  1
  O  O7  1  0.77019600  0.36259700  0.45208300  1
  O  O8  1  0.72980400  0.86259700  0.54791700  1
  O  O9  1  0.22980400  0.13740300  0.45208300  1
  O  O10  1  0.27944000  0.64795000  0.91024500  1
  O  O11  1  0.77944000  0.35205000  0.08975500  1
  O  O12  1  0.72056000  0.85205000  0.91024500  1
  O  O13  1  0.22056000  0.14795000  0.08975500  1
  O  O14  1  0.25652800  0.96409900  0.72958200  1
  O  O15  1  0.75652800  0.03590100  0.27041800  1
  O  O16  1  0.74347200  0.53590100  0.72958200  1
  O  O17  1  0.24347200  0.46409900  0.27041800  1
  O  O18  1  0.50000000  0.75000000  0.27883400  1
  O  O19  1  0.00000000  0.25000000  0.72116600  1
  O  O20  1  0.50000000  0.25000000  0.70822500  1
  O  O21  1  0.00000000  0.75000000  0.29177500  1
