# generated using pymatgen
data_MgCu2(PO4)2
_symmetry_space_group_name_H-M   'P 1'
_cell_length_a   4.90055900
_cell_length_b   5.33143457
_cell_length_c   6.37823345
_cell_angle_alpha   108.17688202
_cell_angle_beta   86.97815861
_cell_angle_gamma   111.28818702
_symmetry_Int_Tables_number   1
_chemical_formula_structural   MgCu2(PO4)2
_chemical_formula_sum   'Mg1 Cu2 P2 O8'
_cell_volume   147.17956492
_cell_formula_units_Z   1
loop_
 _symmetry_equiv_pos_site_id
 _symmetry_equiv_pos_as_xyz
  1  'x, y, z'
loop_
 _atom_site_type_symbol
 _atom_site_label
 _atom_site_symmetry_multiplicity
 _atom_site_fract_x
 _atom_site_fract_y
 _atom_site_fract_z
 _atom_site_occupancy
  Mg  Mg0  1  0.71994200  0.24361300  0.68893300  1
  Cu  Cu1  1  0.00130200  0.00123900  0.00348600  1
  Cu  Cu2  1  0.27961600  0.77442100  0.31301000  1
  P  P3  1  0.35930100  0.64399900  0.77503900  1
  P  P4  1  0.63979000  0.34989600  0.22168900  1
  O  O5  1  0.38710600  0.84494600  0.63424700  1
  O  O6  1  0.61447300  0.15492900  0.36628100  1
  O  O7  1  0.66655600  0.64111500  0.82505700  1
  O  O8  1  0.33315000  0.35170300  0.17043900  1
  O  O9  1  0.23484600  0.77457500  0.00039300  1
  O  O10  1  0.76454700  0.22341000  0.99960200  1
  O  O11  1  0.15266200  0.34236200  0.66159300  1
  O  O12  1  0.84670800  0.65379300  0.34023200  1
