# generated using pymatgen
data_Mn5(FeO3)4
_symmetry_space_group_name_H-M   'P 1'
_cell_length_a   6.07726000
_cell_length_b   6.17112034
_cell_length_c   15.04875312
_cell_angle_alpha   91.40072482
_cell_angle_beta   90.35130202
_cell_angle_gamma   119.00121538
_symmetry_Int_Tables_number   1
_chemical_formula_structural   Mn5(FeO3)4
_chemical_formula_sum   'Mn10 Fe8 O24'
_cell_volume   493.36101901
_cell_formula_units_Z   2
loop_
 _symmetry_equiv_pos_site_id
 _symmetry_equiv_pos_as_xyz
  1  'x, y, z'
loop_
 _atom_site_type_symbol
 _atom_site_label
 _atom_site_symmetry_multiplicity
 _atom_site_fract_x
 _atom_site_fract_y
 _atom_site_fract_z
 _atom_site_occupancy
  Mn  Mn0  1  0.99760600  0.00198700  0.87353200  1
  Mn  Mn1  1  0.66598400  0.33843700  0.54118800  1
  Mn  Mn2  1  0.33186000  0.67024000  0.20940700  1
  Mn  Mn3  1  0.66814000  0.32976000  0.79059300  1
  Mn  Mn4  1  0.33401600  0.66156300  0.45881200  1
  Mn  Mn5  1  0.00239400  0.99801300  0.12646800  1
  Mn  Mn6  1  0.66663600  0.83349200  0.66613400  1
  Mn  Mn7  1  0.33336400  0.16650800  0.33386600  1
  Mn  Mn8  1  0.00000000  0.50000000  0.00000000  1
  Mn  Mn9  1  0.50000000  0.00000000  0.00000000  1
  Fe  Fe10  1  0.16680000  0.33350300  0.66564900  1
  Fe  Fe11  1  0.83320000  0.66649700  0.33435100  1
  Fe  Fe12  1  0.33182300  0.66345100  0.83257700  1
  Fe  Fe13  1  0.00000000  0.00000000  0.50000000  1
  Fe  Fe14  1  0.66817700  0.33654900  0.16742300  1
  Fe  Fe15  1  0.16774200  0.83402500  0.66603500  1
  Fe  Fe16  1  0.83225800  0.16597500  0.33396500  1
  Fe  Fe17  1  0.50000000  0.50000000  0.00000000  1
  O  O18  1  0.79220800  0.15706400  0.08262500  1
  O  O19  1  0.46804600  0.49947100  0.74865900  1
  O  O20  1  0.13507800  0.83247600  0.41712500  1
  O  O21  1  0.99651000  0.00353900  0.73473400  1
  O  O22  1  0.66264000  0.33653500  0.40271400  1
  O  O23  1  0.31274800  0.64093600  0.07162500  1
  O  O24  1  0.17930200  0.37375200  0.91937000  1
  O  O25  1  0.84578800  0.70826700  0.58799000  1
  O  O26  1  0.51199800  0.04151600  0.25554200  1
  O  O27  1  0.36909100  0.18668600  0.07660500  1
  O  O28  1  0.03476400  0.52523500  0.74256300  1
  O  O29  1  0.69996500  0.85725900  0.41085900  1
  O  O30  1  0.86492200  0.16752400  0.58287500  1
  O  O31  1  0.53195400  0.50052900  0.25134100  1
  O  O32  1  0.20779200  0.84293600  0.91737500  1
  O  O33  1  0.68725200  0.35906400  0.92837500  1
  O  O34  1  0.33736000  0.66346500  0.59728600  1
  O  O35  1  0.00349000  0.99646100  0.26526600  1
  O  O36  1  0.48800200  0.95848400  0.74445800  1
  O  O37  1  0.15421200  0.29173300  0.41201000  1
  O  O38  1  0.82069800  0.62624800  0.08063000  1
  O  O39  1  0.30003500  0.14274100  0.58914100  1
  O  O40  1  0.96523600  0.47476500  0.25743700  1
  O  O41  1  0.63090900  0.81331400  0.92339500  1
