# generated using pymatgen
data_Na2Al2B2O7
_symmetry_space_group_name_H-M   'P 1'
_cell_length_a   15.58990500
_cell_length_b   4.87036600
_cell_length_c   4.87529545
_cell_angle_alpha   60.11089913
_cell_angle_beta   90.00000000
_cell_angle_gamma   90.00000000
_symmetry_Int_Tables_number   1
_chemical_formula_structural   Na2Al2B2O7
_chemical_formula_sum   'Na4 Al4 B4 O14'
_cell_volume   320.93780377
_cell_formula_units_Z   2
loop_
 _symmetry_equiv_pos_site_id
 _symmetry_equiv_pos_as_xyz
  1  'x, y, z'
loop_
 _atom_site_type_symbol
 _atom_site_label
 _atom_site_symmetry_multiplicity
 _atom_site_fract_x
 _atom_site_fract_y
 _atom_site_fract_z
 _atom_site_occupancy
  Na  Na0  1  0.50000000  0.00000000  0.00000000  1
  Na  Na1  1  0.00000000  0.00000000  0.00000000  1
  Na  Na2  1  0.75000000  0.00570300  0.00529300  1
  Na  Na3  1  0.25000000  0.99429700  0.99470700  1
  Al  Al4  1  0.13892200  0.34175700  0.32942700  1
  Al  Al5  1  0.63892200  0.65824300  0.67057300  1
  Al  Al6  1  0.86107800  0.65824300  0.67057300  1
  Al  Al7  1  0.36107800  0.34175700  0.32942700  1
  B  B8  1  0.60484100  0.33130900  0.33364200  1
  B  B9  1  0.10484100  0.66869100  0.66635800  1
  B  B10  1  0.39515900  0.66869100  0.66635800  1
  B  B11  1  0.89515900  0.33130900  0.33364200  1
  O  O12  1  0.75000000  0.63164000  0.68281200  1
  O  O13  1  0.25000000  0.36836000  0.31718800  1
  O  O14  1  0.39969900  0.64667400  0.39471000  1
  O  O15  1  0.39706300  0.39661400  0.96046600  1
  O  O16  1  0.38978800  0.96253200  0.64554200  1
  O  O17  1  0.89969900  0.35332600  0.60529000  1
  O  O18  1  0.89706300  0.60338600  0.03953400  1
  O  O19  1  0.88978800  0.03746800  0.35445800  1
  O  O20  1  0.60030100  0.35332600  0.60529000  1
  O  O21  1  0.60293700  0.60338600  0.03953400  1
  O  O22  1  0.61021200  0.03746800  0.35445800  1
  O  O23  1  0.10030100  0.64667400  0.39471000  1
  O  O24  1  0.10293700  0.39661400  0.96046600  1
  O  O25  1  0.11021200  0.96253200  0.64554200  1
