# generated using pymatgen
data_MoN3(OF)3
_symmetry_space_group_name_H-M   'P 1'
_cell_length_a   5.93300625
_cell_length_b   6.86275888
_cell_length_c   6.86275888
_cell_angle_alpha   91.57840722
_cell_angle_beta   53.53832320
_cell_angle_gamma   126.46167680
_symmetry_Int_Tables_number   1
_chemical_formula_structural   MoN3(OF)3
_chemical_formula_sum   'Mo1 N3 O3 F3'
_cell_volume   156.16794037
_cell_formula_units_Z   1
loop_
 _symmetry_equiv_pos_site_id
 _symmetry_equiv_pos_as_xyz
  1  'x, y, z'
loop_
 _atom_site_type_symbol
 _atom_site_label
 _atom_site_symmetry_multiplicity
 _atom_site_fract_x
 _atom_site_fract_y
 _atom_site_fract_z
 _atom_site_occupancy
  Mo  Mo0  1  0.00000000  0.01000300  0.98999700  1
  N  N1  1  0.00000000  0.46813100  0.53186900  1
  N  N2  1  0.50000000  0.24692200  0.25307800  1
  N  N3  1  0.50000000  0.74692200  0.75307800  1
  O  O4  1  0.00000000  0.18517100  0.81482900  1
  O  O5  1  0.67470800  0.36391000  0.63609000  1
  O  O6  1  0.32529200  0.68920300  0.31079700  1
  F  F7  1  0.00000000  0.78629200  0.80675500  1
  F  F8  1  0.00000000  0.19324500  0.21370800  1
  F  F9  1  0.00000000  0.81020100  0.18979900  1
