# generated using pymatgen
data_MgTi3ZnNiO9
_symmetry_space_group_name_H-M   'P 1'
_cell_length_a   5.10036555
_cell_length_b   5.10036555
_cell_length_c   14.06410400
_cell_angle_alpha   90.00000000
_cell_angle_beta   90.00000000
_cell_angle_gamma   119.99999411
_symmetry_Int_Tables_number   1
_chemical_formula_structural   MgTi3ZnNiO9
_chemical_formula_sum   'Mg2 Ti6 Zn2 Ni2 O18'
_cell_volume   316.84388759
_cell_formula_units_Z   2
loop_
 _symmetry_equiv_pos_site_id
 _symmetry_equiv_pos_as_xyz
  1  'x, y, z'
loop_
 _atom_site_type_symbol
 _atom_site_label
 _atom_site_symmetry_multiplicity
 _atom_site_fract_x
 _atom_site_fract_y
 _atom_site_fract_z
 _atom_site_occupancy
  Mg  Mg0  1  0.33333300  0.66666700  0.31359500  1
  Mg  Mg1  1  0.00000000  0.00000000  0.64633100  1
  Ti  Ti2  1  0.00000000  0.00000000  0.85511200  1
  Ti  Ti3  1  0.66666700  0.33333300  0.18946200  1
  Ti  Ti4  1  0.33333300  0.66666700  0.52338300  1
  Ti  Ti5  1  0.33333300  0.66666700  0.80947600  1
  Ti  Ti6  1  0.00000000  0.00000000  0.14537300  1
  Ti  Ti7  1  0.66666700  0.33333300  0.47660700  1
  Zn  Zn8  1  0.66666700  0.33333300  0.97332800  1
  Zn  Zn9  1  0.33333300  0.66666700  0.02495700  1
  Ni  Ni10  1  0.00000000  0.00000000  0.35120700  1
  Ni  Ni11  1  0.66666700  0.33333300  0.68418500  1
  O  O12  1  0.96259800  0.65028800  0.08841100  1
  O  O13  1  0.63045400  0.98256000  0.42040500  1
  O  O14  1  0.29741800  0.31598700  0.75322600  1
  O  O15  1  0.68769000  0.03740200  0.08841100  1
  O  O16  1  0.35210600  0.36954600  0.42040500  1
  O  O17  1  0.01856800  0.70258200  0.75322600  1
  O  O18  1  0.34971200  0.31231000  0.08841100  1
  O  O19  1  0.01744000  0.64789400  0.42040500  1
  O  O20  1  0.68401300  0.98143200  0.75322600  1
  O  O21  1  0.70409700  0.68293600  0.24751000  1
  O  O22  1  0.37165300  0.01685600  0.58044700  1
  O  O23  1  0.03786300  0.35000000  0.91232900  1
  O  O24  1  0.97883900  0.29590300  0.24751000  1
  O  O25  1  0.64520200  0.62834700  0.58044700  1
  O  O26  1  0.31213700  0.96213700  0.91232900  1
  O  O27  1  0.31706400  0.02116100  0.24751000  1
  O  O28  1  0.98314400  0.35479800  0.58044700  1
  O  O29  1  0.65000000  0.68786300  0.91232900  1
