# generated using pymatgen
data_Mg3CoB8P8(H8O13)4
_symmetry_space_group_name_H-M   'P 1'
_cell_length_a   7.85873311
_cell_length_b   8.45492248
_cell_length_c   14.76303107
_cell_angle_alpha   90.03062333
_cell_angle_beta   90.03111981
_cell_angle_gamma   90.23639252
_symmetry_Int_Tables_number   1
_chemical_formula_structural   Mg3CoB8P8(H8O13)4
_chemical_formula_sum   'Mg3 Co1 B8 P8 H32 O52'
_cell_volume   980.92065874
_cell_formula_units_Z   1
loop_
 _symmetry_equiv_pos_site_id
 _symmetry_equiv_pos_as_xyz
  1  'x, y, z'
loop_
 _atom_site_type_symbol
 _atom_site_label
 _atom_site_symmetry_multiplicity
 _atom_site_fract_x
 _atom_site_fract_y
 _atom_site_fract_z
 _atom_site_occupancy
  Mg  Mg0  1  0.24923500  0.80267300  0.53477300  1
  Mg  Mg1  1  0.24926600  0.30284400  0.96529400  1
  Mg  Mg2  1  0.75070200  0.19730800  0.46514700  1
  Co  Co3  1  0.75006400  0.69757800  0.03487800  1
  B  B4  1  0.58238500  0.72667400  0.83336800  1
  B  B5  1  0.41756600  0.77342500  0.33351700  1
  B  B6  1  0.41755400  0.27329400  0.16664300  1
  B  B7  1  0.58243700  0.22664600  0.66657400  1
  B  B8  1  0.08295300  0.44010000  0.78182600  1
  B  B9  1  0.91704400  0.05988900  0.28188100  1
  B  B10  1  0.91705700  0.56011500  0.21803000  1
  B  B11  1  0.08303500  0.94029900  0.71783700  1
  P  P12  1  0.43093300  0.43580500  0.78667200  1
  P  P13  1  0.56907000  0.06405300  0.28672000  1
  P  P14  1  0.56868700  0.56427000  0.21348000  1
  P  P15  1  0.43095900  0.93596900  0.71304700  1
  P  P16  1  0.93121900  0.22402600  0.66287100  1
  P  P17  1  0.06849600  0.27606700  0.16296800  1
  P  P18  1  0.06874000  0.77611100  0.33705000  1
  P  P19  1  0.93198600  0.72401200  0.83701500  1
  H  H20  1  0.64204100  0.68993000  0.61632800  1
  H  H21  1  0.35766600  0.80985800  0.11623000  1
  H  H22  1  0.35791000  0.31005300  0.38366000  1
  H  H23  1  0.64251600  0.18975400  0.88402200  1
  H  H24  1  0.77494300  0.49906700  0.39736300  1
  H  H25  1  0.22500600  0.00090700  0.89739300  1
  H  H26  1  0.22501800  0.50095100  0.60267200  1
  H  H27  1  0.77542100  0.99669700  0.10302600  1
  H  H28  1  0.03503400  0.72371000  0.13125400  1
  H  H29  1  0.96527500  0.77750100  0.63164700  1
  H  H30  1  0.96538100  0.27741100  0.86823200  1
  H  H31  1  0.03483500  0.22256900  0.36828600  1
  H  H32  1  0.85535900  0.88558000  0.47359400  1
  H  H33  1  0.14530900  0.61473600  0.97354000  1
  H  H34  1  0.14467000  0.11444800  0.52639300  1
  H  H35  1  0.85465500  0.38645200  0.02708800  1
  H  H36  1  0.72353800  0.92189700  0.55177100  1
  H  H37  1  0.27707500  0.57820600  0.05196500  1
  H  H38  1  0.27651300  0.07809000  0.44823600  1
  H  H39  1  0.72460600  0.42336300  0.94789300  1
  H  H40  1  0.75422700  0.51582400  0.50419900  1
  H  H41  1  0.24586000  0.98421100  0.00423000  1
  H  H42  1  0.24578600  0.48418500  0.49582000  1
  H  H43  1  0.75504600  0.01501000  0.99531300  1
  H  H44  1  0.45675600  0.66849000  0.95063700  1
  H  H45  1  0.54324700  0.82977200  0.45018800  1
  H  H46  1  0.54316000  0.32962400  0.04989800  1
  H  H47  1  0.45676300  0.17028400  0.54986100  1
  H  H48  1  0.77522400  0.57433900  0.65588600  1
  H  H49  1  0.22496800  0.92578300  0.15594200  1
  H  H50  1  0.22471800  0.42556100  0.34413300  1
  H  H51  1  0.77516800  0.07416100  0.84401600  1
  O  O52  1  0.75293900  0.28908900  0.68981400  1
  O  O53  1  0.24699000  0.21103600  0.18970600  1
  O  O54  1  0.24714600  0.71096600  0.31022200  1
  O  O55  1  0.75323000  0.78888600  0.81096700  1
  O  O56  1  0.95396900  0.06922900  0.71924200  1
  O  O57  1  0.04563000  0.43065500  0.21948500  1
  O  O58  1  0.04603600  0.93085100  0.28066400  1
  O  O59  1  0.95384800  0.56918000  0.78049200  1
  O  O60  1  0.75680900  0.43951800  0.45310900  1
  O  O61  1  0.24307200  0.06052300  0.95313700  1
  O  O62  1  0.24324100  0.56048400  0.54690800  1
  O  O63  1  0.75491300  0.93913800  0.04685600  1
  O  O64  1  0.93059100  0.65999000  0.13766900  1
  O  O65  1  0.07063200  0.84010900  0.63738200  1
  O  O66  1  0.07059800  0.34009700  0.86237700  1
  O  O67  1  0.92936200  0.16016100  0.36232100  1
  O  O68  1  0.94915900  0.19832400  0.56157000  1
  O  O69  1  0.05018400  0.30206800  0.06163300  1
  O  O70  1  0.05075100  0.80172900  0.43832200  1
  O  O71  1  0.95344000  0.69872100  0.93836400  1
  O  O72  1  0.75524400  0.64399100  0.60388000  1
  O  O73  1  0.24471800  0.85653100  0.10372800  1
  O  O74  1  0.24481200  0.35610200  0.39620200  1
  O  O75  1  0.75547800  0.14318500  0.89637600  1
  O  O76  1  0.74825800  0.98531500  0.27924000  1
  O  O77  1  0.25172100  0.51468800  0.77929700  1
  O  O78  1  0.25178200  0.01496700  0.72047400  1
  O  O79  1  0.74808800  0.48608000  0.22006300  1
  O  O80  1  0.44770100  0.33526500  0.87182500  1
  O  O81  1  0.55229400  0.16460900  0.37179200  1
  O  O82  1  0.54903000  0.66493900  0.12851100  1
  O  O83  1  0.44769500  0.83555700  0.62792700  1
  O  O84  1  0.06055800  0.35227200  0.69473000  1
  O  O85  1  0.93952300  0.14751300  0.19465500  1
  O  O86  1  0.93944800  0.64780200  0.30514300  1
  O  O87  1  0.06062500  0.85245500  0.80480700  1
  O  O88  1  0.74521300  0.93923000  0.48731700  1
  O  O89  1  0.25521400  0.56047200  0.98749800  1
  O  O90  1  0.25482700  0.06083800  0.51269600  1
  O  O91  1  0.74319400  0.43765000  0.01292100  1
  O  O92  1  0.56910000  0.70745900  0.93107500  1
  O  O93  1  0.42940300  0.79360900  0.43119200  1
  O  O94  1  0.42937900  0.29350400  0.06898100  1
  O  O95  1  0.57057000  0.20652100  0.56884800  1
  O  O96  1  0.56133900  0.07427600  0.71683000  1
  O  O97  1  0.43888500  0.42541200  0.21722900  1
  O  O98  1  0.43885400  0.92562100  0.28315600  1
  O  O99  1  0.56137500  0.57411100  0.78321400  1
  O  O100  1  0.45470900  0.34168800  0.69729100  1
  O  O101  1  0.54510600  0.15815200  0.19729800  1
  O  O102  1  0.54533500  0.65826200  0.30296300  1
  O  O103  1  0.45489500  0.84159100  0.80229100  1
