# generated using pymatgen
data_La4Ga3FeO12
_symmetry_space_group_name_H-M   'P 1'
_cell_length_a   5.59778976
_cell_length_b   9.65745735
_cell_length_c   18.49520892
_cell_angle_alpha   99.97140533
_cell_angle_beta   90.03870674
_cell_angle_gamma   90.03928744
_symmetry_Int_Tables_number   1
_chemical_formula_structural   La4Ga3FeO12
_chemical_formula_sum   'La16 Ga12 Fe4 O48'
_cell_volume   984.75456193
_cell_formula_units_Z   4
loop_
 _symmetry_equiv_pos_site_id
 _symmetry_equiv_pos_as_xyz
  1  'x, y, z'
loop_
 _atom_site_type_symbol
 _atom_site_label
 _atom_site_symmetry_multiplicity
 _atom_site_fract_x
 _atom_site_fract_y
 _atom_site_fract_z
 _atom_site_occupancy
  La  La0  1  0.53175000  0.68579300  0.56487800  1
  La  La1  1  0.53157300  0.93595900  0.31494600  1
  La  La2  1  0.53164400  0.43594400  0.81494800  1
  La  La3  1  0.53151300  0.18582900  0.06492300  1
  La  La4  1  0.46836600  0.81406900  0.93513700  1
  La  La5  1  0.46850100  0.06412400  0.68505300  1
  La  La6  1  0.46851400  0.56424200  0.18510100  1
  La  La7  1  0.46855700  0.31409200  0.43504600  1
  La  La8  1  0.03225200  0.56467400  0.68576800  1
  La  La9  1  0.03216800  0.81474100  0.43581800  1
  La  La10  1  0.03222700  0.31470100  0.93579600  1
  La  La11  1  0.03223200  0.06473800  0.18578500  1
  La  La12  1  0.96769600  0.93521600  0.81423500  1
  La  La13  1  0.96766700  0.18525100  0.56418100  1
  La  La14  1  0.96760300  0.68531500  0.06425700  1
  La  La15  1  0.96772100  0.43532000  0.31422500  1
  Ga  Ga16  1  0.50014100  0.37505600  0.62494600  1
  Ga  Ga17  1  0.50016500  0.62494400  0.37500000  1
  Ga  Ga18  1  0.49993700  0.12503000  0.87494500  1
  Ga  Ga19  1  0.49996200  0.87507200  0.12498800  1
  Ga  Ga20  1  0.00006300  0.62495000  0.87506800  1
  Ga  Ga21  1  0.00002900  0.87495900  0.62504400  1
  Ga  Ga22  1  0.00007700  0.37496000  0.12503000  1
  Ga  Ga23  1  0.99989200  0.12506300  0.37499400  1
  Ga  Ga24  1  0.50000900  0.75003900  0.74997700  1
  Ga  Ga25  1  0.50003400  0.00007300  0.49993000  1
  Ga  Ga26  1  0.50005000  0.50001900  0.99996300  1
  Ga  Ga27  1  0.50003100  0.24989800  0.25005400  1
  Fe  Fe28  1  0.99979300  0.25000400  0.75000100  1
  Fe  Fe29  1  0.00009300  0.49986800  0.49993400  1
  Fe  Fe30  1  0.00033000  0.99980600  0.00002500  1
  Fe  Fe31  1  0.00004000  0.75025500  0.24997700  1
  O  O32  1  0.51636800  0.95691800  0.79208500  1
  O  O33  1  0.51647200  0.20694500  0.54208700  1
  O  O34  1  0.51633500  0.70694500  0.04211800  1
  O  O35  1  0.51637900  0.45691100  0.29211700  1
  O  O36  1  0.48369200  0.54305600  0.70786000  1
  O  O37  1  0.48368600  0.79307600  0.45788000  1
  O  O38  1  0.48367900  0.29308000  0.95786800  1
  O  O39  1  0.48361900  0.04304300  0.20792300  1
  O  O40  1  0.01606000  0.04122600  0.70652600  1
  O  O41  1  0.01614700  0.29121300  0.45650500  1
  O  O42  1  0.01604300  0.79122400  0.95655500  1
  O  O43  1  0.01609200  0.54136000  0.20647800  1
  O  O44  1  0.98375300  0.45872200  0.79351200  1
  O  O45  1  0.98388700  0.70864100  0.54350100  1
  O  O46  1  0.98376500  0.20868000  0.04354400  1
  O  O47  1  0.98375500  0.95886100  0.29347100  1
  O  O48  1  0.21785900  0.03955400  0.91824000  1
  O  O49  1  0.21792300  0.28952500  0.66818200  1
  O  O50  1  0.21790700  0.78961400  0.16820400  1
  O  O51  1  0.21809600  0.53948200  0.41820100  1
  O  O52  1  0.78219000  0.46041200  0.58177600  1
  O  O53  1  0.78201300  0.71053700  0.33179800  1
  O  O54  1  0.78200800  0.21046600  0.83179700  1
  O  O55  1  0.78188000  0.96047000  0.08181400  1
  O  O56  1  0.71792200  0.71234200  0.83110900  1
  O  O57  1  0.71802600  0.96234500  0.58105600  1
  O  O58  1  0.71801700  0.46240100  0.08109200  1
  O  O59  1  0.71794900  0.21240500  0.33112500  1
  O  O60  1  0.28203400  0.78758500  0.66889200  1
  O  O61  1  0.28199700  0.03768100  0.41889000  1
  O  O62  1  0.28206000  0.53765800  0.91891300  1
  O  O63  1  0.28201300  0.28758300  0.16892000  1
  O  O64  1  0.78188600  0.77208800  0.68454800  1
  O  O65  1  0.78185700  0.02220200  0.43454000  1
  O  O66  1  0.78187100  0.52215800  0.93456400  1
  O  O67  1  0.78187200  0.27215800  0.18459800  1
  O  O68  1  0.21812300  0.72777700  0.81545000  1
  O  O69  1  0.21813800  0.97783700  0.56541900  1
  O  O70  1  0.21816100  0.47782600  0.06541100  1
  O  O71  1  0.21811700  0.22787400  0.31545200  1
  O  O72  1  0.28517100  0.47706000  0.56540800  1
  O  O73  1  0.28475600  0.72710400  0.31547900  1
  O  O74  1  0.28478000  0.22711200  0.81549300  1
  O  O75  1  0.28486100  0.97709800  0.06548000  1
  O  O76  1  0.71499900  0.02294200  0.93454800  1
  O  O77  1  0.71494700  0.27291600  0.68453600  1
  O  O78  1  0.71491700  0.77297900  0.18455100  1
  O  O79  1  0.71529000  0.52290400  0.43451000  1
