# generated using pymatgen
data_La3Nd(GaO3)4
_symmetry_space_group_name_H-M   'P 1'
_cell_length_a   7.86027500
_cell_length_b   5.55603500
_cell_length_c   5.55702540
_cell_angle_alpha   89.90036947
_cell_angle_beta   90.00000000
_cell_angle_gamma   90.00000000
_symmetry_Int_Tables_number   1
_chemical_formula_structural   La3Nd(GaO3)4
_chemical_formula_sum   'La3 Nd1 Ga4 O12'
_cell_volume   242.68584087
_cell_formula_units_Z   1
loop_
 _symmetry_equiv_pos_site_id
 _symmetry_equiv_pos_as_xyz
  1  'x, y, z'
loop_
 _atom_site_type_symbol
 _atom_site_label
 _atom_site_symmetry_multiplicity
 _atom_site_fract_x
 _atom_site_fract_y
 _atom_site_fract_z
 _atom_site_occupancy
  La  La0  1  0.00000000  0.52669700  0.99339100  1
  La  La1  1  0.50000000  0.97459400  0.49337100  1
  La  La2  1  0.50000000  0.47229000  0.00836800  1
  Nd  Nd3  1  0.00000000  0.03467700  0.50953400  1
  Ga  Ga4  1  0.24902800  0.50157800  0.49983300  1
  Ga  Ga5  1  0.75131700  0.99949300  0.00044700  1
  Ga  Ga6  1  0.75097200  0.50157800  0.49983300  1
  Ga  Ga7  1  0.24868300  0.99949300  0.00044700  1
  O  O8  1  0.00000000  0.48245700  0.42375200  1
  O  O9  1  0.00000000  0.98733600  0.08359200  1
  O  O10  1  0.50000000  0.51224200  0.57688700  1
  O  O11  1  0.50000000  0.01200800  0.92429600  1
  O  O12  1  0.20565700  0.78205800  0.71830800  1
  O  O13  1  0.79362400  0.27691200  0.77618800  1
  O  O14  1  0.71005300  0.21987300  0.27920100  1
  O  O15  1  0.29141100  0.71893400  0.21942900  1
  O  O16  1  0.28994700  0.21987300  0.27920100  1
  O  O17  1  0.70858900  0.71893400  0.21942900  1
  O  O18  1  0.79434300  0.78205800  0.71830800  1
  O  O19  1  0.20637600  0.27691200  0.77618800  1
