# generated using pymatgen
data_Lu4Ge8Ru
_symmetry_space_group_name_H-M   'P 1'
_cell_length_a   3.98542000
_cell_length_b   4.13089300
_cell_length_c   15.95991700
_cell_angle_alpha   90.00000000
_cell_angle_beta   90.00000000
_cell_angle_gamma   90.00000000
_symmetry_Int_Tables_number   1
_chemical_formula_structural   Lu4Ge8Ru
_chemical_formula_sum   'Lu4 Ge8 Ru1'
_cell_volume   262.75359708
_cell_formula_units_Z   1
loop_
 _symmetry_equiv_pos_site_id
 _symmetry_equiv_pos_as_xyz
  1  'x, y, z'
loop_
 _atom_site_type_symbol
 _atom_site_label
 _atom_site_symmetry_multiplicity
 _atom_site_fract_x
 _atom_site_fract_y
 _atom_site_fract_z
 _atom_site_occupancy
  Lu  Lu0  1  0.25000000  0.00000000  0.09743800  1
  Lu  Lu1  1  0.25000000  0.50000000  0.61031500  1
  Lu  Lu2  1  0.75000000  0.50000000  0.39964000  1
  Lu  Lu3  1  0.75000000  0.00000000  0.89464300  1
  Ge  Ge4  1  0.25000000  0.00000000  0.46519500  1
  Ge  Ge5  1  0.25000000  0.50000000  0.94268600  1
  Ge  Ge6  1  0.75000000  0.50000000  0.05249800  1
  Ge  Ge7  1  0.75000000  0.00000000  0.56945800  1
  Ge  Ge8  1  0.25000000  0.50000000  0.22945400  1
  Ge  Ge9  1  0.25000000  0.00000000  0.74988000  1
  Ge  Ge10  1  0.75000000  0.00000000  0.22755600  1
  Ge  Ge11  1  0.75000000  0.50000000  0.75465300  1
  Ru  Ru12  1  0.25000000  0.00000000  0.31358600  1
