# generated using pymatgen
data_LaCe(O2F)2
_symmetry_space_group_name_H-M   'P 1'
_cell_length_a   4.01833411
_cell_length_b   4.01803802
_cell_length_c   8.35445600
_cell_angle_alpha   90.00000000
_cell_angle_beta   90.00000000
_cell_angle_gamma   119.99756428
_symmetry_Int_Tables_number   1
_chemical_formula_structural   LaCe(O2F)2
_chemical_formula_sum   'La1 Ce1 O4 F2'
_cell_volume   116.82063214
_cell_formula_units_Z   1
loop_
 _symmetry_equiv_pos_site_id
 _symmetry_equiv_pos_as_xyz
  1  'x, y, z'
loop_
 _atom_site_type_symbol
 _atom_site_label
 _atom_site_symmetry_multiplicity
 _atom_site_fract_x
 _atom_site_fract_y
 _atom_site_fract_z
 _atom_site_occupancy
  La  La0  1  0.33345300  0.66672700  0.50000000  1
  Ce  Ce1  1  0.33340700  0.66670400  0.00000000  1
  O  O2  1  0.66702400  0.33351100  0.33613000  1
  O  O3  1  0.66631300  0.33315600  0.84579600  1
  O  O4  1  0.66631300  0.33315600  0.15420400  1
  O  O5  1  0.66702400  0.33351100  0.66387000  1
  F  F6  1  0.99993800  0.99996800  0.00000000  1
  F  F7  1  0.99999700  0.99999800  0.50000000  1
