# generated using pymatgen
data_La2ZnAs4
_symmetry_space_group_name_H-M   'P 1'
_cell_length_a   10.81065532
_cell_length_b   10.81065532
_cell_length_c   10.81065532
_cell_angle_alpha   158.52155714
_cell_angle_beta   158.52155714
_cell_angle_gamma   30.55846783
_symmetry_Int_Tables_number   1
_chemical_formula_structural   La2ZnAs4
_chemical_formula_sum   'La2 Zn1 As4'
_cell_volume   169.27611432
_cell_formula_units_Z   1
loop_
 _symmetry_equiv_pos_site_id
 _symmetry_equiv_pos_as_xyz
  1  'x, y, z'
loop_
 _atom_site_type_symbol
 _atom_site_label
 _atom_site_symmetry_multiplicity
 _atom_site_fract_x
 _atom_site_fract_y
 _atom_site_fract_z
 _atom_site_occupancy
  La  La0  1  0.87921200  0.87921200  0.00000000  1
  La  La1  1  0.12078800  0.12078800  0.00000000  1
  Zn  Zn2  1  0.25000000  0.75000000  0.50000000  1
  As  As3  1  0.49949500  0.99949500  0.50000000  1
  As  As4  1  0.00050500  0.50050500  0.50000000  1
  As  As5  1  0.67602700  0.67602700  0.00000000  1
  As  As6  1  0.32397300  0.32397300  0.00000000  1
