# generated using pymatgen
data_La2NiPt
_symmetry_space_group_name_H-M   'P 1'
_cell_length_a   5.87764761
_cell_length_b   5.87764761
_cell_length_c   4.45972900
_cell_angle_alpha   90.00000000
_cell_angle_beta   90.00000000
_cell_angle_gamma   140.51691079
_symmetry_Int_Tables_number   1
_chemical_formula_structural   La2NiPt
_chemical_formula_sum   'La2 Ni1 Pt1'
_cell_volume   97.96490916
_cell_formula_units_Z   1
loop_
 _symmetry_equiv_pos_site_id
 _symmetry_equiv_pos_as_xyz
  1  'x, y, z'
loop_
 _atom_site_type_symbol
 _atom_site_label
 _atom_site_symmetry_multiplicity
 _atom_site_fract_x
 _atom_site_fract_y
 _atom_site_fract_z
 _atom_site_occupancy
  La  La0  1  0.86291000  0.13709000  0.50000000  1
  La  La1  1  0.13400600  0.86599400  0.00000000  1
  Ni  Ni2  1  0.58563400  0.41436600  0.50000000  1
  Pt  Pt3  1  0.41745100  0.58254900  0.00000000  1
