# generated using pymatgen
data_La3YTi4O14
_symmetry_space_group_name_H-M   'P 1'
_cell_length_a   7.36346240
_cell_length_b   7.36346240
_cell_length_c   7.36346248
_cell_angle_alpha   60.09232980
_cell_angle_beta   60.09232980
_cell_angle_gamma   60.09232809
_symmetry_Int_Tables_number   1
_chemical_formula_structural   La3YTi4O14
_chemical_formula_sum   'La3 Y1 Ti4 O14'
_cell_volume   282.90385846
_cell_formula_units_Z   1
loop_
 _symmetry_equiv_pos_site_id
 _symmetry_equiv_pos_as_xyz
  1  'x, y, z'
loop_
 _atom_site_type_symbol
 _atom_site_label
 _atom_site_symmetry_multiplicity
 _atom_site_fract_x
 _atom_site_fract_y
 _atom_site_fract_z
 _atom_site_occupancy
  La  La0  1  0.00000000  0.50000000  0.50000000  1
  La  La1  1  0.50000000  0.50000000  0.00000000  1
  La  La2  1  0.50000000  0.00000000  0.50000000  1
  Y  Y3  1  0.50000000  0.50000000  0.50000000  1
  Ti  Ti4  1  0.00000000  0.00000000  0.00000000  1
  Ti  Ti5  1  0.50000000  0.00000000  0.00000000  1
  Ti  Ti6  1  0.00000000  0.00000000  0.50000000  1
  Ti  Ti7  1  0.00000000  0.50000000  0.00000000  1
  O  O8  1  0.38007800  0.38007800  0.38007800  1
  O  O9  1  0.61992200  0.61992200  0.61992200  1
  O  O10  1  0.92236900  0.32503100  0.32503100  1
  O  O11  1  0.32391200  0.92617100  0.92617100  1
  O  O12  1  0.32503100  0.32503100  0.92236900  1
  O  O13  1  0.92617100  0.92617100  0.32391200  1
  O  O14  1  0.92617100  0.32391200  0.92617100  1
  O  O15  1  0.32503100  0.92236900  0.32503100  1
  O  O16  1  0.07763100  0.67496900  0.67496900  1
  O  O17  1  0.67608800  0.07382900  0.07382900  1
  O  O18  1  0.67496900  0.67496900  0.07763100  1
  O  O19  1  0.07382900  0.07382900  0.67608800  1
  O  O20  1  0.07382900  0.67608800  0.07382900  1
  O  O21  1  0.67496900  0.07763100  0.67496900  1
