# generated using pymatgen
data_La6TaGa11O28
_symmetry_space_group_name_H-M   'P 1'
_cell_length_a   9.80066342
_cell_length_b   9.80066342
_cell_length_c   10.35494918
_cell_angle_alpha   58.10125322
_cell_angle_beta   58.10125322
_cell_angle_gamma   50.24289868
_symmetry_Int_Tables_number   1
_chemical_formula_structural   La6TaGa11O28
_chemical_formula_sum   'La6 Ta1 Ga11 O28'
_cell_volume   620.89719176
_cell_formula_units_Z   1
loop_
 _symmetry_equiv_pos_site_id
 _symmetry_equiv_pos_as_xyz
  1  'x, y, z'
loop_
 _atom_site_type_symbol
 _atom_site_label
 _atom_site_symmetry_multiplicity
 _atom_site_fract_x
 _atom_site_fract_y
 _atom_site_fract_z
 _atom_site_occupancy
  La  La0  1  0.57970600  0.00142700  0.20923700  1
  La  La1  1  0.57118700  0.99868800  0.71527100  1
  La  La2  1  0.41932100  0.58067900  0.00000000  1
  La  La3  1  0.42971800  0.57028200  0.50000000  1
  La  La4  1  0.99857300  0.42029400  0.79076300  1
  La  La5  1  0.00131200  0.42881300  0.28472900  1
  Ta  Ta6  1  0.99998100  0.00001900  0.50000000  1
  Ga  Ga7  1  0.24078000  0.99949500  0.63451600  1
  Ga  Ga8  1  0.24057000  0.00050400  0.12481400  1
  Ga  Ga9  1  0.75851400  0.23993300  0.24527000  1
  Ga  Ga10  1  0.76006700  0.24148600  0.75473000  1
  Ga  Ga11  1  0.00050500  0.75922000  0.36548400  1
  Ga  Ga12  1  0.99949600  0.75943000  0.87518600  1
  Ga  Ga13  1  0.33320600  0.33092900  0.40296300  1
  Ga  Ga14  1  0.33342100  0.33576000  0.89988300  1
  Ga  Ga15  1  0.66907100  0.66679400  0.59703700  1
  Ga  Ga16  1  0.66424000  0.66657900  0.10011700  1
  Ga  Ga17  1  0.00013000  0.99987000  0.00000000  1
  O  O18  1  0.85490700  0.69123900  0.57556900  1
  O  O19  1  0.85224900  0.68800400  0.07902700  1
  O  O20  1  0.45911200  0.85298500  0.69304000  1
  O  O21  1  0.45442500  0.85408900  0.19449600  1
  O  O22  1  0.68892200  0.45942500  0.77507500  1
  O  O23  1  0.69023900  0.45426400  0.27640200  1
  O  O24  1  0.14701500  0.54088800  0.30696000  1
  O  O25  1  0.14591100  0.54557500  0.80550400  1
  O  O26  1  0.30876100  0.14509300  0.42443100  1
  O  O27  1  0.31199600  0.14775100  0.92097300  1
  O  O28  1  0.54057500  0.31107800  0.22492500  1
  O  O29  1  0.54573600  0.30976100  0.72359800  1
  O  O30  1  0.33574700  0.33267100  0.57669300  1
  O  O31  1  0.33088300  0.33403100  0.07804700  1
  O  O32  1  0.66732900  0.66425300  0.42330700  1
  O  O33  1  0.66596900  0.66911700  0.92195300  1
  O  O34  1  0.85489200  0.92500700  0.23004500  1
  O  O35  1  0.85984400  0.91979400  0.72655100  1
  O  O36  1  0.22036600  0.85983900  0.57630700  1
  O  O37  1  0.22018600  0.85479600  0.08252200  1
  O  O38  1  0.91946300  0.22060600  0.54619600  1
  O  O39  1  0.92555600  0.21983500  0.04760200  1
  O  O40  1  0.14016100  0.77963400  0.42369300  1
  O  O41  1  0.14520400  0.77981400  0.91747800  1
  O  O42  1  0.07499300  0.14510800  0.76995500  1
  O  O43  1  0.08020600  0.14015600  0.27344900  1
  O  O44  1  0.77939400  0.08053700  0.45380400  1
  O  O45  1  0.78016500  0.07444400  0.95239800  1
