# generated using pymatgen
data_La2MgZr2O8
_symmetry_space_group_name_H-M   'P 1'
_cell_length_a   5.51951400
_cell_length_b   5.51951400
_cell_length_c   6.72215789
_cell_angle_alpha   65.76084333
_cell_angle_beta   65.76084333
_cell_angle_gamma   90.00000000
_symmetry_Int_Tables_number   1
_chemical_formula_structural   La2MgZr2O8
_chemical_formula_sum   'La2 Mg1 Zr2 O8'
_cell_volume   166.73836473
_cell_formula_units_Z   1
loop_
 _symmetry_equiv_pos_site_id
 _symmetry_equiv_pos_as_xyz
  1  'x, y, z'
loop_
 _atom_site_type_symbol
 _atom_site_label
 _atom_site_symmetry_multiplicity
 _atom_site_fract_x
 _atom_site_fract_y
 _atom_site_fract_z
 _atom_site_occupancy
  La  La0  1  0.00000000  0.00000000  0.00000000  1
  La  La1  1  0.50000000  0.50000000  0.00000000  1
  Mg  Mg2  1  0.50000000  0.00000000  0.00000000  1
  Zr  Zr3  1  0.22153000  0.72153000  0.55693900  1
  Zr  Zr4  1  0.77847000  0.27847000  0.44306100  1
  O  O5  1  0.38691500  0.37600000  0.73708500  1
  O  O6  1  0.61308500  0.11308500  0.26291500  1
  O  O7  1  0.87600000  0.88691500  0.73708500  1
  O  O8  1  0.12400000  0.62400000  0.26291500  1
  O  O9  1  0.61308500  0.62400000  0.26291500  1
  O  O10  1  0.87600000  0.37600000  0.73708500  1
  O  O11  1  0.12400000  0.11308500  0.26291500  1
  O  O12  1  0.38691500  0.88691500  0.73708500  1
