# generated using pymatgen
data_Ho2Ga3Ni
_symmetry_space_group_name_H-M   'P 1'
_cell_length_a   5.55258279
_cell_length_b   5.55258279
_cell_length_c   7.08662746
_cell_angle_alpha   51.20798546
_cell_angle_beta   51.20798546
_cell_angle_gamma   46.21982737
_symmetry_Int_Tables_number   1
_chemical_formula_structural   Ho2Ga3Ni
_chemical_formula_sum   'Ho2 Ga3 Ni1'
_cell_volume   115.49418958
_cell_formula_units_Z   1
loop_
 _symmetry_equiv_pos_site_id
 _symmetry_equiv_pos_as_xyz
  1  'x, y, z'
loop_
 _atom_site_type_symbol
 _atom_site_label
 _atom_site_symmetry_multiplicity
 _atom_site_fract_x
 _atom_site_fract_y
 _atom_site_fract_z
 _atom_site_occupancy
  Ho  Ho0  1  0.54066800  0.54066800  0.70809100  1
  Ho  Ho1  1  0.45429300  0.45429300  0.29713300  1
  Ga  Ga2  1  0.85219000  0.85219000  0.68663700  1
  Ga  Ga3  1  0.82344900  0.82344900  0.12321300  1
  Ga  Ga4  1  0.16247700  0.16247700  0.90443100  1
  Ni  Ni5  1  0.16692400  0.16692400  0.28049500  1
