# generated using pymatgen
data_HoAlNi4
_symmetry_space_group_name_H-M   'P 1'
_cell_length_a   5.01928497
_cell_length_b   5.01928497
_cell_length_c   3.85204500
_cell_angle_alpha   90.00000000
_cell_angle_beta   90.00000000
_cell_angle_gamma   119.99998647
_symmetry_Int_Tables_number   1
_chemical_formula_structural   HoAlNi4
_chemical_formula_sum   'Ho1 Al1 Ni4'
_cell_volume   84.04381352
_cell_formula_units_Z   1
loop_
 _symmetry_equiv_pos_site_id
 _symmetry_equiv_pos_as_xyz
  1  'x, y, z'
loop_
 _atom_site_type_symbol
 _atom_site_label
 _atom_site_symmetry_multiplicity
 _atom_site_fract_x
 _atom_site_fract_y
 _atom_site_fract_z
 _atom_site_occupancy
  Ho  Ho0  1  0.66666700  0.33333300  0.00000000  1
  Al  Al1  1  0.00000000  0.00000000  0.00000000  1
  Ni  Ni2  1  0.33333300  0.66666700  0.00000000  1
  Ni  Ni3  1  0.16841700  0.33683400  0.50000000  1
  Ni  Ni4  1  0.66316600  0.83158300  0.50000000  1
  Ni  Ni5  1  0.16841700  0.83158300  0.50000000  1
