# generated using pymatgen
data_K3NaU(CO4)3
_symmetry_space_group_name_H-M   'P 1'
_cell_length_a   8.37122675
_cell_length_b   9.40749247
_cell_length_c   9.42868880
_cell_angle_alpha   119.92565656
_cell_angle_beta   89.95494007
_cell_angle_gamma   90.09031609
_symmetry_Int_Tables_number   1
_chemical_formula_structural   K3NaU(CO4)3
_chemical_formula_sum   'K6 Na2 U2 C6 O24'
_cell_volume   643.53065072
_cell_formula_units_Z   2
loop_
 _symmetry_equiv_pos_site_id
 _symmetry_equiv_pos_as_xyz
  1  'x, y, z'
loop_
 _atom_site_type_symbol
 _atom_site_label
 _atom_site_symmetry_multiplicity
 _atom_site_fract_x
 _atom_site_fract_y
 _atom_site_fract_z
 _atom_site_occupancy
  K  K0  1  0.99875300  0.29064500  0.99993600  1
  K  K1  1  0.99912500  0.70928700  0.70885100  1
  K  K2  1  0.99895300  0.00055600  0.29061900  1
  K  K3  1  0.49875300  0.29070900  0.00006400  1
  K  K4  1  0.49895300  0.70993700  0.70938100  1
  K  K5  1  0.49912500  0.00043600  0.29115000  1
  Na  Na6  1  0.74982500  0.33324400  0.66621200  1
  Na  Na7  1  0.24982500  0.66703300  0.33378800  1
  U  U8  1  0.74998200  0.66662800  0.33309200  1
  U  U9  1  0.24998200  0.33353600  0.66690800  1
  C  C10  1  0.74954200  0.98591800  0.62721100  1
  C  C11  1  0.74940200  0.64142700  0.01366500  1
  C  C12  1  0.74958800  0.37257600  0.35924400  1
  C  C13  1  0.24954200  0.35870700  0.37278900  1
  C  C14  1  0.24940200  0.62776200  0.98633500  1
  C  C15  1  0.24958800  0.01333200  0.64075600  1
  O  O16  1  0.97025500  0.66694400  0.33340000  1
  O  O17  1  0.52962600  0.66668900  0.33334800  1
  O  O18  1  0.47025500  0.33354400  0.66660000  1
  O  O19  1  0.02962600  0.33334100  0.66665200  1
  O  O20  1  0.75002400  0.84737400  0.62924100  1
  O  O21  1  0.74940200  0.78243900  0.15272900  1
  O  O22  1  0.74973000  0.37032200  0.21879900  1
  O  O23  1  0.25002400  0.21813300  0.37075900  1
  O  O24  1  0.24940200  0.62971000  0.84727100  1
  O  O25  1  0.24973000  0.15152300  0.78120100  1
  O  O26  1  0.75021800  0.96796500  0.47944000  1
  O  O27  1  0.75037700  0.51203400  0.03349300  1
  O  O28  1  0.75016500  0.52120900  0.48802800  1
  O  O29  1  0.25021800  0.48852500  0.52056000  1
  O  O30  1  0.25037700  0.47854100  0.96650700  1
  O  O31  1  0.25016500  0.03318100  0.51197200  1
  O  O32  1  0.74860500  0.12582900  0.75539900  1
  O  O33  1  0.74880600  0.62987700  0.87432000  1
  O  O34  1  0.74930200  0.24474900  0.37169200  1
  O  O35  1  0.24860500  0.37042900  0.24460100  1
  O  O36  1  0.24880600  0.75555700  0.12568000  1
  O  O37  1  0.24930200  0.87305700  0.62830800  1
  O  O38  1  0.13832100  0.00052800  0.00356300  1
  O  O39  1  0.63832100  0.99696500  0.99643700  1
