# generated using pymatgen
data_K6Na3Ti2Al2Si8Cl3O26
_symmetry_space_group_name_H-M   'P 1'
_cell_length_a   9.24823000
_cell_length_b   9.77907799
_cell_length_c   9.77897532
_cell_angle_alpha   115.10388712
_cell_angle_beta   98.16754521
_cell_angle_gamma   98.20274984
_symmetry_Int_Tables_number   1
_chemical_formula_structural   K6Na3Ti2Al2Si8Cl3O26
_chemical_formula_sum   'K6 Na3 Ti2 Al2 Si8 Cl3 O26'
_cell_volume   772.15131981
_cell_formula_units_Z   1
loop_
 _symmetry_equiv_pos_site_id
 _symmetry_equiv_pos_as_xyz
  1  'x, y, z'
loop_
 _atom_site_type_symbol
 _atom_site_label
 _atom_site_symmetry_multiplicity
 _atom_site_fract_x
 _atom_site_fract_y
 _atom_site_fract_z
 _atom_site_occupancy
  K  K0  1  0.89282300  0.65099000  0.93393400  1
  K  K1  1  0.89254000  0.93395700  0.65116700  1
  K  K2  1  0.10717700  0.34901000  0.06606600  1
  K  K3  1  0.10746000  0.06604300  0.34883300  1
  K  K4  1  0.63699600  0.89258400  0.90863800  1
  K  K5  1  0.36300400  0.10741600  0.09136200  1
  Na  Na6  1  0.50000400  0.61664600  0.38348400  1
  Na  Na7  1  0.49999600  0.38335400  0.61651600  1
  Na  Na8  1  0.00000000  0.50000000  0.50000000  1
  Ti  Ti9  1  0.50000000  0.50000000  0.00000000  1
  Ti  Ti10  1  0.50000000  0.00000000  0.50000000  1
  Al  Al11  1  0.00003200  0.68404400  0.31601500  1
  Al  Al12  1  0.99996800  0.31595600  0.68398500  1
  Si  Si13  1  0.73577100  0.17669500  0.37258300  1
  Si  Si14  1  0.73592200  0.37254200  0.17660100  1
  Si  Si15  1  0.26422900  0.82330500  0.62741700  1
  Si  Si16  1  0.26407800  0.62745800  0.82339900  1
  Si  Si17  1  0.72311800  0.83842700  0.26461000  1
  Si  Si18  1  0.72301100  0.26429000  0.83841200  1
  Si  Si19  1  0.27688200  0.16157300  0.73539000  1
  Si  Si20  1  0.27698900  0.73571000  0.16158800  1
  Cl  Cl21  1  0.27592700  0.38195300  0.38188500  1
  Cl  Cl22  1  0.72407300  0.61804700  0.61811500  1
  Cl  Cl23  1  0.00000000  0.00000000  0.00000000  1
  O  O24  1  0.64620700  0.70182400  0.09038900  1
  O  O25  1  0.64601800  0.09043000  0.70145100  1
  O  O26  1  0.35379300  0.29817600  0.90961100  1
  O  O27  1  0.35398200  0.90957000  0.29854900  1
  O  O28  1  0.74718400  0.00225100  0.24647200  1
  O  O29  1  0.74714900  0.24657900  0.00233100  1
  O  O30  1  0.25281600  0.99774900  0.75352800  1
  O  O31  1  0.25285100  0.75342100  0.99766900  1
  O  O32  1  0.89037900  0.81834700  0.32435000  1
  O  O33  1  0.89040300  0.32445200  0.81843000  1
  O  O34  1  0.10962100  0.18165300  0.67565000  1
  O  O35  1  0.10959700  0.67554800  0.18157000  1
  O  O36  1  0.89787000  0.26138300  0.49496100  1
  O  O37  1  0.89789100  0.49505400  0.26144100  1
  O  O38  1  0.10213000  0.73861700  0.50503900  1
  O  O39  1  0.10210900  0.50494600  0.73855900  1
  O  O40  1  0.63108700  0.86208100  0.40081200  1
  O  O41  1  0.63108800  0.40082900  0.86219200  1
  O  O42  1  0.36891300  0.13791900  0.59918800  1
  O  O43  1  0.36891200  0.59917100  0.13780800  1
  O  O44  1  0.70290200  0.26896800  0.26896100  1
  O  O45  1  0.29709800  0.73103200  0.73103900  1
  O  O46  1  0.59692500  0.16475200  0.45400000  1
  O  O47  1  0.59686800  0.45382400  0.16473100  1
  O  O48  1  0.40307500  0.83524800  0.54600000  1
  O  O49  1  0.40313200  0.54617600  0.83526900  1
