# generated using pymatgen
data_KBaC20
_symmetry_space_group_name_H-M   'P 1'
_cell_length_a   9.83727583
_cell_length_b   9.83727583
_cell_length_c   9.83727583
_cell_angle_alpha   109.98150690
_cell_angle_beta   109.35574549
_cell_angle_gamma   109.07773533
_symmetry_Int_Tables_number   1
_chemical_formula_structural   KBaC20
_chemical_formula_sum   'K3 Ba3 C60'
_cell_volume   732.78110105
_cell_formula_units_Z   3
loop_
 _symmetry_equiv_pos_site_id
 _symmetry_equiv_pos_as_xyz
  1  'x, y, z'
loop_
 _atom_site_type_symbol
 _atom_site_label
 _atom_site_symmetry_multiplicity
 _atom_site_fract_x
 _atom_site_fract_y
 _atom_site_fract_z
 _atom_site_occupancy
  K  K0  1  0.22281000  0.72281000  0.50000000  1
  K  K1  1  0.49543400  0.78087000  0.28543500  1
  K  K2  1  0.49543400  0.20999900  0.71456500  1
  Ba  Ba3  1  0.71564600  0.50252000  0.21312700  1
  Ba  Ba4  1  0.28939300  0.50252000  0.78687300  1
  Ba  Ba5  1  0.77692700  0.27692700  0.50000000  1
  C  C6  1  0.62880800  0.93669900  0.69211000  1
  C  C7  1  0.24458900  0.93669900  0.30789000  1
  C  C8  1  0.37171700  0.06286100  0.30885600  1
  C  C9  1  0.75400600  0.06286100  0.69114400  1
  C  C10  1  0.30853800  0.24482200  0.93628400  1
  C  C11  1  0.69059900  0.62659600  0.93599700  1
  C  C12  1  0.69059900  0.75460200  0.06400300  1
  C  C13  1  0.30853800  0.37225400  0.06371600  1
  C  C14  1  0.06361100  0.31170300  0.37488100  1
  C  C15  1  0.06361100  0.68873000  0.75190800  1
  C  C16  1  0.93682200  0.68873000  0.62511900  1
  C  C17  1  0.93682200  0.31170300  0.24809200  1
  C  C18  1  0.70843700  0.73093500  0.56589100  1
  C  C19  1  0.16504400  0.14254600  0.43410900  1
  C  C20  1  0.29130800  0.85719900  0.02252500  1
  C  C21  1  0.83467300  0.26878300  0.97747500  1
  C  C22  1  0.43318500  0.16419300  0.14125100  1
  C  C23  1  0.56716300  0.70787400  0.73145200  1
  C  C24  1  0.97642100  0.83571100  0.26854800  1
  C  C25  1  0.02294200  0.29193500  0.85874900  1
  C  C26  1  0.85923800  0.02591600  0.29335300  1
  C  C27  1  0.26737400  0.97414200  0.83326100  1
  C  C28  1  0.73256300  0.56588500  0.70664700  1
  C  C29  1  0.14088100  0.43411200  0.16673800  1
  C  C30  1  0.29130800  0.26878300  0.43411000  1
  C  C31  1  0.83467300  0.85719900  0.56589000  1
  C  C32  1  0.70843700  0.14254600  0.97750200  1
  C  C33  1  0.16504400  0.73093500  0.02249800  1
  C  C34  1  0.56716300  0.83571100  0.85928900  1
  C  C35  1  0.43318500  0.29193500  0.26899200  1
  C  C36  1  0.02294200  0.16419300  0.73100800  1
  C  C37  1  0.97642100  0.70787400  0.14071100  1
  C  C38  1  0.14088100  0.97414200  0.70676800  1
  C  C39  1  0.73256300  0.02591600  0.16667800  1
  C  C40  1  0.26737400  0.43411200  0.29323200  1
  C  C41  1  0.85923800  0.56588500  0.83332200  1
  C  C42  1  0.60507600  0.76985700  0.62777900  1
  C  C43  1  0.14207900  0.97729700  0.37222100  1
  C  C44  1  0.39608600  0.02247700  0.16568800  1
  C  C45  1  0.85678900  0.23039700  0.83431200  1
  C  C46  1  0.37156200  0.14056000  0.97552300  1
  C  C47  1  0.62875300  0.60418600  0.76937300  1
  C  C48  1  0.83481300  0.85938000  0.23062700  1
  C  C49  1  0.16503600  0.39603900  0.02447700  1
  C  C50  1  0.02397800  0.16859700  0.39838600  1
  C  C51  1  0.22940700  0.83203200  0.85590600  1
  C  C52  1  0.77021100  0.62559200  0.60161400  1
  C  C53  1  0.97612600  0.37350100  0.14409400  1
  C  C54  1  0.39608600  0.23039700  0.37360800  1
  C  C55  1  0.85678900  0.02247700  0.62639200  1
  C  C56  1  0.60507600  0.97729700  0.83521900  1
  C  C57  1  0.14207900  0.76985700  0.16478100  1
  C  C58  1  0.62875300  0.85938000  0.02456700  1
  C  C59  1  0.37156200  0.39603900  0.23100200  1
  C  C60  1  0.16503600  0.14056000  0.76899800  1
  C  C61  1  0.83481300  0.60418600  0.97543300  1
  C  C62  1  0.97612600  0.83203200  0.60262500  1
  C  C63  1  0.77021100  0.16859700  0.14461900  1
  C  C64  1  0.22940700  0.37350100  0.39737500  1
  C  C65  1  0.02397800  0.62559200  0.85538100  1
