# generated using pymatgen
data_KMg3AlSi3O11F
_symmetry_space_group_name_H-M   'P 1'
_cell_length_a   5.37204300
_cell_length_b   5.40331454
_cell_length_c   10.27904900
_cell_angle_alpha   94.52253464
_cell_angle_beta   95.77404528
_cell_angle_gamma   119.77367458
_symmetry_Int_Tables_number   1
_chemical_formula_structural   KMg3AlSi3O11F
_chemical_formula_sum   'K1 Mg3 Al1 Si3 O11 F1'
_cell_volume   254.78547607
_cell_formula_units_Z   1
loop_
 _symmetry_equiv_pos_site_id
 _symmetry_equiv_pos_as_xyz
  1  'x, y, z'
loop_
 _atom_site_type_symbol
 _atom_site_label
 _atom_site_symmetry_multiplicity
 _atom_site_fract_x
 _atom_site_fract_y
 _atom_site_fract_z
 _atom_site_occupancy
  K  K0  1  0.93813200  0.93870000  0.81322900  1
  Mg  Mg1  1  0.44802700  0.44822000  0.34098100  1
  Mg  Mg2  1  0.78129700  0.11639700  0.34313300  1
  Mg  Mg3  1  0.11558600  0.77450700  0.33992700  1
  Al  Al4  1  0.53038400  0.20114000  0.61400700  1
  Si  Si5  1  0.20378100  0.53955600  0.61916500  1
  Si  Si6  1  0.35635700  0.68997700  0.06687000  1
  Si  Si7  1  0.69008600  0.35654200  0.06702200  1
  O  O8  1  0.47574700  0.14395000  0.43850200  1
  O  O9  1  0.15114900  0.48870500  0.45393900  1
  O  O10  1  0.50506900  0.00472700  0.00987500  1
  O  O11  1  0.00226800  0.50532000  0.00784000  1
  O  O12  1  0.41169100  0.73994300  0.22741400  1
  O  O13  1  0.74929500  0.41137600  0.22750000  1
  O  O14  1  0.37954600  0.87975400  0.67917700  1
  O  O15  1  0.89912400  0.39046900  0.67602200  1
  O  O16  1  0.38811700  0.40006400  0.67938500  1
  O  O17  1  0.50122100  0.50279000  0.00852900  1
  O  O18  1  0.08560400  0.08329800  0.24837300  1
  F  F19  1  0.80751700  0.80456400  0.43910900  1
