# generated using pymatgen
data_K2VOF4
_symmetry_space_group_name_H-M   'P 1'
_cell_length_a   5.75143600
_cell_length_b   7.55104300
_cell_length_c   11.71590500
_cell_angle_alpha   90.00000000
_cell_angle_beta   90.00000000
_cell_angle_gamma   90.00000000
_symmetry_Int_Tables_number   1
_chemical_formula_structural   K2VOF4
_chemical_formula_sum   'K8 V4 O4 F16'
_cell_volume   508.81402807
_cell_formula_units_Z   4
loop_
 _symmetry_equiv_pos_site_id
 _symmetry_equiv_pos_as_xyz
  1  'x, y, z'
loop_
 _atom_site_type_symbol
 _atom_site_label
 _atom_site_symmetry_multiplicity
 _atom_site_fract_x
 _atom_site_fract_y
 _atom_site_fract_z
 _atom_site_occupancy
  K  K0  1  0.00236000  0.23618200  0.22349500  1
  K  K1  1  0.99764000  0.73618200  0.27650500  1
  K  K2  1  0.50236000  0.26381800  0.77650500  1
  K  K3  1  0.49764000  0.76381800  0.72349500  1
  K  K4  1  0.00374800  0.92017100  0.91059500  1
  K  K5  1  0.99625200  0.42017100  0.58940500  1
  K  K6  1  0.50374800  0.57982900  0.08940500  1
  K  K7  1  0.49625200  0.07982900  0.41059500  1
  V  V8  1  0.02752400  0.43302200  0.93429200  1
  V  V9  1  0.97247600  0.93302200  0.56570800  1
  V  V10  1  0.52752400  0.06697800  0.06570800  1
  V  V11  1  0.47247600  0.56697800  0.43429200  1
  O  O12  1  0.23315200  0.56768500  0.88694400  1
  O  O13  1  0.76684800  0.06768500  0.61305600  1
  O  O14  1  0.73315200  0.93231500  0.11305600  1
  O  O15  1  0.26684800  0.43231500  0.38694400  1
  F  F16  1  0.99314600  0.52579900  0.09056200  1
  F  F17  1  0.00685400  0.02579900  0.40943800  1
  F  F18  1  0.49314600  0.97420100  0.90943800  1
  F  F19  1  0.50685400  0.47420100  0.59056200  1
  F  F20  1  0.24231400  0.24916900  0.99996700  1
  F  F21  1  0.75768600  0.74916900  0.50003300  1
  F  F22  1  0.74231400  0.25083100  0.00003300  1
  F  F23  1  0.25768600  0.75083100  0.49996700  1
  F  F24  1  0.99236100  0.27773900  0.80445000  1
  F  F25  1  0.00763900  0.77773900  0.69555000  1
  F  F26  1  0.49236100  0.22226100  0.19555000  1
  F  F27  1  0.50763900  0.72226100  0.30445000  1
  F  F28  1  0.25688600  0.93452400  0.11218100  1
  F  F29  1  0.74311400  0.43452400  0.38781900  1
  F  F30  1  0.75688600  0.56547600  0.88781900  1
  F  F31  1  0.24311400  0.06547600  0.61218100  1
