# generated using pymatgen
data_Hf3N2
_symmetry_space_group_name_H-M   'P 1'
_cell_length_a   8.17518303
_cell_length_b   8.17518303
_cell_length_c   8.17518378
_cell_angle_alpha   22.48758006
_cell_angle_beta   22.48758006
_cell_angle_gamma   22.48757945
_symmetry_Int_Tables_number   1
_chemical_formula_structural   Hf3N2
_chemical_formula_sum   'Hf3 N2'
_cell_volume   70.11077788
_cell_formula_units_Z   1
loop_
 _symmetry_equiv_pos_site_id
 _symmetry_equiv_pos_as_xyz
  1  'x, y, z'
loop_
 _atom_site_type_symbol
 _atom_site_label
 _atom_site_symmetry_multiplicity
 _atom_site_fract_x
 _atom_site_fract_y
 _atom_site_fract_z
 _atom_site_occupancy
  Hf  Hf0  1  0.00092600  0.00092600  0.00092600  1
  Hf  Hf1  1  0.22308500  0.22308500  0.22308500  1
  Hf  Hf2  1  0.77710600  0.77710600  0.77710600  1
  N  N3  1  0.61248400  0.61248400  0.61248400  1
  N  N4  1  0.49749900  0.49749900  0.49749900  1
