# generated using pymatgen
data_K2PSO8
_symmetry_space_group_name_H-M   'P 1'
_cell_length_a   7.20586000
_cell_length_b   7.39426110
_cell_length_c   7.87950589
_cell_angle_alpha   89.94408383
_cell_angle_beta   90.68193680
_cell_angle_gamma   96.86670293
_symmetry_Int_Tables_number   1
_chemical_formula_structural   K2PSO8
_chemical_formula_sum   'K4 P2 S2 O16'
_cell_volume   416.79486202
_cell_formula_units_Z   2
loop_
 _symmetry_equiv_pos_site_id
 _symmetry_equiv_pos_as_xyz
  1  'x, y, z'
loop_
 _atom_site_type_symbol
 _atom_site_label
 _atom_site_symmetry_multiplicity
 _atom_site_fract_x
 _atom_site_fract_y
 _atom_site_fract_z
 _atom_site_occupancy
  K  K0  1  0.08765000  0.72839100  0.69808700  1
  K  K1  1  0.58956400  0.22969500  0.80498500  1
  K  K2  1  0.91235000  0.27160900  0.30191300  1
  K  K3  1  0.41043600  0.77030500  0.19501500  1
  P  P4  1  0.59322900  0.75081500  0.70237600  1
  P  P5  1  0.40677100  0.24918500  0.29762400  1
  S  S6  1  0.09467700  0.25425900  0.79899100  1
  S  S7  1  0.90532300  0.74574100  0.20100900  1
  O  O8  1  0.47819700  0.82191700  0.84560000  1
  O  O9  1  0.98088400  0.32300700  0.65939800  1
  O  O10  1  0.52180300  0.17808300  0.15440000  1
  O  O11  1  0.01911600  0.67699300  0.34060200  1
  O  O12  1  0.69675200  0.59637000  0.77545400  1
  O  O13  1  0.18861100  0.09752700  0.73933200  1
  O  O14  1  0.30324800  0.40363000  0.22454600  1
  O  O15  1  0.81138900  0.90247300  0.26066800  1
  O  O16  1  0.73512100  0.90474000  0.62916700  1
  O  O17  1  0.23463100  0.40438000  0.86034300  1
  O  O18  1  0.26487900  0.09526000  0.37083300  1
  O  O19  1  0.76536900  0.59562000  0.13965700  1
  O  O20  1  0.46646000  0.68486300  0.54962900  1
  O  O21  1  0.97084000  0.18436900  0.94169000  1
  O  O22  1  0.53354000  0.31513700  0.45037100  1
  O  O23  1  0.02916000  0.81563100  0.05831000  1
