# generated using pymatgen
data_KMgH5(SeO5)2
_symmetry_space_group_name_H-M   'P 1'
_cell_length_a   4.78319553
_cell_length_b   6.05796653
_cell_length_c   8.74319234
_cell_angle_alpha   103.58896445
_cell_angle_beta   97.65803344
_cell_angle_gamma   98.26684019
_symmetry_Int_Tables_number   1
_chemical_formula_structural   KMgH5(SeO5)2
_chemical_formula_sum   'K1 Mg1 H5 Se2 O10'
_cell_volume   239.99295510
_cell_formula_units_Z   1
loop_
 _symmetry_equiv_pos_site_id
 _symmetry_equiv_pos_as_xyz
  1  'x, y, z'
loop_
 _atom_site_type_symbol
 _atom_site_label
 _atom_site_symmetry_multiplicity
 _atom_site_fract_x
 _atom_site_fract_y
 _atom_site_fract_z
 _atom_site_occupancy
  K  K0  1  0.99962300  0.00362500  0.49385300  1
  Mg  Mg1  1  0.00126300  0.00612400  0.00457500  1
  H  H2  1  0.91670000  0.32299500  0.84127200  1
  H  H3  1  0.07374500  0.67175300  0.15929700  1
  H  H4  1  0.62197300  0.26089900  0.90270900  1
  H  H5  1  0.37973600  0.74221000  0.11049600  1
  H  H6  1  0.48491200  0.52880200  0.51167100  1
  Se  Se7  1  0.36660400  0.67912000  0.76290100  1
  Se  Se8  1  0.62239700  0.32244200  0.24449500  1
  O  O9  1  0.47472200  0.69863700  0.58304400  1
  O  O10  1  0.50449800  0.30719000  0.41625200  1
  O  O11  1  0.79660700  0.20472200  0.87727000  1
  O  O12  1  0.19462900  0.78876200  0.12153000  1
  O  O13  1  0.17998800  0.41617200  0.73208700  1
  O  O14  1  0.81804700  0.58246400  0.26972100  1
  O  O15  1  0.17930300  0.89115300  0.79596100  1
  O  O16  1  0.81309600  0.11075600  0.20608500  1
  O  O17  1  0.65127800  0.71915200  0.90430100  1
  O  O18  1  0.35188000  0.27902100  0.09148100  1
