# generated using pymatgen
data_K4NaCl5
_symmetry_space_group_name_H-M   'P 1'
_cell_length_a   7.65334934
_cell_length_b   7.65334934
_cell_length_c   7.65334934
_cell_angle_alpha   99.70869783
_cell_angle_beta   99.70869783
_cell_angle_gamma   131.50779788
_symmetry_Int_Tables_number   1
_chemical_formula_structural   K4NaCl5
_chemical_formula_sum   'K4 Na1 Cl5'
_cell_volume   306.09291227
_cell_formula_units_Z   1
loop_
 _symmetry_equiv_pos_site_id
 _symmetry_equiv_pos_as_xyz
  1  'x, y, z'
loop_
 _atom_site_type_symbol
 _atom_site_label
 _atom_site_symmetry_multiplicity
 _atom_site_fract_x
 _atom_site_fract_y
 _atom_site_fract_z
 _atom_site_occupancy
  K  K0  1  0.59892800  0.20119800  0.80012600  1
  K  K1  1  0.20119800  0.40107200  0.60227000  1
  K  K2  1  0.79880200  0.59892800  0.39773000  1
  K  K3  1  0.40107200  0.79880200  0.19987400  1
  Na  Na4  1  0.00000000  0.00000000  0.00000000  1
  Cl  Cl5  1  0.71440500  0.90616100  0.62056600  1
  Cl  Cl6  1  0.28559500  0.09383900  0.37943400  1
  Cl  Cl7  1  0.90616100  0.28559500  0.19175600  1
  Cl  Cl8  1  0.50000000  0.50000000  0.00000000  1
  Cl  Cl9  1  0.09383900  0.71440500  0.80824400  1
