# generated using pymatgen
data_La5Ti6S3(ClO5)3
_symmetry_space_group_name_H-M   'P 1'
_cell_length_a   10.84278247
_cell_length_b   10.84278247
_cell_length_c   12.46148966
_cell_angle_alpha   55.01790794
_cell_angle_beta   55.01790794
_cell_angle_gamma   70.68628494
_symmetry_Int_Tables_number   1
_chemical_formula_structural   La5Ti6S3(ClO5)3
_chemical_formula_sum   'La10 Ti12 S6 Cl6 O30'
_cell_volume   983.48673398
_cell_formula_units_Z   2
loop_
 _symmetry_equiv_pos_site_id
 _symmetry_equiv_pos_as_xyz
  1  'x, y, z'
loop_
 _atom_site_type_symbol
 _atom_site_label
 _atom_site_symmetry_multiplicity
 _atom_site_fract_x
 _atom_site_fract_y
 _atom_site_fract_z
 _atom_site_occupancy
  La  La0  1  0.00538500  0.00538500  0.32667300  1
  La  La1  1  0.99461500  0.99461500  0.67332700  1
  La  La2  1  0.33925700  0.66074300  0.00000000  1
  La  La3  1  0.66074300  0.33925700  0.00000000  1
  La  La4  1  0.65039800  0.65039800  0.34265400  1
  La  La5  1  0.34960200  0.34960200  0.65734600  1
  La  La6  1  0.50000000  0.00000000  0.50000000  1
  La  La7  1  0.00000000  0.50000000  0.00000000  1
  La  La8  1  0.50000000  0.00000000  0.00000000  1
  La  La9  1  0.00000000  0.50000000  0.50000000  1
  Ti  Ti10  1  0.66831100  0.93929600  0.69564300  1
  Ti  Ti11  1  0.93929600  0.66831100  0.69564300  1
  Ti  Ti12  1  0.33168900  0.06070400  0.30435700  1
  Ti  Ti13  1  0.06070400  0.33168900  0.30435700  1
  Ti  Ti14  1  0.65050300  0.65050300  0.04929100  1
  Ti  Ti15  1  0.36812900  0.36812900  0.32828400  1
  Ti  Ti16  1  0.34949700  0.34949700  0.95070900  1
  Ti  Ti17  1  0.63187100  0.63187100  0.67171600  1
  Ti  Ti18  1  0.69727500  0.29962200  0.35523500  1
  Ti  Ti19  1  0.70037800  0.30272500  0.64476500  1
  Ti  Ti20  1  0.30272500  0.70037800  0.64476500  1
  Ti  Ti21  1  0.29962200  0.69727500  0.35523500  1
  S  S22  1  0.79354100  0.20459500  0.18564900  1
  S  S23  1  0.20645900  0.79540500  0.81435100  1
  S  S24  1  0.20459500  0.79354100  0.18564900  1
  S  S25  1  0.79540500  0.20645900  0.81435100  1
  S  S26  1  0.81422800  0.81422800  0.98130400  1
  S  S27  1  0.18577200  0.18577200  0.01869600  1
  Cl  Cl28  1  0.38497300  0.02637200  0.79308500  1
  Cl  Cl29  1  0.61502700  0.97362800  0.20691500  1
  Cl  Cl30  1  0.97362800  0.61502700  0.20691500  1
  Cl  Cl31  1  0.02637200  0.38497300  0.79308500  1
  Cl  Cl32  1  0.82061900  0.82061900  0.38244800  1
  Cl  Cl33  1  0.17938100  0.17938100  0.61755200  1
  O  O34  1  0.69998700  0.07378700  0.50176300  1
  O  O35  1  0.07492100  0.70119600  0.72167700  1
  O  O36  1  0.29880400  0.92507900  0.27832300  1
  O  O37  1  0.92621300  0.30001300  0.49823700  1
  O  O38  1  0.56931300  0.79832500  0.92362600  1
  O  O39  1  0.42677300  0.20214700  0.29674600  1
  O  O40  1  0.20167500  0.43068700  0.07637400  1
  O  O41  1  0.79785300  0.57322700  0.70325400  1
  O  O42  1  0.71966000  0.50201700  0.20507100  1
  O  O43  1  0.49798300  0.28034000  0.79492900  1
  O  O44  1  0.50820500  0.72367600  0.56716000  1
  O  O45  1  0.27632400  0.49179500  0.43284000  1
  O  O46  1  0.30001300  0.92621300  0.49823700  1
  O  O47  1  0.92507900  0.29880400  0.27832300  1
  O  O48  1  0.70119600  0.07492100  0.72167700  1
  O  O49  1  0.07378700  0.69998700  0.50176300  1
  O  O50  1  0.43068700  0.20167500  0.07637400  1
  O  O51  1  0.57322700  0.79785300  0.70325400  1
  O  O52  1  0.79832500  0.56931300  0.92362600  1
  O  O53  1  0.20214700  0.42677300  0.29674600  1
  O  O54  1  0.28034000  0.49798300  0.79492900  1
  O  O55  1  0.50201700  0.71966000  0.20507100  1
  O  O56  1  0.49179500  0.27632400  0.43284000  1
  O  O57  1  0.72367600  0.50820500  0.56716000  1
  O  O58  1  0.87311200  0.87311200  0.62724500  1
  O  O59  1  0.12688800  0.12688800  0.37275500  1
  O  O60  1  0.50050700  0.50050700  0.12929700  1
  O  O61  1  0.49949300  0.49949300  0.87070300  1
  O  O62  1  0.62905100  0.37094900  0.50000000  1
  O  O63  1  0.37094900  0.62905100  0.50000000  1
