# generated using pymatgen
data_H3Pd4
_symmetry_space_group_name_H-M   'P 1'
_cell_length_a   9.59942792
_cell_length_b   9.59942792
_cell_length_c   9.59942803
_cell_angle_alpha   17.41568212
_cell_angle_beta   17.41568212
_cell_angle_gamma   17.41568314
_symmetry_Int_Tables_number   1
_chemical_formula_structural   H3Pd4
_chemical_formula_sum   'H3 Pd4'
_cell_volume   69.15383847
_cell_formula_units_Z   1
loop_
 _symmetry_equiv_pos_site_id
 _symmetry_equiv_pos_as_xyz
  1  'x, y, z'
loop_
 _atom_site_type_symbol
 _atom_site_label
 _atom_site_symmetry_multiplicity
 _atom_site_fract_x
 _atom_site_fract_y
 _atom_site_fract_z
 _atom_site_occupancy
  H  H0  1  0.25965100  0.25965100  0.25965100  1
  H  H1  1  0.50000000  0.50000000  0.50000000  1
  H  H2  1  0.74034900  0.74034900  0.74034900  1
  Pd  Pd3  1  0.12480500  0.12480500  0.12480500  1
  Pd  Pd4  1  0.87519500  0.87519500  0.87519500  1
  Pd  Pd5  1  0.37419000  0.37419000  0.37419000  1
  Pd  Pd6  1  0.62581000  0.62581000  0.62581000  1
