# generated using pymatgen
data_InMo6(SeS)4
_symmetry_space_group_name_H-M   'P 1'
_cell_length_a   6.70757600
_cell_length_b   6.74600341
_cell_length_c   6.80200459
_cell_angle_alpha   90.02208892
_cell_angle_beta   90.00893719
_cell_angle_gamma   90.25037456
_symmetry_Int_Tables_number   1
_chemical_formula_structural   InMo6(SeS)4
_chemical_formula_sum   'In1 Mo6 Se4 S4'
_cell_volume   307.78318882
_cell_formula_units_Z   1
loop_
 _symmetry_equiv_pos_site_id
 _symmetry_equiv_pos_as_xyz
  1  'x, y, z'
loop_
 _atom_site_type_symbol
 _atom_site_label
 _atom_site_symmetry_multiplicity
 _atom_site_fract_x
 _atom_site_fract_y
 _atom_site_fract_z
 _atom_site_occupancy
  In  In0  1  0.00138200  0.99750000  0.00060200  1
  Mo  Mo1  1  0.76669400  0.44601900  0.58071300  1
  Mo  Mo2  1  0.44272900  0.58421300  0.76199400  1
  Mo  Mo3  1  0.58258000  0.76969100  0.44208300  1
  Mo  Mo4  1  0.22909000  0.55893300  0.41897300  1
  Mo  Mo5  1  0.55543800  0.42231900  0.23647300  1
  Mo  Mo6  1  0.41584300  0.22773400  0.55319300  1
  Se  Se7  1  0.61949600  0.25261400  0.87665900  1
  Se  Se8  1  0.75142600  0.12441300  0.37429300  1
  Se  Se9  1  0.12092400  0.37417300  0.74869500  1
  Se  Se10  1  0.37497700  0.75106500  0.12074400  1
  S  S11  1  0.75802900  0.75797300  0.75027700  1
  S  S12  1  0.24039200  0.24699100  0.24807500  1
  S  S13  1  0.27198000  0.86892700  0.61281600  1
  S  S14  1  0.86901900  0.61743500  0.27441000  1
