# generated using pymatgen
data_Ho2VPO8
_symmetry_space_group_name_H-M   'P 1'
_cell_length_a   5.88434654
_cell_length_b   5.88434654
_cell_length_c   5.88434654
_cell_angle_alpha   105.99429773
_cell_angle_beta   105.99429773
_cell_angle_gamma   116.67419709
_symmetry_Int_Tables_number   1
_chemical_formula_structural   Ho2VPO8
_chemical_formula_sum   'Ho2 V1 P1 O8'
_cell_volume   154.96434215
_cell_formula_units_Z   1
loop_
 _symmetry_equiv_pos_site_id
 _symmetry_equiv_pos_as_xyz
  1  'x, y, z'
loop_
 _atom_site_type_symbol
 _atom_site_label
 _atom_site_symmetry_multiplicity
 _atom_site_fract_x
 _atom_site_fract_y
 _atom_site_fract_z
 _atom_site_occupancy
  Ho  Ho0  1  0.00000000  0.00000000  0.00000000  1
  Ho  Ho1  1  0.25000000  0.75000000  0.50000000  1
  V  V2  1  0.50000000  0.50000000  0.00000000  1
  P  P3  1  0.75000000  0.25000000  0.50000000  1
  O  O4  1  0.90799700  0.58031100  0.67231400  1
  O  O5  1  0.49600100  0.68202300  0.81397700  1
  O  O6  1  0.86804600  0.68202300  0.18602300  1
  O  O7  1  0.90799700  0.23568300  0.32768600  1
  O  O8  1  0.31797700  0.13195400  0.81397700  1
  O  O9  1  0.76431700  0.09200300  0.67231400  1
  O  O10  1  0.41968900  0.09200300  0.32768600  1
  O  O11  1  0.31797700  0.50399900  0.18602300  1
