# generated using pymatgen
data_K2SO4
_symmetry_space_group_name_H-M   'P 1'
_cell_length_a   5.82360977
_cell_length_b   5.82360977
_cell_length_c   8.02972818
_cell_angle_alpha   89.90271908
_cell_angle_beta   89.90271908
_cell_angle_gamma   117.63682980
_symmetry_Int_Tables_number   1
_chemical_formula_structural   K2SO4
_chemical_formula_sum   'K4 S2 O8'
_cell_volume   241.25175508
_cell_formula_units_Z   2
loop_
 _symmetry_equiv_pos_site_id
 _symmetry_equiv_pos_as_xyz
  1  'x, y, z'
loop_
 _atom_site_type_symbol
 _atom_site_label
 _atom_site_symmetry_multiplicity
 _atom_site_fract_x
 _atom_site_fract_y
 _atom_site_fract_z
 _atom_site_occupancy
  K  K0  1  0.30804500  0.69195500  0.25000000  1
  K  K1  1  0.69195500  0.30804500  0.75000000  1
  K  K2  1  0.00000000  0.00000000  0.50000000  1
  K  K3  1  0.00000000  0.00000000  0.00000000  1
  S  S4  1  0.64928300  0.35071700  0.25000000  1
  S  S5  1  0.35071700  0.64928300  0.75000000  1
  O  O6  1  0.72259200  0.25145100  0.09901700  1
  O  O7  1  0.27740800  0.74854900  0.90098300  1
  O  O8  1  0.25145100  0.72259200  0.59901700  1
  O  O9  1  0.74854900  0.27740800  0.40098300  1
  O  O10  1  0.35902500  0.23727100  0.25900000  1
  O  O11  1  0.64097500  0.76272900  0.74100000  1
  O  O12  1  0.23727100  0.35902500  0.75900000  1
  O  O13  1  0.76272900  0.64097500  0.24100000  1
