# generated using pymatgen
data_KCrNiF6
_symmetry_space_group_name_H-M   'P 1'
_cell_length_a   7.33772412
_cell_length_b   7.33772412
_cell_length_c   7.33772412
_cell_angle_alpha   120.25363137
_cell_angle_beta   120.10342771
_cell_angle_gamma   89.69110440
_symmetry_Int_Tables_number   1
_chemical_formula_structural   KCrNiF6
_chemical_formula_sum   'K2 Cr2 Ni2 F12'
_cell_volume   278.60431968
_cell_formula_units_Z   2
loop_
 _symmetry_equiv_pos_site_id
 _symmetry_equiv_pos_as_xyz
  1  'x, y, z'
loop_
 _atom_site_type_symbol
 _atom_site_label
 _atom_site_symmetry_multiplicity
 _atom_site_fract_x
 _atom_site_fract_y
 _atom_site_fract_z
 _atom_site_occupancy
  K  K0  1  0.37165500  0.12165500  0.25000000  1
  K  K1  1  0.62834500  0.87834500  0.75000000  1
  Cr  Cr2  1  0.00000000  0.50000000  0.50000000  1
  Cr  Cr3  1  0.50000000  0.50000000  0.00000000  1
  Ni  Ni4  1  0.00000000  0.50000000  0.00000000  1
  Ni  Ni5  1  0.00000000  0.00000000  0.50000000  1
  F  F6  1  0.31902100  0.56902100  0.75000000  1
  F  F7  1  0.92532800  0.17532800  0.75000000  1
  F  F8  1  0.32911200  0.18484500  0.75846800  1
  F  F9  1  0.92637700  0.57064400  0.74153200  1
  F  F10  1  0.32911200  0.57064400  0.14426600  1
  F  F11  1  0.92637700  0.18484500  0.35573400  1
  F  F12  1  0.68097900  0.43097900  0.25000000  1
  F  F13  1  0.07467200  0.82467200  0.25000000  1
  F  F14  1  0.67088800  0.81515500  0.24153200  1
  F  F15  1  0.07362300  0.42935600  0.25846800  1
  F  F16  1  0.67088800  0.42935600  0.85573400  1
  F  F17  1  0.07362300  0.81515500  0.64426600  1
