# generated using pymatgen
data_Eu2Ga7Ag
_symmetry_space_group_name_H-M   'P 1'
_cell_length_a   4.36279900
_cell_length_b   4.36279900
_cell_length_c   10.94046100
_cell_angle_alpha   90.00000000
_cell_angle_beta   90.00000000
_cell_angle_gamma   90.00000000
_symmetry_Int_Tables_number   1
_chemical_formula_structural   Eu2Ga7Ag
_chemical_formula_sum   'Eu2 Ga7 Ag1'
_cell_volume   208.24090003
_cell_formula_units_Z   1
loop_
 _symmetry_equiv_pos_site_id
 _symmetry_equiv_pos_as_xyz
  1  'x, y, z'
loop_
 _atom_site_type_symbol
 _atom_site_label
 _atom_site_symmetry_multiplicity
 _atom_site_fract_x
 _atom_site_fract_y
 _atom_site_fract_z
 _atom_site_occupancy
  Eu  Eu0  1  0.50000000  0.00000000  0.74893600  1
  Eu  Eu1  1  0.00000000  0.50000000  0.25106400  1
  Ga  Ga2  1  0.00000000  0.50000000  0.86443200  1
  Ga  Ga3  1  0.50000000  0.00000000  0.36405800  1
  Ga  Ga4  1  0.50000000  0.00000000  0.13556800  1
  Ga  Ga5  1  0.00000000  0.50000000  0.63594200  1
  Ga  Ga6  1  0.00000000  0.00000000  0.50000000  1
  Ga  Ga7  1  0.00000000  0.00000000  0.00000000  1
  Ga  Ga8  1  0.50000000  0.50000000  0.50000000  1
  Ag  Ag9  1  0.50000000  0.50000000  0.00000000  1
