# generated using pymatgen
data_Dy18Mn(FeBi3)2
_symmetry_space_group_name_H-M   'P 1'
_cell_length_a   4.21028100
_cell_length_b   8.32662048
_cell_length_c   22.14531697
_cell_angle_alpha   79.16393795
_cell_angle_beta   90.00000000
_cell_angle_gamma   90.00000000
_symmetry_Int_Tables_number   1
_chemical_formula_structural   Dy18Mn(FeBi3)2
_chemical_formula_sum   'Dy18 Mn1 Fe2 Bi6'
_cell_volume   762.51436193
_cell_formula_units_Z   1
loop_
 _symmetry_equiv_pos_site_id
 _symmetry_equiv_pos_as_xyz
  1  'x, y, z'
loop_
 _atom_site_type_symbol
 _atom_site_label
 _atom_site_symmetry_multiplicity
 _atom_site_fract_x
 _atom_site_fract_y
 _atom_site_fract_z
 _atom_site_occupancy
  Dy  Dy0  1  0.00000000  0.23412000  0.00000000  1
  Dy  Dy1  1  0.00000000  0.56517000  0.33343900  1
  Dy  Dy2  1  0.00000000  0.89860900  0.66656100  1
  Dy  Dy3  1  0.00000000  0.25620000  0.25598000  1
  Dy  Dy4  1  0.00000000  0.58985700  0.58934500  1
  Dy  Dy5  1  0.00000000  0.92153900  0.92176900  1
  Dy  Dy6  1  0.00000000  0.84330700  0.07823100  1
  Dy  Dy7  1  0.00000000  0.17920300  0.41065500  1
  Dy  Dy8  1  0.00000000  0.51218000  0.74402000  1
  Dy  Dy9  1  0.50000000  0.60258700  0.00000000  1
  Dy  Dy10  1  0.50000000  0.93574200  0.33335300  1
  Dy  Dy11  1  0.50000000  0.26909600  0.66664700  1
  Dy  Dy12  1  0.50000000  0.13240400  0.13256500  1
  Dy  Dy13  1  0.50000000  0.46589100  0.46620700  1
  Dy  Dy14  1  0.50000000  0.79943900  0.79959000  1
  Dy  Dy15  1  0.50000000  0.59902900  0.20041000  1
  Dy  Dy16  1  0.50000000  0.93209700  0.53379300  1
  Dy  Dy17  1  0.50000000  0.26497000  0.86743500  1
  Mn  Mn18  1  0.50000000  0.99990200  0.00000000  1
  Fe  Fe19  1  0.50000000  0.33261700  0.33324000  1
  Fe  Fe20  1  0.50000000  0.66585800  0.66676000  1
  Bi  Bi21  1  0.00000000  0.88922500  0.22235500  1
  Bi  Bi22  1  0.00000000  0.22227500  0.55538300  1
  Bi  Bi23  1  0.00000000  0.55537400  0.88839900  1
  Bi  Bi24  1  0.00000000  0.44377300  0.11160100  1
  Bi  Bi25  1  0.00000000  0.77765700  0.44461700  1
  Bi  Bi26  1  0.00000000  0.11158200  0.77764500  1
