# generated using pymatgen
data_Dy2Si3
_symmetry_space_group_name_H-M   'P 1'
_cell_length_a   7.41622790
_cell_length_b   7.41622790
_cell_length_c   7.41622790
_cell_angle_alpha   149.58374311
_cell_angle_beta   148.79062591
_cell_angle_gamma   44.13923771
_symmetry_Int_Tables_number   1
_chemical_formula_structural   Dy2Si3
_chemical_formula_sum   'Dy2 Si3'
_cell_volume   106.69719009
_cell_formula_units_Z   1
loop_
 _symmetry_equiv_pos_site_id
 _symmetry_equiv_pos_as_xyz
  1  'x, y, z'
loop_
 _atom_site_type_symbol
 _atom_site_label
 _atom_site_symmetry_multiplicity
 _atom_site_fract_x
 _atom_site_fract_y
 _atom_site_fract_z
 _atom_site_occupancy
  Dy  Dy0  1  0.12647200  0.12647200  0.00000000  1
  Dy  Dy1  1  0.37290800  0.87290800  0.50000000  1
  Si  Si2  1  0.96799000  0.46799000  0.50000000  1
  Si  Si3  1  0.69830200  0.69830200  0.00000000  1
  Si  Si4  1  0.79832800  0.29832800  0.50000000  1
