# generated using pymatgen
data_Ga2SeS
_symmetry_space_group_name_H-M   'P 1'
_cell_length_a   3.72723537
_cell_length_b   3.72723537
_cell_length_c   16.27349400
_cell_angle_alpha   89.99937545
_cell_angle_beta   90.00062455
_cell_angle_gamma   120.00144425
_symmetry_Int_Tables_number   1
_chemical_formula_structural   Ga2SeS
_chemical_formula_sum   'Ga4 Se2 S2'
_cell_volume   195.78470256
_cell_formula_units_Z   2
loop_
 _symmetry_equiv_pos_site_id
 _symmetry_equiv_pos_as_xyz
  1  'x, y, z'
loop_
 _atom_site_type_symbol
 _atom_site_label
 _atom_site_symmetry_multiplicity
 _atom_site_fract_x
 _atom_site_fract_y
 _atom_site_fract_z
 _atom_site_occupancy
  Ga  Ga0  1  0.66666200  0.33333800  0.67726300  1
  Ga  Ga1  1  0.33333800  0.66666200  0.32273700  1
  Ga  Ga2  1  0.33332900  0.66667100  0.17077400  1
  Ga  Ga3  1  0.66667100  0.33332900  0.82922600  1
  Se  Se4  1  0.33333500  0.66666500  0.60302000  1
  Se  Se5  1  0.66666500  0.33333500  0.39698000  1
  S  S6  1  0.66665700  0.33334300  0.10735800  1
  S  S7  1  0.33334300  0.66665700  0.89264200  1
