# generated using pymatgen
data_Pm
_symmetry_space_group_name_H-M   'P 1'
_cell_length_a   9.20060426
_cell_length_b   9.20060426
_cell_length_c   9.20060474
_cell_angle_alpha   22.99965390
_cell_angle_beta   22.99965390
_cell_angle_gamma   22.99965090
_symmetry_Int_Tables_number   1
_chemical_formula_structural   Pm
_chemical_formula_sum   Pm3
_cell_volume   104.35505204
_cell_formula_units_Z   3
loop_
 _symmetry_equiv_pos_site_id
 _symmetry_equiv_pos_as_xyz
  1  'x, y, z'
loop_
 _atom_site_type_symbol
 _atom_site_label
 _atom_site_symmetry_multiplicity
 _atom_site_fract_x
 _atom_site_fract_y
 _atom_site_fract_z
 _atom_site_occupancy
  Pm  Pm0  1  0.00000000  0.00000000  0.00000000  1
  Pm  Pm1  1  0.77722600  0.77722600  0.77722600  1
  Pm  Pm2  1  0.22277400  0.22277400  0.22277400  1
