# generated using pymatgen
data_Ga(FeO2)2
_symmetry_space_group_name_H-M   'P 1'
_cell_length_a   6.01367509
_cell_length_b   6.01367509
_cell_length_c   6.01367509
_cell_angle_alpha   120.91701300
_cell_angle_beta   120.40278722
_cell_angle_gamma   88.86135829
_symmetry_Int_Tables_number   1
_chemical_formula_structural   Ga(FeO2)2
_chemical_formula_sum   'Ga2 Fe4 O8'
_cell_volume   152.21137181
_cell_formula_units_Z   2
loop_
 _symmetry_equiv_pos_site_id
 _symmetry_equiv_pos_as_xyz
  1  'x, y, z'
loop_
 _atom_site_type_symbol
 _atom_site_label
 _atom_site_symmetry_multiplicity
 _atom_site_fract_x
 _atom_site_fract_y
 _atom_site_fract_z
 _atom_site_occupancy
  Ga  Ga0  1  0.50000000  0.50000000  0.00000000  1
  Ga  Ga1  1  0.00000000  0.50000000  0.50000000  1
  Fe  Fe2  1  0.00000000  0.50000000  0.00000000  1
  Fe  Fe3  1  0.00000000  0.00000000  0.50000000  1
  Fe  Fe4  1  0.38274700  0.13274700  0.25000000  1
  Fe  Fe5  1  0.61725300  0.86725300  0.75000000  1
  O  O6  1  0.22632100  0.73595500  0.49036600  1
  O  O7  1  0.74559000  0.73595500  0.00963400  1
  O  O8  1  0.74883800  0.72980900  0.48097200  1
  O  O9  1  0.74883800  0.26786600  0.01902800  1
  O  O10  1  0.77367900  0.26404500  0.50963400  1
  O  O11  1  0.25441000  0.26404500  0.99036600  1
  O  O12  1  0.25116200  0.27019100  0.51902800  1
  O  O13  1  0.25116200  0.73213400  0.98097200  1
