# generated using pymatgen
data_Ga2S3
_symmetry_space_group_name_H-M   'P 1'
_cell_length_a   3.87655516
_cell_length_b   3.87655516
_cell_length_c   19.11835100
_cell_angle_alpha   90.00000000
_cell_angle_beta   90.00000000
_cell_angle_gamma   119.99998559
_symmetry_Int_Tables_number   1
_chemical_formula_structural   Ga2S3
_chemical_formula_sum   'Ga4 S6'
_cell_volume   248.81299585
_cell_formula_units_Z   2
loop_
 _symmetry_equiv_pos_site_id
 _symmetry_equiv_pos_as_xyz
  1  'x, y, z'
loop_
 _atom_site_type_symbol
 _atom_site_label
 _atom_site_symmetry_multiplicity
 _atom_site_fract_x
 _atom_site_fract_y
 _atom_site_fract_z
 _atom_site_occupancy
  Ga  Ga0  1  0.00000000  0.00000000  0.17266100  1
  Ga  Ga1  1  0.00000000  0.00000000  0.49344700  1
  Ga  Ga2  1  0.00000000  0.00000000  0.82024300  1
  Ga  Ga3  1  0.33333300  0.66666700  0.00221100  1
  S  S4  1  0.00000000  0.00000000  0.04244500  1
  S  S5  1  0.00000000  0.00000000  0.37664600  1
  S  S6  1  0.00000000  0.00000000  0.71159100  1
  S  S7  1  0.33333300  0.66666700  0.20746600  1
  S  S8  1  0.33333300  0.66666700  0.54385100  1
  S  S9  1  0.33333300  0.66666700  0.87943900  1
