# generated using pymatgen
data_CuNiPd
_symmetry_space_group_name_H-M   'P 1'
_cell_length_a   2.65918855
_cell_length_b   2.65918855
_cell_length_c   6.35282300
_cell_angle_alpha   90.00000000
_cell_angle_beta   90.00000000
_cell_angle_gamma   120.00001376
_symmetry_Int_Tables_number   1
_chemical_formula_structural   CuNiPd
_chemical_formula_sum   'Cu1 Ni1 Pd1'
_cell_volume   38.90411963
_cell_formula_units_Z   1
loop_
 _symmetry_equiv_pos_site_id
 _symmetry_equiv_pos_as_xyz
  1  'x, y, z'
loop_
 _atom_site_type_symbol
 _atom_site_label
 _atom_site_symmetry_multiplicity
 _atom_site_fract_x
 _atom_site_fract_y
 _atom_site_fract_z
 _atom_site_occupancy
  Cu  Cu0  1  0.00000000  0.00000000  0.01273200  1
  Ni  Ni1  1  0.66666700  0.33333300  0.32227400  1
  Pd  Pd2  1  0.33333300  0.66666700  0.66499300  1
