# generated using pymatgen
data_Dy9Al5Se21
_symmetry_space_group_name_H-M   'P 1'
_cell_length_a   11.97893354
_cell_length_b   11.97893354
_cell_length_c   11.97893326
_cell_angle_alpha   95.13653319
_cell_angle_beta   95.13653319
_cell_angle_gamma   95.13652767
_symmetry_Int_Tables_number   1
_chemical_formula_structural   Dy9Al5Se21
_chemical_formula_sum   'Dy18 Al10 Se42'
_cell_volume   1696.87340398
_cell_formula_units_Z   2
loop_
 _symmetry_equiv_pos_site_id
 _symmetry_equiv_pos_as_xyz
  1  'x, y, z'
loop_
 _atom_site_type_symbol
 _atom_site_label
 _atom_site_symmetry_multiplicity
 _atom_site_fract_x
 _atom_site_fract_y
 _atom_site_fract_z
 _atom_site_occupancy
  Dy  Dy0  1  0.11567900  0.88081100  0.74471600  1
  Dy  Dy1  1  0.45595400  0.22103000  0.07867200  1
  Dy  Dy2  1  0.77773500  0.54929100  0.40576600  1
  Dy  Dy3  1  0.40576600  0.77773500  0.54929100  1
  Dy  Dy4  1  0.74471600  0.11567900  0.88081100  1
  Dy  Dy5  1  0.07867200  0.45595400  0.22103000  1
  Dy  Dy6  1  0.22103000  0.07867200  0.45595400  1
  Dy  Dy7  1  0.54929100  0.40576600  0.77773500  1
  Dy  Dy8  1  0.88081100  0.74471600  0.11567900  1
  Dy  Dy9  1  0.21232500  0.44379700  0.58288700  1
  Dy  Dy10  1  0.54783000  0.78258700  0.92610100  1
  Dy  Dy11  1  0.87678200  0.10894800  0.24831000  1
  Dy  Dy12  1  0.92610100  0.54783000  0.78258700  1
  Dy  Dy13  1  0.24831000  0.87678200  0.10894800  1
  Dy  Dy14  1  0.58288700  0.21232500  0.44379700  1
  Dy  Dy15  1  0.10894800  0.24831000  0.87678200  1
  Dy  Dy16  1  0.44379700  0.58288700  0.21232500  1
  Dy  Dy17  1  0.78258700  0.92610100  0.54783000  1
  Al  Al18  1  0.72160500  0.38882200  0.05404300  1
  Al  Al19  1  0.05404300  0.72160500  0.38882200  1
  Al  Al20  1  0.38882200  0.05404300  0.72160500  1
  Al  Al21  1  0.88716200  0.22326300  0.55405900  1
  Al  Al22  1  0.22326300  0.55405900  0.88716200  1
  Al  Al23  1  0.55405900  0.88716200  0.22326300  1
  Al  Al24  1  0.85115200  0.85115200  0.85115200  1
  Al  Al25  1  0.16490400  0.16490400  0.16490400  1
  Al  Al26  1  0.66452900  0.66452900  0.66452900  1
  Al  Al27  1  0.35146300  0.35146300  0.35146300  1
  Se  Se28  1  0.84683300  0.51562600  0.18022600  1
  Se  Se29  1  0.18022600  0.84683300  0.51562600  1
  Se  Se30  1  0.51562600  0.18022600  0.84683300  1
  Se  Se31  1  0.68006700  0.01568000  0.34683200  1
  Se  Se32  1  0.01568000  0.34683200  0.68006700  1
  Se  Se33  1  0.34683200  0.68006700  0.01568000  1
  Se  Se34  1  0.53685600  0.44816300  0.01727300  1
  Se  Se35  1  0.86964800  0.78128000  0.35720500  1
  Se  Se36  1  0.20057500  0.10813000  0.69359600  1
  Se  Se37  1  0.69359600  0.20057500  0.10813000  1
  Se  Se38  1  0.01727300  0.53685600  0.44816300  1
  Se  Se39  1  0.35720500  0.86964800  0.78128000  1
  Se  Se40  1  0.78128000  0.35720500  0.86964800  1
  Se  Se41  1  0.10813000  0.69359600  0.20057500  1
  Se  Se42  1  0.44816300  0.01727300  0.53685600  1
  Se  Se43  1  0.96776100  0.06159100  0.47552500  1
  Se  Se44  1  0.30054600  0.38871300  0.81188100  1
  Se  Se45  1  0.63322300  0.72071400  0.15248500  1
  Se  Se46  1  0.81188100  0.30054600  0.38871300  1
  Se  Se47  1  0.15248500  0.63322300  0.72071400  1
  Se  Se48  1  0.47552500  0.96776100  0.06159100  1
  Se  Se49  1  0.72071400  0.15248500  0.63322300  1
  Se  Se50  1  0.06159100  0.47552500  0.96776100  1
  Se  Se51  1  0.38871300  0.81188100  0.30054600  1
  Se  Se52  1  0.55433400  0.39983800  0.30682500  1
  Se  Se53  1  0.89052800  0.74846700  0.65659000  1
  Se  Se54  1  0.23437100  0.08856200  0.99004700  1
  Se  Se55  1  0.99004700  0.23437100  0.08856200  1
  Se  Se56  1  0.30682500  0.55433400  0.39983800  1
  Se  Se57  1  0.65659000  0.89052800  0.74846700  1
  Se  Se58  1  0.74846700  0.65659000  0.89052800  1
  Se  Se59  1  0.08856200  0.99004700  0.23437100  1
  Se  Se60  1  0.39983800  0.30682500  0.55433400  1
  Se  Se61  1  0.13985000  0.28254800  0.37333600  1
  Se  Se62  1  0.47433200  0.61912700  0.71909000  1
  Se  Se63  1  0.78608400  0.94113900  0.03355100  1
  Se  Se64  1  0.71909000  0.47433200  0.61912700  1
  Se  Se65  1  0.03355100  0.78608400  0.94113900  1
  Se  Se66  1  0.37333600  0.13985000  0.28254800  1
  Se  Se67  1  0.94113900  0.03355100  0.78608400  1
  Se  Se68  1  0.28254800  0.37333600  0.13985000  1
  Se  Se69  1  0.61912700  0.71909000  0.47433200  1
