# generated using pymatgen
data_HgAs3H12C4S6N
_symmetry_space_group_name_H-M   'P 1'
_cell_length_a   10.18427632
_cell_length_b   10.18427632
_cell_length_c   27.13585375
_cell_angle_alpha   88.70308112
_cell_angle_beta   88.70308112
_cell_angle_gamma   42.16512371
_symmetry_Int_Tables_number   1
_chemical_formula_structural   HgAs3H12C4S6N
_chemical_formula_sum   'Hg4 As12 H48 C16 S24 N4'
_cell_volume   1888.74341606
_cell_formula_units_Z   4
loop_
 _symmetry_equiv_pos_site_id
 _symmetry_equiv_pos_as_xyz
  1  'x, y, z'
loop_
 _atom_site_type_symbol
 _atom_site_label
 _atom_site_symmetry_multiplicity
 _atom_site_fract_x
 _atom_site_fract_y
 _atom_site_fract_z
 _atom_site_occupancy
  Hg  Hg0  1  0.32463100  0.14147200  0.55342800  1
  Hg  Hg1  1  0.85852800  0.67536900  0.94657200  1
  Hg  Hg2  1  0.67536900  0.85852800  0.44657200  1
  Hg  Hg3  1  0.14147200  0.32463100  0.05342800  1
  As  As4  1  0.26716300  0.31636300  0.80870300  1
  As  As5  1  0.68363700  0.73283700  0.69129700  1
  As  As6  1  0.73283700  0.68363700  0.19129700  1
  As  As7  1  0.31636300  0.26716300  0.30870300  1
  As  As8  1  0.27489000  0.24936500  0.68529200  1
  As  As9  1  0.75063500  0.72511000  0.81470800  1
  As  As10  1  0.72511000  0.75063500  0.31470800  1
  As  As11  1  0.24936500  0.27489000  0.18529200  1
  As  As12  1  0.81265800  0.59994200  0.56710200  1
  As  As13  1  0.40005800  0.18734200  0.93289800  1
  As  As14  1  0.18734200  0.40005800  0.43289800  1
  As  As15  1  0.59994200  0.81265800  0.06710200  1
  H  H16  1  0.85400600  0.12024500  0.62244200  1
  H  H17  1  0.87975500  0.14599400  0.87755800  1
  H  H18  1  0.14599400  0.87975500  0.37755800  1
  H  H19  1  0.12024500  0.85400600  0.12244200  1
  H  H20  1  0.32568400  0.71469900  0.68156500  1
  H  H21  1  0.28530100  0.67431600  0.81843500  1
  H  H22  1  0.67431600  0.28530100  0.31843500  1
  H  H23  1  0.71469900  0.32568400  0.18156500  1
  H  H24  1  0.96185000  0.74449900  0.64413600  1
  H  H25  1  0.25550100  0.03815000  0.85586400  1
  H  H26  1  0.03815000  0.25550100  0.35586400  1
  H  H27  1  0.74449900  0.96185000  0.14413600  1
  H  H28  1  0.10472800  0.91828800  0.56096200  1
  H  H29  1  0.08171200  0.89527200  0.93903800  1
  H  H30  1  0.89527200  0.08171200  0.43903800  1
  H  H31  1  0.91828800  0.10472800  0.06096200  1
  H  H32  1  0.27687900  0.85399400  0.60409300  1
  H  H33  1  0.14600600  0.72312100  0.89590700  1
  H  H34  1  0.72312100  0.14600600  0.39590700  1
  H  H35  1  0.85399400  0.27687900  0.10409300  1
  H  H36  1  0.01675400  0.05154500  0.66956800  1
  H  H37  1  0.94845500  0.98324600  0.83043200  1
  H  H38  1  0.98324600  0.94845500  0.33043200  1
  H  H39  1  0.05154500  0.01675400  0.16956800  1
  H  H40  1  0.86773400  0.01685400  0.67917000  1
  H  H41  1  0.98314600  0.13226600  0.82083000  1
  H  H42  1  0.13226600  0.98314600  0.32083000  1
  H  H43  1  0.01685400  0.86773400  0.17917000  1
  H  H44  1  0.14558200  0.60435400  0.59631900  1
  H  H45  1  0.39564600  0.85441800  0.90368100  1
  H  H46  1  0.85441800  0.39564700  0.40368100  1
  H  H47  1  0.60435400  0.14558200  0.09631900  1
  H  H48  1  0.32672800  0.66531600  0.57433900  1
  H  H49  1  0.33468400  0.67327200  0.92566100  1
  H  H50  1  0.67327200  0.33468400  0.42566100  1
  H  H51  1  0.66531600  0.32672800  0.07433900  1
  H  H52  1  0.18830600  0.67181500  0.70055400  1
  H  H53  1  0.32818500  0.81169400  0.79944600  1
  H  H54  1  0.81169400  0.32818500  0.29944600  1
  H  H55  1  0.67181500  0.18830600  0.20055400  1
  H  H56  1  0.37237200  0.52525100  0.65336800  1
  H  H57  1  0.47474900  0.62762800  0.84663200  1
  H  H58  1  0.62762800  0.47474900  0.34663200  1
  H  H59  1  0.52525100  0.37237200  0.15336800  1
  H  H60  1  0.91419900  0.85527900  0.58530500  1
  H  H61  1  0.14472100  0.08580100  0.91469500  1
  H  H62  1  0.08580100  0.14472100  0.41469500  1
  H  H63  1  0.85527900  0.91419900  0.08530500  1
  C  C64  1  0.95065800  0.01542600  0.65218000  1
  C  C65  1  0.98457400  0.04934200  0.84782000  1
  C  C66  1  0.04934200  0.98457400  0.34782000  1
  C  C67  1  0.01542600  0.95065800  0.15218000  1
  C  C68  1  0.26003800  0.67129500  0.66968600  1
  C  C69  1  0.32870500  0.73996200  0.83031400  1
  C  C70  1  0.73996200  0.32870500  0.33031400  1
  C  C71  1  0.67129500  0.26003800  0.16968600  1
  C  C72  1  0.21174800  0.81310900  0.58936900  1
  C  C73  1  0.18689100  0.78825200  0.91063100  1
  C  C74  1  0.78825200  0.18689100  0.41063100  1
  C  C75  1  0.81310900  0.21174800  0.08936900  1
  C  C76  1  0.02694500  0.74996500  0.61264200  1
  C  C77  1  0.25003500  0.97305500  0.88735800  1
  C  C78  1  0.97305500  0.25003500  0.38735800  1
  C  C79  1  0.74996500  0.02694500  0.11264200  1
  S  S80  1  0.35011200  0.97656200  0.70549400  1
  S  S81  1  0.02343800  0.64988800  0.79450600  1
  S  S82  1  0.64988800  0.02343800  0.29450600  1
  S  S83  1  0.97656200  0.35011200  0.20549400  1
  S  S84  1  0.72865600  0.53356200  0.63851900  1
  S  S85  1  0.46643800  0.27134400  0.86148100  1
  S  S86  1  0.27134400  0.46643800  0.36148100  1
  S  S87  1  0.53356200  0.72865600  0.13851900  1
  S  S88  1  0.47818400  0.15014700  0.62304200  1
  S  S89  1  0.84985300  0.52181600  0.87695800  1
  S  S90  1  0.52181600  0.84985300  0.37695800  1
  S  S91  1  0.15014700  0.47818400  0.12304200  1
  S  S92  1  0.46142800  0.22259100  0.74145300  1
  S  S93  1  0.77740900  0.53857200  0.75854700  1
  S  S94  1  0.53857200  0.77740900  0.25854700  1
  S  S95  1  0.22259100  0.46142800  0.24145300  1
  S  S96  1  0.54126000  0.78218300  0.52118700  1
  S  S97  1  0.21781700  0.45874000  0.97881300  1
  S  S98  1  0.45874000  0.21781700  0.47881300  1
  S  S99  1  0.78218300  0.54126000  0.02118700  1
  S  S100  1  0.99022400  0.31318500  0.53070200  1
  S  S101  1  0.68681500  0.00977600  0.96929800  1
  S  S102  1  0.00977600  0.68681500  0.46929800  1
  S  S103  1  0.31318500  0.99022400  0.03070200  1
  N  N104  1  0.11107500  0.81363800  0.63087500  1
  N  N105  1  0.18636200  0.88892500  0.86912500  1
  N  N106  1  0.88892500  0.18636200  0.36912500  1
  N  N107  1  0.81363800  0.11107500  0.13087500  1
