# generated using pymatgen
data_CsMn(PO3)6
_symmetry_space_group_name_H-M   'P 1'
_cell_length_a   5.33204000
_cell_length_b   9.08977249
_cell_length_c   9.39813028
_cell_angle_alpha   82.66425246
_cell_angle_beta   75.29598017
_cell_angle_gamma   74.44314918
_symmetry_Int_Tables_number   1
_chemical_formula_structural   CsMn(PO3)6
_chemical_formula_sum   'Cs1 Mn1 P6 O18'
_cell_volume   423.57169011
_cell_formula_units_Z   1
loop_
 _symmetry_equiv_pos_site_id
 _symmetry_equiv_pos_as_xyz
  1  'x, y, z'
loop_
 _atom_site_type_symbol
 _atom_site_label
 _atom_site_symmetry_multiplicity
 _atom_site_fract_x
 _atom_site_fract_y
 _atom_site_fract_z
 _atom_site_occupancy
  Cs  Cs0  1  0.00000000  0.00000000  0.00000000  1
  Mn  Mn1  1  0.50000000  0.00000000  0.50000000  1
  P  P2  1  0.86048000  0.21566300  0.54257100  1
  P  P3  1  0.62483900  0.44599400  0.77063500  1
  P  P4  1  0.13952000  0.78433700  0.45742900  1
  P  P5  1  0.37516100  0.55400600  0.22936500  1
  P  P6  1  0.25033400  0.23903100  0.25558600  1
  P  P7  1  0.74966600  0.76096900  0.74441400  1
  O  O8  1  0.21340400  0.23341200  0.10640300  1
  O  O9  1  0.55762300  0.89948900  0.68777900  1
  O  O10  1  0.78659600  0.76658800  0.89359700  1
  O  O11  1  0.44237700  0.10051100  0.31222100  1
  O  O12  1  0.79664300  0.37643200  0.61669200  1
  O  O13  1  0.20335700  0.62356800  0.38330800  1
  O  O14  1  0.07269600  0.09941100  0.60261500  1
  O  O15  1  0.74057800  0.37001400  0.90036700  1
  O  O16  1  0.92730400  0.90058900  0.39738500  1
  O  O17  1  0.25942200  0.62998600  0.09963300  1
  O  O18  1  0.96668000  0.27268700  0.37454300  1
  O  O19  1  0.63729700  0.61755200  0.72669500  1
  O  O20  1  0.03332000  0.72731300  0.62545700  1
  O  O21  1  0.36270300  0.38244800  0.27330500  1
  O  O22  1  0.59452500  0.18038500  0.55246100  1
  O  O23  1  0.33953500  0.43132300  0.80341300  1
  O  O24  1  0.40547500  0.81961500  0.44753900  1
  O  O25  1  0.66046500  0.56867700  0.19658700  1
