# generated using pymatgen
data_Cr5NiAs3
_symmetry_space_group_name_H-M   'P 1'
_cell_length_a   3.64821500
_cell_length_b   6.39354649
_cell_length_c   6.39354667
_cell_angle_alpha   58.84905404
_cell_angle_beta   90.00000000
_cell_angle_gamma   90.00000000
_symmetry_Int_Tables_number   1
_chemical_formula_structural   Cr5NiAs3
_chemical_formula_sum   'Cr5 Ni1 As3'
_cell_volume   127.62629392
_cell_formula_units_Z   1
loop_
 _symmetry_equiv_pos_site_id
 _symmetry_equiv_pos_as_xyz
  1  'x, y, z'
loop_
 _atom_site_type_symbol
 _atom_site_label
 _atom_site_symmetry_multiplicity
 _atom_site_fract_x
 _atom_site_fract_y
 _atom_site_fract_z
 _atom_site_occupancy
  Cr  Cr0  1  0.50000000  0.59829200  0.40170800  1
  Cr  Cr1  1  0.50000000  0.40535800  0.00848500  1
  Cr  Cr2  1  0.50000000  0.99151500  0.59464200  1
  Cr  Cr3  1  0.00000000  0.75036000  0.00263400  1
  Cr  Cr4  1  0.00000000  0.99736600  0.24964000  1
  Ni  Ni5  1  0.00000000  0.25479300  0.74520700  1
  As  As6  1  0.00000000  0.32874700  0.34014000  1
  As  As7  1  0.00000000  0.65986000  0.67125300  1
  As  As8  1  0.50000000  0.01360900  0.98639100  1
