# generated using pymatgen
data_Ca8Si4(O5F)3
_symmetry_space_group_name_H-M   'P 1'
_cell_length_a   10.56604100
_cell_length_b   7.63711800
_cell_length_c   11.08693163
_cell_angle_alpha   70.62954944
_cell_angle_beta   90.00000000
_cell_angle_gamma   90.00000000
_symmetry_Int_Tables_number   1
_chemical_formula_structural   Ca8Si4(O5F)3
_chemical_formula_sum   'Ca16 Si8 O30 F6'
_cell_volume   844.00728995
_cell_formula_units_Z   2
loop_
 _symmetry_equiv_pos_site_id
 _symmetry_equiv_pos_as_xyz
  1  'x, y, z'
loop_
 _atom_site_type_symbol
 _atom_site_label
 _atom_site_symmetry_multiplicity
 _atom_site_fract_x
 _atom_site_fract_y
 _atom_site_fract_z
 _atom_site_occupancy
  Ca  Ca0  1  0.34406700  0.96848600  0.80026800  1
  Ca  Ca1  1  0.84585300  0.03004400  0.69777400  1
  Ca  Ca2  1  0.15414700  0.03004400  0.19777400  1
  Ca  Ca3  1  0.65593300  0.96848600  0.30026800  1
  Ca  Ca4  1  0.33778300  0.47019000  0.81771600  1
  Ca  Ca5  1  0.83634200  0.53162000  0.68221900  1
  Ca  Ca6  1  0.16365800  0.53162000  0.18221900  1
  Ca  Ca7  1  0.66221700  0.47019000  0.31771600  1
  Ca  Ca8  1  0.61822600  0.16795900  0.92748600  1
  Ca  Ca9  1  0.11980500  0.82954700  0.57617700  1
  Ca  Ca10  1  0.88019500  0.82954700  0.07617700  1
  Ca  Ca11  1  0.38177400  0.16795900  0.42748600  1
  Ca  Ca12  1  0.61696800  0.66283300  0.91483600  1
  Ca  Ca13  1  0.12157200  0.33888200  0.58399300  1
  Ca  Ca14  1  0.87842800  0.33888200  0.08399300  1
  Ca  Ca15  1  0.38303200  0.66283300  0.41483600  1
  Si  Si16  1  0.55907400  0.84727700  0.62256300  1
  Si  Si17  1  0.05730300  0.15204700  0.87615800  1
  Si  Si18  1  0.94269700  0.15204700  0.37615800  1
  Si  Si19  1  0.44092600  0.84727700  0.12256300  1
  Si  Si20  1  0.55656000  0.27208900  0.63271300  1
  Si  Si21  1  0.05673500  0.72718500  0.86818600  1
  Si  Si22  1  0.94326500  0.72718500  0.36818600  1
  Si  Si23  1  0.44344000  0.27208900  0.13271300  1
  O  O24  1  0.52114800  0.06278100  0.62141500  1
  O  O25  1  0.02259800  0.93660900  0.87997400  1
  O  O26  1  0.97740200  0.93660900  0.37997400  1
  O  O27  1  0.47885200  0.06278100  0.12141500  1
  O  O28  1  0.51711400  0.85842600  0.47810300  1
  O  O29  1  0.01377700  0.14327900  0.02114600  1
  O  O30  1  0.98622300  0.14327900  0.52114600  1
  O  O31  1  0.48288600  0.85842600  0.97810300  1
  O  O32  1  0.70765900  0.80336400  0.65956100  1
  O  O33  1  0.20643400  0.19869700  0.84600900  1
  O  O34  1  0.79356600  0.19869700  0.34600900  1
  O  O35  1  0.29234100  0.80336400  0.15956100  1
  O  O36  1  0.51180100  0.40866900  0.49208400  1
  O  O37  1  0.01077000  0.59098300  0.00859600  1
  O  O38  1  0.98923000  0.59098300  0.50859600  1
  O  O39  1  0.48819900  0.40866900  0.99208400  1
  O  O40  1  0.70602200  0.28429800  0.66428900  1
  O  O41  1  0.20583900  0.71047200  0.83835700  1
  O  O42  1  0.79416100  0.71047200  0.33835700  1
  O  O43  1  0.29397800  0.28429800  0.16428900  1
  O  O44  1  0.47137400  0.26924900  0.75689400  1
  O  O45  1  0.97185700  0.73229100  0.74315600  1
  O  O46  1  0.02814300  0.73229100  0.24315600  1
  O  O47  1  0.52862600  0.26924900  0.25689400  1
  O  O48  1  0.47167900  0.72142800  0.74146900  1
  O  O49  1  0.97128800  0.27795200  0.75725600  1
  O  O50  1  0.02871200  0.27795200  0.25725600  1
  O  O51  1  0.52832100  0.72142800  0.24146900  1
  O  O52  1  0.24012700  0.07220900  0.60111500  1
  O  O53  1  0.75987300  0.07220900  0.10111500  1
  F  F54  1  0.25320900  0.57455000  0.60507500  1
  F  F55  1  0.75195500  0.43084600  0.89187600  1
  F  F56  1  0.24804500  0.43084600  0.39187600  1
  F  F57  1  0.74679100  0.57455000  0.10507500  1
  F  F58  1  0.74533600  0.92574000  0.89353700  1
  F  F59  1  0.25466400  0.92574000  0.39353700  1
