# generated using pymatgen
data_Cd5P3O13
_symmetry_space_group_name_H-M   'P 1'
_cell_length_a   6.69728500
_cell_length_b   9.56151769
_cell_length_c   9.56156544
_cell_angle_alpha   120.00052980
_cell_angle_beta   90.00000000
_cell_angle_gamma   90.00000000
_symmetry_Int_Tables_number   1
_chemical_formula_structural   Cd5P3O13
_chemical_formula_sum   'Cd10 P6 O26'
_cell_volume   530.25274877
_cell_formula_units_Z   2
loop_
 _symmetry_equiv_pos_site_id
 _symmetry_equiv_pos_as_xyz
  1  'x, y, z'
loop_
 _atom_site_type_symbol
 _atom_site_label
 _atom_site_symmetry_multiplicity
 _atom_site_fract_x
 _atom_site_fract_y
 _atom_site_fract_z
 _atom_site_occupancy
  Cd  Cd0  1  0.50041000  0.66666900  0.33333600  1
  Cd  Cd1  1  0.00041000  0.33333100  0.66666400  1
  Cd  Cd2  1  0.49777600  0.33333100  0.66666400  1
  Cd  Cd3  1  0.99777600  0.66666900  0.33333600  1
  Cd  Cd4  1  0.74673500  0.00262400  0.75780100  1
  Cd  Cd5  1  0.74673500  0.24219100  0.24481500  1
  Cd  Cd6  1  0.74673500  0.75518300  0.99737000  1
  Cd  Cd7  1  0.24673500  0.99737600  0.24219900  1
  Cd  Cd8  1  0.24673500  0.75780900  0.75518500  1
  Cd  Cd9  1  0.24673500  0.24481700  0.00263000  1
  P  P10  1  0.74712500  0.36990900  0.97518700  1
  P  P11  1  0.74712400  0.02481500  0.39472100  1
  P  P12  1  0.74712500  0.60527600  0.63009300  1
  P  P13  1  0.24712500  0.63009100  0.02481300  1
  P  P14  1  0.24712400  0.97518500  0.60527900  1
  P  P15  1  0.24712500  0.39472400  0.36990700  1
  O  O16  1  0.74743800  0.48906400  0.16047300  1
  O  O17  1  0.74743900  0.83952600  0.32860100  1
  O  O18  1  0.74743800  0.67140700  0.51093900  1
  O  O19  1  0.24743800  0.51093600  0.83952700  1
  O  O20  1  0.24743900  0.16047400  0.67139900  1
  O  O21  1  0.24743800  0.32859300  0.48906100  1
  O  O22  1  0.55974800  0.25994900  0.91960500  1
  O  O23  1  0.55974800  0.08038500  0.34033700  1
  O  O24  1  0.55974800  0.65965500  0.74004700  1
  O  O25  1  0.05974800  0.74005100  0.08039500  1
  O  O26  1  0.05974800  0.91961500  0.65966300  1
  O  O27  1  0.05974800  0.34034500  0.25995300  1
  O  O28  1  0.43038400  0.74487700  0.07764500  1
  O  O29  1  0.43038200  0.92236400  0.66723800  1
  O  O30  1  0.43038300  0.33276800  0.25512500  1
  O  O31  1  0.93038400  0.25512300  0.92235500  1
  O  O32  1  0.93038200  0.07763600  0.33276200  1
  O  O33  1  0.93038300  0.66723200  0.74487500  1
  O  O34  1  0.75156400  0.46312600  0.87806500  1
  O  O35  1  0.75156400  0.12194400  0.58506600  1
  O  O36  1  0.75156400  0.41493400  0.53687500  1
  O  O37  1  0.25156400  0.53687400  0.12193500  1
  O  O38  1  0.25156400  0.87805600  0.41493400  1
  O  O39  1  0.25156400  0.58506600  0.46312500  1
  O  O40  1  0.74083200  0.99999900  0.99999100  1
  O  O41  1  0.24083200  0.00000100  0.00000900  1
