# generated using pymatgen
data_Pm2Mg
_symmetry_space_group_name_H-M   'P 1'
_cell_length_a   7.04348625
_cell_length_b   7.04348625
_cell_length_c   7.56166769
_cell_angle_alpha   74.60666468
_cell_angle_beta   74.60666468
_cell_angle_gamma   30.90615990
_symmetry_Int_Tables_number   1
_chemical_formula_structural   Pm2Mg
_chemical_formula_sum   'Pm4 Mg2'
_cell_volume   185.23312254
_cell_formula_units_Z   2
loop_
 _symmetry_equiv_pos_site_id
 _symmetry_equiv_pos_as_xyz
  1  'x, y, z'
loop_
 _atom_site_type_symbol
 _atom_site_label
 _atom_site_symmetry_multiplicity
 _atom_site_fract_x
 _atom_site_fract_y
 _atom_site_fract_z
 _atom_site_occupancy
  Pm  Pm0  1  0.84748400  0.84748400  0.56907600  1
  Pm  Pm1  1  0.15251600  0.15251600  0.43092400  1
  Pm  Pm2  1  0.83481700  0.83481700  0.08886600  1
  Pm  Pm3  1  0.16518300  0.16518300  0.91113400  1
  Mg  Mg4  1  0.49519500  0.49519500  0.76633700  1
  Mg  Mg5  1  0.50480500  0.50480500  0.23366300  1
