# generated using pymatgen
data_Ca3AlFe(SiO4)3
_symmetry_space_group_name_H-M   'P 1'
_cell_length_a   10.45987561
_cell_length_b   10.45987561
_cell_length_c   10.45987561
_cell_angle_alpha   109.47122063
_cell_angle_beta   109.47122063
_cell_angle_gamma   109.47122063
_symmetry_Int_Tables_number   1
_chemical_formula_structural   Ca3AlFe(SiO4)3
_chemical_formula_sum   'Ca12 Al4 Fe4 Si12 O48'
_cell_volume   880.96300090
_cell_formula_units_Z   4
loop_
 _symmetry_equiv_pos_site_id
 _symmetry_equiv_pos_as_xyz
  1  'x, y, z'
loop_
 _atom_site_type_symbol
 _atom_site_label
 _atom_site_symmetry_multiplicity
 _atom_site_fract_x
 _atom_site_fract_y
 _atom_site_fract_z
 _atom_site_occupancy
  Ca  Ca0  1  0.12467200  0.37467200  0.75000000  1
  Ca  Ca1  1  0.37532800  0.12532800  0.25000000  1
  Ca  Ca2  1  0.25000000  0.37532800  0.12532800  1
  Ca  Ca3  1  0.75000000  0.12467200  0.37467200  1
  Ca  Ca4  1  0.12532800  0.25000000  0.37532800  1
  Ca  Ca5  1  0.37467200  0.75000000  0.12467200  1
  Ca  Ca6  1  0.87532800  0.62532800  0.25000000  1
  Ca  Ca7  1  0.62467200  0.87467200  0.75000000  1
  Ca  Ca8  1  0.75000000  0.62467200  0.87467200  1
  Ca  Ca9  1  0.25000000  0.87532800  0.62532800  1
  Ca  Ca10  1  0.87467200  0.75000000  0.62467200  1
  Ca  Ca11  1  0.62532800  0.25000000  0.87532800  1
  Al  Al12  1  0.50000000  0.50000000  0.00000000  1
  Al  Al13  1  0.00000000  0.50000000  0.50000000  1
  Al  Al14  1  0.00000000  0.00000000  0.00000000  1
  Al  Al15  1  0.50000000  0.00000000  0.50000000  1
  Fe  Fe16  1  0.00000000  0.50000000  0.00000000  1
  Fe  Fe17  1  0.50000000  0.50000000  0.50000000  1
  Fe  Fe18  1  0.00000000  0.00000000  0.50000000  1
  Fe  Fe19  1  0.50000000  0.00000000  0.00000000  1
  Si  Si20  1  0.87292400  0.12292400  0.75000000  1
  Si  Si21  1  0.62707600  0.37707600  0.25000000  1
  Si  Si22  1  0.25000000  0.62707600  0.37707600  1
  Si  Si23  1  0.75000000  0.87292400  0.12292400  1
  Si  Si24  1  0.37707600  0.25000000  0.62707600  1
  Si  Si25  1  0.12292400  0.75000000  0.87292400  1
  Si  Si26  1  0.12707600  0.87707600  0.25000000  1
  Si  Si27  1  0.37292400  0.62292400  0.75000000  1
  Si  Si28  1  0.75000000  0.37292400  0.62292400  1
  Si  Si29  1  0.25000000  0.12707600  0.87707600  1
  Si  Si30  1  0.62292400  0.75000000  0.37292400  1
  Si  Si31  1  0.87707600  0.25000000  0.12707600  1
  O  O32  1  0.81127300  0.50778700  0.39378700  1
  O  O33  1  0.61400000  0.41748600  0.10621300  1
  O  O34  1  0.68872700  0.08251400  0.69651300  1
  O  O35  1  0.88600000  0.99221300  0.80348700  1
  O  O36  1  0.69651300  0.68872700  0.08251400  1
  O  O37  1  0.80348700  0.88600000  0.99221300  1
  O  O38  1  0.39378700  0.81127300  0.50778700  1
  O  O39  1  0.10621300  0.61400000  0.41748600  1
  O  O40  1  0.99221300  0.80348700  0.88600000  1
  O  O41  1  0.08251400  0.69651300  0.68872700  1
  O  O42  1  0.41748600  0.10621300  0.61400000  1
  O  O43  1  0.50778700  0.39378700  0.81127300  1
  O  O44  1  0.18872700  0.49221300  0.60621300  1
  O  O45  1  0.38600000  0.58251400  0.89378700  1
  O  O46  1  0.31127300  0.91748600  0.30348700  1
  O  O47  1  0.11400000  0.00778700  0.19651300  1
  O  O48  1  0.30348700  0.31127300  0.91748600  1
  O  O49  1  0.19651300  0.11400000  0.00778700  1
  O  O50  1  0.60621300  0.18872700  0.49221300  1
  O  O51  1  0.89378700  0.38600000  0.58251400  1
  O  O52  1  0.00778700  0.19651300  0.11400000  1
  O  O53  1  0.91748600  0.30348700  0.31127300  1
  O  O54  1  0.58251400  0.89378700  0.38600000  1
  O  O55  1  0.49221300  0.60621300  0.18872700  1
  O  O56  1  0.29568300  0.49145100  0.38417500  1
  O  O57  1  0.20431700  0.58849300  0.19576800  1
  O  O58  1  0.60727500  0.91150700  0.11582500  1
  O  O59  1  0.89272500  0.00854900  0.30423200  1
  O  O60  1  0.00854900  0.30423200  0.89272500  1
  O  O61  1  0.91150700  0.11582500  0.60727500  1
  O  O62  1  0.58849300  0.19576800  0.20431700  1
  O  O63  1  0.49145100  0.38417500  0.29568300  1
  O  O64  1  0.19576800  0.20431700  0.58849300  1
  O  O65  1  0.38417500  0.29568300  0.49145100  1
  O  O66  1  0.30423200  0.89272500  0.00854900  1
  O  O67  1  0.11582500  0.60727500  0.91150700  1
  O  O68  1  0.70431700  0.50854900  0.61582500  1
  O  O69  1  0.79568300  0.41150700  0.80423200  1
  O  O70  1  0.39272500  0.08849300  0.88417500  1
  O  O71  1  0.10727500  0.99145100  0.69576800  1
  O  O72  1  0.99145100  0.69576800  0.10727500  1
  O  O73  1  0.08849300  0.88417500  0.39272500  1
  O  O74  1  0.41150700  0.80423200  0.79568300  1
  O  O75  1  0.50854900  0.61582500  0.70431700  1
  O  O76  1  0.80423200  0.79568300  0.41150700  1
  O  O77  1  0.61582500  0.70431700  0.50854900  1
  O  O78  1  0.69576800  0.10727500  0.99145100  1
  O  O79  1  0.88417500  0.39272500  0.08849300  1
