# generated using pymatgen
data_BaNa2Sr6Al6(OF16)2
_symmetry_space_group_name_H-M   'P 1'
_cell_length_a   9.92973364
_cell_length_b   9.92973364
_cell_length_c   7.34797157
_cell_angle_alpha   80.51147332
_cell_angle_beta   80.51147332
_cell_angle_gamma   68.37849671
_symmetry_Int_Tables_number   1
_chemical_formula_structural   BaNa2Sr6Al6(OF16)2
_chemical_formula_sum   'Ba1 Na2 Sr6 Al6 O2 F32'
_cell_volume   660.01889066
_cell_formula_units_Z   1
loop_
 _symmetry_equiv_pos_site_id
 _symmetry_equiv_pos_as_xyz
  1  'x, y, z'
loop_
 _atom_site_type_symbol
 _atom_site_label
 _atom_site_symmetry_multiplicity
 _atom_site_fract_x
 _atom_site_fract_y
 _atom_site_fract_z
 _atom_site_occupancy
  Ba  Ba0  1  0.73780100  0.73780100  0.13238300  1
  Na  Na1  1  0.50004700  0.50004700  0.50073300  1
  Na  Na2  1  0.49962300  0.49962300  0.99830400  1
  Sr  Sr3  1  0.15152100  0.55225300  0.30402600  1
  Sr  Sr4  1  0.55225300  0.15152100  0.30402600  1
  Sr  Sr5  1  0.85078900  0.44642100  0.69514600  1
  Sr  Sr6  1  0.44642100  0.85078900  0.69514600  1
  Sr  Sr7  1  0.00046000  0.00046000  0.99849300  1
  Sr  Sr8  1  0.25977500  0.25977500  0.88554700  1
  Al  Al9  1  0.16515700  0.16515700  0.45789500  1
  Al  Al10  1  0.83584000  0.83584000  0.54410200  1
  Al  Al11  1  0.86714000  0.34886600  0.20271000  1
  Al  Al12  1  0.34886600  0.86714000  0.20271000  1
  Al  Al13  1  0.13688200  0.64647800  0.79616700  1
  Al  Al14  1  0.64647800  0.13688200  0.79616700  1
  O  O15  1  0.41478000  0.41478000  0.28201000  1
  O  O16  1  0.58616800  0.58616800  0.71584400  1
  F  F17  1  0.99799100  0.25880400  0.00746700  1
  F  F18  1  0.25880400  0.99799100  0.00746700  1
  F  F19  1  0.01138400  0.73866500  0.99150800  1
  F  F20  1  0.73866500  0.01138400  0.99150800  1
  F  F21  1  0.09652200  0.09652200  0.68312500  1
  F  F22  1  0.90281800  0.90281800  0.31670900  1
  F  F23  1  0.98656600  0.22005300  0.37336800  1
  F  F24  1  0.22005300  0.98656600  0.37336800  1
  F  F25  1  0.01447300  0.77861500  0.62884000  1
  F  F26  1  0.77861500  0.01447300  0.62884000  1
  F  F27  1  0.74448600  0.44676600  0.38957500  1
  F  F28  1  0.44676600  0.74448600  0.38957500  1
  F  F29  1  0.25714100  0.55231900  0.60651700  1
  F  F30  1  0.55231900  0.25714100  0.60651700  1
  F  F31  1  0.24028900  0.24028900  0.23759400  1
  F  F32  1  0.75901200  0.75901200  0.75825100  1
  F  F33  1  0.75018900  0.47756500  0.03170500  1
  F  F34  1  0.47756500  0.75018900  0.03170500  1
  F  F35  1  0.25309600  0.51165600  0.96518700  1
  F  F36  1  0.51165600  0.25309600  0.96518700  1
  F  F37  1  0.96576100  0.47234300  0.19084900  1
  F  F38  1  0.47234300  0.96576100  0.19084900  1
  F  F39  1  0.03933900  0.52155300  0.81109300  1
  F  F40  1  0.52155300  0.03933900  0.81109300  1
  F  F41  1  0.77262400  0.23025100  0.78815400  1
  F  F42  1  0.23025100  0.77262400  0.78815400  1
  F  F43  1  0.22173900  0.77553200  0.20969500  1
  F  F44  1  0.77553200  0.22173900  0.20969500  1
  F  F45  1  0.11304000  0.34188600  0.54640700  1
  F  F46  1  0.34188600  0.11304000  0.54640700  1
  F  F47  1  0.89026500  0.65725600  0.45609100  1
  F  F48  1  0.65725600  0.89026500  0.45609100  1
