# generated using pymatgen
data_CoH15N6(ClO)2
_symmetry_space_group_name_H-M   'P 1'
_cell_length_a   6.88158800
_cell_length_b   6.89410497
_cell_length_c   10.97297443
_cell_angle_alpha   86.27036271
_cell_angle_beta   86.44566130
_cell_angle_gamma   79.53427959
_symmetry_Int_Tables_number   1
_chemical_formula_structural   CoH15N6(ClO)2
_chemical_formula_sum   'Co2 H30 N12 Cl4 O4'
_cell_volume   510.17102649
_cell_formula_units_Z   2
loop_
 _symmetry_equiv_pos_site_id
 _symmetry_equiv_pos_as_xyz
  1  'x, y, z'
loop_
 _atom_site_type_symbol
 _atom_site_label
 _atom_site_symmetry_multiplicity
 _atom_site_fract_x
 _atom_site_fract_y
 _atom_site_fract_z
 _atom_site_occupancy
  Co  Co0  1  0.71150800  0.28876600  0.75021600  1
  Co  Co1  1  0.28849200  0.71123400  0.24978400  1
  H  H2  1  0.44846800  0.12580900  0.66936700  1
  H  H3  1  0.87358800  0.55284300  0.83063900  1
  H  H4  1  0.55153200  0.87419100  0.33063300  1
  H  H5  1  0.12641200  0.44715700  0.16936100  1
  H  H6  1  0.54720100  0.28575600  0.96374900  1
  H  H7  1  0.71481900  0.45228800  0.53633900  1
  H  H8  1  0.45279900  0.71424400  0.03625100  1
  H  H9  1  0.28518100  0.54771200  0.46366100  1
  H  H10  1  0.76332600  0.13685200  0.96547600  1
  H  H11  1  0.86443900  0.23637700  0.53554500  1
  H  H12  1  0.23667400  0.86314800  0.03452400  1
  H  H13  1  0.13556100  0.76362300  0.46445500  1
  H  H14  1  0.42347400  0.11999300  0.82127100  1
  H  H15  1  0.87897200  0.57754300  0.67892400  1
  H  H16  1  0.57652600  0.88000700  0.17872900  1
  H  H17  1  0.12102800  0.42245700  0.32107600  1
  H  H18  1  0.75319200  0.37901800  0.96586400  1
  H  H19  1  0.62151800  0.24693600  0.53409400  1
  H  H20  1  0.24680800  0.62098200  0.03413600  1
  H  H21  1  0.37848200  0.75306400  0.46590600  1
  H  H22  1  0.59430700  0.95695000  0.75107700  1
  H  H23  1  0.04286700  0.40802900  0.74960200  1
  H  H24  1  0.40569300  0.04305000  0.24892300  1
  H  H25  1  0.95713300  0.59197100  0.25039800  1
  H  H26  1  0.07079300  0.10493400  0.73787700  1
  H  H27  1  0.92920700  0.89506600  0.26212300  1
  H  H28  1  0.92833200  0.97063000  0.67918900  1
  H  H29  1  0.07166800  0.02937000  0.32081100  1
  H  H30  1  0.93821700  0.97478100  0.83075200  1
  H  H31  1  0.06178300  0.02521900  0.16924800  1
  N  N32  1  0.93732500  0.05940800  0.74986700  1
  N  N33  1  0.06267500  0.94059200  0.25013300  1
  N  N34  1  0.69207600  0.27145400  0.93027000  1
  N  N35  1  0.72922300  0.30770300  0.57000800  1
  N  N36  1  0.30792400  0.72854600  0.06973000  1
  N  N37  1  0.27077700  0.69229700  0.42999200  1
  N  N38  1  0.49276500  0.50694600  0.74991400  1
  N  N39  1  0.50723500  0.49305400  0.25008600  1
  N  N40  1  0.52586000  0.10175700  0.74795400  1
  N  N41  1  0.89744800  0.47512000  0.75235700  1
  N  N42  1  0.47414000  0.89824300  0.25204600  1
  N  N43  1  0.10255200  0.52488000  0.24764300  1
  Cl  Cl44  1  0.78060100  0.80669400  0.51601300  1
  Cl  Cl45  1  0.19288000  0.21948200  0.98668400  1
  Cl  Cl46  1  0.21939900  0.19330600  0.48398700  1
  Cl  Cl47  1  0.80712000  0.78051800  0.01331600  1
  O  O48  1  0.34961800  0.50229000  0.68690600  1
  O  O49  1  0.49710200  0.65014100  0.81301400  1
  O  O50  1  0.65038200  0.49771000  0.31309400  1
  O  O51  1  0.50289800  0.34985900  0.18698600  1
