# generated using pymatgen
data_Ce2Ti2Fe22H
_symmetry_space_group_name_H-M   'P 1'
_cell_length_a   6.49671927
_cell_length_b   6.49671927
_cell_length_c   11.99202930
_cell_angle_alpha   89.64976455
_cell_angle_beta   89.64976455
_cell_angle_gamma   42.71417442
_symmetry_Int_Tables_number   1
_chemical_formula_structural   Ce2Ti2Fe22H
_chemical_formula_sum   'Ce2 Ti2 Fe22 H1'
_cell_volume   343.33643256
_cell_formula_units_Z   1
loop_
 _symmetry_equiv_pos_site_id
 _symmetry_equiv_pos_as_xyz
  1  'x, y, z'
loop_
 _atom_site_type_symbol
 _atom_site_label
 _atom_site_symmetry_multiplicity
 _atom_site_fract_x
 _atom_site_fract_y
 _atom_site_fract_z
 _atom_site_occupancy
  Ce  Ce0  1  0.99621400  0.99621400  0.00384100  1
  Ce  Ce1  1  0.49622400  0.49622400  0.50347100  1
  Ti  Ti2  1  0.68425200  0.68425200  0.31551700  1
  Ti  Ti3  1  0.18384100  0.18384100  0.81606100  1
  Fe  Fe4  1  0.61222700  0.61222700  0.11063200  1
  Fe  Fe5  1  0.11234400  0.11234400  0.61097400  1
  Fe  Fe6  1  0.88845200  0.88845200  0.38770900  1
  Fe  Fe7  1  0.38923000  0.38923000  0.88759700  1
  Fe  Fe8  1  0.11345200  0.11345200  0.38698700  1
  Fe  Fe9  1  0.61299300  0.61299300  0.88716800  1
  Fe  Fe10  1  0.38547700  0.38547700  0.11452900  1
  Fe  Fe11  1  0.88445600  0.88445600  0.61519300  1
  Fe  Fe12  1  0.24837800  0.74952500  0.25026700  1
  Fe  Fe13  1  0.74886900  0.24890700  0.74952300  1
  Fe  Fe14  1  0.74952500  0.24837800  0.25026700  1
  Fe  Fe15  1  0.24890700  0.74886900  0.74952300  1
  Fe  Fe16  1  0.50060000  0.99995200  0.00118200  1
  Fe  Fe17  1  0.00063200  0.49980700  0.50114100  1
  Fe  Fe18  1  0.99995200  0.50060000  0.00118200  1
  Fe  Fe19  1  0.49980700  0.00063200  0.50114100  1
  Fe  Fe20  1  0.32126500  0.32126500  0.32100500  1
  Fe  Fe21  1  0.82133900  0.82133900  0.82169800  1
  Fe  Fe22  1  0.17841300  0.17841300  0.17858300  1
  Fe  Fe23  1  0.67828600  0.67828600  0.67904600  1
  Fe  Fe24  1  0.82283100  0.82283100  0.17731700  1
  Fe  Fe25  1  0.32270200  0.32270200  0.67784700  1
  H  H26  1  0.49933100  0.49933100  0.00059900  1
