# generated using pymatgen
data_Ca11Si9As16
_symmetry_space_group_name_H-M   'P 1'
_cell_length_a   7.15783000
_cell_length_b   7.27461380
_cell_length_c   17.73458199
_cell_angle_alpha   90.00621149
_cell_angle_beta   90.03724071
_cell_angle_gamma   111.62956720
_symmetry_Int_Tables_number   1
_chemical_formula_structural   Ca11Si9As16
_chemical_formula_sum   'Ca11 Si9 As16'
_cell_volume   858.42412374
_cell_formula_units_Z   1
loop_
 _symmetry_equiv_pos_site_id
 _symmetry_equiv_pos_as_xyz
  1  'x, y, z'
loop_
 _atom_site_type_symbol
 _atom_site_label
 _atom_site_symmetry_multiplicity
 _atom_site_fract_x
 _atom_site_fract_y
 _atom_site_fract_z
 _atom_site_occupancy
  Ca  Ca0  1  0.00202700  0.26033800  0.56266400  1
  Ca  Ca1  1  0.49791200  0.73840900  0.05991100  1
  Ca  Ca2  1  0.99795800  0.73825000  0.43996300  1
  Ca  Ca3  1  0.50218600  0.26171500  0.93799500  1
  Ca  Ca4  1  0.49000300  0.74500200  0.56119300  1
  Ca  Ca5  1  0.01207100  0.25494400  0.05874100  1
  Ca  Ca6  1  0.51153200  0.25509400  0.44179200  1
  Ca  Ca7  1  0.98793400  0.74470200  0.93966800  1
  Ca  Ca8  1  0.51363800  0.21668900  0.18403400  1
  Ca  Ca9  1  0.01336800  0.21709100  0.31587900  1
  Ca  Ca10  1  0.48607300  0.78172600  0.81498700  1
  Si  Si11  1  0.96989800  0.78701000  0.12960600  1
  Si  Si12  1  0.53356500  0.21299000  0.63185100  1
  Si  Si13  1  0.02976700  0.21117100  0.86938100  1
  Si  Si14  1  0.46997100  0.78635100  0.37054100  1
  Si  Si15  1  0.92242800  0.31758200  0.75885500  1
  Si  Si16  1  0.57902900  0.68248500  0.25955500  1
  Si  Si17  1  0.07880900  0.68267000  0.24043200  1
  Si  Si18  1  0.42039000  0.32049300  0.74096200  1
  Si  Si19  1  0.98396100  0.79032600  0.67769400  1
  As  As20  1  0.21187900  0.03096200  0.80702300  1
  As  As21  1  0.27805400  0.96284000  0.31341500  1
  As  As22  1  0.77805700  0.96284800  0.18735200  1
  As  As23  1  0.72867300  0.02933600  0.68781800  1
  As  As24  1  0.23969000  0.99644200  0.56884600  1
  As  As25  1  0.25037400  0.99322300  0.06152200  1
  As  As26  1  0.74846500  0.99431900  0.43919700  1
  As  As27  1  0.74917900  0.00666800  0.93853200  1
  As  As28  1  0.22745200  0.51385700  0.69544700  1
  As  As29  1  0.26964100  0.49258300  0.19667400  1
  As  As30  1  0.76931300  0.49218200  0.30378700  1
  As  As31  1  0.73649400  0.51365900  0.79934300  1
  As  As32  1  0.75354700  0.50972900  0.57258800  1
  As  As33  1  0.75581600  0.49868100  0.06828900  1
  As  As34  1  0.25665000  0.49799600  0.43267900  1
  As  As35  1  0.24419500  0.49963500  0.93178300  1
