# generated using pymatgen
data_CaCeMnO4
_symmetry_space_group_name_H-M   'P 1'
_cell_length_a   13.18981360
_cell_length_b   13.18981360
_cell_length_c   13.18981360
_cell_angle_alpha   156.23655030
_cell_angle_beta   156.23655030
_cell_angle_gamma   33.85667185
_symmetry_Int_Tables_number   1
_chemical_formula_structural   CaCeMnO4
_chemical_formula_sum   'Ca4 Ce4 Mn4 O16'
_cell_volume   372.23500848
_cell_formula_units_Z   4
loop_
 _symmetry_equiv_pos_site_id
 _symmetry_equiv_pos_as_xyz
  1  'x, y, z'
loop_
 _atom_site_type_symbol
 _atom_site_label
 _atom_site_symmetry_multiplicity
 _atom_site_fract_x
 _atom_site_fract_y
 _atom_site_fract_z
 _atom_site_occupancy
  Ca  Ca0  1  0.32393800  0.32393800  0.00000000  1
  Ca  Ca1  1  0.07393800  0.57393800  0.50000000  1
  Ca  Ca2  1  0.42606200  0.92606200  0.50000000  1
  Ca  Ca3  1  0.67606200  0.67606200  0.00000000  1
  Ce  Ce4  1  0.82130300  0.82130300  0.00000000  1
  Ce  Ce5  1  0.57130300  0.07130300  0.50000000  1
  Ce  Ce6  1  0.92869700  0.42869700  0.50000000  1
  Ce  Ce7  1  0.17869700  0.17869700  0.00000000  1
  Mn  Mn8  1  0.50000000  0.50000000  0.00000000  1
  Mn  Mn9  1  0.00000000  0.00000000  0.00000000  1
  Mn  Mn10  1  0.25000000  0.75000000  0.50000000  1
  Mn  Mn11  1  0.75000000  0.25000000  0.50000000  1
  O  O12  1  0.41403200  0.41403200  0.00000000  1
  O  O13  1  0.90868400  0.90868400  0.00000000  1
  O  O14  1  0.16403200  0.66403200  0.50000000  1
  O  O15  1  0.65868400  0.15868400  0.50000000  1
  O  O16  1  0.84131600  0.34131600  0.50000000  1
  O  O17  1  0.33596800  0.83596800  0.50000000  1
  O  O18  1  0.09131600  0.09131600  0.00000000  1
  O  O19  1  0.58596800  0.58596800  0.00000000  1
  O  O20  1  0.93565900  0.55718800  0.98984100  1
  O  O21  1  0.05418200  0.06434100  0.62153000  1
  O  O22  1  0.69581800  0.81734800  0.51015900  1
  O  O23  1  0.81434100  0.30418200  0.12153000  1
  O  O24  1  0.30718800  0.18565900  0.48984100  1
  O  O25  1  0.18265200  0.69281200  0.87847000  1
  O  O26  1  0.56734800  0.94581800  0.01015900  1
  O  O27  1  0.44281200  0.43265200  0.37847000  1
