# generated using pymatgen
data_BaGa2GeSe6
_symmetry_space_group_name_H-M   'P 1'
_cell_length_a   6.63780300
_cell_length_b   6.67983054
_cell_length_c   6.68090444
_cell_angle_alpha   100.30294078
_cell_angle_beta   100.65863378
_cell_angle_gamma   99.85431488
_symmetry_Int_Tables_number   1
_chemical_formula_structural   BaGa2GeSe6
_chemical_formula_sum   'Ba1 Ga2 Ge1 Se6'
_cell_volume   279.96057804
_cell_formula_units_Z   1
loop_
 _symmetry_equiv_pos_site_id
 _symmetry_equiv_pos_as_xyz
  1  'x, y, z'
loop_
 _atom_site_type_symbol
 _atom_site_label
 _atom_site_symmetry_multiplicity
 _atom_site_fract_x
 _atom_site_fract_y
 _atom_site_fract_z
 _atom_site_occupancy
  Ba  Ba0  1  0.99780100  0.99779800  0.99653800  1
  Ga  Ga1  1  0.81686000  0.54026100  0.40075800  1
  Ga  Ga2  1  0.54688700  0.39812700  0.82064600  1
  Ge  Ge3  1  0.39945400  0.82018900  0.54359900  1
  Se  Se4  1  0.25917900  0.12992500  0.58065900  1
  Se  Se5  1  0.13846700  0.58781900  0.26297100  1
  Se  Se6  1  0.58429900  0.26166400  0.13472400  1
  Se  Se7  1  0.73443100  0.88651500  0.45432300  1
  Se  Se8  1  0.88728100  0.45382400  0.73964000  1
  Se  Se9  1  0.45097000  0.73950900  0.88177100  1
