# generated using pymatgen
data_BaMgV2ZnO8
_symmetry_space_group_name_H-M   'P 1'
_cell_length_a   9.92201722
_cell_length_b   9.92201722
_cell_length_c   9.92201722
_cell_angle_alpha   128.79146103
_cell_angle_beta   100.77502308
_cell_angle_gamma   100.75205389
_symmetry_Int_Tables_number   1
_chemical_formula_structural   BaMgV2ZnO8
_chemical_formula_sum   'Ba4 Mg4 V8 Zn4 O32'
_cell_volume   686.57528983
_cell_formula_units_Z   4
loop_
 _symmetry_equiv_pos_site_id
 _symmetry_equiv_pos_as_xyz
  1  'x, y, z'
loop_
 _atom_site_type_symbol
 _atom_site_label
 _atom_site_symmetry_multiplicity
 _atom_site_fract_x
 _atom_site_fract_y
 _atom_site_fract_z
 _atom_site_occupancy
  Ba  Ba0  1  0.87519700  0.12500000  0.50022700  1
  Ba  Ba1  1  0.87522600  0.62502900  0.00022700  1
  Ba  Ba2  1  0.37519700  0.37497100  0.25019700  1
  Ba  Ba3  1  0.37522600  0.87500000  0.75019700  1
  Mg  Mg4  1  0.03820900  0.45611500  0.33061900  1
  Mg  Mg5  1  0.37450400  0.29241000  0.83061900  1
  Mg  Mg6  1  0.53820900  0.70759000  0.08209400  1
  Mg  Mg7  1  0.87450400  0.54388500  0.58209400  1
  V  V8  1  0.04506300  0.00000000  0.04506300  1
  V  V9  1  0.54506300  0.00000000  0.54506300  1
  V  V10  1  0.70451700  0.50000000  0.20451700  1
  V  V11  1  0.20451700  0.50000000  0.70451700  1
  V  V12  1  0.54574800  0.42040600  0.62576700  1
  V  V13  1  0.04574800  0.91998100  0.62534200  1
  V  V14  1  0.20536100  0.57959400  0.12534200  1
  V  V15  1  0.70536100  0.08001900  0.12576700  1
  Zn  Zn16  1  0.71133900  0.79365200  0.66844300  1
  Zn  Zn17  1  0.37479100  0.95710400  0.16844300  1
  Zn  Zn18  1  0.21133900  0.04289600  0.41768600  1
  Zn  Zn19  1  0.87479100  0.20634800  0.91768600  1
  O  O20  1  0.03906500  0.00857300  0.22369300  1
  O  O21  1  0.71512000  0.18462800  0.72369300  1
  O  O22  1  0.53906500  0.81537200  0.53049200  1
  O  O23  1  0.21512000  0.99142700  0.03049200  1
  O  O24  1  0.71000100  0.68391900  0.21870500  1
  O  O25  1  0.03478600  0.50870300  0.71870400  1
  O  O26  1  0.21000100  0.49129700  0.52608300  1
  O  O27  1  0.53478600  0.31608100  0.02608300  1
  O  O28  1  0.71541500  0.40634700  0.61644500  1
  O  O29  1  0.03906100  0.90538700  0.44053300  1
  O  O30  1  0.21541500  0.09897000  0.80906800  1
  O  O31  1  0.53906100  0.59852800  0.63367400  1
  O  O32  1  0.03514600  0.40147200  0.94053300  1
  O  O33  1  0.71009800  0.90103000  0.11644500  1
  O  O34  1  0.53514600  0.09461400  0.13367400  1
  O  O35  1  0.21009800  0.59365300  0.30906800  1
  O  O36  1  0.89450800  0.79334600  0.83420400  1
  O  O37  1  0.54085800  0.93969600  0.33420400  1
  O  O38  1  0.39450800  0.06030400  0.60116200  1
  O  O39  1  0.04085800  0.20665400  0.10116200  1
  O  O40  1  0.85652000  0.44055400  0.15059300  1
  O  O41  1  0.21003900  0.29407300  0.65059300  1
  O  O42  1  0.35652000  0.70592700  0.91596600  1
  O  O43  1  0.71003900  0.55944600  0.41596600  1
  O  O44  1  0.53969600  0.47512300  0.83151000  1
  O  O45  1  0.89432600  0.97549000  0.68450800  1
  O  O46  1  0.03969600  0.70818600  0.56457200  1
  O  O47  1  0.39432600  0.20981800  0.41883600  1
  O  O48  1  0.20901800  0.79018200  0.18450800  1
  O  O49  1  0.85638700  0.29181400  0.33151000  1
  O  O50  1  0.70901800  0.02451000  0.91883600  1
  O  O51  1  0.35638700  0.52487700  0.06457200  1
