# generated using pymatgen
data_Ca6V3Fe7O24
_symmetry_space_group_name_H-M   'P 1'
_cell_length_a   10.93451642
_cell_length_b   10.93451642
_cell_length_c   10.93451642
_cell_angle_alpha   109.47122063
_cell_angle_beta   109.47122063
_cell_angle_gamma   109.47122063
_symmetry_Int_Tables_number   1
_chemical_formula_structural   Ca6V3Fe7O24
_chemical_formula_sum   'Ca12 V6 Fe14 O48'
_cell_volume   1006.41442474
_cell_formula_units_Z   2
loop_
 _symmetry_equiv_pos_site_id
 _symmetry_equiv_pos_as_xyz
  1  'x, y, z'
loop_
 _atom_site_type_symbol
 _atom_site_label
 _atom_site_symmetry_multiplicity
 _atom_site_fract_x
 _atom_site_fract_y
 _atom_site_fract_z
 _atom_site_occupancy
  Ca  Ca0  1  0.12404000  0.37404000  0.75000000  1
  Ca  Ca1  1  0.37596000  0.12596000  0.25000000  1
  Ca  Ca2  1  0.25000000  0.37596000  0.12596000  1
  Ca  Ca3  1  0.75000000  0.12404000  0.37404000  1
  Ca  Ca4  1  0.12596000  0.25000000  0.37596000  1
  Ca  Ca5  1  0.37404000  0.75000000  0.12404000  1
  Ca  Ca6  1  0.87404000  0.62404000  0.25000000  1
  Ca  Ca7  1  0.62596000  0.87596000  0.75000000  1
  Ca  Ca8  1  0.75000000  0.62596000  0.87596000  1
  Ca  Ca9  1  0.25000000  0.87404000  0.62404000  1
  Ca  Ca10  1  0.87596000  0.75000000  0.62596000  1
  Ca  Ca11  1  0.62404000  0.25000000  0.87404000  1
  V  V12  1  0.12500000  0.87500000  0.25000000  1
  V  V13  1  0.37500000  0.62500000  0.75000000  1
  V  V14  1  0.75000000  0.37500000  0.62500000  1
  V  V15  1  0.25000000  0.12500000  0.87500000  1
  V  V16  1  0.62500000  0.75000000  0.37500000  1
  V  V17  1  0.87500000  0.25000000  0.12500000  1
  Fe  Fe18  1  0.52470100  0.50000000  0.00000000  1
  Fe  Fe19  1  0.00000000  0.52470100  0.50000000  1
  Fe  Fe20  1  0.97529900  0.97529900  0.97529900  1
  Fe  Fe21  1  0.50000000  0.00000000  0.52470100  1
  Fe  Fe22  1  0.02470100  0.50000000  0.00000000  1
  Fe  Fe23  1  0.47529900  0.47529900  0.47529900  1
  Fe  Fe24  1  0.00000000  0.02470100  0.50000000  1
  Fe  Fe25  1  0.50000000  0.00000000  0.02470100  1
  Fe  Fe26  1  0.87500000  0.12500000  0.75000000  1
  Fe  Fe27  1  0.62500000  0.37500000  0.25000000  1
  Fe  Fe28  1  0.25000000  0.62500000  0.37500000  1
  Fe  Fe29  1  0.75000000  0.87500000  0.12500000  1
  Fe  Fe30  1  0.37500000  0.25000000  0.62500000  1
  Fe  Fe31  1  0.12500000  0.75000000  0.87500000  1
  O  O32  1  0.39163900  0.58017700  0.89237200  1
  O  O33  1  0.18780600  0.49926800  0.60762800  1
  O  O34  1  0.10836100  0.00073200  0.18853800  1
  O  O35  1  0.31219400  0.91982300  0.31146200  1
  O  O36  1  0.18853800  0.10836100  0.00073200  1
  O  O37  1  0.31146200  0.31219400  0.91982300  1
  O  O38  1  0.89237200  0.39163900  0.58017700  1
  O  O39  1  0.60762800  0.18780600  0.49926800  1
  O  O40  1  0.91982300  0.31146200  0.31219400  1
  O  O41  1  0.00073200  0.18853800  0.10836100  1
  O  O42  1  0.49926800  0.60762800  0.18780600  1
  O  O43  1  0.58017700  0.89237200  0.39163900  1
  O  O44  1  0.62943400  0.41320400  0.09331100  1
  O  O45  1  0.81989200  0.53612300  0.40668900  1
  O  O46  1  0.87056600  0.96387700  0.78376900  1
  O  O47  1  0.68010800  0.08679600  0.71623100  1
  O  O48  1  0.78376900  0.87056600  0.96387700  1
  O  O49  1  0.71623100  0.68010800  0.08679600  1
  O  O50  1  0.09331100  0.62943400  0.41320400  1
  O  O51  1  0.40668900  0.81989200  0.53612300  1
  O  O52  1  0.08679600  0.71623100  0.68010800  1
  O  O53  1  0.96387700  0.78376900  0.87056600  1
  O  O54  1  0.53612300  0.40668900  0.81989200  1
  O  O55  1  0.41320400  0.09331100  0.62943400  1
  O  O56  1  0.81146200  0.41982300  0.81219400  1
  O  O57  1  0.68853800  0.50073200  0.60836100  1
  O  O58  1  0.10762800  0.99926800  0.68780600  1
  O  O59  1  0.39237200  0.08017700  0.89163900  1
  O  O60  1  0.08017700  0.89163900  0.39237200  1
  O  O61  1  0.99926800  0.68780600  0.10762800  1
  O  O62  1  0.50073200  0.60836100  0.68853800  1
  O  O63  1  0.41982300  0.81219400  0.81146200  1
  O  O64  1  0.60836100  0.68853800  0.50073200  1
  O  O65  1  0.81219400  0.81146200  0.41982300  1
  O  O66  1  0.89163900  0.39237200  0.08017700  1
  O  O67  1  0.68780600  0.10762800  0.99926800  1
  O  O68  1  0.21623100  0.58679600  0.18010800  1
  O  O69  1  0.28376900  0.46387700  0.37056600  1
  O  O70  1  0.90668900  0.03612300  0.31989200  1
  O  O71  1  0.59331100  0.91320400  0.12943400  1
  O  O72  1  0.91320400  0.12943400  0.59331100  1
  O  O73  1  0.03612300  0.31989200  0.90668900  1
  O  O74  1  0.46387700  0.37056600  0.28376900  1
  O  O75  1  0.58679600  0.18010800  0.21623100  1
  O  O76  1  0.37056600  0.28376900  0.46387700  1
  O  O77  1  0.18010800  0.21623100  0.58679600  1
  O  O78  1  0.12943400  0.59331100  0.91320400  1
  O  O79  1  0.31989200  0.90668900  0.03612300  1
