# generated using pymatgen
data_FeB18H42C8(SN)2
_symmetry_space_group_name_H-M   'P 1'
_cell_length_a   12.45313763
_cell_length_b   12.45313763
_cell_length_c   12.21556565
_cell_angle_alpha   60.87773744
_cell_angle_beta   60.87773744
_cell_angle_gamma   79.16561391
_symmetry_Int_Tables_number   1
_chemical_formula_structural   FeB18H42C8(SN)2
_chemical_formula_sum   'Fe2 B36 H84 C16 S4 N4'
_cell_volume   1442.73631116
_cell_formula_units_Z   2
loop_
 _symmetry_equiv_pos_site_id
 _symmetry_equiv_pos_as_xyz
  1  'x, y, z'
loop_
 _atom_site_type_symbol
 _atom_site_label
 _atom_site_symmetry_multiplicity
 _atom_site_fract_x
 _atom_site_fract_y
 _atom_site_fract_z
 _atom_site_occupancy
  Fe  Fe0  1  0.50000000  0.00000000  0.50000000  1
  Fe  Fe1  1  0.00000000  0.50000000  0.00000000  1
  B  B2  1  0.40515000  0.10015500  0.79408300  1
  B  B3  1  0.59485000  0.89984500  0.20591700  1
  B  B4  1  0.10015500  0.40515000  0.29408300  1
  B  B5  1  0.89984500  0.59485000  0.70591700  1
  B  B6  1  0.29268000  0.08836700  0.74761100  1
  B  B7  1  0.59059800  0.79105800  0.36846800  1
  B  B8  1  0.20894200  0.40940200  0.13153200  1
  B  B9  1  0.91163300  0.70732000  0.75238900  1
  B  B10  1  0.70732000  0.91163300  0.25238900  1
  B  B11  1  0.40940200  0.20894200  0.63153200  1
  B  B12  1  0.79105800  0.59059800  0.86846800  1
  B  B13  1  0.08836700  0.29268000  0.24761100  1
  B  B14  1  0.33008500  0.97338400  0.69571300  1
  B  B15  1  0.47300700  0.82758000  0.49831500  1
  B  B16  1  0.17242000  0.52699300  0.00168500  1
  B  B17  1  0.02661600  0.66991500  0.80428700  1
  B  B18  1  0.66991500  0.02661600  0.30428700  1
  B  B19  1  0.52699300  0.17242000  0.50168500  1
  B  B20  1  0.82758000  0.47300700  0.99831500  1
  B  B21  1  0.97338400  0.33008500  0.19571300  1
  B  B22  1  0.34725300  0.95448800  0.84504300  1
  B  B23  1  0.45264900  0.85139200  0.36048300  1
  B  B24  1  0.14860800  0.54735100  0.13951700  1
  B  B25  1  0.04551200  0.65274700  0.65495700  1
  B  B26  1  0.65274700  0.04551200  0.15495700  1
  B  B27  1  0.54735100  0.14860800  0.63951700  1
  B  B28  1  0.85139200  0.45264900  0.86048300  1
  B  B29  1  0.95448800  0.34725300  0.34504300  1
  B  B30  1  0.37315400  0.13099200  0.56251700  1
  B  B31  1  0.62684600  0.86900800  0.43748300  1
  B  B32  1  0.13099200  0.37315400  0.06251700  1
  B  B33  1  0.86900800  0.62684600  0.93748300  1
  B  B34  1  0.51461800  0.99036600  0.76780600  1
  B  B35  1  0.48538200  0.00963400  0.23219400  1
  B  B36  1  0.99036600  0.51461800  0.26780600  1
  B  B37  1  0.00963400  0.48538200  0.73219400  1
  H  H38  1  0.18638800  0.10764900  0.80445000  1
  H  H39  1  0.61400100  0.68517900  0.39731000  1
  H  H40  1  0.31482100  0.38599900  0.10269000  1
  H  H41  1  0.89235100  0.81361200  0.69555000  1
  H  H42  1  0.81361200  0.89235100  0.19555000  1
  H  H43  1  0.38599900  0.31482100  0.60269000  1
  H  H44  1  0.68517900  0.61400100  0.89731000  1
  H  H45  1  0.10764900  0.18638800  0.30445000  1
  H  H46  1  0.57941100  0.62906900  0.69137200  1
  H  H47  1  0.12930000  0.07984900  0.60039900  1
  H  H48  1  0.92015100  0.87070000  0.89960100  1
  H  H49  1  0.37093100  0.42058900  0.80862800  1
  H  H50  1  0.42058900  0.37093100  0.30862800  1
  H  H51  1  0.87070000  0.92015100  0.39960100  1
  H  H52  1  0.07984900  0.12930000  0.10039900  1
  H  H53  1  0.62906900  0.57941100  0.19137200  1
  H  H54  1  0.37626900  0.12489500  0.88805100  1
  H  H55  1  0.62373100  0.87510500  0.11194900  1
  H  H56  1  0.12489500  0.37626900  0.38805100  1
  H  H57  1  0.87510500  0.62373100  0.61194900  1
  H  H58  1  0.45263500  0.54347600  0.86001200  1
  H  H59  1  0.04334500  0.95230200  0.64366700  1
  H  H60  1  0.04769800  0.95665500  0.85633300  1
  H  H61  1  0.45652400  0.54736500  0.63998800  1
  H  H62  1  0.54736500  0.45652400  0.13998800  1
  H  H63  1  0.95665500  0.04769800  0.35633300  1
  H  H64  1  0.95230200  0.04334500  0.14366700  1
  H  H65  1  0.54347600  0.45263500  0.36001200  1
  H  H66  1  0.28882900  0.87546800  0.96238800  1
  H  H67  1  0.37682100  0.79390900  0.37139300  1
  H  H68  1  0.20609100  0.62317900  0.12860700  1
  H  H69  1  0.12453200  0.71117100  0.53761200  1
  H  H70  1  0.71117100  0.12453200  0.03761200  1
  H  H71  1  0.62317900  0.20609100  0.62860700  1
  H  H72  1  0.79390900  0.37682100  0.87139300  1
  H  H73  1  0.87546800  0.28882900  0.46238800  1
  H  H74  1  0.56370300  0.93864400  0.84269500  1
  H  H75  1  0.43629700  0.06135600  0.15730500  1
  H  H76  1  0.93864400  0.56370300  0.34269500  1
  H  H77  1  0.06135600  0.43629700  0.65730500  1
  H  H78  1  0.60871400  0.52361400  0.83748800  1
  H  H79  1  0.02298800  0.10776400  0.53156200  1
  H  H80  1  0.89223600  0.97701200  0.96843800  1
  H  H81  1  0.47638600  0.39128600  0.66251200  1
  H  H82  1  0.39128600  0.47638600  0.16251200  1
  H  H83  1  0.97701200  0.89223600  0.46843800  1
  H  H84  1  0.10776400  0.02298800  0.03156200  1
  H  H85  1  0.52361400  0.60871400  0.33748800  1
  H  H86  1  0.25800900  0.90691800  0.71484300  1
  H  H87  1  0.40725600  0.75899100  0.61959000  1
  H  H88  1  0.24100900  0.59274400  0.88041000  1
  H  H89  1  0.09308200  0.74199100  0.78515700  1
  H  H90  1  0.74199100  0.09308200  0.28515700  1
  H  H91  1  0.59274400  0.24100900  0.38041000  1
  H  H92  1  0.75899100  0.40725600  0.11959000  1
  H  H93  1  0.90691800  0.25800900  0.21484300  1
  H  H94  1  0.61894600  0.31099100  0.89982500  1
  H  H95  1  0.80959300  0.11811500  0.67121100  1
  H  H96  1  0.88188500  0.19040700  0.82878900  1
  H  H97  1  0.68900900  0.38105400  0.60017500  1
  H  H98  1  0.38105400  0.68900900  0.10017500  1
  H  H99  1  0.19040700  0.88188500  0.32878900  1
  H  H100  1  0.11811500  0.80959300  0.17121100  1
  H  H101  1  0.31099100  0.61894600  0.39982500  1
  H  H102  1  0.55384300  0.24549400  0.84007000  1
  H  H103  1  0.74572900  0.05405200  0.85953000  1
  H  H104  1  0.94594800  0.25427100  0.64047000  1
  H  H105  1  0.75450600  0.44615700  0.65993000  1
  H  H106  1  0.44615700  0.75450600  0.15993000  1
  H  H107  1  0.25427100  0.94594800  0.14047000  1
  H  H108  1  0.05405200  0.74572900  0.35953000  1
  H  H109  1  0.24549400  0.55384300  0.34007000  1
  H  H110  1  0.45518700  0.30528300  0.96148000  1
  H  H111  1  0.80435800  0.95460100  0.77788600  1
  H  H112  1  0.04539900  0.19564200  0.72211400  1
  H  H113  1  0.69471700  0.54481300  0.53852000  1
  H  H114  1  0.54481300  0.69471700  0.03852000  1
  H  H115  1  0.19564200  0.04539900  0.22211400  1
  H  H116  1  0.95460100  0.80435800  0.27788600  1
  H  H117  1  0.30528300  0.45518700  0.46148000  1
  H  H118  1  0.31741300  0.17953500  0.49449900  1
  H  H119  1  0.68258700  0.82046500  0.50550100  1
  H  H120  1  0.17953500  0.31741300  0.99449900  1
  H  H121  1  0.82046500  0.68258700  0.00550100  1
  C  C122  1  0.54954500  0.54119500  0.78842100  1
  C  C123  1  0.04117500  0.04916900  0.62148500  1
  C  C124  1  0.95083100  0.95882500  0.87851500  1
  C  C125  1  0.45880500  0.45045500  0.71157900  1
  C  C126  1  0.45045500  0.45880500  0.21157900  1
  C  C127  1  0.95882500  0.95083100  0.37851500  1
  C  C128  1  0.04916900  0.04117500  0.12148500  1
  C  C129  1  0.54119500  0.54954500  0.28842100  1
  C  C130  1  0.54591300  0.31609800  0.87227800  1
  C  C131  1  0.81590700  0.04548200  0.76549700  1
  C  C132  1  0.95451800  0.18409300  0.73450300  1
  C  C133  1  0.68390200  0.45408700  0.62772200  1
  C  C134  1  0.45408700  0.68390200  0.12772200  1
  C  C135  1  0.18409300  0.95451800  0.23450300  1
  C  C136  1  0.04548200  0.81590700  0.26549700  1
  C  C137  1  0.31609800  0.54591300  0.37227800  1
  S  S138  1  0.46924800  0.87871800  0.72879400  1
  S  S139  1  0.12128200  0.53075200  0.77120600  1
  S  S140  1  0.53075200  0.12128200  0.27120600  1
  S  S141  1  0.87871800  0.46924800  0.22879400  1
  N  N142  1  0.55946400  0.44053600  0.75000000  1
  N  N143  1  0.94075700  0.05924300  0.75000000  1
  N  N144  1  0.44053600  0.55946400  0.25000000  1
  N  N145  1  0.05924300  0.94075700  0.25000000  1
