# generated using pymatgen
data_BaSr3Zr4O12
_symmetry_space_group_name_H-M   'P 1'
_cell_length_a   5.91100302
_cell_length_b   5.93701001
_cell_length_c   8.35254700
_cell_angle_alpha   90.00000000
_cell_angle_beta   90.00000000
_cell_angle_gamma   90.00808761
_symmetry_Int_Tables_number   1
_chemical_formula_structural   BaSr3Zr4O12
_chemical_formula_sum   'Ba1 Sr3 Zr4 O12'
_cell_volume   293.12164291
_cell_formula_units_Z   1
loop_
 _symmetry_equiv_pos_site_id
 _symmetry_equiv_pos_as_xyz
  1  'x, y, z'
loop_
 _atom_site_type_symbol
 _atom_site_label
 _atom_site_symmetry_multiplicity
 _atom_site_fract_x
 _atom_site_fract_y
 _atom_site_fract_z
 _atom_site_occupancy
  Ba  Ba0  1  0.49636000  0.01255400  0.25000000  1
  Sr  Sr1  1  0.00880600  0.52625900  0.25000000  1
  Sr  Sr2  1  0.50635300  0.96977200  0.75000000  1
  Sr  Sr3  1  0.99797000  0.47865700  0.75000000  1
  Zr  Zr4  1  0.50000100  0.49716900  0.99751200  1
  Zr  Zr5  1  0.00126100  0.00118200  0.50309900  1
  Zr  Zr6  1  0.50000100  0.49716900  0.50248800  1
  Zr  Zr7  1  0.00126100  0.00118200  0.99690100  1
  O  O8  1  0.57446700  0.49718400  0.25000000  1
  O  O9  1  0.94714300  0.98078800  0.25000000  1
  O  O10  1  0.42667500  0.51178100  0.75000000  1
  O  O11  1  0.07883200  0.02325400  0.75000000  1
  O  O12  1  0.27069500  0.77164800  0.02693200  1
  O  O13  1  0.21636900  0.28360800  0.46277800  1
  O  O14  1  0.71995300  0.22036600  0.54027100  1
  O  O15  1  0.77341900  0.72590200  0.95893000  1
  O  O16  1  0.71995300  0.22036600  0.95972900  1
  O  O17  1  0.77341900  0.72590200  0.54107000  1
  O  O18  1  0.27069500  0.77164800  0.47306800  1
  O  O19  1  0.21636900  0.28360800  0.03722200  1
