# generated using pymatgen
data_Ca2AlPbOF8
_symmetry_space_group_name_H-M   'P 1'
_cell_length_a   5.54924500
_cell_length_b   5.55664282
_cell_length_c   12.07521219
_cell_angle_alpha   90.10814736
_cell_angle_beta   102.28771793
_cell_angle_gamma   94.40510637
_symmetry_Int_Tables_number   1
_chemical_formula_structural   Ca2AlPbOF8
_chemical_formula_sum   'Ca4 Al2 Pb2 O2 F16'
_cell_volume   362.67309219
_cell_formula_units_Z   2
loop_
 _symmetry_equiv_pos_site_id
 _symmetry_equiv_pos_as_xyz
  1  'x, y, z'
loop_
 _atom_site_type_symbol
 _atom_site_label
 _atom_site_symmetry_multiplicity
 _atom_site_fract_x
 _atom_site_fract_y
 _atom_site_fract_z
 _atom_site_occupancy
  Ca  Ca0  1  0.44302400  0.24433400  0.38585700  1
  Ca  Ca1  1  0.55044900  0.77211800  0.61964900  1
  Ca  Ca2  1  0.95303300  0.74729500  0.38930700  1
  Ca  Ca3  1  0.03942800  0.25874700  0.61783300  1
  Al  Al4  1  0.21138600  0.69447000  0.81337900  1
  Al  Al5  1  0.78842200  0.29767600  0.17358800  1
  Pb  Pb6  1  0.80217900  0.15023100  0.90575200  1
  Pb  Pb7  1  0.26108200  0.79646400  0.10877700  1
  O  O8  1  0.73952400  0.13049500  0.73802400  1
  O  O9  1  0.92515700  0.10577000  0.07330300  1
  F  F10  1  0.74852200  0.99320800  0.50172200  1
  F  F11  1  0.24952600  0.02091700  0.50695700  1
  F  F12  1  0.36540000  0.50220500  0.73393000  1
  F  F13  1  0.64196100  0.49541600  0.26578300  1
  F  F14  1  0.91743000  0.61205600  0.71719500  1
  F  F15  1  0.08590200  0.38709600  0.27112600  1
  F  F16  1  0.24933900  0.51586400  0.50025100  1
  F  F17  1  0.74597600  0.49192600  0.50042400  1
  F  F18  1  0.50940400  0.80191800  0.90514900  1
  F  F19  1  0.47986500  0.21155300  0.09026400  1
  F  F20  1  0.14910500  0.44119100  0.90378000  1
  F  F21  1  0.84081500  0.56150300  0.09012500  1
  F  F22  1  0.24813900  0.94257600  0.71993500  1
  F  F23  1  0.74071600  0.04968500  0.27090000  1
  F  F24  1  0.24263400  0.89914000  0.29241700  1
  F  F25  1  0.07158300  0.87614500  0.90457400  1
