# generated using pymatgen
data_Ca2TiSi2SnO10
_symmetry_space_group_name_H-M   'P 1'
_cell_length_a   5.56410500
_cell_length_b   5.56996511
_cell_length_c   7.22282097
_cell_angle_alpha   104.08396928
_cell_angle_beta   104.23013590
_cell_angle_gamma   105.66340598
_symmetry_Int_Tables_number   1
_chemical_formula_structural   Ca2TiSi2SnO10
_chemical_formula_sum   'Ca2 Ti1 Si2 Sn1 O10'
_cell_volume   197.08422800
_cell_formula_units_Z   1
loop_
 _symmetry_equiv_pos_site_id
 _symmetry_equiv_pos_as_xyz
  1  'x, y, z'
loop_
 _atom_site_type_symbol
 _atom_site_label
 _atom_site_symmetry_multiplicity
 _atom_site_fract_x
 _atom_site_fract_y
 _atom_site_fract_z
 _atom_site_occupancy
  Ca  Ca0  1  0.17282500  0.83795700  0.75525600  1
  Ca  Ca1  1  0.82717500  0.16204300  0.24474400  1
  Ti  Ti2  1  0.50000000  0.50000000  0.00000000  1
  Si  Si3  1  0.17614400  0.81451900  0.24648400  1
  Si  Si4  1  0.82385600  0.18548100  0.75351600  1
  Sn  Sn5  1  0.50000000  0.50000000  0.50000000  1
  O  O6  1  0.23781000  0.10916000  0.40655800  1
  O  O7  1  0.12143700  0.25135200  0.91284500  1
  O  O8  1  0.76219000  0.89084000  0.59344200  1
  O  O9  1  0.87856300  0.74864800  0.08715500  1
  O  O10  1  0.57725400  0.42171400  0.24085200  1
  O  O11  1  0.42274600  0.57828600  0.75914800  1
  O  O12  1  0.61038900  0.18935400  0.87828600  1
  O  O13  1  0.17345600  0.60717200  0.37674700  1
  O  O14  1  0.38961100  0.81064600  0.12171400  1
  O  O15  1  0.82654400  0.39282800  0.62325300  1
