# generated using pymatgen
data_Ca8Be5Al3Si18(HO14)4
_symmetry_space_group_name_H-M   'P 1'
_cell_length_a   5.05196015
_cell_length_b   12.00857454
_cell_length_c   19.65496714
_cell_angle_alpha   89.88724323
_cell_angle_beta   89.72922445
_cell_angle_gamma   77.85421089
_symmetry_Int_Tables_number   1
_chemical_formula_structural   Ca8Be5Al3Si18(HO14)4
_chemical_formula_sum   'Ca8 Be5 Al3 Si18 H4 O56'
_cell_volume   1165.69965218
_cell_formula_units_Z   1
loop_
 _symmetry_equiv_pos_site_id
 _symmetry_equiv_pos_as_xyz
  1  'x, y, z'
loop_
 _atom_site_type_symbol
 _atom_site_label
 _atom_site_symmetry_multiplicity
 _atom_site_fract_x
 _atom_site_fract_y
 _atom_site_fract_z
 _atom_site_occupancy
  Ca  Ca0  1  0.67397000  0.16883300  0.65154100  1
  Ca  Ca1  1  0.15892300  0.16658300  0.34612700  1
  Ca  Ca2  1  0.67399000  0.16977600  0.84893400  1
  Ca  Ca3  1  0.17734800  0.16393800  0.15159200  1
  Ca  Ca4  1  0.32547900  0.83369200  0.34676500  1
  Ca  Ca5  1  0.84300900  0.83140100  0.65089100  1
  Ca  Ca6  1  0.34135900  0.83892700  0.15591600  1
  Ca  Ca7  1  0.84194100  0.83272300  0.84403900  1
  Be  Be8  1  0.05851800  0.24941300  0.74994500  1
  Be  Be9  1  0.69472000  0.24798900  0.24947900  1
  Be  Be10  1  0.94338100  0.75209200  0.24972800  1
  Be  Be11  1  0.30754800  0.75054700  0.74950800  1
  Be  Be12  1  0.70223900  0.00063500  0.10291300  1
  Al  Al13  1  0.40511800  0.19071300  0.49963800  1
  Al  Al14  1  0.41006600  0.18816700  0.00210800  1
  Al  Al15  1  0.59550700  0.80930900  0.49970600  1
  Si  Si16  1  0.21914900  0.99924100  0.75063400  1
  Si  Si17  1  0.77574100  0.99949600  0.24686600  1
  Si  Si18  1  0.92653900  0.42781700  0.64305500  1
  Si  Si19  1  0.64594200  0.42734600  0.35670300  1
  Si  Si20  1  0.92605000  0.42769000  0.85715200  1
  Si  Si21  1  0.64687500  0.42672300  0.14297600  1
  Si  Si22  1  0.07328300  0.57249600  0.35673500  1
  Si  Si23  1  0.35454700  0.57201200  0.64308600  1
  Si  Si24  1  0.07450300  0.57302000  0.14449900  1
  Si  Si25  1  0.35309400  0.57199500  0.85569800  1
  Si  Si26  1  0.82973100  0.33995500  0.49990200  1
  Si  Si27  1  0.82894400  0.33887300  0.99984800  1
  Si  Si28  1  0.16959100  0.66008400  0.49988600  1
  Si  Si29  1  0.16658000  0.66139400  0.99954300  1
  Si  Si30  1  0.59535400  0.81534500  0.00188700  1
  Si  Si31  1  0.27734900  0.99998100  0.60517300  1
  Si  Si32  1  0.72462400  0.00002400  0.39437300  1
  Si  Si33  1  0.27810500  0.99952600  0.89668200  1
  H  H34  1  0.40338700  0.32199200  0.74979600  1
  H  H35  1  0.27480900  0.32237100  0.25013200  1
  H  H36  1  0.59795000  0.67710900  0.25042500  1
  H  H37  1  0.72522600  0.67748100  0.74962100  1
  O  O38  1  0.91417400  0.30873300  0.68055100  1
  O  O39  1  0.77810800  0.30844700  0.31974600  1
  O  O40  1  0.91329500  0.30925400  0.81963900  1
  O  O41  1  0.78048200  0.30906200  0.18040800  1
  O  O42  1  0.08653800  0.69142200  0.31953300  1
  O  O43  1  0.22318500  0.69083200  0.68071000  1
  O  O44  1  0.08905600  0.69247200  0.18007200  1
  O  O45  1  0.22179800  0.69210100  0.81984200  1
  O  O46  1  0.96243700  0.99995400  0.61482900  1
  O  O47  1  0.04044000  0.99983400  0.38708600  1
  O  O48  1  0.96710900  0.99489500  0.88739300  1
  O  O49  1  0.02184600  0.99800800  0.11787400  1
  O  O50  1  0.34444400  0.11540700  0.57271100  1
  O  O51  1  0.54173000  0.11488100  0.42776100  1
  O  O52  1  0.34693500  0.11409100  0.92780100  1
  O  O53  1  0.53464300  0.11239500  0.07244000  1
  O  O54  1  0.65658100  0.88501700  0.42776600  1
  O  O55  1  0.45959600  0.88453100  0.57270500  1
  O  O56  1  0.65013900  0.88307600  0.06750900  1
  O  O57  1  0.46486300  0.88361900  0.93240600  1
  O  O58  1  0.63812000  0.26271200  0.53720000  1
  O  O59  1  0.09896200  0.26282500  0.46359800  1
  O  O60  1  0.63626900  0.26335700  0.96200100  1
  O  O61  1  0.09801300  0.26328200  0.03529600  1
  O  O62  1  0.36158400  0.73733800  0.46354000  1
  O  O63  1  0.90083900  0.73724800  0.53718600  1
  O  O64  1  0.37292000  0.74056200  0.02855200  1
  O  O65  1  0.88122500  0.74012000  0.96755700  1
  O  O66  1  0.38771400  0.24175200  0.75033900  1
  O  O67  1  0.37203200  0.24233400  0.25057100  1
  O  O68  1  0.61495900  0.75718500  0.25036600  1
  O  O69  1  0.62928500  0.75768200  0.75027000  1
  O  O70  1  0.92462300  0.41651500  0.56011300  1
  O  O71  1  0.65717100  0.41646400  0.44009400  1
  O  O72  1  0.92161000  0.41812000  0.93994800  1
  O  O73  1  0.65686700  0.41724000  0.05952200  1
  O  O74  1  0.07354100  0.58379600  0.44006600  1
  O  O75  1  0.34133600  0.58370200  0.56015900  1
  O  O76  1  0.08120500  0.58786400  0.06098600  1
  O  O77  1  0.32710500  0.58676500  0.93854800  1
  O  O78  1  0.42444300  0.99956800  0.68391900  1
  O  O79  1  0.57827200  0.99962800  0.31658300  1
  O  O80  1  0.42638000  0.99434000  0.81816000  1
  O  O81  1  0.57544900  0.99477300  0.18254500  1
  O  O82  1  0.98938500  0.11720200  0.75134300  1
  O  O83  1  0.89549200  0.11650800  0.24969400  1
  O  O84  1  0.01580100  0.88299700  0.25004800  1
  O  O85  1  0.10396200  0.88188500  0.75023900  1
  O  O86  1  0.20550300  0.46770100  0.66526800  1
  O  O87  1  0.32639400  0.46783300  0.33523300  1
  O  O88  1  0.20591600  0.46756900  0.83464500  1
  O  O89  1  0.32587400  0.46760000  0.16455200  1
  O  O90  1  0.79396700  0.53237500  0.33519400  1
  O  O91  1  0.67357200  0.53232600  0.66528100  1
  O  O92  1  0.79260800  0.53309900  0.16384500  1
  O  O93  1  0.67371600  0.53299100  0.83525800  1
