# generated using pymatgen
data_Ag3AuSeS
_symmetry_space_group_name_H-M   'P 1'
_cell_length_a   8.66340291
_cell_length_b   8.66340291
_cell_length_c   8.66340291
_cell_angle_alpha   109.47122063
_cell_angle_beta   109.47122063
_cell_angle_gamma   109.47122063
_symmetry_Int_Tables_number   1
_chemical_formula_structural   Ag3AuSeS
_chemical_formula_sum   'Ag12 Au4 Se4 S4'
_cell_volume   500.54559833
_cell_formula_units_Z   4
loop_
 _symmetry_equiv_pos_site_id
 _symmetry_equiv_pos_as_xyz
  1  'x, y, z'
loop_
 _atom_site_type_symbol
 _atom_site_label
 _atom_site_symmetry_multiplicity
 _atom_site_fract_x
 _atom_site_fract_y
 _atom_site_fract_z
 _atom_site_occupancy
  Ag  Ag0  1  0.25000000  0.63063500  0.38063500  1
  Ag  Ag1  1  0.75000000  0.86936500  0.11936500  1
  Ag  Ag2  1  0.25000000  0.12344900  0.87344900  1
  Ag  Ag3  1  0.75000000  0.37655100  0.62655100  1
  Ag  Ag4  1  0.86936500  0.11936500  0.75000000  1
  Ag  Ag5  1  0.63063500  0.38063500  0.25000000  1
  Ag  Ag6  1  0.37655100  0.62655100  0.75000000  1
  Ag  Ag7  1  0.12344900  0.87344900  0.25000000  1
  Ag  Ag8  1  0.38063500  0.25000000  0.63063500  1
  Ag  Ag9  1  0.11936500  0.75000000  0.86936500  1
  Ag  Ag10  1  0.87344900  0.25000000  0.12344900  1
  Ag  Ag11  1  0.62655100  0.75000000  0.37655100  1
  Au  Au12  1  0.24522700  0.24522700  0.24522700  1
  Au  Au13  1  0.25477300  0.50000000  0.00000000  1
  Au  Au14  1  0.00000000  0.25477300  0.50000000  1
  Au  Au15  1  0.50000000  0.00000000  0.25477300  1
  Se  Se16  1  0.53336200  0.53336200  0.53336200  1
  Se  Se17  1  0.96663800  0.50000000  0.00000000  1
  Se  Se18  1  0.00000000  0.96663800  0.50000000  1
  Se  Se19  1  0.50000000  0.00000000  0.96663800  1
  S  S20  1  0.52837500  0.50000000  0.00000000  1
  S  S21  1  0.97162500  0.97162500  0.97162500  1
  S  S22  1  0.00000000  0.52837500  0.50000000  1
  S  S23  1  0.50000000  0.00000000  0.52837500  1
