# generated using pymatgen
data_BaEuFeCuO5
_symmetry_space_group_name_H-M   'P 1'
_cell_length_a   3.93039000
_cell_length_b   3.93039000
_cell_length_c   7.88102200
_cell_angle_alpha   90.00000000
_cell_angle_beta   90.00000000
_cell_angle_gamma   90.00000000
_symmetry_Int_Tables_number   1
_chemical_formula_structural   BaEuFeCuO5
_chemical_formula_sum   'Ba1 Eu1 Fe1 Cu1 O5'
_cell_volume   121.74575637
_cell_formula_units_Z   1
loop_
 _symmetry_equiv_pos_site_id
 _symmetry_equiv_pos_as_xyz
  1  'x, y, z'
loop_
 _atom_site_type_symbol
 _atom_site_label
 _atom_site_symmetry_multiplicity
 _atom_site_fract_x
 _atom_site_fract_y
 _atom_site_fract_z
 _atom_site_occupancy
  Ba  Ba0  1  0.00000000  0.00000000  0.02456100  1
  Eu  Eu1  1  0.00000000  0.00000000  0.49943200  1
  Fe  Fe2  1  0.50000000  0.50000000  0.74876500  1
  Cu  Cu3  1  0.50000000  0.50000000  0.27655500  1
  O  O4  1  0.00000000  0.50000000  0.68799400  1
  O  O5  1  0.50000000  0.00000000  0.68799400  1
  O  O6  1  0.00000000  0.50000000  0.30437100  1
  O  O7  1  0.50000000  0.00000000  0.30437100  1
  O  O8  1  0.50000000  0.50000000  0.98495600  1
