# generated using pymatgen
data_BaLa4Ti4O15
_symmetry_space_group_name_H-M   'P 1'
_cell_length_a   5.62966756
_cell_length_b   5.62966756
_cell_length_c   22.22690200
_cell_angle_alpha   90.00000000
_cell_angle_beta   90.00000000
_cell_angle_gamma   119.99999488
_symmetry_Int_Tables_number   1
_chemical_formula_structural   BaLa4Ti4O15
_chemical_formula_sum   'Ba2 La8 Ti8 O30'
_cell_volume   610.06356636
_cell_formula_units_Z   2
loop_
 _symmetry_equiv_pos_site_id
 _symmetry_equiv_pos_as_xyz
  1  'x, y, z'
loop_
 _atom_site_type_symbol
 _atom_site_label
 _atom_site_symmetry_multiplicity
 _atom_site_fract_x
 _atom_site_fract_y
 _atom_site_fract_z
 _atom_site_occupancy
  Ba  Ba0  1  0.00000000  0.00000000  0.25000000  1
  Ba  Ba1  1  0.00000000  0.00000000  0.75000000  1
  La  La2  1  0.33333300  0.66666700  0.03947800  1
  La  La3  1  0.33333300  0.66666700  0.53947800  1
  La  La4  1  0.66666700  0.33333300  0.96052200  1
  La  La5  1  0.66666700  0.33333300  0.46052200  1
  La  La6  1  0.66666700  0.33333300  0.14155900  1
  La  La7  1  0.66666700  0.33333300  0.64155900  1
  La  La8  1  0.33333300  0.66666700  0.85844100  1
  La  La9  1  0.33333300  0.66666700  0.35844100  1
  Ti  Ti10  1  0.33333300  0.66666700  0.19756100  1
  Ti  Ti11  1  0.33333300  0.66666700  0.69756100  1
  Ti  Ti12  1  0.66666700  0.33333300  0.80243900  1
  Ti  Ti13  1  0.66666700  0.33333300  0.30243900  1
  Ti  Ti14  1  0.00000000  0.00000000  0.08876100  1
  Ti  Ti15  1  0.00000000  0.00000000  0.58876100  1
  Ti  Ti16  1  0.00000000  0.00000000  0.91123900  1
  Ti  Ti17  1  0.00000000  0.00000000  0.41123900  1
  O  O18  1  0.22972600  0.88747400  0.14678400  1
  O  O19  1  0.65774800  0.77027400  0.14678400  1
  O  O20  1  0.11252600  0.34225200  0.14678400  1
  O  O21  1  0.22972600  0.34225200  0.64678400  1
  O  O22  1  0.11252600  0.77027400  0.64678400  1
  O  O23  1  0.65774800  0.88747400  0.64678400  1
  O  O24  1  0.77027400  0.11252600  0.85321600  1
  O  O25  1  0.34225200  0.22972600  0.85321600  1
  O  O26  1  0.88747400  0.65774800  0.85321600  1
  O  O27  1  0.77027400  0.65774800  0.35321600  1
  O  O28  1  0.88747400  0.22972600  0.35321600  1
  O  O29  1  0.34225200  0.11252600  0.35321600  1
  O  O30  1  0.52013000  0.00000000  0.25000000  1
  O  O31  1  0.47987000  0.47987000  0.25000000  1
  O  O32  1  0.00000000  0.52013000  0.25000000  1
  O  O33  1  0.52013000  0.52013000  0.75000000  1
  O  O34  1  0.00000000  0.47987000  0.75000000  1
  O  O35  1  0.47987000  0.00000000  0.75000000  1
  O  O36  1  0.66007500  0.76225200  0.94762000  1
  O  O37  1  0.10217600  0.33992500  0.94762000  1
  O  O38  1  0.23774800  0.89782400  0.94762000  1
  O  O39  1  0.66007500  0.89782400  0.44762000  1
  O  O40  1  0.23774800  0.33992500  0.44762000  1
  O  O41  1  0.10217600  0.76225200  0.44762000  1
  O  O42  1  0.33992500  0.23774800  0.05238000  1
  O  O43  1  0.89782400  0.66007500  0.05238000  1
  O  O44  1  0.76225200  0.10217600  0.05238000  1
  O  O45  1  0.33992500  0.10217600  0.55238000  1
  O  O46  1  0.76225200  0.66007500  0.55238000  1
  O  O47  1  0.89782400  0.23774800  0.55238000  1
