# generated using pymatgen
data_BaCu6Te6Se
_symmetry_space_group_name_H-M   'P 1'
_cell_length_a   7.00029000
_cell_length_b   6.97330900
_cell_length_c   7.06966551
_cell_angle_alpha   88.82107534
_cell_angle_beta   90.00000000
_cell_angle_gamma   90.00000000
_symmetry_Int_Tables_number   1
_chemical_formula_structural   BaCu6Te6Se
_chemical_formula_sum   'Ba1 Cu6 Te6 Se1'
_cell_volume   345.03397918
_cell_formula_units_Z   1
loop_
 _symmetry_equiv_pos_site_id
 _symmetry_equiv_pos_as_xyz
  1  'x, y, z'
loop_
 _atom_site_type_symbol
 _atom_site_label
 _atom_site_symmetry_multiplicity
 _atom_site_fract_x
 _atom_site_fract_y
 _atom_site_fract_z
 _atom_site_occupancy
  Ba  Ba0  1  0.49873400  0.50000000  0.50000000  1
  Cu  Cu1  1  0.20024800  0.20008600  0.20426600  1
  Cu  Cu2  1  0.20024800  0.79991400  0.79573400  1
  Cu  Cu3  1  0.80312100  0.19428700  0.80631700  1
  Cu  Cu4  1  0.80312100  0.80571300  0.19368300  1
  Cu  Cu5  1  0.80014300  0.79135400  0.80081400  1
  Cu  Cu6  1  0.80014300  0.20864600  0.19918600  1
  Te  Te7  1  0.29708800  0.00000000  0.50000000  1
  Te  Te8  1  0.69924800  0.00000000  0.50000000  1
  Te  Te9  1  0.49667700  0.29668700  0.00144800  1
  Te  Te10  1  0.49667700  0.70331300  0.99855200  1
  Te  Te11  1  0.99719400  0.49490400  0.70139800  1
  Te  Te12  1  0.99719400  0.50509600  0.29860200  1
  Se  Se13  1  0.01146400  0.00000000  0.00000000  1
