# generated using pymatgen
data_Ba3TaOF9
_symmetry_space_group_name_H-M   'P 1'
_cell_length_a   13.96688668
_cell_length_b   13.96688668
_cell_length_c   6.36344600
_cell_angle_alpha   90.00000000
_cell_angle_beta   90.00000000
_cell_angle_gamma   153.67918984
_symmetry_Int_Tables_number   1
_chemical_formula_structural   Ba3TaOF9
_chemical_formula_sum   'Ba6 Ta2 O2 F18'
_cell_volume   550.40720174
_cell_formula_units_Z   2
loop_
 _symmetry_equiv_pos_site_id
 _symmetry_equiv_pos_as_xyz
  1  'x, y, z'
loop_
 _atom_site_type_symbol
 _atom_site_label
 _atom_site_symmetry_multiplicity
 _atom_site_fract_x
 _atom_site_fract_y
 _atom_site_fract_z
 _atom_site_occupancy
  Ba  Ba0  1  0.04752300  0.95247700  0.75000000  1
  Ba  Ba1  1  0.95247700  0.04752300  0.25000000  1
  Ba  Ba2  1  0.68166500  0.31833500  0.75000000  1
  Ba  Ba3  1  0.31833500  0.68166500  0.25000000  1
  Ba  Ba4  1  0.45458600  0.54541400  0.75000000  1
  Ba  Ba5  1  0.54541400  0.45458600  0.25000000  1
  Ta  Ta6  1  0.83763500  0.16236500  0.75000000  1
  Ta  Ta7  1  0.16236500  0.83763500  0.25000000  1
  O  O8  1  0.75591600  0.75591600  0.50000000  1
  O  O9  1  0.24408400  0.24408400  0.00000000  1
  F  F10  1  0.90960500  0.09039500  0.75000000  1
  F  F11  1  0.09039500  0.90960500  0.25000000  1
  F  F12  1  0.64594700  0.92546200  0.96250400  1
  F  F13  1  0.92546200  0.64594700  0.03749600  1
  F  F14  1  0.62155900  0.94647300  0.53457000  1
  F  F15  1  0.94647300  0.62155900  0.46543000  1
  F  F16  1  0.37844100  0.05352700  0.03457000  1
  F  F17  1  0.05352700  0.37844100  0.96543000  1
  F  F18  1  0.35405300  0.07453800  0.46250400  1
  F  F19  1  0.07453800  0.35405300  0.53749600  1
  F  F20  1  0.59335000  0.40665000  0.75000000  1
  F  F21  1  0.40665000  0.59335000  0.25000000  1
  F  F22  1  0.64685300  0.09062000  0.88519300  1
  F  F23  1  0.09062000  0.64685300  0.11480700  1
  F  F24  1  0.35314700  0.90938000  0.38519300  1
  F  F25  1  0.90938000  0.35314700  0.61480700  1
  F  F26  1  0.75207300  0.75207300  0.00000000  1
  F  F27  1  0.24792700  0.24792700  0.50000000  1
