# generated using pymatgen
data_BaLa4Mn5O15
_symmetry_space_group_name_H-M   'P 1'
_cell_length_a   5.59313033
_cell_length_b   6.85367040
_cell_length_c   8.83818111
_cell_angle_alpha   104.92407671
_cell_angle_beta   71.49910313
_cell_angle_gamma   89.80909613
_symmetry_Int_Tables_number   1
_chemical_formula_structural   BaLa4Mn5O15
_chemical_formula_sum   'Ba1 La4 Mn5 O15'
_cell_volume   309.11065189
_cell_formula_units_Z   1
loop_
 _symmetry_equiv_pos_site_id
 _symmetry_equiv_pos_as_xyz
  1  'x, y, z'
loop_
 _atom_site_type_symbol
 _atom_site_label
 _atom_site_symmetry_multiplicity
 _atom_site_fract_x
 _atom_site_fract_y
 _atom_site_fract_z
 _atom_site_occupancy
  Ba  Ba0  1  0.00001500  0.99999700  0.99995100  1
  La  La1  1  0.40061100  0.41513500  0.19856600  1
  La  La2  1  0.79712300  0.79754400  0.40579000  1
  La  La3  1  0.20281500  0.20262200  0.59430300  1
  La  La4  1  0.59949500  0.58482400  0.80139300  1
  Mn  Mn5  1  0.79916500  0.29942200  0.40167500  1
  Mn  Mn6  1  0.20082400  0.70053900  0.59829300  1
  Mn  Mn7  1  0.60021900  0.09945700  0.79949400  1
  Mn  Mn8  1  0.99999500  0.49997900  0.00012000  1
  Mn  Mn9  1  0.39976900  0.90057800  0.20049800  1
  O  O10  1  0.49999900  0.49997400  0.49996700  1
  O  O11  1  0.90434800  0.90308900  0.68060700  1
  O  O12  1  0.30977400  0.31160100  0.89758700  1
  O  O13  1  0.69023700  0.68844200  0.10246800  1
  O  O14  1  0.09562000  0.09688100  0.31936000  1
  O  O15  1  0.58529000  0.09725200  0.31935400  1
  O  O16  1  0.00000700  0.49997200  0.49998700  1
  O  O17  1  0.41468100  0.90276500  0.68059800  1
  O  O18  1  0.79339500  0.31187100  0.89778900  1
  O  O19  1  0.20662300  0.68815800  0.10226100  1
  O  O20  1  0.69612500  0.21905200  0.60801800  1
  O  O21  1  0.10397300  0.59159800  0.79100000  1
  O  O22  1  0.50002200  0.99995000  0.99993000  1
  O  O23  1  0.89601300  0.40837100  0.20899600  1
  O  O24  1  0.30386100  0.78092800  0.39199500  1
