# generated using pymatgen
data_Ba10Br4N5Cl
_symmetry_space_group_name_H-M   'P 1'
_cell_length_a   4.17551966
_cell_length_b   4.17551900
_cell_length_c   39.70955560
_cell_angle_alpha   86.98624141
_cell_angle_beta   89.99999991
_cell_angle_gamma   120.00000270
_symmetry_Int_Tables_number   1
_chemical_formula_structural   Ba10Br4N5Cl
_chemical_formula_sum   'Ba10 Br4 N5 Cl1'
_cell_volume   598.47338876
_cell_formula_units_Z   1
loop_
 _symmetry_equiv_pos_site_id
 _symmetry_equiv_pos_as_xyz
  1  'x, y, z'
loop_
 _atom_site_type_symbol
 _atom_site_label
 _atom_site_symmetry_multiplicity
 _atom_site_fract_x
 _atom_site_fract_y
 _atom_site_fract_z
 _atom_site_occupancy
  Ba  Ba0  1  0.35369000  0.70738000  0.93893100  1
  Ba  Ba1  1  0.15428200  0.30856400  0.53715400  1
  Ba  Ba2  1  0.75428000  0.50856000  0.73716000  1
  Ba  Ba3  1  0.95457000  0.90914000  0.13628900  1
  Ba  Ba4  1  0.55428200  0.10856400  0.33715300  1
  Ba  Ba5  1  0.04543000  0.09086000  0.86371100  1
  Ba  Ba6  1  0.84571800  0.69143600  0.46284600  1
  Ba  Ba7  1  0.44571800  0.89143600  0.66284700  1
  Ba  Ba8  1  0.64631000  0.29262000  0.06106900  1
  Ba  Ba9  1  0.24572000  0.49144000  0.26284000  1
  Br  Br10  1  0.60002700  0.20005400  0.19992000  1
  Br  Br11  1  0.20000300  0.40000500  0.39999200  1
  Br  Br12  1  0.79999700  0.59999500  0.60000800  1
  Br  Br13  1  0.39997300  0.79994600  0.80008000  1
  N  N14  1  0.69960200  0.39920300  0.90119500  1
  N  N15  1  0.50000000  0.00000000  0.50000000  1
  N  N16  1  0.10000100  0.20000100  0.69999800  1
  N  N17  1  0.30039800  0.60079700  0.09880500  1
  N  N18  1  0.89999900  0.79999900  0.30000200  1
  Cl  Cl19  1  0.00000000  0.00000000  0.00000000  1
