# generated using pymatgen
data_Ba2NaMn3F11
_symmetry_space_group_name_H-M   'P 1'
_cell_length_a   12.63677631
_cell_length_b   12.63677631
_cell_length_c   12.63677700
_cell_angle_alpha   32.71076065
_cell_angle_beta   32.71076065
_cell_angle_gamma   32.71075945
_symmetry_Int_Tables_number   1
_chemical_formula_structural   Ba2NaMn3F11
_chemical_formula_sum   'Ba4 Na2 Mn6 F22'
_cell_volume   524.18219465
_cell_formula_units_Z   2
loop_
 _symmetry_equiv_pos_site_id
 _symmetry_equiv_pos_as_xyz
  1  'x, y, z'
loop_
 _atom_site_type_symbol
 _atom_site_label
 _atom_site_symmetry_multiplicity
 _atom_site_fract_x
 _atom_site_fract_y
 _atom_site_fract_z
 _atom_site_occupancy
  Ba  Ba0  1  0.68865000  0.68865000  0.68865000  1
  Ba  Ba1  1  0.18865000  0.18865000  0.18865000  1
  Ba  Ba2  1  0.31014600  0.31014600  0.31014600  1
  Ba  Ba3  1  0.81014600  0.81014600  0.81014600  1
  Na  Na4  1  0.49981400  0.49981400  0.49981400  1
  Na  Na5  1  0.99981400  0.99981400  0.99981400  1
  Mn  Mn6  1  0.19776100  0.74440500  0.30670600  1
  Mn  Mn7  1  0.74440500  0.30670600  0.19776100  1
  Mn  Mn8  1  0.30670600  0.19776100  0.74440500  1
  Mn  Mn9  1  0.24440500  0.69776100  0.80670600  1
  Mn  Mn10  1  0.69776100  0.80670600  0.24440500  1
  Mn  Mn11  1  0.80670600  0.24440500  0.69776100  1
  F  F12  1  0.57414200  0.57414200  0.57414200  1
  F  F13  1  0.07414200  0.07414200  0.07414200  1
  F  F14  1  0.43048000  0.43048000  0.43048000  1
  F  F15  1  0.93048000  0.93048000  0.93048000  1
  F  F16  1  0.33761000  0.67182000  0.90793600  1
  F  F17  1  0.67182000  0.90793600  0.33761000  1
  F  F18  1  0.90793600  0.33761000  0.67182000  1
  F  F19  1  0.17182000  0.83761000  0.40793600  1
  F  F20  1  0.83761000  0.40793600  0.17182000  1
  F  F21  1  0.40793600  0.17182000  0.83761000  1
  F  F22  1  0.67502600  0.31381000  0.08969500  1
  F  F23  1  0.31381000  0.08969500  0.67502600  1
  F  F24  1  0.08969500  0.67502600  0.31381000  1
  F  F25  1  0.81381000  0.17502600  0.58969500  1
  F  F26  1  0.17502600  0.58969500  0.81381000  1
  F  F27  1  0.58969500  0.81381000  0.17502600  1
  F  F28  1  0.50941600  0.22090300  0.01778000  1
  F  F29  1  0.22090300  0.01778000  0.50941600  1
  F  F30  1  0.01778000  0.50941600  0.22090300  1
  F  F31  1  0.72090300  0.00941600  0.51778000  1
  F  F32  1  0.00941600  0.51778000  0.72090300  1
  F  F33  1  0.51778000  0.72090300  0.00941600  1
