# generated using pymatgen
data_BaAl2(SiO4)2
_symmetry_space_group_name_H-M   'P 1'
_cell_length_a   5.41872431
_cell_length_b   5.41872431
_cell_length_c   7.91866000
_cell_angle_alpha   90.00000000
_cell_angle_beta   90.00000000
_cell_angle_gamma   120.00000381
_symmetry_Int_Tables_number   1
_chemical_formula_structural   BaAl2(SiO4)2
_chemical_formula_sum   'Ba1 Al2 Si2 O8'
_cell_volume   201.36149329
_cell_formula_units_Z   1
loop_
 _symmetry_equiv_pos_site_id
 _symmetry_equiv_pos_as_xyz
  1  'x, y, z'
loop_
 _atom_site_type_symbol
 _atom_site_label
 _atom_site_symmetry_multiplicity
 _atom_site_fract_x
 _atom_site_fract_y
 _atom_site_fract_z
 _atom_site_occupancy
  Ba  Ba0  1  0.00000000  0.00000000  0.00000000  1
  Al  Al1  1  0.33333300  0.66666700  0.70298900  1
  Al  Al2  1  0.66666700  0.33333300  0.29701100  1
  Si  Si3  1  0.66666700  0.33333300  0.71660900  1
  Si  Si4  1  0.33333300  0.66666700  0.28339100  1
  O  O5  1  0.99068500  0.49534300  0.79515100  1
  O  O6  1  0.50465700  0.49534300  0.79515100  1
  O  O7  1  0.50465700  0.00931500  0.79515100  1
  O  O8  1  0.00931500  0.50465700  0.20484900  1
  O  O9  1  0.49534300  0.50465700  0.20484900  1
  O  O10  1  0.49534300  0.99068500  0.20484900  1
  O  O11  1  0.33333300  0.66666700  0.48607500  1
  O  O12  1  0.66666700  0.33333300  0.51392500  1
