# generated using pymatgen
data_Al2(ZnS2)3
_symmetry_space_group_name_H-M   'P 1'
_cell_length_a   7.26054324
_cell_length_b   7.26054324
_cell_length_c   7.26054390
_cell_angle_alpha   54.16356387
_cell_angle_beta   54.16356387
_cell_angle_gamma   54.16356060
_symmetry_Int_Tables_number   1
_chemical_formula_structural   Al2(ZnS2)3
_chemical_formula_sum   'Al2 Zn3 S6'
_cell_volume   233.76765665
_cell_formula_units_Z   1
loop_
 _symmetry_equiv_pos_site_id
 _symmetry_equiv_pos_as_xyz
  1  'x, y, z'
loop_
 _atom_site_type_symbol
 _atom_site_label
 _atom_site_symmetry_multiplicity
 _atom_site_fract_x
 _atom_site_fract_y
 _atom_site_fract_z
 _atom_site_occupancy
  Al  Al0  1  0.00076700  0.00076700  0.00076700  1
  Al  Al1  1  0.66388200  0.66388200  0.66388200  1
  Zn  Zn2  1  0.81532100  0.18100500  0.50488500  1
  Zn  Zn3  1  0.50488500  0.81532100  0.18100500  1
  Zn  Zn4  1  0.18100500  0.50488500  0.81532100  1
  S  S5  1  0.95224500  0.29226700  0.63959200  1
  S  S6  1  0.63959200  0.95224500  0.29226700  1
  S  S7  1  0.29226700  0.63959200  0.95224500  1
  S  S8  1  0.78843800  0.78843800  0.78843800  1
  S  S9  1  0.45262300  0.45262300  0.45262300  1
  S  S10  1  0.12542000  0.12542000  0.12542000  1
