# generated using pymatgen
data_AlCdInS4
_symmetry_space_group_name_H-M   'P 1'
_cell_length_a   3.89825127
_cell_length_b   3.89963974
_cell_length_c   12.88165267
_cell_angle_alpha   81.29401717
_cell_angle_beta   81.29612424
_cell_angle_gamma   59.98823091
_symmetry_Int_Tables_number   1
_chemical_formula_structural   AlCdInS4
_chemical_formula_sum   'Al1 Cd1 In1 S4'
_cell_volume   166.95929548
_cell_formula_units_Z   1
loop_
 _symmetry_equiv_pos_site_id
 _symmetry_equiv_pos_as_xyz
  1  'x, y, z'
loop_
 _atom_site_type_symbol
 _atom_site_label
 _atom_site_symmetry_multiplicity
 _atom_site_fract_x
 _atom_site_fract_y
 _atom_site_fract_z
 _atom_site_occupancy
  Al  Al0  1  0.59732800  0.59737700  0.20791900  1
  Cd  Cd1  1  0.83506000  0.83499700  0.49494700  1
  In  In2  1  0.06714100  0.06726900  0.79832200  1
  S  S3  1  0.54084900  0.53948600  0.38017900  1
  S  S4  1  0.70340500  0.70328600  0.89002300  1
  S  S5  1  0.95346500  0.95386400  0.13880700  1
  S  S6  1  0.12965300  0.13062200  0.60910300  1
