# generated using pymatgen
data_Ag4C(NO3)3
_symmetry_space_group_name_H-M   'P 1'
_cell_length_a   7.99917944
_cell_length_b   8.07807168
_cell_length_c   8.12514652
_cell_angle_alpha   106.85495138
_cell_angle_beta   104.95891600
_cell_angle_gamma   104.95350346
_symmetry_Int_Tables_number   1
_chemical_formula_structural   Ag4C(NO3)3
_chemical_formula_sum   'Ag8 C2 N6 O18'
_cell_volume   452.89550032
_cell_formula_units_Z   2
loop_
 _symmetry_equiv_pos_site_id
 _symmetry_equiv_pos_as_xyz
  1  'x, y, z'
loop_
 _atom_site_type_symbol
 _atom_site_label
 _atom_site_symmetry_multiplicity
 _atom_site_fract_x
 _atom_site_fract_y
 _atom_site_fract_z
 _atom_site_occupancy
  Ag  Ag0  1  0.74211300  0.74829200  0.74322900  1
  Ag  Ag1  1  0.25788700  0.25170800  0.25677100  1
  Ag  Ag2  1  0.24365600  0.86142600  0.14104700  1
  Ag  Ag3  1  0.13112100  0.24331100  0.85898600  1
  Ag  Ag4  1  0.85899300  0.13280700  0.23475800  1
  Ag  Ag5  1  0.75634400  0.13857400  0.85895300  1
  Ag  Ag6  1  0.86887900  0.75668900  0.14101400  1
  Ag  Ag7  1  0.14100700  0.86719300  0.76524200  1
  C  C8  1  0.02179000  0.96691800  0.06371900  1
  C  C9  1  0.97821000  0.03308200  0.93628100  1
  N  N10  1  0.15917800  0.60640100  0.36880700  1
  N  N11  1  0.37038400  0.15979000  0.61156100  1
  N  N12  1  0.61030900  0.36901000  0.15847500  1
  N  N13  1  0.84082200  0.39359900  0.63119300  1
  N  N14  1  0.62961600  0.84021000  0.38843900  1
  N  N15  1  0.38969100  0.63099000  0.84152500  1
  O  O16  1  0.55255300  0.87061800  0.24751300  1
  O  O17  1  0.24792700  0.55402200  0.87311900  1
  O  O18  1  0.87208200  0.24983200  0.55362400  1
  O  O19  1  0.44744700  0.12938200  0.75248700  1
  O  O20  1  0.75207300  0.44597800  0.12688100  1
  O  O21  1  0.12791800  0.75016800  0.44637600  1
  O  O22  1  0.16839900  0.57408000  0.20965900  1
  O  O23  1  0.20985000  0.16743100  0.58309000  1
  O  O24  1  0.58343000  0.20925100  0.16473700  1
  O  O25  1  0.83160100  0.42592000  0.79034100  1
  O  O26  1  0.79015000  0.83256900  0.41691000  1
  O  O27  1  0.41657000  0.79074900  0.83526300  1
  O  O28  1  0.17944300  0.49494600  0.44786000  1
  O  O29  1  0.45110800  0.18045500  0.50033600  1
  O  O30  1  0.49598700  0.44771600  0.18120500  1
  O  O31  1  0.82055700  0.50505400  0.55214000  1
  O  O32  1  0.54889200  0.81954500  0.49966400  1
  O  O33  1  0.50401300  0.55228400  0.81879500  1
