# generated using pymatgen
data_BaFe2P4H4O17
_symmetry_space_group_name_H-M   'P 1'
_cell_length_a   8.10592300
_cell_length_b   9.41671717
_cell_length_c   9.53845870
_cell_angle_alpha   116.83442068
_cell_angle_beta   90.00000000
_cell_angle_gamma   90.00000000
_symmetry_Int_Tables_number   1
_chemical_formula_structural   BaFe2P4H4O17
_chemical_formula_sum   'Ba2 Fe4 P8 H8 O34'
_cell_volume   649.67820225
_cell_formula_units_Z   2
loop_
 _symmetry_equiv_pos_site_id
 _symmetry_equiv_pos_as_xyz
  1  'x, y, z'
loop_
 _atom_site_type_symbol
 _atom_site_label
 _atom_site_symmetry_multiplicity
 _atom_site_fract_x
 _atom_site_fract_y
 _atom_site_fract_z
 _atom_site_occupancy
  Ba  Ba0  1  0.84764800  0.67159100  0.84601800  1
  Ba  Ba1  1  0.34764800  0.32840900  0.15398200  1
  Fe  Fe2  1  0.33966900  0.76405200  0.74288400  1
  Fe  Fe3  1  0.83966900  0.23594800  0.25711600  1
  Fe  Fe4  1  0.60589100  0.25895800  0.74649900  1
  Fe  Fe5  1  0.10589100  0.74104200  0.25350100  1
  P  P6  1  0.41238400  0.92631600  0.50728000  1
  P  P7  1  0.91238400  0.07368400  0.49272000  1
  P  P8  1  0.28772000  0.51757500  0.91072800  1
  P  P9  1  0.78772000  0.48242500  0.08927200  1
  P  P10  1  0.54043100  0.42688200  0.51645500  1
  P  P11  1  0.04043100  0.57311800  0.48354500  1
  P  P12  1  0.65861200  0.01945100  0.91194900  1
  P  P13  1  0.15861200  0.98054900  0.08805100  1
  H  H14  1  0.06810800  0.26828500  0.50884200  1
  H  H15  1  0.56810800  0.73171500  0.49115800  1
  H  H16  1  0.84605200  0.03008600  0.75111200  1
  H  H17  1  0.34605200  0.96991400  0.24888800  1
  H  H18  1  0.08138900  0.35295100  0.79063200  1
  H  H19  1  0.58138900  0.64704900  0.20936800  1
  H  H20  1  0.88372100  0.76877900  0.50182700  1
  H  H21  1  0.38372100  0.23122100  0.49817300  1
  O  O22  1  0.32030000  0.89525600  0.63041600  1
  O  O23  1  0.82030000  0.10474400  0.36958400  1
  O  O24  1  0.87037800  0.66886600  0.51367000  1
  O  O25  1  0.37037800  0.33113400  0.48633000  1
  O  O26  1  0.48877200  0.60012300  0.56400400  1
  O  O27  1  0.98877200  0.39987700  0.43599600  1
  O  O28  1  0.19553200  0.93179600  0.91294200  1
  O  O29  1  0.69553200  0.06820400  0.08705800  1
  O  O30  1  0.35477100  0.64509100  0.87048200  1
  O  O31  1  0.85477100  0.35490900  0.12951800  1
  O  O32  1  0.56012700  0.86360000  0.84409700  1
  O  O33  1  0.06012700  0.13640000  0.15590300  1
  O  O34  1  0.31069300  0.87603000  0.35417000  1
  O  O35  1  0.81069300  0.12397000  0.64583000  1
  O  O36  1  0.75675400  0.42171300  0.91162600  1
  O  O37  1  0.25675400  0.57828700  0.08837400  1
  O  O38  1  0.57334500  0.15463500  0.89174000  1
  O  O39  1  0.07334500  0.84536500  0.10826000  1
  O  O40  1  0.63882500  0.40826400  0.64574900  1
  O  O41  1  0.13882500  0.59173600  0.35425100  1
  O  O42  1  0.07684800  0.17933300  0.53831000  1
  O  O43  1  0.57684800  0.82066700  0.46169000  1
  O  O44  1  0.63131100  0.35866500  0.35819600  1
  O  O45  1  0.13131100  0.64133500  0.64180400  1
  O  O46  1  0.11034000  0.46520300  0.82545700  1
  O  O47  1  0.61034000  0.53479700  0.17454300  1
  O  O48  1  0.46657000  0.10097000  0.56520200  1
  O  O49  1  0.96657000  0.89903000  0.43479800  1
  O  O50  1  0.83147100  0.97869400  0.82368900  1
  O  O51  1  0.33147100  0.02130600  0.17631100  1
  O  O52  1  0.39584400  0.36907100  0.85607500  1
  O  O53  1  0.89584400  0.63092900  0.14392500  1
  O  O54  1  0.14692600  0.16130500  0.88513900  1
  O  O55  1  0.64692600  0.83869500  0.11486100  1
