# generated using pymatgen
data_Ca3Fe6(SnO8)2
_symmetry_space_group_name_H-M   'P 1'
_cell_length_a   3.10792500
_cell_length_b   9.35753411
_cell_length_c   10.95788761
_cell_angle_alpha   89.52356150
_cell_angle_beta   90.00000000
_cell_angle_gamma   90.00000000
_symmetry_Int_Tables_number   1
_chemical_formula_structural   Ca3Fe6(SnO8)2
_chemical_formula_sum   'Ca3 Fe6 Sn2 O16'
_cell_volume   318.67190443
_cell_formula_units_Z   1
loop_
 _symmetry_equiv_pos_site_id
 _symmetry_equiv_pos_as_xyz
  1  'x, y, z'
loop_
 _atom_site_type_symbol
 _atom_site_label
 _atom_site_symmetry_multiplicity
 _atom_site_fract_x
 _atom_site_fract_y
 _atom_site_fract_z
 _atom_site_occupancy
  Ca  Ca0  1  0.25000000  0.25471000  0.83940300  1
  Ca  Ca1  1  0.25000000  0.75588900  0.66127100  1
  Ca  Ca2  1  0.75000000  0.74345900  0.15414300  1
  Fe  Fe3  1  0.25000000  0.93846700  0.88695300  1
  Fe  Fe4  1  0.25000000  0.43611600  0.61073000  1
  Fe  Fe5  1  0.75000000  0.06633700  0.10758600  1
  Fe  Fe6  1  0.75000000  0.55141900  0.39574300  1
  Fe  Fe7  1  0.75000000  0.09315300  0.60278300  1
  Fe  Fe8  1  0.75000000  0.58689700  0.89245000  1
  Sn  Sn9  1  0.25000000  0.92177500  0.39497200  1
  Sn  Sn10  1  0.25000000  0.41055800  0.10960600  1
  O  O11  1  0.25000000  0.61658400  0.02591500  1
  O  O12  1  0.25000000  0.11142600  0.48659300  1
  O  O13  1  0.75000000  0.38262100  0.97459300  1
  O  O14  1  0.75000000  0.87538300  0.52486800  1
  O  O15  1  0.25000000  0.91602100  0.06985900  1
  O  O16  1  0.25000000  0.42985500  0.43378600  1
  O  O17  1  0.75000000  0.08229600  0.92318700  1
  O  O18  1  0.75000000  0.58399900  0.58038300  1
  O  O19  1  0.25000000  0.70602300  0.33441900  1
  O  O20  1  0.25000000  0.19661000  0.13804700  1
  O  O21  1  0.75000000  0.29748700  0.67055200  1
  O  O22  1  0.75000000  0.79476300  0.83671200  1
  O  O23  1  0.25000000  0.02578600  0.71744600  1
  O  O24  1  0.25000000  0.52909600  0.78797300  1
  O  O25  1  0.75000000  0.96153100  0.27453600  1
  O  O26  1  0.75000000  0.48273900  0.21549100  1
