# generated using pymatgen
data_Ba2Sr3CaMg2(SiO4)4
_symmetry_space_group_name_H-M   'P 1'
_cell_length_a   5.54491000
_cell_length_b   7.04645700
_cell_length_c   9.60047901
_cell_angle_alpha   89.99746956
_cell_angle_beta   90.00000000
_cell_angle_gamma   90.00000000
_symmetry_Int_Tables_number   1
_chemical_formula_structural   Ba2Sr3CaMg2(SiO4)4
_chemical_formula_sum   'Ba2 Sr3 Ca1 Mg2 Si4 O16'
_cell_volume   375.10962636
_cell_formula_units_Z   1
loop_
 _symmetry_equiv_pos_site_id
 _symmetry_equiv_pos_as_xyz
  1  'x, y, z'
loop_
 _atom_site_type_symbol
 _atom_site_label
 _atom_site_symmetry_multiplicity
 _atom_site_fract_x
 _atom_site_fract_y
 _atom_site_fract_z
 _atom_site_occupancy
  Ba  Ba0  1  0.50000000  0.50025300  0.00037800  1
  Ba  Ba1  1  0.00000000  0.50072500  0.49961200  1
  Sr  Sr2  1  0.00000000  0.83756000  0.83325000  1
  Sr  Sr3  1  0.00000000  0.16154700  0.16742900  1
  Sr  Sr4  1  0.50000000  0.16204300  0.66590700  1
  Ca  Ca5  1  0.50000000  0.83125200  0.33346400  1
  Mg  Mg6  1  0.50000000  0.99992200  0.00132400  1
  Mg  Mg7  1  0.00000000  0.99977200  0.49872600  1
  Si  Si8  1  0.50000000  0.27269800  0.33331800  1
  Si  Si9  1  0.00000000  0.27051500  0.83337600  1
  Si  Si10  1  0.00000000  0.72906200  0.16820300  1
  Si  Si11  1  0.50000000  0.72918700  0.66509100  1
  O  O12  1  0.73697300  0.17776300  0.41215300  1
  O  O13  1  0.23755100  0.17675700  0.91274500  1
  O  O14  1  0.26302700  0.17776300  0.41215300  1
  O  O15  1  0.76244900  0.17675700  0.91274500  1
  O  O16  1  0.50000000  0.17791500  0.17538800  1
  O  O17  1  0.00000000  0.17667900  0.67484200  1
  O  O18  1  0.76072200  0.82293400  0.09022300  1
  O  O19  1  0.26369400  0.82281800  0.58459100  1
  O  O20  1  0.23927800  0.82293400  0.09022300  1
  O  O21  1  0.73630600  0.82281800  0.58459100  1
  O  O22  1  0.00000000  0.82278700  0.32626200  1
  O  O23  1  0.50000000  0.82289400  0.82404200  1
  O  O24  1  0.50000000  0.50449600  0.33335000  1
  O  O25  1  0.00000000  0.49949900  0.83335700  1
  O  O26  1  0.00000000  0.50025600  0.16684500  1
  O  O27  1  0.50000000  0.50039000  0.66641200  1
