# generated using pymatgen
data_Ba2ZrO3F2
_symmetry_space_group_name_H-M   'P 1'
_cell_length_a   4.14931200
_cell_length_b   4.12625100
_cell_length_c   8.77960472
_cell_angle_alpha   76.40892850
_cell_angle_beta   76.33150321
_cell_angle_gamma   90.00000000
_symmetry_Int_Tables_number   1
_chemical_formula_structural   Ba2ZrO3F2
_chemical_formula_sum   'Ba2 Zr1 O3 F2'
_cell_volume   141.72383195
_cell_formula_units_Z   1
loop_
 _symmetry_equiv_pos_site_id
 _symmetry_equiv_pos_as_xyz
  1  'x, y, z'
loop_
 _atom_site_type_symbol
 _atom_site_label
 _atom_site_symmetry_multiplicity
 _atom_site_fract_x
 _atom_site_fract_y
 _atom_site_fract_z
 _atom_site_occupancy
  Ba  Ba0  1  0.36974900  0.36974900  0.26050200  1
  Ba  Ba1  1  0.65260800  0.65260800  0.69478300  1
  Zr  Zr2  1  0.00741300  0.00741300  0.98517500  1
  O  O3  1  0.49064900  0.99064900  0.01870200  1
  O  O4  1  0.98331200  0.48331200  0.03337600  1
  O  O5  1  0.12744600  0.12744600  0.74510800  1
  F  F6  1  0.25530000  0.75530000  0.48940000  1
  F  F7  1  0.86352300  0.86352300  0.27295500  1
