# generated using pymatgen
data_Pm3Cd
_symmetry_space_group_name_H-M   'P 1'
_cell_length_a   7.13122611
_cell_length_b   7.13122611
_cell_length_c   5.56443500
_cell_angle_alpha   90.00000000
_cell_angle_beta   90.00000000
_cell_angle_gamma   120.00000100
_symmetry_Int_Tables_number   1
_chemical_formula_structural   Pm3Cd
_chemical_formula_sum   'Pm6 Cd2'
_cell_volume   245.06433657
_cell_formula_units_Z   2
loop_
 _symmetry_equiv_pos_site_id
 _symmetry_equiv_pos_as_xyz
  1  'x, y, z'
loop_
 _atom_site_type_symbol
 _atom_site_label
 _atom_site_symmetry_multiplicity
 _atom_site_fract_x
 _atom_site_fract_y
 _atom_site_fract_z
 _atom_site_occupancy
  Pm  Pm0  1  0.17435600  0.34871300  0.25000000  1
  Pm  Pm1  1  0.65128700  0.82564400  0.25000000  1
  Pm  Pm2  1  0.17435600  0.82564400  0.25000000  1
  Pm  Pm3  1  0.82564400  0.65128700  0.75000000  1
  Pm  Pm4  1  0.34871300  0.17435600  0.75000000  1
  Pm  Pm5  1  0.82564400  0.17435600  0.75000000  1
  Cd  Cd6  1  0.33333300  0.66666700  0.75000000  1
  Cd  Cd7  1  0.66666700  0.33333300  0.25000000  1
