# generated using pymatgen
data_CaAl2(SiO6)2
_symmetry_space_group_name_H-M   'P 1'
_cell_length_a   10.64371600
_cell_length_b   9.36024700
_cell_length_c   10.26287812
_cell_angle_alpha   89.56035994
_cell_angle_beta   90.00000000
_cell_angle_gamma   90.00000000
_symmetry_Int_Tables_number   1
_chemical_formula_structural   CaAl2(SiO6)2
_chemical_formula_sum   'Ca4 Al8 Si8 O48'
_cell_volume   1022.43797962
_cell_formula_units_Z   4
loop_
 _symmetry_equiv_pos_site_id
 _symmetry_equiv_pos_as_xyz
  1  'x, y, z'
loop_
 _atom_site_type_symbol
 _atom_site_label
 _atom_site_symmetry_multiplicity
 _atom_site_fract_x
 _atom_site_fract_y
 _atom_site_fract_z
 _atom_site_occupancy
  Ca  Ca0  1  0.07907300  0.25934900  0.26379800  1
  Ca  Ca1  1  0.57907300  0.74065100  0.23620200  1
  Ca  Ca2  1  0.92092700  0.74065100  0.73620200  1
  Ca  Ca3  1  0.42092700  0.25934900  0.76379800  1
  Al  Al4  1  0.12883900  0.92027500  0.16419200  1
  Al  Al5  1  0.62883900  0.07972500  0.33580800  1
  Al  Al6  1  0.87116100  0.07972500  0.83580800  1
  Al  Al7  1  0.37116100  0.92027500  0.66419200  1
  Al  Al8  1  0.84301600  0.42398100  0.14283000  1
  Al  Al9  1  0.34301600  0.57601900  0.35717000  1
  Al  Al10  1  0.15698400  0.57601900  0.85717000  1
  Al  Al11  1  0.65698400  0.42398100  0.64283000  1
  Si  Si12  1  0.85718100  0.07887600  0.15500900  1
  Si  Si13  1  0.35718100  0.92112400  0.34499100  1
  Si  Si14  1  0.14281900  0.92112400  0.84499100  1
  Si  Si15  1  0.64281900  0.07887600  0.65500900  1
  Si  Si16  1  0.11636500  0.58091600  0.17397500  1
  Si  Si17  1  0.61636500  0.41908400  0.32602500  1
  Si  Si18  1  0.88363500  0.41908400  0.82602500  1
  Si  Si19  1  0.38363500  0.58091600  0.67397500  1
  O  O20  1  0.16482200  0.56319800  0.02517900  1
  O  O21  1  0.66482200  0.43680200  0.47482100  1
  O  O22  1  0.83517800  0.43680200  0.97482100  1
  O  O23  1  0.33517800  0.56319800  0.52517900  1
  O  O24  1  0.99137900  0.48102300  0.19980200  1
  O  O25  1  0.49137900  0.51897700  0.30019800  1
  O  O26  1  0.00862100  0.51897700  0.80019800  1
  O  O27  1  0.50862100  0.48102300  0.69980200  1
  O  O28  1  0.36424800  0.75217300  0.29948100  1
  O  O29  1  0.86424800  0.24782700  0.20051900  1
  O  O30  1  0.63575200  0.24782700  0.70051900  1
  O  O31  1  0.13575200  0.75217300  0.79948100  1
  O  O32  1  0.00167200  0.03554800  0.20148200  1
  O  O33  1  0.50167200  0.96445200  0.29851800  1
  O  O34  1  0.99832800  0.96445200  0.79851800  1
  O  O35  1  0.49832800  0.03554800  0.70148200  1
  O  O36  1  0.21535500  0.49606100  0.27430800  1
  O  O37  1  0.71535500  0.50393900  0.22569200  1
  O  O38  1  0.78464500  0.50393900  0.72569200  1
  O  O39  1  0.28464500  0.49606100  0.77430800  1
  O  O40  1  0.16161600  0.36450700  0.53426000  1
  O  O41  1  0.66161600  0.63549300  0.96574000  1
  O  O42  1  0.83838400  0.63549300  0.46574000  1
  O  O43  1  0.33838400  0.36450700  0.03426000  1
  O  O44  1  0.16329400  0.94012400  0.99919200  1
  O  O45  1  0.66329400  0.05987600  0.50080800  1
  O  O46  1  0.83670600  0.05987600  0.00080800  1
  O  O47  1  0.33670600  0.94012400  0.49919200  1
  O  O48  1  0.08996100  0.74571200  0.21014000  1
  O  O49  1  0.58996100  0.25428800  0.28986000  1
  O  O50  1  0.91003900  0.25428800  0.78986000  1
  O  O51  1  0.41003900  0.74571200  0.71014000  1
  O  O52  1  0.24677400  0.00250500  0.26167500  1
  O  O53  1  0.74677400  0.99749500  0.23832500  1
  O  O54  1  0.75322600  0.99749500  0.73832500  1
  O  O55  1  0.25322600  0.00250500  0.76167500  1
  O  O56  1  0.00501200  0.75823300  0.46850800  1
  O  O57  1  0.50501200  0.24176700  0.03149200  1
  O  O58  1  0.99498800  0.24176700  0.53149200  1
  O  O59  1  0.49498800  0.75823300  0.96850800  1
  O  O60  1  0.05301700  0.13367800  0.49510100  1
  O  O61  1  0.55301700  0.86632200  0.00489900  1
  O  O62  1  0.94698300  0.86632200  0.50489900  1
  O  O63  1  0.44698300  0.13367800  0.99510100  1
  O  O64  1  0.27493800  0.26169300  0.99544400  1
  O  O65  1  0.77493800  0.73830700  0.50455600  1
  O  O66  1  0.72506200  0.73830700  0.00455600  1
  O  O67  1  0.22506200  0.26169300  0.49544400  1
