# generated using pymatgen
data_Ba5Fe3W2O15
_symmetry_space_group_name_H-M   'P 1'
_cell_length_a   10.05815269
_cell_length_b   10.05815269
_cell_length_c   10.05815269
_cell_angle_alpha   99.67262188
_cell_angle_beta   99.67262188
_cell_angle_gamma   131.60284114
_symmetry_Int_Tables_number   1
_chemical_formula_structural   Ba5Fe3W2O15
_chemical_formula_sum   'Ba10 Fe6 W4 O30'
_cell_volume   694.02765456
_cell_formula_units_Z   2
loop_
 _symmetry_equiv_pos_site_id
 _symmetry_equiv_pos_as_xyz
  1  'x, y, z'
loop_
 _atom_site_type_symbol
 _atom_site_label
 _atom_site_symmetry_multiplicity
 _atom_site_fract_x
 _atom_site_fract_y
 _atom_site_fract_z
 _atom_site_occupancy
  Ba  Ba0  1  0.25000000  0.75000000  0.50000000  1
  Ba  Ba1  1  0.85487900  0.95144600  0.29122600  1
  Ba  Ba2  1  0.43634600  0.14512100  0.09656700  1
  Ba  Ba3  1  0.04855400  0.33977900  0.90343300  1
  Ba  Ba4  1  0.66022100  0.56365400  0.70877400  1
  Ba  Ba5  1  0.14512100  0.04855400  0.70877400  1
  Ba  Ba6  1  0.75000000  0.25000000  0.50000000  1
  Ba  Ba7  1  0.33977900  0.43634600  0.29122600  1
  Ba  Ba8  1  0.95144600  0.66022100  0.09656700  1
  Ba  Ba9  1  0.56365400  0.85487900  0.90343300  1
  Fe  Fe10  1  0.70400000  0.89919600  0.60319500  1
  Fe  Fe11  1  0.29600000  0.10080400  0.39680500  1
  Fe  Fe12  1  0.89919600  0.29600000  0.19519600  1
  Fe  Fe13  1  0.50000000  0.50000000  0.00000000  1
  Fe  Fe14  1  0.10080400  0.70400000  0.80480400  1
  Fe  Fe15  1  0.00000000  0.00000000  0.00000000  1
  W  W16  1  0.59935900  0.19996200  0.79932100  1
  W  W17  1  0.19996200  0.40064100  0.60060300  1
  W  W18  1  0.80003800  0.59935900  0.39939700  1
  W  W19  1  0.40064100  0.80003800  0.20067900  1
  O  O20  1  0.43757100  0.63874100  0.59974100  1
  O  O21  1  0.03899900  0.83782900  0.40025900  1
  O  O22  1  0.63874100  0.03899900  0.20117000  1
  O  O23  1  0.25995600  0.25995600  0.00000000  1
  O  O24  1  0.83782900  0.43757100  0.79883000  1
  O  O25  1  0.75104900  0.74242200  0.49347100  1
  O  O26  1  0.35367500  0.94335100  0.29702600  1
  O  O27  1  0.94992700  0.15115200  0.10107900  1
  O  O28  1  0.55128600  0.34414200  0.89542800  1
  O  O29  1  0.15187300  0.54537900  0.69725200  1
  O  O30  1  0.84884800  0.94992700  0.79877500  1
  O  O31  1  0.45462100  0.15187300  0.60649500  1
  O  O32  1  0.05664900  0.35367500  0.41032400  1
  O  O33  1  0.65585800  0.55128600  0.20714300  1
  O  O34  1  0.25757800  0.75104900  0.00862700  1
  O  O35  1  0.96100100  0.16217100  0.59974100  1
  O  O36  1  0.56242900  0.36125900  0.40025900  1
  O  O37  1  0.16217100  0.56242900  0.20117000  1
  O  O38  1  0.74004400  0.74004400  0.00000000  1
  O  O39  1  0.36125900  0.96100100  0.79883000  1
  O  O40  1  0.64632500  0.05664900  0.70297400  1
  O  O41  1  0.24895100  0.25757800  0.50652900  1
  O  O42  1  0.84812700  0.45462100  0.30274800  1
  O  O43  1  0.44871400  0.65585800  0.10457200  1
  O  O44  1  0.05007300  0.84884800  0.89892100  1
  O  O45  1  0.54537900  0.84812700  0.39350500  1
  O  O46  1  0.15115200  0.05007300  0.20122500  1
  O  O47  1  0.74242200  0.24895100  0.99137300  1
  O  O48  1  0.34414200  0.44871400  0.79285700  1
  O  O49  1  0.94335100  0.64632500  0.58967600  1
