# generated using pymatgen
data_HfCrAgS4
_symmetry_space_group_name_H-M   'P 1'
_cell_length_a   6.60730600
_cell_length_b   7.72748367
_cell_length_c   12.86098441
_cell_angle_alpha   98.20122876
_cell_angle_beta   94.25730791
_cell_angle_gamma   89.74811966
_symmetry_Int_Tables_number   1
_chemical_formula_structural   HfCrAgS4
_chemical_formula_sum   'Hf4 Cr4 Ag4 S16'
_cell_volume   648.13259298
_cell_formula_units_Z   4
loop_
 _symmetry_equiv_pos_site_id
 _symmetry_equiv_pos_as_xyz
  1  'x, y, z'
loop_
 _atom_site_type_symbol
 _atom_site_label
 _atom_site_symmetry_multiplicity
 _atom_site_fract_x
 _atom_site_fract_y
 _atom_site_fract_z
 _atom_site_occupancy
  Hf  Hf0  1  0.14539700  0.70536700  0.30598700  1
  Hf  Hf1  1  0.75882200  0.12564800  0.99979400  1
  Hf  Hf2  1  0.24100800  0.88430600  0.00019500  1
  Hf  Hf3  1  0.36571400  0.54937100  0.69669400  1
  Cr  Cr4  1  0.84602800  0.29410500  0.70285100  1
  Cr  Cr5  1  0.64102200  0.44598400  0.29588400  1
  Cr  Cr6  1  0.63449500  0.95355900  0.29654000  1
  Cr  Cr7  1  0.37509500  0.05451800  0.70133200  1
  Ag  Ag8  1  0.86595200  0.80089300  0.69647200  1
  Ag  Ag9  1  0.11998600  0.20176100  0.30685500  1
  Ag  Ag10  1  0.74840700  0.61543800  0.99967000  1
  Ag  Ag11  1  0.25629000  0.36418300  0.00005900  1
  S  S12  1  0.88238900  0.32994700  0.87782500  1
  S  S13  1  0.12602100  0.66614100  0.11821400  1
  S  S14  1  0.90735800  0.85928800  0.89721800  1
  S  S15  1  0.09033200  0.14125200  0.10623200  1
  S  S16  1  0.76545100  0.21518300  0.36085000  1
  S  S17  1  0.21657300  0.79362400  0.62448900  1
  S  S18  1  0.79620500  0.71436500  0.36067000  1
  S  S19  1  0.17083200  0.27675600  0.64125300  1
  S  S20  1  0.67610600  0.05810000  0.63473400  1
  S  S21  1  0.33399700  0.96398700  0.37490100  1
  S  S22  1  0.69463500  0.51520500  0.62757900  1
  S  S23  1  0.33457600  0.46989100  0.36910200  1
  S  S24  1  0.58540000  0.92679200  0.11424400  1
  S  S25  1  0.41887500  0.07460600  0.88440800  1
  S  S26  1  0.62174400  0.39177800  0.12008200  1
  S  S27  1  0.38129400  0.60795100  0.88586900  1
