# generated using pymatgen
data_TiCrAgS4
_symmetry_space_group_name_H-M   'P 1'
_cell_length_a   5.95498600
_cell_length_b   6.90978665
_cell_length_c   13.36666032
_cell_angle_alpha   89.68520588
_cell_angle_beta   89.80957754
_cell_angle_gamma   89.94106892
_symmetry_Int_Tables_number   1
_chemical_formula_structural   TiCrAgS4
_chemical_formula_sum   'Ti4 Cr4 Ag4 S16'
_cell_volume   549.99547915
_cell_formula_units_Z   4
loop_
 _symmetry_equiv_pos_site_id
 _symmetry_equiv_pos_as_xyz
  1  'x, y, z'
loop_
 _atom_site_type_symbol
 _atom_site_label
 _atom_site_symmetry_multiplicity
 _atom_site_fract_x
 _atom_site_fract_y
 _atom_site_fract_z
 _atom_site_occupancy
  Ti  Ti0  1  0.00586100  0.48259900  0.75068900  1
  Ti  Ti1  1  0.50690500  0.77107300  0.75087900  1
  Ti  Ti2  1  0.50061900  0.24733500  0.24944300  1
  Ti  Ti3  1  0.50028700  0.74719800  0.24997700  1
  Cr  Cr4  1  0.99871800  0.99527400  0.75107800  1
  Cr  Cr5  1  0.99985400  0.00068700  0.24918700  1
  Cr  Cr6  1  0.99951500  0.50071700  0.25082300  1
  Cr  Cr7  1  0.49858000  0.25233300  0.74913800  1
  Ag  Ag8  1  0.34930000  0.99884400  0.00195800  1
  Ag  Ag9  1  0.64458000  0.49702400  0.49924200  1
  Ag  Ag10  1  0.02675100  0.00060300  0.49943200  1
  Ag  Ag11  1  0.96859300  0.49833200  0.99760100  1
  S  S12  1  0.83794200  0.75015900  0.64517100  1
  S  S13  1  0.83662500  0.25302600  0.35476800  1
  S  S14  1  0.17302200  0.23791400  0.85583600  1
  S  S15  1  0.16239100  0.75416100  0.14580400  1
  S  S16  1  0.16343400  0.75194800  0.85530700  1
  S  S17  1  0.16163000  0.24946900  0.14561600  1
  S  S18  1  0.82813500  0.24767500  0.64523900  1
  S  S19  1  0.83692400  0.74662400  0.35483400  1
  S  S20  1  0.66936400  0.00838400  0.85466600  1
  S  S21  1  0.66951500  0.00142700  0.14576700  1
  S  S22  1  0.33900000  0.50071400  0.64690200  1
  S  S23  1  0.33050000  0.49988100  0.35340000  1
  S  S24  1  0.32847100  0.00600200  0.64667400  1
  S  S25  1  0.33177300  0.00021800  0.35381600  1
  S  S26  1  0.66268400  0.49873700  0.85157100  1
  S  S27  1  0.66902700  0.50164600  0.14518300  1
