# generated using pymatgen
data_Al12Ge(Se2O35)2
_symmetry_space_group_name_H-M   'P 1'
_cell_length_a   12.41564993
_cell_length_b   12.41564993
_cell_length_c   12.60964201
_cell_angle_alpha   60.09678068
_cell_angle_beta   60.09678068
_cell_angle_gamma   87.14782242
_symmetry_Int_Tables_number   1
_chemical_formula_structural   Al12Ge(Se2O35)2
_chemical_formula_sum   'Al12 Ge1 Se4 O70'
_cell_volume   1408.62762448
_cell_formula_units_Z   1
loop_
 _symmetry_equiv_pos_site_id
 _symmetry_equiv_pos_as_xyz
  1  'x, y, z'
loop_
 _atom_site_type_symbol
 _atom_site_label
 _atom_site_symmetry_multiplicity
 _atom_site_fract_x
 _atom_site_fract_y
 _atom_site_fract_z
 _atom_site_occupancy
  Al  Al0  1  0.73754300  0.06847300  0.12557000  1
  Al  Al1  1  0.93152700  0.26245700  0.87443000  1
  Al  Al2  1  0.20459100  0.80624000  0.87064400  1
  Al  Al3  1  0.19376000  0.79540900  0.12935600  1
  Al  Al4  1  0.67356400  0.81329000  0.39315500  1
  Al  Al5  1  0.18671000  0.32643600  0.60684500  1
  Al  Al6  1  0.72750500  0.81137800  0.12772000  1
  Al  Al7  1  0.18862200  0.27249500  0.87228000  1
  Al  Al8  1  0.96453700  0.82901300  0.86707500  1
  Al  Al9  1  0.17098700  0.03546300  0.13292500  1
  Al  Al10  1  0.17811400  0.05636400  0.66056000  1
  Al  Al11  1  0.94363600  0.82188600  0.33944000  1
  Ge  Ge12  1  0.00279800  0.99720200  0.00000000  1
  Se  Se13  1  0.60181700  0.87736500  0.73746500  1
  Se  Se14  1  0.12263500  0.39818300  0.26253500  1
  Se  Se15  1  0.61983500  0.34133900  0.27657700  1
  Se  Se16  1  0.65866100  0.38016500  0.72342300  1
  O  O17  1  0.70721900  0.45892900  0.43246500  1
  O  O18  1  0.54107100  0.29278100  0.56753500  1
  O  O19  1  0.86401000  0.12762100  0.59153600  1
  O  O20  1  0.87237900  0.13599000  0.40846400  1
  O  O21  1  0.74308500  0.84578800  0.69266300  1
  O  O22  1  0.15421200  0.25691500  0.30733700  1
  O  O23  1  0.56809300  0.46752900  0.26428000  1
  O  O24  1  0.53247100  0.43190700  0.73572000  1
  O  O25  1  0.61320600  0.76666700  0.31176900  1
  O  O26  1  0.23333300  0.38679400  0.68823100  1
  O  O27  1  0.07592800  0.94587400  0.66996200  1
  O  O28  1  0.05412600  0.92407200  0.33003800  1
  O  O29  1  0.53197700  0.19780300  0.11132700  1
  O  O30  1  0.80219700  0.46802300  0.88867300  1
  O  O31  1  0.30194700  0.68851500  0.90901300  1
  O  O32  1  0.31148500  0.69805300  0.09098700  1
  O  O33  1  0.81388000  0.73901700  0.34923900  1
  O  O34  1  0.26098300  0.18612000  0.65076100  1
  O  O35  1  0.85097500  0.73271800  0.07240000  1
  O  O36  1  0.26728200  0.14902500  0.92760000  1
  O  O37  1  0.82097600  0.90417600  0.92042000  1
  O  O38  1  0.09582400  0.17902400  0.07958000  1
  O  O39  1  0.09051700  0.18722300  0.64310800  1
  O  O40  1  0.81277700  0.90948300  0.35689200  1
  O  O41  1  0.82905500  0.95260000  0.09718200  1
  O  O42  1  0.04740000  0.17094500  0.90281800  1
  O  O43  1  0.06390400  0.94669900  0.87820600  1
  O  O44  1  0.05330100  0.93609600  0.12179400  1
  O  O45  1  0.59182800  0.69867400  0.59257700  1
  O  O46  1  0.30132600  0.40817200  0.40742300  1
  O  O47  1  0.63959600  0.73220000  0.08915600  1
  O  O48  1  0.26780000  0.36040400  0.91084400  1
  O  O49  1  0.82731800  0.73836300  0.89087200  1
  O  O50  1  0.26163700  0.17268200  0.10912800  1
  O  O51  1  0.27407000  0.20811900  0.45955200  1
  O  O52  1  0.79188100  0.72593000  0.54044800  1
  O  O53  1  0.52159700  0.98008300  0.54619600  1
  O  O54  1  0.01991700  0.47840300  0.45380400  1
  O  O55  1  0.54307000  0.00381700  0.00064700  1
  O  O56  1  0.99618300  0.45693000  0.99935300  1
  O  O57  1  0.51438500  0.79968100  0.70984400  1
  O  O58  1  0.20031900  0.48561500  0.29015600  1
  O  O59  1  0.52282000  0.83764200  0.91035300  1
  O  O60  1  0.16235800  0.47718000  0.08964700  1
  O  O61  1  0.75503200  0.50357900  0.97340400  1
  O  O62  1  0.49642100  0.24496800  0.02659600  1
  O  O63  1  0.53507200  0.22496300  0.30218500  1
  O  O64  1  0.77503700  0.46492800  0.69781500  1
  O  O65  1  0.78096600  0.17345600  0.93772900  1
  O  O66  1  0.82654400  0.21903400  0.06227100  1
  O  O67  1  0.27678700  0.88665800  0.92345900  1
  O  O68  1  0.11334200  0.72321300  0.07654100  1
  O  O69  1  0.40774900  0.59225100  0.50000000  1
  O  O70  1  0.16339600  0.83660400  0.50000000  1
  O  O71  1  0.61691900  0.95310300  0.31022700  1
  O  O72  1  0.04689700  0.38308100  0.68977300  1
  O  O73  1  0.55822000  0.95472900  0.10274000  1
  O  O74  1  0.04527100  0.44178000  0.89726000  1
  O  O75  1  0.09023400  0.74425900  0.85231800  1
  O  O76  1  0.25574100  0.90976600  0.14768200  1
  O  O77  1  0.27791400  0.94161500  0.68142000  1
  O  O78  1  0.05838500  0.72208600  0.31858000  1
  O  O79  1  0.90640200  0.09359800  0.50000000  1
  O  O80  1  0.58518500  0.41481500  0.50000000  1
  O  O81  1  0.28060700  0.80927200  0.49102400  1
  O  O82  1  0.19072700  0.71939300  0.50897600  1
  O  O83  1  0.61104400  0.03488000  0.62664400  1
  O  O84  1  0.96512000  0.38895600  0.37335600  1
  O  O85  1  0.75327400  0.32884500  0.27099200  1
  O  O86  1  0.67115500  0.24672600  0.72900800  1
