# generated using pymatgen
data_MnH7C3NO6
_symmetry_space_group_name_H-M   'P 1'
_cell_length_a   8.60977200
_cell_length_b   12.79941300
_cell_length_c   12.83201977
_cell_angle_alpha   60.28136160
_cell_angle_beta   90.00000000
_cell_angle_gamma   90.00000000
_symmetry_Int_Tables_number   1
_chemical_formula_structural   MnH7C3NO6
_chemical_formula_sum   'Mn6 H42 C18 N6 O36'
_cell_volume   1228.09423389
_cell_formula_units_Z   6
loop_
 _symmetry_equiv_pos_site_id
 _symmetry_equiv_pos_as_xyz
  1  'x, y, z'
loop_
 _atom_site_type_symbol
 _atom_site_label
 _atom_site_symmetry_multiplicity
 _atom_site_fract_x
 _atom_site_fract_y
 _atom_site_fract_z
 _atom_site_occupancy
  Mn  Mn0  1  0.08662100  0.33624300  0.66918700  1
  Mn  Mn1  1  0.08611700  0.99519900  0.33546600  1
  Mn  Mn2  1  0.08821400  0.67035500  0.99281800  1
  Mn  Mn3  1  0.58662100  0.66375700  0.33081300  1
  Mn  Mn4  1  0.58611700  0.00480100  0.66453400  1
  Mn  Mn5  1  0.58821400  0.32964500  0.00718200  1
  H  H6  1  0.80775400  0.28316100  0.84317500  1
  H  H7  1  0.80759100  0.87360600  0.28330100  1
  H  H8  1  0.80779500  0.84312100  0.87379200  1
  H  H9  1  0.30775400  0.71683900  0.15682500  1
  H  H10  1  0.30759100  0.12639400  0.71669900  1
  H  H11  1  0.30779500  0.15687900  0.12620800  1
  H  H12  1  0.79935000  0.50249600  0.54621200  1
  H  H13  1  0.79974600  0.95132800  0.50241400  1
  H  H14  1  0.79890800  0.54721200  0.94928800  1
  H  H15  1  0.29935000  0.49750400  0.45378800  1
  H  H16  1  0.29974600  0.04867200  0.49758600  1
  H  H17  1  0.29890800  0.45278800  0.05071200  1
  H  H18  1  0.88689500  0.16116600  0.62150900  1
  H  H19  1  0.88727500  0.21840000  0.16159800  1
  H  H20  1  0.88805100  0.61994400  0.21772800  1
  H  H21  1  0.38689500  0.83883400  0.37849100  1
  H  H22  1  0.38727500  0.78160000  0.83840200  1
  H  H23  1  0.38805100  0.38005600  0.78227200  1
  H  H24  1  0.99784600  0.57835500  0.69691500  1
  H  H25  1  0.99793900  0.72437600  0.57882600  1
  H  H26  1  0.99775500  0.69718400  0.72462800  1
  H  H27  1  0.49784600  0.42164500  0.30308500  1
  H  H28  1  0.49793900  0.27562400  0.42117400  1
  H  H29  1  0.49775500  0.30281600  0.27537200  1
  H  H30  1  0.15505500  0.66675000  0.66659000  1
  H  H31  1  0.65505500  0.33325000  0.33341000  1
  H  H32  1  0.99306400  0.36018900  0.39422400  1
  H  H33  1  0.99297000  0.24574500  0.35960200  1
  H  H34  1  0.99324200  0.39447600  0.24576800  1
  H  H35  1  0.49306400  0.63981100  0.60577600  1
  H  H36  1  0.49297000  0.75425500  0.64039800  1
  H  H37  1  0.49324200  0.60552400  0.75423200  1
  H  H38  1  0.14997300  0.33343600  0.33314500  1
  H  H39  1  0.64997300  0.66656400  0.66685500  1
  H  H40  1  0.68351900  0.02761100  0.91229400  1
  H  H41  1  0.68325800  0.06067400  0.02758100  1
  H  H42  1  0.68377800  0.91240200  0.05980600  1
  H  H43  1  0.18351900  0.97238900  0.08770600  1
  H  H44  1  0.18325800  0.93932600  0.97241900  1
  H  H45  1  0.18377800  0.08759800  0.94019400  1
  H  H46  1  0.52659700  0.99984900  0.99996400  1
  H  H47  1  0.02659700  0.00015100  0.00003600  1
  C  C48  1  0.82448900  0.38053600  0.80883500  1
  C  C49  1  0.82467600  0.81072400  0.38025400  1
  C  C50  1  0.82491700  0.80882400  0.81069400  1
  C  C51  1  0.32448900  0.61946400  0.19116500  1
  C  C52  1  0.32467600  0.18927600  0.61974600  1
  C  C53  1  0.32491700  0.19117600  0.18930600  1
  C  C54  1  0.82097900  0.46817700  0.48358300  1
  C  C55  1  0.82082000  0.04823100  0.46818500  1
  C  C56  1  0.81956600  0.48427700  0.04540200  1
  C  C57  1  0.32097900  0.53182300  0.51641700  1
  C  C58  1  0.32082000  0.95176900  0.53181500  1
  C  C59  1  0.31956600  0.51572300  0.95459800  1
  C  C60  1  0.85924400  0.13432600  0.71570600  1
  C  C61  1  0.85817600  0.15123900  0.13420300  1
  C  C62  1  0.86160300  0.71359800  0.14900200  1
  C  C63  1  0.35924400  0.86567400  0.28429400  1
  C  C64  1  0.35817600  0.84876100  0.86579700  1
  C  C65  1  0.36160300  0.28640200  0.85099800  1
  N  N66  1  0.03641900  0.66665000  0.66669600  1
  N  N67  1  0.53641900  0.33335000  0.33330400  1
  N  N68  1  0.03120600  0.33348900  0.33308400  1
  N  N69  1  0.53120600  0.66651100  0.66691600  1
  N  N70  1  0.64545800  0.00019100  0.99996100  1
  N  N71  1  0.14545800  0.99980900  0.00003900  1
  O  O72  1  0.93893200  0.42982500  0.73707500  1
  O  O73  1  0.93872000  0.83306900  0.42989200  1
  O  O74  1  0.93861900  0.73691700  0.83266200  1
  O  O75  1  0.43893200  0.57017500  0.26292500  1
  O  O76  1  0.43872000  0.16693100  0.57010800  1
  O  O77  1  0.43861900  0.26308300  0.16733800  1
  O  O78  1  0.73205700  0.43480700  0.84194900  1
  O  O79  1  0.73238000  0.72322200  0.43393100  1
  O  O80  1  0.73256800  0.84260200  0.72316800  1
  O  O81  1  0.23205700  0.56519300  0.15805100  1
  O  O82  1  0.23238000  0.27677800  0.56606900  1
  O  O83  1  0.23256800  0.15739800  0.27683200  1
  O  O84  1  0.93646200  0.39752800  0.50660500  1
  O  O85  1  0.93622300  0.09566400  0.39763900  1
  O  O86  1  0.93343500  0.50693200  0.09464100  1
  O  O87  1  0.43646200  0.60247200  0.49339500  1
  O  O88  1  0.43622300  0.90433600  0.60236100  1
  O  O89  1  0.43343500  0.49306800  0.90535900  1
  O  O90  1  0.73185400  0.50201700  0.39419400  1
  O  O91  1  0.73132500  0.10394300  0.50202300  1
  O  O92  1  0.72979800  0.39402000  0.09866700  1
  O  O93  1  0.23185400  0.49798300  0.60580600  1
  O  O94  1  0.23132500  0.89605700  0.49797700  1
  O  O95  1  0.22979800  0.60598000  0.90133300  1
  O  O96  1  0.94638300  0.17119700  0.77014000  1
  O  O97  1  0.94350500  0.05909800  0.17053800  1
  O  O98  1  0.94832800  0.76466800  0.05720600  1
  O  O99  1  0.44638300  0.82880300  0.22986000  1
  O  O100  1  0.44350500  0.94090200  0.82946200  1
  O  O101  1  0.44832800  0.23533200  0.94279400  1
  O  O102  1  0.73979200  0.06811900  0.76167900  1
  O  O103  1  0.73873700  0.17222900  0.06776300  1
  O  O104  1  0.74437700  0.76263000  0.16828100  1
  O  O105  1  0.23979200  0.93188100  0.23832100  1
  O  O106  1  0.23873700  0.82777100  0.93223700  1
  O  O107  1  0.24437700  0.23737000  0.83171900  1
