# generated using pymatgen
data_Dy2MgS4
_symmetry_space_group_name_H-M   'P 1'
_cell_length_a   7.18467344
_cell_length_b   7.18467344
_cell_length_c   7.18467344
_cell_angle_alpha   110.53791814
_cell_angle_beta   110.53791814
_cell_angle_gamma   107.35826420
_symmetry_Int_Tables_number   1
_chemical_formula_structural   Dy2MgS4
_chemical_formula_sum   'Dy4 Mg2 S8'
_cell_volume   285.20559446
_cell_formula_units_Z   2
loop_
 _symmetry_equiv_pos_site_id
 _symmetry_equiv_pos_as_xyz
  1  'x, y, z'
loop_
 _atom_site_type_symbol
 _atom_site_label
 _atom_site_symmetry_multiplicity
 _atom_site_fract_x
 _atom_site_fract_y
 _atom_site_fract_z
 _atom_site_occupancy
  Dy  Dy0  1  0.87500000  0.75719300  0.38219300  1
  Dy  Dy1  1  0.50719300  0.12500000  0.88219300  1
  Dy  Dy2  1  0.37500000  0.49280700  0.61780700  1
  Dy  Dy3  1  0.24280700  0.62500000  0.11780700  1
  Mg  Mg4  1  0.00000000  0.00000000  0.00000000  1
  Mg  Mg5  1  0.75000000  0.25000000  0.50000000  1
  S  S6  1  0.50651400  0.37862400  0.26267300  1
  S  S7  1  0.75615900  0.49348600  0.87211000  1
  S  S8  1  0.11595100  0.24384100  0.73732700  1
  S  S9  1  0.62137600  0.88404900  0.12789000  1
  S  S10  1  0.24348600  0.00615900  0.37211000  1
  S  S11  1  0.99384100  0.36595100  0.23732700  1
  S  S12  1  0.63404900  0.87137600  0.62789000  1
  S  S13  1  0.12862400  0.75651400  0.76267300  1
