# generated using pymatgen
data_NbCr3(AgS4)2
_symmetry_space_group_name_H-M   'P 1'
_cell_length_a   13.30236500
_cell_length_b   6.01293500
_cell_length_c   6.90548157
_cell_angle_alpha   89.72842514
_cell_angle_beta   90.00000000
_cell_angle_gamma   90.00000000
_symmetry_Int_Tables_number   1
_chemical_formula_structural   NbCr3(AgS4)2
_chemical_formula_sum   'Nb2 Cr6 Ag4 S16'
_cell_volume   552.33741276
_cell_formula_units_Z   2
loop_
 _symmetry_equiv_pos_site_id
 _symmetry_equiv_pos_as_xyz
  1  'x, y, z'
loop_
 _atom_site_type_symbol
 _atom_site_label
 _atom_site_symmetry_multiplicity
 _atom_site_fract_x
 _atom_site_fract_y
 _atom_site_fract_z
 _atom_site_occupancy
  Nb  Nb0  1  0.50000000  0.50000000  0.00000000  1
  Nb  Nb1  1  0.00000000  0.50000000  0.00000000  1
  Cr  Cr2  1  0.49604700  0.00194400  0.75076400  1
  Cr  Cr3  1  0.00395300  0.00194400  0.75076400  1
  Cr  Cr4  1  0.50395300  0.99805600  0.24923600  1
  Cr  Cr5  1  0.99604700  0.99805600  0.24923600  1
  Cr  Cr6  1  0.00000000  0.50000000  0.50000000  1
  Cr  Cr7  1  0.50000000  0.50000000  0.50000000  1
  Ag  Ag8  1  0.25000000  0.65740000  0.74396200  1
  Ag  Ag9  1  0.75000000  0.34260000  0.25603800  1
  Ag  Ag10  1  0.75000000  0.97584600  0.74143000  1
  Ag  Ag11  1  0.25000000  0.02415400  0.25857000  1
  S  S12  1  0.60710000  0.15969500  0.99853600  1
  S  S13  1  0.89956200  0.16900400  0.49854000  1
  S  S14  1  0.39956200  0.83099600  0.50146000  1
  S  S15  1  0.10710000  0.84030500  0.00146400  1
  S  S16  1  0.39290000  0.84030500  0.00146400  1
  S  S17  1  0.10043800  0.83099600  0.50146000  1
  S  S18  1  0.60043800  0.16900400  0.49854000  1
  S  S19  1  0.89290000  0.15969500  0.99853600  1
  S  S20  1  0.39391500  0.33278200  0.74290800  1
  S  S21  1  0.10608500  0.33278200  0.74290800  1
  S  S22  1  0.60608500  0.66721800  0.25709200  1
  S  S23  1  0.89391500  0.66721800  0.25709200  1
  S  S24  1  0.60275600  0.67427100  0.74323000  1
  S  S25  1  0.89724400  0.67427100  0.74323000  1
  S  S26  1  0.39724400  0.32572900  0.25677000  1
  S  S27  1  0.10275600  0.32572900  0.25677000  1
