# generated using pymatgen
data_AlAgO2
_symmetry_space_group_name_H-M   'P 1'
_cell_length_a   9.23525000
_cell_length_b   9.84224700
_cell_length_c   20.83699500
_cell_angle_alpha   90.00000000
_cell_angle_beta   90.00000000
_cell_angle_gamma   90.00000000
_symmetry_Int_Tables_number   1
_chemical_formula_structural   AlAgO2
_chemical_formula_sum   'Al32 Ag32 O64'
_cell_volume   1893.99140457
_cell_formula_units_Z   32
loop_
 _symmetry_equiv_pos_site_id
 _symmetry_equiv_pos_as_xyz
  1  'x, y, z'
loop_
 _atom_site_type_symbol
 _atom_site_label
 _atom_site_symmetry_multiplicity
 _atom_site_fract_x
 _atom_site_fract_y
 _atom_site_fract_z
 _atom_site_occupancy
  Al  Al0  1  0.92974800  0.27339800  0.86608300  1
  Al  Al1  1  0.33313700  0.12726500  0.00595000  1
  Al  Al2  1  0.39563600  0.52280700  0.82254000  1
  Al  Al3  1  0.27876400  0.49855300  0.13486600  1
  Al  Al4  1  0.66686300  0.87273500  0.99405000  1
  Al  Al5  1  0.66686300  0.12726500  0.49405000  1
  Al  Al6  1  0.33313700  0.87273500  0.50595000  1
  Al  Al7  1  0.72123600  0.50144700  0.86513400  1
  Al  Al8  1  0.92974800  0.72660200  0.36608300  1
  Al  Al9  1  0.16686300  0.62726500  0.00595000  1
  Al  Al10  1  0.57025200  0.22660200  0.36608300  1
  Al  Al11  1  0.10436400  0.97719300  0.32254000  1
  Al  Al12  1  0.42974800  0.77339800  0.63391700  1
  Al  Al13  1  0.89563600  0.02280700  0.67746000  1
  Al  Al14  1  0.39563600  0.47719300  0.32254000  1
  Al  Al15  1  0.77876400  0.99855300  0.36513400  1
  Al  Al16  1  0.83313700  0.37273500  0.99405000  1
  Al  Al17  1  0.57025200  0.77339800  0.86608300  1
  Al  Al18  1  0.42974800  0.22660200  0.13391700  1
  Al  Al19  1  0.60436400  0.47719300  0.17746000  1
  Al  Al20  1  0.22123600  0.99855300  0.13486600  1
  Al  Al21  1  0.10436400  0.02280700  0.82254000  1
  Al  Al22  1  0.16686300  0.37273500  0.50595000  1
  Al  Al23  1  0.07025200  0.72660200  0.13391700  1
  Al  Al24  1  0.22123600  0.00144700  0.63486600  1
  Al  Al25  1  0.77876400  0.00144700  0.86513400  1
  Al  Al26  1  0.60436400  0.52280700  0.67746000  1
  Al  Al27  1  0.07025200  0.27339800  0.63391700  1
  Al  Al28  1  0.72123600  0.49855300  0.36513400  1
  Al  Al29  1  0.83313700  0.62726500  0.49405000  1
  Al  Al30  1  0.27876400  0.50144700  0.63486600  1
  Al  Al31  1  0.89563600  0.97719300  0.17746000  1
  Ag  Ag32  1  0.69367600  0.23788300  0.74483800  1
  Ag  Ag33  1  0.28404000  0.13728500  0.40593600  1
  Ag  Ag34  1  0.69367600  0.76211700  0.24483800  1
  Ag  Ag35  1  0.49434900  0.77807900  0.37006400  1
  Ag  Ag36  1  0.19367600  0.26211700  0.25516200  1
  Ag  Ag37  1  0.50565100  0.77807900  0.12993600  1
  Ag  Ag38  1  0.00000000  0.50191300  0.75000000  1
  Ag  Ag39  1  0.30632400  0.23788300  0.75516200  1
  Ag  Ag40  1  0.71596000  0.86271500  0.59406400  1
  Ag  Ag41  1  0.00000000  0.00000000  0.00000000  1
  Ag  Ag42  1  0.21596000  0.63728500  0.40593600  1
  Ag  Ag43  1  0.99434900  0.27807900  0.12993600  1
  Ag  Ag44  1  0.00565100  0.72192100  0.87006400  1
  Ag  Ag45  1  0.21596000  0.36271500  0.90593600  1
  Ag  Ag46  1  0.28404000  0.86271500  0.90593600  1
  Ag  Ag47  1  0.19367600  0.73788300  0.75516200  1
  Ag  Ag48  1  0.49434900  0.22192100  0.87006400  1
  Ag  Ag49  1  0.71596000  0.13728500  0.09406400  1
  Ag  Ag50  1  0.50565100  0.22192100  0.62993600  1
  Ag  Ag51  1  0.50000000  0.50000000  0.50000000  1
  Ag  Ag52  1  0.00000000  0.00000000  0.50000000  1
  Ag  Ag53  1  0.78404000  0.63728500  0.09406400  1
  Ag  Ag54  1  0.78404000  0.36271500  0.59406400  1
  Ag  Ag55  1  0.00000000  0.49808700  0.25000000  1
  Ag  Ag56  1  0.50000000  0.00191300  0.75000000  1
  Ag  Ag57  1  0.99434900  0.72192100  0.62993600  1
  Ag  Ag58  1  0.50000000  0.99808700  0.25000000  1
  Ag  Ag59  1  0.00565100  0.27807900  0.37006400  1
  Ag  Ag60  1  0.50000000  0.50000000  0.00000000  1
  Ag  Ag61  1  0.30632400  0.76211700  0.25516200  1
  Ag  Ag62  1  0.80632400  0.73788300  0.74483800  1
  Ag  Ag63  1  0.80632400  0.26211700  0.24483800  1
  O  O64  1  0.67665800  0.11461500  0.57566900  1
  O  O65  1  0.67665800  0.88538500  0.07566900  1
  O  O66  1  0.23004800  0.82208500  0.14802800  1
  O  O67  1  0.73004800  0.67791500  0.85197200  1
  O  O68  1  0.29529900  0.53880200  0.05042400  1
  O  O69  1  0.79529900  0.96119800  0.94957600  1
  O  O70  1  0.74149100  0.05562700  0.20237500  1
  O  O71  1  0.96295700  0.28589100  0.95100800  1
  O  O72  1  0.55880200  0.56628900  0.33109200  1
  O  O73  1  0.70470100  0.46119800  0.94957600  1
  O  O74  1  0.38998300  0.06055300  0.15929800  1
  O  O75  1  0.74149100  0.94437300  0.70237500  1
  O  O76  1  0.42236300  0.30537500  0.32887700  1
  O  O77  1  0.88998300  0.56055300  0.34070200  1
  O  O78  1  0.25850900  0.05562700  0.29762500  1
  O  O79  1  0.20470100  0.03880200  0.05042400  1
  O  O80  1  0.11001700  0.43944700  0.65929800  1
  O  O81  1  0.79529900  0.03880200  0.44957600  1
  O  O82  1  0.44119800  0.43371100  0.66890800  1
  O  O83  1  0.24149100  0.44437300  0.79762500  1
  O  O84  1  0.05880200  0.06628900  0.16890800  1
  O  O85  1  0.46295700  0.78589100  0.54899200  1
  O  O86  1  0.38998300  0.93944700  0.65929800  1
  O  O87  1  0.53704300  0.21410900  0.45100800  1
  O  O88  1  0.82334200  0.61461500  0.57566900  1
  O  O89  1  0.29529900  0.46119800  0.55042400  1
  O  O90  1  0.57763700  0.30537500  0.17112300  1
  O  O91  1  0.25850900  0.94437300  0.79762500  1
  O  O92  1  0.03704300  0.71410900  0.04899200  1
  O  O93  1  0.94119800  0.93371100  0.83109200  1
  O  O94  1  0.07763700  0.80537500  0.32887700  1
  O  O95  1  0.23004800  0.17791500  0.64802800  1
  O  O96  1  0.61001700  0.06055300  0.34070200  1
  O  O97  1  0.76995200  0.82208500  0.35197200  1
  O  O98  1  0.57763700  0.69462500  0.67112300  1
  O  O99  1  0.24149100  0.55562700  0.29762500  1
  O  O100  1  0.44119800  0.56628900  0.16890800  1
  O  O101  1  0.55880200  0.43371100  0.83109200  1
  O  O102  1  0.32334200  0.11461500  0.92433100  1
  O  O103  1  0.94119800  0.06628900  0.33109200  1
  O  O104  1  0.07763700  0.19462500  0.82887700  1
  O  O105  1  0.17665800  0.61461500  0.92433100  1
  O  O106  1  0.26995200  0.67791500  0.64802800  1
  O  O107  1  0.75850900  0.55562700  0.20237500  1
  O  O108  1  0.20470100  0.96119800  0.55042400  1
  O  O109  1  0.17665800  0.38538500  0.42433100  1
  O  O110  1  0.53704300  0.78589100  0.95100800  1
  O  O111  1  0.05880200  0.93371100  0.66890800  1
  O  O112  1  0.70470100  0.53880200  0.44957600  1
  O  O113  1  0.61001700  0.93944700  0.84070200  1
  O  O114  1  0.82334200  0.38538500  0.07566900  1
  O  O115  1  0.76995200  0.17791500  0.85197200  1
  O  O116  1  0.73004800  0.32208500  0.35197200  1
  O  O117  1  0.75850900  0.44437300  0.70237500  1
  O  O118  1  0.88998300  0.43944700  0.84070200  1
  O  O119  1  0.26995200  0.32208500  0.14802800  1
  O  O120  1  0.46295700  0.21410900  0.04899200  1
  O  O121  1  0.92236300  0.19462500  0.67112300  1
  O  O122  1  0.42236300  0.69462500  0.82887700  1
  O  O123  1  0.11001700  0.56055300  0.15929800  1
  O  O124  1  0.03704300  0.28589100  0.54899200  1
  O  O125  1  0.32334200  0.88538500  0.42433100  1
  O  O126  1  0.92236300  0.80537500  0.17112300  1
  O  O127  1  0.96295700  0.71410900  0.45100800  1
