# generated using pymatgen
data_MgTl6Si2O7
_symmetry_space_group_name_H-M   'P 1'
_cell_length_a   5.30481958
_cell_length_b   8.70064496
_cell_length_c   8.77357869
_cell_angle_alpha   62.77280927
_cell_angle_beta   91.98930792
_cell_angle_gamma   90.85168302
_symmetry_Int_Tables_number   1
_chemical_formula_structural   MgTl6Si2O7
_chemical_formula_sum   'Mg1 Tl6 Si2 O7'
_cell_volume   359.86190430
_cell_formula_units_Z   1
loop_
 _symmetry_equiv_pos_site_id
 _symmetry_equiv_pos_as_xyz
  1  'x, y, z'
loop_
 _atom_site_type_symbol
 _atom_site_label
 _atom_site_symmetry_multiplicity
 _atom_site_fract_x
 _atom_site_fract_y
 _atom_site_fract_z
 _atom_site_occupancy
  Mg  Mg0  1  0.70519300  0.53075700  0.55907600  1
  Tl  Tl1  1  0.72136700  0.89395100  0.25297600  1
  Tl  Tl2  1  0.71401500  0.88160000  0.70132300  1
  Tl  Tl3  1  0.75197600  0.36068300  0.95690300  1
  Tl  Tl4  1  0.21601100  0.21925200  0.65906700  1
  Tl  Tl5  1  0.20975300  0.08179400  0.29318400  1
  Tl  Tl6  1  0.18516400  0.60842300  0.12385200  1
  Si  Si7  1  0.16661800  0.65232000  0.65507400  1
  Si  Si8  1  0.67688300  0.30239400  0.35637100  1
  O  O9  1  0.25891900  0.85310300  0.58780500  1
  O  O10  1  0.13048600  0.54862600  0.86329200  1
  O  O11  1  0.34861400  0.54638800  0.58683300  1
  O  O12  1  0.76867200  0.10697800  0.38946700  1
  O  O13  1  0.77181200  0.45241000  0.17014000  1
  O  O14  1  0.78599200  0.34174300  0.51331700  1
  O  O15  1  0.36202500  0.30297500  0.35748100  1
