# generated using pymatgen
data_Y2MgSe4
_symmetry_space_group_name_H-M   'P 1'
_cell_length_a   7.48774500
_cell_length_b   8.67791053
_cell_length_c   13.87046281
_cell_angle_alpha   99.17382705
_cell_angle_beta   95.39729116
_cell_angle_gamma   89.98000107
_symmetry_Int_Tables_number   1
_chemical_formula_structural   Y2MgSe4
_chemical_formula_sum   'Y8 Mg4 Se16'
_cell_volume   885.70350122
_cell_formula_units_Z   4
loop_
 _symmetry_equiv_pos_site_id
 _symmetry_equiv_pos_as_xyz
  1  'x, y, z'
loop_
 _atom_site_type_symbol
 _atom_site_label
 _atom_site_symmetry_multiplicity
 _atom_site_fract_x
 _atom_site_fract_y
 _atom_site_fract_z
 _atom_site_occupancy
  Y  Y0  1  0.86380000  0.30036800  0.69952800  1
  Y  Y1  1  0.13620000  0.69963200  0.30047200  1
  Y  Y2  1  0.75874200  0.12598300  0.00060600  1
  Y  Y3  1  0.24125800  0.87401700  0.99939400  1
  Y  Y4  1  0.63154200  0.44420000  0.29916600  1
  Y  Y5  1  0.36845800  0.55580000  0.70083400  1
  Y  Y6  1  0.63218800  0.95568200  0.30239600  1
  Y  Y7  1  0.36781200  0.04431800  0.69760400  1
  Mg  Mg8  1  0.86711400  0.80045900  0.70223900  1
  Mg  Mg9  1  0.13288600  0.19954100  0.29776100  1
  Mg  Mg10  1  0.75127200  0.62336000  0.99691400  1
  Mg  Mg11  1  0.24872800  0.37664000  0.00308600  1
  Se  Se12  1  0.90555600  0.35528400  0.89775800  1
  Se  Se13  1  0.09444400  0.64471600  0.10224200  1
  Se  Se14  1  0.89247100  0.84309100  0.89078200  1
  Se  Se15  1  0.10752900  0.15690900  0.10921800  1
  Se  Se16  1  0.82861100  0.21917500  0.37488600  1
  Se  Se17  1  0.17138900  0.78082500  0.62511400  1
  Se  Se18  1  0.81065700  0.71898700  0.37777900  1
  Se  Se19  1  0.18934300  0.28101300  0.62222100  1
  Se  Se20  1  0.69546100  0.02068900  0.62563400  1
  Se  Se21  1  0.30453900  0.97931100  0.37436600  1
  Se  Se22  1  0.69403600  0.54231400  0.62627500  1
  Se  Se23  1  0.30596400  0.45768600  0.37372500  1
  Se  Se24  1  0.60504400  0.89549000  0.10359500  1
  Se  Se25  1  0.39495600  0.10451000  0.89640500  1
  Se  Se26  1  0.59588800  0.40691900  0.10122300  1
  Se  Se27  1  0.40411200  0.59308100  0.89877700  1
