# generated using pymatgen
data_ZrCrCuS4
_symmetry_space_group_name_H-M   'P 1'
_cell_length_a   3.56785900
_cell_length_b   11.24614100
_cell_length_c   12.84609700
_cell_angle_alpha   90.00000000
_cell_angle_beta   90.00000000
_cell_angle_gamma   90.00000000
_symmetry_Int_Tables_number   1
_chemical_formula_structural   ZrCrCuS4
_chemical_formula_sum   'Zr4 Cr4 Cu4 S16'
_cell_volume   515.44508667
_cell_formula_units_Z   4
loop_
 _symmetry_equiv_pos_site_id
 _symmetry_equiv_pos_as_xyz
  1  'x, y, z'
loop_
 _atom_site_type_symbol
 _atom_site_label
 _atom_site_symmetry_multiplicity
 _atom_site_fract_x
 _atom_site_fract_y
 _atom_site_fract_z
 _atom_site_occupancy
  Zr  Zr0  1  0.00000000  0.80038900  0.11598600  1
  Zr  Zr1  1  0.50000000  0.19961100  0.61598600  1
  Zr  Zr2  1  0.00000000  0.83271800  0.58352400  1
  Zr  Zr3  1  0.50000000  0.16728200  0.08352400  1
  Cr  Cr4  1  0.50000000  0.68859900  0.88465100  1
  Cr  Cr5  1  0.00000000  0.31140100  0.38465100  1
  Cr  Cr6  1  0.50000000  0.65203800  0.40872300  1
  Cr  Cr7  1  0.00000000  0.34796200  0.90872300  1
  Cu  Cu8  1  0.50000000  0.46972100  0.67389500  1
  Cu  Cu9  1  0.00000000  0.98575300  0.35924800  1
  Cu  Cu10  1  0.00000000  0.53027900  0.17389500  1
  Cu  Cu11  1  0.50000000  0.01424700  0.85924800  1
  S  S12  1  0.00000000  0.68462000  0.28971700  1
  S  S13  1  0.50000000  0.77503800  0.71045800  1
  S  S14  1  0.50000000  0.31538000  0.78971700  1
  S  S15  1  0.00000000  0.22496200  0.21045800  1
  S  S16  1  0.50000000  0.64550500  0.06668800  1
  S  S17  1  0.00000000  0.83887100  0.92053700  1
  S  S18  1  0.00000000  0.35449500  0.56668800  1
  S  S19  1  0.50000000  0.16112900  0.42053700  1
  S  S20  1  0.00000000  0.61864800  0.52948300  1
  S  S21  1  0.50000000  0.87217300  0.43853800  1
  S  S22  1  0.50000000  0.38135200  0.02948300  1
  S  S23  1  0.00000000  0.12782700  0.93853800  1
  S  S24  1  0.00000000  0.55322200  0.84110900  1
  S  S25  1  0.50000000  0.95198300  0.17744300  1
  S  S26  1  0.50000000  0.44677800  0.34110900  1
  S  S27  1  0.00000000  0.04801700  0.67744300  1
