# generated using pymatgen
data_Tb3(SiC)2
_symmetry_space_group_name_H-M   'P 1'
_cell_length_a   7.54824328
_cell_length_b   7.54824328
_cell_length_c   4.67671400
_cell_angle_alpha   90.00000000
_cell_angle_beta   90.00000000
_cell_angle_gamma   148.54565446
_symmetry_Int_Tables_number   1
_chemical_formula_structural   Tb3(SiC)2
_chemical_formula_sum   'Tb3 Si2 C2'
_cell_volume   139.04407155
_cell_formula_units_Z   1
loop_
 _symmetry_equiv_pos_site_id
 _symmetry_equiv_pos_as_xyz
  1  'x, y, z'
loop_
 _atom_site_type_symbol
 _atom_site_label
 _atom_site_symmetry_multiplicity
 _atom_site_fract_x
 _atom_site_fract_y
 _atom_site_fract_z
 _atom_site_occupancy
  Tb  Tb0  1  0.36000700  0.63999300  0.46096400  1
  Tb  Tb1  1  0.63999300  0.36000700  0.46096400  1
  Tb  Tb2  1  0.00000000  0.00000000  0.95394700  1
  Si  Si3  1  0.20099300  0.79900700  0.96523600  1
  Si  Si4  1  0.79900700  0.20099300  0.96523600  1
  C  C5  1  0.15906500  0.15906500  0.45332600  1
  C  C6  1  0.84093500  0.84093500  0.45332600  1
