# generated using pymatgen
data_Lu2MgSe4
_symmetry_space_group_name_H-M   'P 1'
_cell_length_a   13.92648100
_cell_length_b   8.10203000
_cell_length_c   6.75970800
_cell_angle_alpha   90.00000000
_cell_angle_beta   90.00000000
_cell_angle_gamma   90.00000000
_symmetry_Int_Tables_number   1
_chemical_formula_structural   Lu2MgSe4
_chemical_formula_sum   'Lu8 Mg4 Se16'
_cell_volume   762.71655678
_cell_formula_units_Z   4
loop_
 _symmetry_equiv_pos_site_id
 _symmetry_equiv_pos_as_xyz
  1  'x, y, z'
loop_
 _atom_site_type_symbol
 _atom_site_label
 _atom_site_symmetry_multiplicity
 _atom_site_fract_x
 _atom_site_fract_y
 _atom_site_fract_z
 _atom_site_occupancy
  Lu  Lu0  1  0.00000000  0.00000000  0.50000000  1
  Lu  Lu1  1  0.50000000  0.00000000  0.00000000  1
  Lu  Lu2  1  0.50000000  0.50000000  0.00000000  1
  Lu  Lu3  1  0.00000000  0.50000000  0.50000000  1
  Lu  Lu4  1  0.23424000  0.75000000  0.00285900  1
  Lu  Lu5  1  0.76576000  0.25000000  0.99714100  1
  Lu  Lu6  1  0.26576000  0.25000000  0.50285900  1
  Lu  Lu7  1  0.73424000  0.75000000  0.49714100  1
  Mg  Mg8  1  0.09274300  0.25000000  0.92114400  1
  Mg  Mg9  1  0.90725700  0.75000000  0.07885600  1
  Mg  Mg10  1  0.40725700  0.75000000  0.42114400  1
  Mg  Mg11  1  0.59274300  0.25000000  0.57885600  1
  Se  Se12  1  0.16943800  0.00228900  0.73856900  1
  Se  Se13  1  0.83056200  0.99771100  0.26143100  1
  Se  Se14  1  0.33056200  0.99771100  0.23856900  1
  Se  Se15  1  0.66943800  0.00228900  0.76143100  1
  Se  Se16  1  0.66943800  0.49771100  0.76143100  1
  Se  Se17  1  0.33056200  0.50228900  0.23856900  1
  Se  Se18  1  0.83056200  0.50228900  0.26143100  1
  Se  Se19  1  0.16943800  0.49771100  0.73856900  1
  Se  Se20  1  0.07463600  0.75000000  0.25165100  1
  Se  Se21  1  0.92536400  0.25000000  0.74834900  1
  Se  Se22  1  0.42536400  0.25000000  0.75165100  1
  Se  Se23  1  0.57463600  0.75000000  0.24834900  1
  Se  Se24  1  0.09182600  0.25000000  0.29443900  1
  Se  Se25  1  0.90817400  0.75000000  0.70556100  1
  Se  Se26  1  0.40817400  0.75000000  0.79443900  1
  Se  Se27  1  0.59182600  0.25000000  0.20556100  1
