# generated using pymatgen
data_Ca(BO5)2
_symmetry_space_group_name_H-M   'P 1'
_cell_length_a   5.90236800
_cell_length_b   7.56266100
_cell_length_c   9.49930465
_cell_angle_alpha   73.01353402
_cell_angle_beta   90.00000000
_cell_angle_gamma   90.00000000
_symmetry_Int_Tables_number   1
_chemical_formula_structural   Ca(BO5)2
_chemical_formula_sum   'Ca2 B4 O20'
_cell_volume   405.52758255
_cell_formula_units_Z   2
loop_
 _symmetry_equiv_pos_site_id
 _symmetry_equiv_pos_as_xyz
  1  'x, y, z'
loop_
 _atom_site_type_symbol
 _atom_site_label
 _atom_site_symmetry_multiplicity
 _atom_site_fract_x
 _atom_site_fract_y
 _atom_site_fract_z
 _atom_site_occupancy
  Ca  Ca0  1  0.92789400  0.00000000  0.25000000  1
  Ca  Ca1  1  0.07210600  0.00000000  0.75000000  1
  B  B2  1  0.35384000  0.89407700  0.11696700  1
  B  B3  1  0.35384000  0.10592300  0.38303300  1
  B  B4  1  0.64616000  0.10592300  0.88303300  1
  B  B5  1  0.64616000  0.89407700  0.61696700  1
  O  O6  1  0.26052400  0.00259000  0.98115200  1
  O  O7  1  0.26052400  0.99741000  0.51884800  1
  O  O8  1  0.73947600  0.99741000  0.01884800  1
  O  O9  1  0.73947600  0.00259000  0.48115200  1
  O  O10  1  0.20518600  0.81290000  0.21698800  1
  O  O11  1  0.20518600  0.18710000  0.28301200  1
  O  O12  1  0.79481400  0.18710000  0.78301200  1
  O  O13  1  0.79481400  0.81290000  0.71698800  1
  O  O14  1  0.28318000  0.60497800  0.93271700  1
  O  O15  1  0.28318000  0.39502200  0.56728300  1
  O  O16  1  0.71682000  0.39502200  0.06728300  1
  O  O17  1  0.71682000  0.60497800  0.43271700  1
  O  O18  1  0.58887700  0.87955700  0.14175200  1
  O  O19  1  0.58887700  0.12044300  0.35824800  1
  O  O20  1  0.41112300  0.12044300  0.85824800  1
  O  O21  1  0.41112300  0.87955700  0.64175200  1
  O  O22  1  0.20784600  0.54890400  0.56212000  1
  O  O23  1  0.20784600  0.45109600  0.93788000  1
  O  O24  1  0.79215400  0.45109600  0.43788000  1
  O  O25  1  0.79215400  0.54890400  0.06212000  1
