# generated using pymatgen
data_TiCrAgS4
_symmetry_space_group_name_H-M   'P 1'
_cell_length_a   5.94002800
_cell_length_b   6.93786800
_cell_length_c   13.35321400
_cell_angle_alpha   90.00000000
_cell_angle_beta   90.00000000
_cell_angle_gamma   90.00000000
_symmetry_Int_Tables_number   1
_chemical_formula_structural   TiCrAgS4
_chemical_formula_sum   'Ti4 Cr4 Ag4 S16'
_cell_volume   550.30104048
_cell_formula_units_Z   4
loop_
 _symmetry_equiv_pos_site_id
 _symmetry_equiv_pos_as_xyz
  1  'x, y, z'
loop_
 _atom_site_type_symbol
 _atom_site_label
 _atom_site_symmetry_multiplicity
 _atom_site_fract_x
 _atom_site_fract_y
 _atom_site_fract_z
 _atom_site_occupancy
  Ti  Ti0  1  0.50000000  0.25000000  0.25000000  1
  Ti  Ti1  1  0.50000000  0.75000000  0.75000000  1
  Ti  Ti2  1  0.50000000  0.75000000  0.25000000  1
  Ti  Ti3  1  0.50000000  0.25000000  0.75000000  1
  Cr  Cr4  1  0.00026800  0.00000000  0.24841200  1
  Cr  Cr5  1  0.00026800  0.00000000  0.75158800  1
  Cr  Cr6  1  0.99973200  0.50000000  0.25158800  1
  Cr  Cr7  1  0.99973200  0.50000000  0.74841200  1
  Ag  Ag8  1  0.33897500  0.00000000  0.00000000  1
  Ag  Ag9  1  0.66102500  0.50000000  0.50000000  1
  Ag  Ag10  1  0.02226500  0.00000000  0.50000000  1
  Ag  Ag11  1  0.97773500  0.50000000  0.00000000  1
  S  S12  1  0.83782200  0.25187000  0.35429000  1
  S  S13  1  0.83782200  0.74813000  0.64571000  1
  S  S14  1  0.16217800  0.75187000  0.14571000  1
  S  S15  1  0.16217800  0.24813000  0.85429000  1
  S  S16  1  0.16217800  0.24813000  0.14571000  1
  S  S17  1  0.16217800  0.75187000  0.85429000  1
  S  S18  1  0.83782200  0.74813000  0.35429000  1
  S  S19  1  0.83782200  0.25187000  0.64571000  1
  S  S20  1  0.66749000  0.00000000  0.14585400  1
  S  S21  1  0.66749000  0.00000000  0.85414600  1
  S  S22  1  0.33251000  0.50000000  0.35414600  1
  S  S23  1  0.33251000  0.50000000  0.64585400  1
  S  S24  1  0.33141200  0.00000000  0.35384900  1
  S  S25  1  0.33141200  0.00000000  0.64615100  1
  S  S26  1  0.66858800  0.50000000  0.14615100  1
  S  S27  1  0.66858800  0.50000000  0.85384900  1
