# generated using pymatgen
data_Eu2MgS4
_symmetry_space_group_name_H-M   'P 1'
_cell_length_a   13.07040656
_cell_length_b   7.79783238
_cell_length_c   12.78294406
_cell_angle_alpha   90.00000000
_cell_angle_beta   90.00000000
_cell_angle_gamma   90.00000000
_symmetry_Int_Tables_number   1
_chemical_formula_structural   Eu2MgS4
_chemical_formula_sum   'Eu16 Mg8 S32'
_cell_volume   1302.84838979
_cell_formula_units_Z   8
loop_
 _symmetry_equiv_pos_site_id
 _symmetry_equiv_pos_as_xyz
  1  'x, y, z'
loop_
 _atom_site_type_symbol
 _atom_site_label
 _atom_site_symmetry_multiplicity
 _atom_site_fract_x
 _atom_site_fract_y
 _atom_site_fract_z
 _atom_site_occupancy
  Eu  Eu0  1  0.10870908  0.88554012  0.68461053  1
  Eu  Eu1  1  0.89129092  0.11445988  0.18461053  1
  Eu  Eu2  1  0.39129092  0.88554012  0.18461053  1
  Eu  Eu3  1  0.60870908  0.11445988  0.68461053  1
  Eu  Eu4  1  0.12590918  0.38386466  0.32523388  1
  Eu  Eu5  1  0.87409082  0.61613534  0.82523388  1
  Eu  Eu6  1  0.37409082  0.38386466  0.82523388  1
  Eu  Eu7  1  0.62590918  0.61613534  0.32523388  1
  Eu  Eu8  1  0.13516961  0.63154668  0.99331901  1
  Eu  Eu9  1  0.86483039  0.36845332  0.49331901  1
  Eu  Eu10  1  0.36483039  0.63154668  0.49331901  1
  Eu  Eu11  1  0.63516961  0.36845332  0.99331901  1
  Eu  Eu12  1  0.13627051  0.12996079  0.99207302  1
  Eu  Eu13  1  0.86372949  0.87003921  0.49207302  1
  Eu  Eu14  1  0.36372949  0.12996079  0.49207302  1
  Eu  Eu15  1  0.63627051  0.87003921  0.99207302  1
  Mg  Mg16  1  0.11064219  0.38385614  0.69239092  1
  Mg  Mg17  1  0.88935781  0.61614386  0.19239092  1
  Mg  Mg18  1  0.38935781  0.38385614  0.19239092  1
  Mg  Mg19  1  0.61064219  0.61614386  0.69239092  1
  Mg  Mg20  1  0.12530732  0.87869585  0.32035666  1
  Mg  Mg21  1  0.87469268  0.12130415  0.82035666  1
  Mg  Mg22  1  0.37469268  0.87869585  0.82035666  1
  Mg  Mg23  1  0.62530732  0.12130415  0.32035666  1
  S  S24  1  0.01044075  0.88308978  0.87992388  1
  S  S25  1  0.98955925  0.11691022  0.37992388  1
  S  S26  1  0.48955925  0.88308978  0.37992388  1
  S  S27  1  0.51044075  0.11691022  0.87992388  1
  S  S28  1  0.02591185  0.38496870  0.13061786  1
  S  S29  1  0.97408815  0.61503130  0.63061786  1
  S  S30  1  0.47408815  0.38496870  0.63061786  1
  S  S31  1  0.52591185  0.61503130  0.13061786  1
  S  S32  1  0.02159783  0.37113304  0.87024533  1
  S  S33  1  0.97840217  0.62886696  0.37024533  1
  S  S34  1  0.47840217  0.37113304  0.37024533  1
  S  S35  1  0.52159783  0.62886696  0.87024533  1
  S  S36  1  0.04379806  0.87263495  0.14076198  1
  S  S37  1  0.95620194  0.12736505  0.64076198  1
  S  S38  1  0.45620194  0.87263495  0.64076198  1
  S  S39  1  0.54379806  0.12736505  0.14076198  1
  S  S40  1  0.20834668  0.88120972  0.49633952  1
  S  S41  1  0.79165332  0.11879028  0.99633952  1
  S  S42  1  0.29165332  0.88120972  0.99633952  1
  S  S43  1  0.70834668  0.11879028  0.49633952  1
  S  S44  1  0.20938628  0.38127943  0.52400484  1
  S  S45  1  0.79061372  0.61872057  0.02400484  1
  S  S46  1  0.29061372  0.38127943  0.02400484  1
  S  S47  1  0.70938628  0.61872057  0.52400484  1
  S  S48  1  0.23153360  0.13703867  0.77171608  1
  S  S49  1  0.76846640  0.86296133  0.27171608  1
  S  S50  1  0.26846640  0.13703867  0.27171608  1
  S  S51  1  0.73153360  0.86296133  0.77171608  1
  S  S52  1  0.23518713  0.63928498  0.77540749  1
  S  S53  1  0.76481287  0.36071502  0.27540749  1
  S  S54  1  0.26481287  0.63928498  0.27540749  1
  S  S55  1  0.73518713  0.36071502  0.77540749  1
