# generated using pymatgen
data_Ag3Se3NO3
_symmetry_space_group_name_H-M   'P 1'
_cell_length_a   6.08287651
_cell_length_b   6.87585777
_cell_length_c   13.51556079
_cell_angle_alpha   102.87661873
_cell_angle_beta   59.74773621
_cell_angle_gamma   116.25300643
_symmetry_Int_Tables_number   1
_chemical_formula_structural   Ag3Se3NO3
_chemical_formula_sum   'Ag6 Se6 N2 O6'
_cell_volume   437.93593558
_cell_formula_units_Z   2
loop_
 _symmetry_equiv_pos_site_id
 _symmetry_equiv_pos_as_xyz
  1  'x, y, z'
loop_
 _atom_site_type_symbol
 _atom_site_label
 _atom_site_symmetry_multiplicity
 _atom_site_fract_x
 _atom_site_fract_y
 _atom_site_fract_z
 _atom_site_occupancy
  Ag  Ag0  1  0.89630300  0.46926800  0.91348700  1
  Ag  Ag1  1  0.80504400  0.91571300  0.57338400  1
  Ag  Ag2  1  0.92703500  0.53073200  0.41348700  1
  Ag  Ag3  1  0.45839700  0.55380400  0.88750500  1
  Ag  Ag4  1  0.38933200  0.08428700  0.07338400  1
  Ag  Ag5  1  0.40459200  0.44619600  0.38750500  1
  Se  Se6  1  0.97955400  0.01979100  0.77844400  1
  Se  Se7  1  0.92793200  0.77236100  0.05372600  1
  Se  Se8  1  0.45976300  0.98020900  0.27844400  1
  Se  Se9  1  0.13748000  0.27854600  0.04450900  1
  Se  Se10  1  0.65557100  0.22763900  0.55372600  1
  Se  Se11  1  0.35893400  0.72145400  0.54450900  1
  N  N12  1  0.03409700  0.00891600  0.95956000  1
  N  N13  1  0.52518100  0.99108400  0.45956000  1
  O  O14  1  0.93299200  0.23921500  0.76910700  1
  O  O15  1  0.72897800  0.80736200  0.75162600  1
  O  O16  1  0.19377700  0.76078500  0.26910700  1
  O  O17  1  0.79985400  0.98268600  0.94545100  1
  O  O18  1  0.42161600  0.19263800  0.25162600  1
  O  O19  1  0.31716700  0.01731400  0.44545100  1
