# generated using pymatgen
data_FeHO2
_symmetry_space_group_name_H-M   'P 1'
_cell_length_a   7.59693052
_cell_length_b   7.59693052
_cell_length_c   7.59693052
_cell_angle_alpha   92.37284107
_cell_angle_beta   92.37284107
_cell_angle_gamma   156.51952365
_symmetry_Int_Tables_number   1
_chemical_formula_structural   FeHO2
_chemical_formula_sum   'Fe4 H4 O8'
_cell_volume   171.03771601
_cell_formula_units_Z   4
loop_
 _symmetry_equiv_pos_site_id
 _symmetry_equiv_pos_as_xyz
  1  'x, y, z'
loop_
 _atom_site_type_symbol
 _atom_site_label
 _atom_site_symmetry_multiplicity
 _atom_site_fract_x
 _atom_site_fract_y
 _atom_site_fract_z
 _atom_site_occupancy
  Fe  Fe0  1  0.83613200  0.36654400  0.20267700  1
  Fe  Fe1  1  0.16386800  0.63345600  0.79732300  1
  Fe  Fe2  1  0.36654400  0.16386800  0.53041200  1
  Fe  Fe3  1  0.63345600  0.83613200  0.46958800  1
  H  H4  1  0.88933000  0.12831100  0.01764100  1
  H  H5  1  0.11067000  0.87168900  0.98235900  1
  H  H6  1  0.12831100  0.11067000  0.23898200  1
  H  H7  1  0.87168900  0.88933000  0.76101800  1
  O  O8  1  0.80100900  0.15633600  0.95734500  1
  O  O9  1  0.19899100  0.84366400  0.04265500  1
  O  O10  1  0.15633600  0.19899100  0.35532700  1
  O  O11  1  0.84366400  0.80100900  0.64467300  1
  O  O12  1  0.83544500  0.55142000  0.38686500  1
  O  O13  1  0.16455500  0.44858000  0.61313500  1
  O  O14  1  0.55142000  0.16455500  0.71597500  1
  O  O15  1  0.44858000  0.83544500  0.28402500  1
