# generated using pymatgen
data_TaCr3(AgS4)2
_symmetry_space_group_name_H-M   'P 1'
_cell_length_a   6.45766400
_cell_length_b   7.63480929
_cell_length_c   12.74071599
_cell_angle_alpha   97.89037531
_cell_angle_beta   94.50028394
_cell_angle_gamma   90.03328266
_symmetry_Int_Tables_number   1
_chemical_formula_structural   TaCr3(AgS4)2
_chemical_formula_sum   'Ta2 Cr6 Ag4 S16'
_cell_volume   620.24960346
_cell_formula_units_Z   2
loop_
 _symmetry_equiv_pos_site_id
 _symmetry_equiv_pos_as_xyz
  1  'x, y, z'
loop_
 _atom_site_type_symbol
 _atom_site_label
 _atom_site_symmetry_multiplicity
 _atom_site_fract_x
 _atom_site_fract_y
 _atom_site_fract_z
 _atom_site_occupancy
  Ta  Ta0  1  0.14648100  0.70565700  0.29568700  1
  Ta  Ta1  1  0.77462600  0.11026200  0.99781900  1
  Cr  Cr2  1  0.84430800  0.29733500  0.70532400  1
  Cr  Cr3  1  0.24857900  0.88586700  0.99444700  1
  Cr  Cr4  1  0.65140800  0.44257500  0.29244700  1
  Cr  Cr5  1  0.35906900  0.55196800  0.71315500  1
  Cr  Cr6  1  0.63026500  0.94658900  0.28921400  1
  Cr  Cr7  1  0.37738100  0.05836000  0.70782200  1
  Ag  Ag8  1  0.87279500  0.79436100  0.69338600  1
  Ag  Ag9  1  0.10534500  0.20276000  0.29952900  1
  Ag  Ag10  1  0.73913800  0.62381900  0.99866500  1
  Ag  Ag11  1  0.25703200  0.37534400  0.99833600  1
  S  S12  1  0.86490200  0.32740700  0.88089200  1
  S  S13  1  0.12429400  0.67717300  0.11312100  1
  S  S14  1  0.91680500  0.86020700  0.89641900  1
  S  S15  1  0.10104000  0.13473400  0.09864500  1
  S  S16  1  0.75803600  0.21052600  0.36695500  1
  S  S17  1  0.24086600  0.78999300  0.64499700  1
  S  S18  1  0.81406400  0.71575700  0.35853400  1
  S  S19  1  0.18031100  0.29003700  0.65498100  1
  S  S20  1  0.67822300  0.05277900  0.62945500  1
  S  S21  1  0.31797900  0.95911900  0.37102400  1
  S  S22  1  0.66653000  0.51381200  0.64206200  1
  S  S23  1  0.32647300  0.47655700  0.35902600  1
  S  S24  1  0.57784200  0.92665300  0.10469800  1
  S  S25  1  0.41674800  0.07599800  0.88979200  1
  S  S26  1  0.63823600  0.37557600  0.11447300  1
  S  S27  1  0.37122200  0.61877600  0.88909400  1
