# generated using pymatgen
data_UClO5
_symmetry_space_group_name_H-M   'P 1'
_cell_length_a   5.94720600
_cell_length_b   10.59443000
_cell_length_c   18.34116288
_cell_angle_alpha   61.24265384
_cell_angle_beta   90.00000000
_cell_angle_gamma   90.00000000
_symmetry_Int_Tables_number   1
_chemical_formula_structural   UClO5
_chemical_formula_sum   'U8 Cl8 O40'
_cell_volume   1013.09728737
_cell_formula_units_Z   8
loop_
 _symmetry_equiv_pos_site_id
 _symmetry_equiv_pos_as_xyz
  1  'x, y, z'
loop_
 _atom_site_type_symbol
 _atom_site_label
 _atom_site_symmetry_multiplicity
 _atom_site_fract_x
 _atom_site_fract_y
 _atom_site_fract_z
 _atom_site_occupancy
  U  U0  1  0.19421700  0.15171100  0.83167600  1
  U  U1  1  0.30578300  0.15171100  0.33167600  1
  U  U2  1  0.80578300  0.84828900  0.16832400  1
  U  U3  1  0.69421700  0.84828900  0.66832400  1
  U  U4  1  0.85326600  0.36176100  0.66098500  1
  U  U5  1  0.64673400  0.36176100  0.16098500  1
  U  U6  1  0.14673400  0.63823900  0.33901500  1
  U  U7  1  0.35326600  0.63823900  0.83901500  1
  Cl  Cl8  1  0.94769400  0.79368900  0.92836400  1
  Cl  Cl9  1  0.55230600  0.79368900  0.42836400  1
  Cl  Cl10  1  0.05230600  0.20631100  0.07163600  1
  Cl  Cl11  1  0.44769400  0.20631100  0.57163600  1
  Cl  Cl12  1  0.10685700  0.71197800  0.57359200  1
  Cl  Cl13  1  0.39314300  0.71197800  0.07359200  1
  Cl  Cl14  1  0.89314300  0.28802200  0.42640800  1
  Cl  Cl15  1  0.60685700  0.28802200  0.92640800  1
  O  O16  1  0.88472600  0.15717100  0.77775900  1
  O  O17  1  0.61527400  0.15717100  0.27775900  1
  O  O18  1  0.11527400  0.84282900  0.22224100  1
  O  O19  1  0.38472600  0.84282900  0.72224100  1
  O  O20  1  0.19225200  0.34039600  0.72193400  1
  O  O21  1  0.30774800  0.34039600  0.22193400  1
  O  O22  1  0.80774800  0.65960400  0.27806600  1
  O  O23  1  0.69225200  0.65960400  0.77806600  1
  O  O24  1  0.33372600  0.04148400  0.79383200  1
  O  O25  1  0.16627400  0.04148400  0.29383200  1
  O  O26  1  0.66627400  0.95851600  0.20616800  1
  O  O27  1  0.83372600  0.95851600  0.70616800  1
  O  O28  1  0.07948900  0.19897100  0.90841400  1
  O  O29  1  0.42051100  0.19897100  0.40841400  1
  O  O30  1  0.92051100  0.80102900  0.09158600  1
  O  O31  1  0.57948900  0.80102900  0.59158600  1
  O  O32  1  0.96977400  0.30616800  0.58771800  1
  O  O33  1  0.53022600  0.30616800  0.08771800  1
  O  O34  1  0.03022600  0.69383200  0.41228200  1
  O  O35  1  0.46977400  0.69383200  0.91228200  1
  O  O36  1  0.75769400  0.45087600  0.71973300  1
  O  O37  1  0.74230600  0.45087600  0.21973300  1
  O  O38  1  0.24230600  0.54912400  0.28026700  1
  O  O39  1  0.25769400  0.54912400  0.78026700  1
  O  O40  1  0.54604600  0.22977500  0.86377600  1
  O  O41  1  0.95395400  0.22977500  0.36377600  1
  O  O42  1  0.45395400  0.77022500  0.13622400  1
  O  O43  1  0.04604600  0.77022500  0.63622400  1
  O  O44  1  0.48376200  0.98804100  0.97052500  1
  O  O45  1  0.01623800  0.98804100  0.47052500  1
  O  O46  1  0.51623800  0.01195900  0.02947500  1
  O  O47  1  0.98376200  0.01195900  0.52947500  1
  O  O48  1  0.50866700  0.24850800  0.64050500  1
  O  O49  1  0.99133300  0.24850800  0.14050500  1
  O  O50  1  0.49133300  0.75149200  0.35949500  1
  O  O51  1  0.00866700  0.75149200  0.85949500  1
  O  O52  1  0.68028400  0.52476100  0.56567600  1
  O  O53  1  0.81971600  0.52476100  0.06567600  1
  O  O54  1  0.31971600  0.47523900  0.43432400  1
  O  O55  1  0.18028400  0.47523900  0.93432400  1
