# generated using pymatgen
data_ScSe2
_symmetry_space_group_name_H-M   'P 1'
_cell_length_a   3.95085200
_cell_length_b   3.95085200
_cell_length_c   7.93330900
_cell_angle_alpha   90.00000000
_cell_angle_beta   90.00000000
_cell_angle_gamma   90.00000000
_symmetry_Int_Tables_number   1
_chemical_formula_structural   ScSe2
_chemical_formula_sum   'Sc2 Se4'
_cell_volume   123.83285695
_cell_formula_units_Z   2
loop_
 _symmetry_equiv_pos_site_id
 _symmetry_equiv_pos_as_xyz
  1  'x, y, z'
loop_
 _atom_site_type_symbol
 _atom_site_label
 _atom_site_symmetry_multiplicity
 _atom_site_fract_x
 _atom_site_fract_y
 _atom_site_fract_z
 _atom_site_occupancy
  Sc  Sc0  1  0.00000000  0.50000000  0.72677600  1
  Sc  Sc1  1  0.50000000  0.00000000  0.27322400  1
  Se  Se2  1  0.00000000  0.50000000  0.37331000  1
  Se  Se3  1  0.50000000  0.00000000  0.62669000  1
  Se  Se4  1  0.00000000  0.00000000  0.00000000  1
  Se  Se5  1  0.50000000  0.50000000  0.00000000  1
