# generated using pymatgen
data_Yb2MgSe4
_symmetry_space_group_name_H-M   'P 1'
_cell_length_a   8.31871500
_cell_length_b   8.31871500
_cell_length_c   9.54064100
_cell_angle_alpha   90.00000000
_cell_angle_beta   90.00000000
_cell_angle_gamma   90.00000000
_symmetry_Int_Tables_number   1
_chemical_formula_structural   Yb2MgSe4
_chemical_formula_sum   'Yb8 Mg4 Se16'
_cell_volume   660.22208151
_cell_formula_units_Z   4
loop_
 _symmetry_equiv_pos_site_id
 _symmetry_equiv_pos_as_xyz
  1  'x, y, z'
loop_
 _atom_site_type_symbol
 _atom_site_label
 _atom_site_symmetry_multiplicity
 _atom_site_fract_x
 _atom_site_fract_y
 _atom_site_fract_z
 _atom_site_occupancy
  Yb  Yb0  1  0.12158800  0.25000000  0.62500000  1
  Yb  Yb1  1  0.75000000  0.12158800  0.37500000  1
  Yb  Yb2  1  0.87841200  0.75000000  0.62500000  1
  Yb  Yb3  1  0.75000000  0.37841200  0.87500000  1
  Yb  Yb4  1  0.62158800  0.75000000  0.12500000  1
  Yb  Yb5  1  0.25000000  0.87841200  0.37500000  1
  Yb  Yb6  1  0.37841200  0.25000000  0.12500000  1
  Yb  Yb7  1  0.25000000  0.62158800  0.87500000  1
  Mg  Mg8  1  0.00000000  0.00000000  0.00000000  1
  Mg  Mg9  1  0.50000000  0.50000000  0.50000000  1
  Mg  Mg10  1  0.50000000  0.00000000  0.75000000  1
  Mg  Mg11  1  0.00000000  0.50000000  0.25000000  1
  Se  Se12  1  0.08780400  0.19925700  0.31301300  1
  Se  Se13  1  0.80074300  0.08780400  0.68698700  1
  Se  Se14  1  0.91219600  0.80074300  0.31301300  1
  Se  Se15  1  0.69925700  0.41219600  0.18698700  1
  Se  Se16  1  0.58780400  0.80074300  0.43698700  1
  Se  Se17  1  0.30074300  0.91219600  0.06301300  1
  Se  Se18  1  0.41219600  0.19925700  0.43698700  1
  Se  Se19  1  0.69925700  0.08780400  0.06301300  1
  Se  Se20  1  0.58780400  0.69925700  0.81301300  1
  Se  Se21  1  0.30074300  0.58780400  0.18698700  1
  Se  Se22  1  0.41219600  0.30074300  0.81301300  1
  Se  Se23  1  0.19925700  0.91219600  0.68698700  1
  Se  Se24  1  0.08780400  0.30074300  0.93698700  1
  Se  Se25  1  0.80074300  0.41219600  0.56301300  1
  Se  Se26  1  0.91219600  0.69925700  0.93698700  1
  Se  Se27  1  0.19925700  0.58780400  0.56301300  1
