# generated using pymatgen
data_Tm2MgS4
_symmetry_space_group_name_H-M   'P 1'
_cell_length_a   12.48411000
_cell_length_b   3.80487400
_cell_length_c   13.32874400
_cell_angle_alpha   90.00000000
_cell_angle_beta   90.00000000
_cell_angle_gamma   90.00000000
_symmetry_Int_Tables_number   1
_chemical_formula_structural   Tm2MgS4
_chemical_formula_sum   'Tm8 Mg4 S16'
_cell_volume   633.12154523
_cell_formula_units_Z   4
loop_
 _symmetry_equiv_pos_site_id
 _symmetry_equiv_pos_as_xyz
  1  'x, y, z'
loop_
 _atom_site_type_symbol
 _atom_site_label
 _atom_site_symmetry_multiplicity
 _atom_site_fract_x
 _atom_site_fract_y
 _atom_site_fract_z
 _atom_site_occupancy
  Tm  Tm0  1  0.11725800  0.25000000  0.07350200  1
  Tm  Tm1  1  0.88274200  0.75000000  0.92649800  1
  Tm  Tm2  1  0.38274200  0.75000000  0.57350200  1
  Tm  Tm3  1  0.61725800  0.25000000  0.42649800  1
  Tm  Tm4  1  0.13902900  0.25000000  0.70429300  1
  Tm  Tm5  1  0.86097100  0.75000000  0.29570700  1
  Tm  Tm6  1  0.36097100  0.75000000  0.20429300  1
  Tm  Tm7  1  0.63902900  0.25000000  0.79570700  1
  Mg  Mg8  1  0.11182400  0.75000000  0.45164000  1
  Mg  Mg9  1  0.88817600  0.25000000  0.54836000  1
  Mg  Mg10  1  0.38817600  0.25000000  0.95164000  1
  Mg  Mg11  1  0.61182400  0.75000000  0.04836000  1
  S  S12  1  0.00938300  0.75000000  0.61689300  1
  S  S13  1  0.99061700  0.25000000  0.38310700  1
  S  S14  1  0.49061700  0.25000000  0.11689300  1
  S  S15  1  0.50938300  0.75000000  0.88310700  1
  S  S16  1  0.02665300  0.25000000  0.88266700  1
  S  S17  1  0.97334700  0.75000000  0.11733300  1
  S  S18  1  0.47334700  0.75000000  0.38266700  1
  S  S19  1  0.52665300  0.25000000  0.61733300  1
  S  S20  1  0.22535100  0.25000000  0.24583500  1
  S  S21  1  0.77464900  0.75000000  0.75416500  1
  S  S22  1  0.27464900  0.75000000  0.74583500  1
  S  S23  1  0.72535100  0.25000000  0.25416500  1
  S  S24  1  0.26131300  0.75000000  0.01551100  1
  S  S25  1  0.73868700  0.25000000  0.98448900  1
  S  S26  1  0.23868700  0.25000000  0.51551100  1
  S  S27  1  0.76131300  0.75000000  0.48448900  1
