# generated using pymatgen
data_K2CoH12(SeO7)2
_symmetry_space_group_name_H-M   'P 1'
_cell_length_a   12.83316100
_cell_length_b   7.30565800
_cell_length_c   9.68438249
_cell_angle_alpha   70.47743699
_cell_angle_beta   90.00000000
_cell_angle_gamma   90.00000000
_symmetry_Int_Tables_number   1
_chemical_formula_structural   K2CoH12(SeO7)2
_chemical_formula_sum   'K4 Co2 H24 Se4 O28'
_cell_volume   855.75779715
_cell_formula_units_Z   2
loop_
 _symmetry_equiv_pos_site_id
 _symmetry_equiv_pos_as_xyz
  1  'x, y, z'
loop_
 _atom_site_type_symbol
 _atom_site_label
 _atom_site_symmetry_multiplicity
 _atom_site_fract_x
 _atom_site_fract_y
 _atom_site_fract_z
 _atom_site_occupancy
  K  K0  1  0.19040300  0.63451200  0.62804400  1
  K  K1  1  0.69040300  0.36548800  0.87195600  1
  K  K2  1  0.80959700  0.36548800  0.37195600  1
  K  K3  1  0.30959700  0.63451200  0.12804400  1
  Co  Co4  1  0.50000000  0.00000000  0.50000000  1
  Co  Co5  1  0.00000000  0.00000000  0.00000000  1
  H  H6  1  0.51647400  0.19726600  0.71661900  1
  H  H7  1  0.01647400  0.80273400  0.78338100  1
  H  H8  1  0.48352600  0.80273400  0.28338100  1
  H  H9  1  0.98352600  0.19726600  0.21661900  1
  H  H10  1  0.29019200  0.99713500  0.77814300  1
  H  H11  1  0.79019200  0.00286500  0.72185700  1
  H  H12  1  0.70980800  0.00286500  0.22185700  1
  H  H13  1  0.20980800  0.99713500  0.27814300  1
  H  H14  1  0.42485900  0.17475100  0.20554900  1
  H  H15  1  0.92485900  0.82524900  0.29445100  1
  H  H16  1  0.57514100  0.82524900  0.79445100  1
  H  H17  1  0.07514100  0.17475100  0.70554900  1
  H  H18  1  0.31169300  0.93216600  0.36563800  1
  H  H19  1  0.81169300  0.06783400  0.13436200  1
  H  H20  1  0.68830700  0.06783400  0.63436200  1
  H  H21  1  0.18830700  0.93216600  0.86563800  1
  H  H22  1  0.50579000  0.58008700  0.31654100  1
  H  H23  1  0.00579000  0.41991300  0.18345900  1
  H  H24  1  0.49421000  0.41991300  0.68345900  1
  H  H25  1  0.99421000  0.58008700  0.81654100  1
  H  H26  1  0.65157700  0.77457700  0.46541700  1
  H  H27  1  0.15157700  0.22542300  0.03458300  1
  H  H28  1  0.34842300  0.22542300  0.53458300  1
  H  H29  1  0.84842300  0.77457700  0.96541700  1
  Se  Se30  1  0.33360900  0.25144100  0.97876200  1
  Se  Se31  1  0.83360900  0.74855900  0.52123800  1
  Se  Se32  1  0.66639100  0.74855900  0.02123800  1
  Se  Se33  1  0.16639100  0.25144100  0.47876200  1
  O  O34  1  0.30085700  0.47566200  0.87945700  1
  O  O35  1  0.80085700  0.52433800  0.62054300  1
  O  O36  1  0.69914300  0.52433800  0.12054300  1
  O  O37  1  0.19914300  0.47566200  0.37945700  1
  O  O38  1  0.41061400  0.30023800  0.11671100  1
  O  O39  1  0.91061400  0.69976200  0.38328900  1
  O  O40  1  0.58938600  0.69976200  0.88328900  1
  O  O41  1  0.08938600  0.30023800  0.61671100  1
  O  O42  1  0.50275300  0.29699300  0.76413900  1
  O  O43  1  0.00275300  0.70300700  0.73586100  1
  O  O44  1  0.49724700  0.70300700  0.23586100  1
  O  O45  1  0.99724700  0.29699300  0.26413900  1
  O  O46  1  0.26503500  0.91112100  0.87434300  1
  O  O47  1  0.76503500  0.08887900  0.62565700  1
  O  O48  1  0.73496500  0.08887900  0.12565700  1
  O  O49  1  0.23496500  0.91112100  0.37434300  1
  O  O50  1  0.28370500  0.17839100  0.59649600  1
  O  O51  1  0.78370500  0.82160900  0.90350400  1
  O  O52  1  0.71629500  0.82160900  0.40350400  1
  O  O53  1  0.21629500  0.17839100  0.09649600  1
  O  O54  1  0.44094900  0.98968100  0.33676600  1
  O  O55  1  0.94094900  0.01031900  0.16323400  1
  O  O56  1  0.55905100  0.01031900  0.66323400  1
  O  O57  1  0.05905100  0.98968100  0.83676600  1
  O  O58  1  0.53482400  0.75796700  0.54464500  1
  O  O59  1  0.03482400  0.24203300  0.95535500  1
  O  O60  1  0.46517600  0.24203300  0.45535500  1
  O  O61  1  0.96517600  0.75796700  0.04464500  1
