# generated using pymatgen
data_BaSi(HO2)2
_symmetry_space_group_name_H-M   'P 1'
_cell_length_a   7.19790700
_cell_length_b   7.55421988
_cell_length_c   7.70287646
_cell_angle_alpha   89.91687622
_cell_angle_beta   89.67604097
_cell_angle_gamma   78.14443979
_symmetry_Int_Tables_number   1
_chemical_formula_structural   BaSi(HO2)2
_chemical_formula_sum   'Ba4 Si4 H8 O16'
_cell_volume   409.89959677
_cell_formula_units_Z   4
loop_
 _symmetry_equiv_pos_site_id
 _symmetry_equiv_pos_as_xyz
  1  'x, y, z'
loop_
 _atom_site_type_symbol
 _atom_site_label
 _atom_site_symmetry_multiplicity
 _atom_site_fract_x
 _atom_site_fract_y
 _atom_site_fract_z
 _atom_site_occupancy
  Ba  Ba0  1  0.08338200  0.78648900  0.20494900  1
  Ba  Ba1  1  0.91661800  0.21351100  0.79505100  1
  Ba  Ba2  1  0.41405400  0.71795100  0.70517300  1
  Ba  Ba3  1  0.58594600  0.28204900  0.29482700  1
  Si  Si4  1  0.59501700  0.74843900  0.23574000  1
  Si  Si5  1  0.40498300  0.25156100  0.76426000  1
  Si  Si6  1  0.09452700  0.25640200  0.26444100  1
  Si  Si7  1  0.90547300  0.74359800  0.73555900  1
  H  H8  1  0.77319800  0.58420600  0.00979100  1
  H  H9  1  0.22680200  0.41579400  0.99020900  1
  H  H10  1  0.27336100  0.09803500  0.49080500  1
  H  H11  1  0.72663900  0.90196500  0.50919500  1
  H  H12  1  0.09752200  0.53300700  0.56631800  1
  H  H13  1  0.90247800  0.46699300  0.43368200  1
  H  H14  1  0.59419600  0.03466900  0.92138800  1
  H  H15  1  0.40580400  0.96533100  0.07861200  1
  O  O16  1  0.70566900  0.89878500  0.31021100  1
  O  O17  1  0.29433100  0.10121500  0.68978900  1
  O  O18  1  0.96890900  0.16189900  0.13570200  1
  O  O19  1  0.03109100  0.83810100  0.86429800  1
  O  O20  1  0.74909000  0.57803900  0.14256800  1
  O  O21  1  0.25091000  0.42196100  0.85743200  1
  O  O22  1  0.45683700  0.83687900  0.06190200  1
  O  O23  1  0.54316300  0.16312100  0.93809800  1
  O  O24  1  0.95598000  0.33764800  0.44140700  1
  O  O25  1  0.04402000  0.66235200  0.55859300  1
  O  O26  1  0.20075100  0.40944200  0.18767100  1
  O  O27  1  0.79924900  0.59055800  0.81232900  1
  O  O28  1  0.46620600  0.65977200  0.36768400  1
  O  O29  1  0.53379400  0.34022800  0.63231600  1
  O  O30  1  0.25458200  0.09076900  0.35751600  1
  O  O31  1  0.74541800  0.90923100  0.64248400  1
