# generated using pymatgen
data_Pr2MgSe4
_symmetry_space_group_name_H-M   'P 1'
_cell_length_a   6.97783700
_cell_length_b   8.62661300
_cell_length_c   14.72078900
_cell_angle_alpha   90.00000000
_cell_angle_beta   90.00000000
_cell_angle_gamma   90.00000000
_symmetry_Int_Tables_number   1
_chemical_formula_structural   Pr2MgSe4
_chemical_formula_sum   'Pr8 Mg4 Se16'
_cell_volume   886.11935675
_cell_formula_units_Z   4
loop_
 _symmetry_equiv_pos_site_id
 _symmetry_equiv_pos_as_xyz
  1  'x, y, z'
loop_
 _atom_site_type_symbol
 _atom_site_label
 _atom_site_symmetry_multiplicity
 _atom_site_fract_x
 _atom_site_fract_y
 _atom_site_fract_z
 _atom_site_occupancy
  Pr  Pr0  1  0.50000000  0.00000000  0.00000000  1
  Pr  Pr1  1  0.00000000  0.00000000  0.50000000  1
  Pr  Pr2  1  0.00000000  0.50000000  0.50000000  1
  Pr  Pr3  1  0.50000000  0.50000000  0.00000000  1
  Pr  Pr4  1  0.00021100  0.75000000  0.23265500  1
  Pr  Pr5  1  0.99978900  0.25000000  0.76734500  1
  Pr  Pr6  1  0.50021100  0.25000000  0.26734500  1
  Pr  Pr7  1  0.49978900  0.75000000  0.73265500  1
  Mg  Mg8  1  0.91851200  0.25000000  0.09223400  1
  Mg  Mg9  1  0.08148800  0.75000000  0.90776600  1
  Mg  Mg10  1  0.41851200  0.75000000  0.40776600  1
  Mg  Mg11  1  0.58148800  0.25000000  0.59223400  1
  Se  Se12  1  0.74829400  0.01494600  0.16822100  1
  Se  Se13  1  0.25170600  0.98505400  0.83177900  1
  Se  Se14  1  0.24829400  0.98505400  0.33177900  1
  Se  Se15  1  0.75170600  0.01494600  0.66822100  1
  Se  Se16  1  0.75170600  0.48505400  0.66822100  1
  Se  Se17  1  0.24829400  0.51494600  0.33177900  1
  Se  Se18  1  0.25170600  0.51494600  0.83177900  1
  Se  Se19  1  0.74829400  0.48505400  0.16822100  1
  Se  Se20  1  0.24317600  0.75000000  0.06802800  1
  Se  Se21  1  0.75682400  0.25000000  0.93197200  1
  Se  Se22  1  0.74317600  0.25000000  0.43197200  1
  Se  Se23  1  0.25682400  0.75000000  0.56802800  1
  Se  Se24  1  0.28282600  0.25000000  0.09227300  1
  Se  Se25  1  0.71717400  0.75000000  0.90772700  1
  Se  Se26  1  0.78282600  0.75000000  0.40772700  1
  Se  Se27  1  0.21717400  0.25000000  0.59227300  1
