# generated using pymatgen
data_Li2O
_symmetry_space_group_name_H-M   'P 1'
_cell_length_a   10.72756752
_cell_length_b   10.40012540
_cell_length_c   9.37080382
_cell_angle_alpha   90.64512268
_cell_angle_beta   89.05603496
_cell_angle_gamma   93.60072808
_symmetry_Int_Tables_number   1
_chemical_formula_structural   Li2O
_chemical_formula_sum   'Li68 O34'
_cell_volume   1043.22205714
_cell_formula_units_Z   34
loop_
 _symmetry_equiv_pos_site_id
 _symmetry_equiv_pos_as_xyz
  1  'x, y, z'
loop_
 _atom_site_type_symbol
 _atom_site_label
 _atom_site_symmetry_multiplicity
 _atom_site_fract_x
 _atom_site_fract_y
 _atom_site_fract_z
 _atom_site_occupancy
  Li  Li0  1  0.54903000  0.27065200  0.79238100  1
  Li  Li1  1  0.58413700  0.98350100  0.25868100  1
  Li  Li2  1  0.49808300  0.79277200  0.72897100  1
  Li  Li3  1  0.62797800  0.49237700  0.87848600  1
  Li  Li4  1  0.62456100  0.05977800  0.89744400  1
  Li  Li5  1  0.17360700  0.48501100  0.47723500  1
  Li  Li6  1  0.78716500  0.87634500  0.17630100  1
  Li  Li7  1  0.10350200  0.30908700  0.35775700  1
  Li  Li8  1  0.62872100  0.32900800  0.32690800  1
  Li  Li9  1  0.87963300  0.45175500  0.39918000  1
  Li  Li10  1  0.69540000  0.70844000  0.82256500  1
  Li  Li11  1  0.34277800  0.34729300  0.66260000  1
  Li  Li12  1  0.86883600  0.02097000  0.01000600  1
  Li  Li13  1  0.93989400  0.14766600  0.22253300  1
  Li  Li14  1  0.33338900  0.29343800  0.41889400  1
  Li  Li15  1  0.62099200  0.62615800  0.40724200  1
  Li  Li16  1  0.27193100  0.69782900  0.34174700  1
  Li  Li17  1  0.35190600  0.67212100  0.10291700  1
  Li  Li18  1  0.27807300  0.15793800  0.94451500  1
  Li  Li19  1  0.85236900  0.89828600  0.75571500  1
  Li  Li20  1  0.78092400  0.24579200  0.44875300  1
  Li  Li21  1  0.38350100  0.35838500  0.89948200  1
  Li  Li22  1  0.92777100  0.36838900  0.16289700  1
  Li  Li23  1  0.21808000  0.37564400  0.09270100  1
  Li  Li24  1  0.24629800  0.68381900  0.73535800  1
  Li  Li25  1  0.45282900  0.59575700  0.89664000  1
  Li  Li26  1  0.32309600  0.92159900  0.87155300  1
  Li  Li27  1  0.08484100  0.93104600  0.65879900  1
  Li  Li28  1  0.72368400  0.14229600  0.15146700  1
  Li  Li29  1  0.99194700  0.26577200  0.56358500  1
  Li  Li30  1  0.73947100  0.03591400  0.67684400  1
  Li  Li31  1  0.59906900  0.16061800  0.56253200  1
  Li  Li32  1  0.06392300  0.94509900  0.08105900  1
  Li  Li33  1  0.49647800  0.80445200  0.39704900  1
  Li  Li34  1  0.22719700  0.50037600  0.90318200  1
  Li  Li35  1  0.20492000  0.76462700  0.97889900  1
  Li  Li36  1  0.28154800  0.92297500  0.50308600  1
  Li  Li37  1  0.83544100  0.65200400  0.28214000  1
  Li  Li38  1  0.95792700  0.50513100  0.81071700  1
  Li  Li39  1  0.68670100  0.82758400  0.56893500  1
  Li  Li40  1  0.82807400  0.57971500  0.58819900  1
  Li  Li41  1  0.59042100  0.83832200  0.96399300  1
  Li  Li42  1  0.07766400  0.59079500  0.07392400  1
  Li  Li43  1  0.82435900  0.23625800  0.85788300  1
  Li  Li44  1  0.06093700  0.83373000  0.28909100  1
  Li  Li45  1  0.27016700  0.90568500  0.20877800  1
  Li  Li46  1  0.41327700  0.04672900  0.09146100  1
  Li  Li47  1  0.51424700  0.53291000  0.14786900  1
  Li  Li48  1  0.40776400  0.10103600  0.73324300  1
  Li  Li49  1  0.88913700  0.80664600  0.45353700  1
  Li  Li50  1  0.09212100  0.71327700  0.52215000  1
  Li  Li51  1  0.47012700  0.12650100  0.38311000  1
  Li  Li52  1  0.77762600  0.99326900  0.38494400  1
  Li  Li53  1  0.61564300  0.54310300  0.64753200  1
  Li  Li54  1  0.99146500  0.00605600  0.43018300  1
  Li  Li55  1  0.24579900  0.14472500  0.59057000  1
  Li  Li56  1  0.05007400  0.58676300  0.28806400  1
  Li  Li57  1  0.13508500  0.01189400  0.87004900  1
  Li  Li58  1  0.53078300  0.36974500  0.53193300  1
  Li  Li59  1  0.12165000  0.33932500  0.72591700  1
  Li  Li60  1  0.98666500  0.73961400  0.89772600  1
  Li  Li61  1  0.34069900  0.48647400  0.25489700  1
  Li  Li62  1  0.02118600  0.26883600  0.92391700  1
  Li  Li63  1  0.45003300  0.30557500  0.10995000  1
  Li  Li64  1  0.78871700  0.57855500  0.00960700  1
  Li  Li65  1  0.59783900  0.73222000  0.18573000  1
  Li  Li66  1  0.77805800  0.36963600  0.68304400  1
  Li  Li67  1  0.41104100  0.61698200  0.50720700  1
  O  O68  1  0.93950700  0.96610800  0.23102400  1
  O  O69  1  0.55768600  0.69522500  0.57695400  1
  O  O70  1  0.70769200  0.43109900  0.48914400  1
  O  O71  1  0.24615300  0.64149000  0.53833500  1
  O  O72  1  0.90812500  0.54849900  0.14294400  1
  O  O73  1  0.36805200  0.48151400  0.04132500  1
  O  O74  1  0.49054600  0.43806900  0.75102400  1
  O  O75  1  0.68995100  0.19380100  0.73365000  1
  O  O76  1  0.78240100  0.55714500  0.78438900  1
  O  O77  1  0.10676200  0.62100800  0.87201600  1
  O  O78  1  0.45657800  0.18316100  0.94581300  1
  O  O79  1  0.65802700  0.13768000  0.35997800  1
  O  O80  1  0.88076000  0.20958200  0.04744900  1
  O  O81  1  0.94294800  0.63204900  0.44607000  1
  O  O82  1  0.41264400  0.95703900  0.32311000  1
  O  O83  1  0.71406600  0.78575500  0.33298100  1
  O  O84  1  0.20055400  0.31045600  0.89781100  1
  O  O85  1  0.42931100  0.20611700  0.57013400  1
  O  O86  1  0.61965900  0.64092900  0.00753400  1
  O  O87  1  0.18525700  0.30666500  0.54093100  1
  O  O88  1  0.94864900  0.32929200  0.74529900  1
  O  O89  1  0.98213600  0.91746500  0.88626100  1
  O  O90  1  0.16180100  0.44896600  0.26117400  1
  O  O91  1  0.46299100  0.35328500  0.29863200  1
  O  O92  1  0.44870300  0.65146500  0.28710800  1
  O  O93  1  0.25251900  0.00596900  0.71604900  1
  O  O94  1  0.93529700  0.27437400  0.36994200  1
  O  O95  1  0.23800200  0.99640100  0.03439700  1
  O  O96  1  0.85123800  0.95416000  0.56089000  1
  O  O97  1  0.66188000  0.88835900  0.77843700  1
  O  O98  1  0.37401800  0.75550800  0.88444600  1
  O  O99  1  0.10934200  0.89044900  0.46811400  1
  O  O100  1  0.17273300  0.73732500  0.17719500  1
  O  O101  1  0.66558700  0.97599700  0.07944300  1
