# generated using pymatgen
data_Cr4CN4
_symmetry_space_group_name_H-M   'P 1'
_cell_length_a   9.38225500
_cell_length_b   2.71794600
_cell_length_c   12.35092700
_cell_angle_alpha   90.00000000
_cell_angle_beta   90.00000000
_cell_angle_gamma   90.00000000
_symmetry_Int_Tables_number   1
_chemical_formula_structural   Cr4CN4
_chemical_formula_sum   'Cr16 C4 N16'
_cell_volume   314.95435016
_cell_formula_units_Z   4
loop_
 _symmetry_equiv_pos_site_id
 _symmetry_equiv_pos_as_xyz
  1  'x, y, z'
loop_
 _atom_site_type_symbol
 _atom_site_label
 _atom_site_symmetry_multiplicity
 _atom_site_fract_x
 _atom_site_fract_y
 _atom_site_fract_z
 _atom_site_occupancy
  Cr  Cr0  1  0.08045400  0.25000000  0.17937600  1
  Cr  Cr1  1  0.58045400  0.25000000  0.32062400  1
  Cr  Cr2  1  0.91954600  0.75000000  0.82062400  1
  Cr  Cr3  1  0.41954600  0.75000000  0.67937600  1
  Cr  Cr4  1  0.81396500  0.25000000  0.07241700  1
  Cr  Cr5  1  0.31396500  0.25000000  0.42758300  1
  Cr  Cr6  1  0.18603500  0.75000000  0.92758300  1
  Cr  Cr7  1  0.68603500  0.75000000  0.57241700  1
  Cr  Cr8  1  0.40442300  0.25000000  0.86300700  1
  Cr  Cr9  1  0.90442300  0.25000000  0.63699300  1
  Cr  Cr10  1  0.59557700  0.75000000  0.13699300  1
  Cr  Cr11  1  0.09557700  0.75000000  0.36300700  1
  Cr  Cr12  1  0.12955300  0.25000000  0.73126200  1
  Cr  Cr13  1  0.62955300  0.25000000  0.76873800  1
  Cr  Cr14  1  0.87044700  0.75000000  0.26873800  1
  Cr  Cr15  1  0.37044700  0.75000000  0.23126200  1
  C  C16  1  0.34074600  0.25000000  0.02221700  1
  C  C17  1  0.84074600  0.25000000  0.47778300  1
  C  C18  1  0.65925400  0.75000000  0.97778300  1
  C  C19  1  0.15925400  0.75000000  0.52221700  1
  N  N20  1  0.72563600  0.25000000  0.21639500  1
  N  N21  1  0.22563600  0.25000000  0.28360500  1
  N  N22  1  0.27436400  0.75000000  0.78360500  1
  N  N23  1  0.77436400  0.75000000  0.71639500  1
  N  N24  1  0.04653600  0.25000000  0.87194900  1
  N  N25  1  0.54653600  0.25000000  0.62805100  1
  N  N26  1  0.95346400  0.75000000  0.12805100  1
  N  N27  1  0.45346400  0.75000000  0.37194900  1
  N  N28  1  0.19720600  0.25000000  0.04304300  1
  N  N29  1  0.69720600  0.25000000  0.45695700  1
  N  N30  1  0.80279400  0.75000000  0.95695700  1
  N  N31  1  0.30279400  0.75000000  0.54304300  1
  N  N32  1  0.43290800  0.25000000  0.11131900  1
  N  N33  1  0.93290800  0.25000000  0.38868100  1
  N  N34  1  0.56709200  0.75000000  0.88868100  1
  N  N35  1  0.06709200  0.75000000  0.61131900  1
