# generated using pymatgen
data_ZnS
_symmetry_space_group_name_H-M   'P 1'
_cell_length_a   13.04084007
_cell_length_b   14.29959025
_cell_length_c   13.05909939
_cell_angle_alpha   82.25687911
_cell_angle_beta   96.76129244
_cell_angle_gamma   90.45961364
_symmetry_Int_Tables_number   1
_chemical_formula_structural   ZnS
_chemical_formula_sum   'Zn50 S50'
_cell_volume   2396.18102104
_cell_formula_units_Z   50
loop_
 _symmetry_equiv_pos_site_id
 _symmetry_equiv_pos_as_xyz
  1  'x, y, z'
loop_
 _atom_site_type_symbol
 _atom_site_label
 _atom_site_symmetry_multiplicity
 _atom_site_fract_x
 _atom_site_fract_y
 _atom_site_fract_z
 _atom_site_occupancy
  Zn  Zn0  1  0.40702322  0.28910948  0.09041103  1
  Zn  Zn1  1  0.50368346  0.31111749  0.45776117  1
  Zn  Zn2  1  0.52682203  0.37290990  0.19474973  1
  Zn  Zn3  1  0.04933219  0.84409788  0.06779080  1
  Zn  Zn4  1  0.57157744  0.06534213  0.58059682  1
  Zn  Zn5  1  0.57807559  0.72961654  0.02832438  1
  Zn  Zn6  1  0.66596933  0.95225243  0.17423192  1
  Zn  Zn7  1  0.87376849  0.32956200  0.41469245  1
  Zn  Zn8  1  0.70031000  0.96821727  0.72742581  1
  Zn  Zn9  1  0.29194824  0.83719125  0.03588007  1
  Zn  Zn10  1  0.52295651  0.98879343  0.35195830  1
  Zn  Zn11  1  0.90947391  0.24103665  0.89615774  1
  Zn  Zn12  1  0.25039283  0.60564102  0.64027310  1
  Zn  Zn13  1  0.83846484  0.70572047  0.21513556  1
  Zn  Zn14  1  0.77442579  0.42206141  0.75361890  1
  Zn  Zn15  1  0.58602148  0.38476303  0.91314845  1
  Zn  Zn16  1  0.39332070  0.68736761  0.04914142  1
  Zn  Zn17  1  0.84097703  0.09954768  0.58016642  1
  Zn  Zn18  1  0.98384145  0.19482331  0.16735237  1
  Zn  Zn19  1  0.48844744  0.69393540  0.86007511  1
  Zn  Zn20  1  0.18777243  0.94887499  0.29252579  1
  Zn  Zn21  1  0.27669035  0.86731244  0.69197217  1
  Zn  Zn22  1  0.73592927  0.54288861  0.93936705  1
  Zn  Zn23  1  0.96361989  0.10408550  0.37497628  1
  Zn  Zn24  1  0.53760820  0.57055202  0.36649362  1
  Zn  Zn25  1  0.98954968  0.85499108  0.31272963  1
  Zn  Zn26  1  0.74822929  0.91590535  0.93158679  1
  Zn  Zn27  1  0.99770407  0.45286785  0.43896087  1
  Zn  Zn28  1  0.59995297  0.57995243  0.64867883  1
  Zn  Zn29  1  0.25778575  0.10563198  0.86274440  1
  Zn  Zn30  1  0.10381021  0.87792098  0.46430144  1
  Zn  Zn31  1  0.39310998  0.26153951  0.73384439  1
  Zn  Zn32  1  0.73127168  0.11753923  0.33249162  1
  Zn  Zn33  1  0.14543430  0.10923127  0.00856554  1
  Zn  Zn34  1  0.66980091  0.76452381  0.82081947  1
  Zn  Zn35  1  0.55871766  0.89632066  0.83671000  1
  Zn  Zn36  1  0.72537011  0.78300641  0.38142768  1
  Zn  Zn37  1  0.16480746  0.65911733  0.33931395  1
  Zn  Zn38  1  0.32004021  0.44823541  0.90005616  1
  Zn  Zn39  1  0.24939403  0.22705088  0.27958135  1
  Zn  Zn40  1  0.92160460  0.64342614  0.71499308  1
  Zn  Zn41  1  0.29612323  0.82713641  0.41948208  1
  Zn  Zn42  1  0.01786337  0.44337842  0.73149062  1
  Zn  Zn43  1  0.99566979  0.92038021  0.69368550  1
  Zn  Zn44  1  0.59772580  0.88842028  0.56995138  1
  Zn  Zn45  1  0.81094688  0.34425830  0.02406832  1
  Zn  Zn46  1  0.81388474  0.57639044  0.51075382  1
  Zn  Zn47  1  0.21782589  0.63759114  0.89360689  1
  Zn  Zn48  1  0.11911125  0.21583866  0.81500519  1
  Zn  Zn49  1  0.27315783  0.43212015  0.43140202  1
  S  S50  1  0.35988532  0.98443626  0.93209589  1
  S  S51  1  0.63917231  0.18700783  0.45616212  1
  S  S52  1  0.67900182  0.42433397  0.06858683  1
  S  S53  1  0.32449076  0.71099331  0.76074689  1
  S  S54  1  0.32608528  0.28162670  0.42414879  1
  S  S55  1  0.80818294  0.86530463  0.24963273  1
  S  S56  1  0.41315545  0.02992784  0.47070716  1
  S  S57  1  0.13647184  0.95743897  0.60800419  1
  S  S58  1  0.95126095  0.10016148  0.01988390  1
  S  S59  1  0.58826262  0.42041392  0.35061921  1
  S  S60  1  0.17922443  0.50821382  0.77972635  1
  S  S61  1  0.88043264  0.52473144  0.84249959  1
  S  S62  1  0.02203867  0.76543471  0.77226877  1
  S  S63  1  0.57691285  0.54972944  0.82486600  1
  S  S64  1  0.17751959  0.71669733  0.50256504  1
  S  S65  1  0.98298529  0.31973189  0.03776814  1
  S  S66  1  0.18198789  0.95137800  0.10584606  1
  S  S67  1  0.42320250  0.31943758  0.89875703  1
  S  S68  1  0.60439363  0.89253384  0.02648270  1
  S  S69  1  0.76535092  0.24703624  0.54104639  1
  S  S70  1  0.46228854  0.61382784  0.51528945  1
  S  S71  1  0.97038793  0.28730115  0.73793491  1
  S  S72  1  0.10780703  0.11532785  0.29612309  1
  S  S73  1  0.24146811  0.19261973  0.69809013  1
  S  S74  1  0.25435081  0.21580909  0.11107275  1
  S  S75  1  0.98531067  0.55313828  0.58079105  1
  S  S76  1  0.41645090  0.64558039  0.23824649  1
  S  S77  1  0.67788374  0.73969661  0.65017713  1
  S  S78  1  0.31002563  0.53990989  0.02628777  1
  S  S79  1  0.36605615  0.50301980  0.57157634  1
  S  S80  1  0.31030408  0.74264229  0.27564429  1
  S  S81  1  0.01663499  0.72998246  0.20989206  1
  S  S82  1  0.56766204  0.83554108  0.40432979  1
  S  S83  1  0.91010607  0.95779678  0.01149017  1
  S  S84  1  0.81399089  0.74203766  0.57638605  1
  S  S85  1  0.84609164  0.01092263  0.44757919  1
  S  S86  1  0.87660256  0.01850758  0.73882056  1
  S  S87  1  0.73745381  0.62788472  0.34193502  1
  S  S88  1  0.13073995  0.50046942  0.33975542  1
  S  S89  1  0.70291753  0.47448136  0.59136851  1
  S  S90  1  0.75847078  0.66742661  0.04869661  1
  S  S91  1  0.40124711  0.89338961  0.55359072  1
  S  S92  1  0.55203403  0.15273856  0.71348346  1
  S  S93  1  0.11261942  0.76289351  0.92056555  1
  S  S94  1  0.82561836  0.75771217  0.93473680  1
  S  S95  1  0.59099577  0.07951025  0.22038231  1
  S  S96  1  0.39921414  0.96083686  0.78745586  1
  S  S97  1  0.72764611  0.29316432  0.86317550  1
  S  S98  1  0.53383691  0.29722824  0.64561054  1
  S  S99  1  0.85267377  0.23073676  0.27809926  1
