# generated using pymatgen
data_Y2O3
_symmetry_space_group_name_H-M   'P 1'
_cell_length_a   11.43482522
_cell_length_b   11.58734690
_cell_length_c   12.05990394
_cell_angle_alpha   94.83433519
_cell_angle_beta   85.52794331
_cell_angle_gamma   90.80127150
_symmetry_Int_Tables_number   1
_chemical_formula_structural   Y2O3
_chemical_formula_sum   'Y40 O60'
_cell_volume   1587.35227481
_cell_formula_units_Z   20
loop_
 _symmetry_equiv_pos_site_id
 _symmetry_equiv_pos_as_xyz
  1  'x, y, z'
loop_
 _atom_site_type_symbol
 _atom_site_label
 _atom_site_symmetry_multiplicity
 _atom_site_fract_x
 _atom_site_fract_y
 _atom_site_fract_z
 _atom_site_occupancy
  Y  Y0  1  0.91683455  0.48804163  0.69152699  1
  Y  Y1  1  0.90546373  0.29003442  0.94231647  1
  Y  Y2  1  0.62259276  0.20549618  0.00522135  1
  Y  Y3  1  0.15730333  0.52306772  0.91535318  1
  Y  Y4  1  0.21233832  0.83307318  0.32664927  1
  Y  Y5  1  0.85737805  0.99842931  0.34349553  1
  Y  Y6  1  0.64076307  0.89839073  0.51244953  1
  Y  Y7  1  0.43171982  0.59002934  0.77828078  1
  Y  Y8  1  0.12427070  0.32439835  0.41382878  1
  Y  Y9  1  0.34516127  0.56656803  0.36338392  1
  Y  Y10  1  0.30948371  0.03968238  0.13429380  1
  Y  Y11  1  0.04919843  0.05476440  0.53061668  1
  Y  Y12  1  0.56791179  0.86458922  0.98127722  1
  Y  Y13  1  0.69935940  0.55912532  0.93487396  1
  Y  Y14  1  0.70638901  0.76823958  0.74014010  1
  Y  Y15  1  0.42093226  0.58866760  0.07190511  1
  Y  Y16  1  0.16818730  0.60645486  0.60296513  1
  Y  Y17  1  0.65274732  0.33193480  0.72627411  1
  Y  Y18  1  0.87359854  0.46829147  0.18174201  1
  Y  Y19  1  0.48288851  0.08230211  0.70387335  1
  Y  Y20  1  0.11943169  0.06978578  0.83489351  1
  Y  Y21  1  0.01346818  0.17679832  0.18389983  1
  Y  Y22  1  0.21255239  0.30946283  0.67126357  1
  Y  Y23  1  0.34754472  0.10334886  0.45246182  1
  Y  Y24  1  0.35709642  0.31574777  0.91071962  1
  Y  Y25  1  0.34231526  0.31209158  0.19844477  1
  Y  Y26  1  0.93249606  0.78051721  0.52453990  1
  Y  Y27  1  0.69687390  0.73461424  0.20039170  1
  Y  Y28  1  0.60613675  0.40692861  0.26682090  1
  Y  Y29  1  0.99788212  0.79961944  0.15262244  1
  Y  Y30  1  0.13700393  0.54128033  0.17376119  1
  Y  Y31  1  0.45298052  0.37350017  0.51630450  1
  Y  Y32  1  0.68278091  0.53687688  0.50826642  1
  Y  Y33  1  0.28936402  0.86067566  0.60866872  1
  Y  Y34  1  0.23030219  0.81321660  0.97125136  1
  Y  Y35  1  0.59084719  0.07816207  0.25163094  1
  Y  Y36  1  0.79257461  0.03662453  0.72678790  1
  Y  Y37  1  0.84348470  0.99314520  0.01101225  1
  Y  Y38  1  0.81396535  0.29415326  0.41927814  1
  Y  Y39  1  0.98753376  0.76436367  0.79484065  1
  O  O40  1  0.71718060  0.55439968  0.12114330  1
  O  O41  1  0.40313841  0.01196770  0.27912823  1
  O  O42  1  0.36159223  0.19515020  0.04156360  1
  O  O43  1  0.18915563  0.18022199  0.23073494  1
  O  O44  1  0.44973044  0.47792844  0.20640536  1
  O  O45  1  0.79308004  0.40122702  0.83703453  1
  O  O46  1  0.78661918  0.40016153  0.58838853  1
  O  O47  1  0.78148387  0.14130600  0.89638569  1
  O  O48  1  0.45840221  0.97307080  0.53493812  1
  O  O49  1  0.82102905  0.80733044  0.08738031  1
  O  O50  1  0.99841126  0.13938026  0.99783448  1
  O  O51  1  0.96554014  0.61075797  0.56676838  1
  O  O52  1  0.39849769  0.22461117  0.61601296  1
  O  O53  1  0.18071195  0.19049149  0.51983466  1
  O  O54  1  0.61437867  0.93106580  0.69873887  1
  O  O55  1  0.54865212  0.74042019  0.10720371  1
  O  O56  1  0.67179521  0.15741385  0.65395659  1
  O  O57  1  0.01402559  0.43332005  0.03387881  1
  O  O58  1  0.32884522  0.69853587  0.68252728  1
  O  O59  1  0.27977605  0.46315137  0.51546347  1
  O  O60  1  0.87431781  0.85287590  0.69427141  1
  O  O61  1  0.21505949  0.96150228  0.47123800  1
  O  O62  1  0.37912724  0.27056225  0.37136418  1
  O  O63  1  0.99463618  0.09241067  0.70951115  1
  O  O64  1  0.77802257  0.31207081  0.08431046  1
  O  O65  1  0.10007617  0.80313033  0.63824254  1
  O  O66  1  0.96998839  0.15471903  0.40822913  1
  O  O67  1  0.01391275  0.85819550  0.35954919  1
  O  O68  1  0.27385232  0.44473835  0.04695511  1
  O  O69  1  0.97050512  0.34279302  0.28748050  1
  O  O70  1  0.18002408  0.25300731  0.83996274  1
  O  O71  1  0.68289682  0.89711315  0.32503469  1
  O  O72  1  0.93850956  0.99845430  0.17244185  1
  O  O73  1  0.64632160  0.02946823  0.07696403  1
  O  O74  1  0.54458972  0.24117650  0.18063573  1
  O  O75  1  0.74302945  0.89910104  0.88235684  1
  O  O76  1  0.06637929  0.39347438  0.60025496  1
  O  O77  1  0.10212772  0.67749888  0.03100653  1
  O  O78  1  0.57841206  0.69783088  0.86362911  1
  O  O79  1  0.30111255  0.44519161  0.78301949  1
  O  O80  1  0.62112196  0.32825432  0.43108051  1
  O  O81  1  0.52318941  0.47193786  0.92856501  1
  O  O82  1  0.18398501  0.89048729  0.14852606  1
  O  O83  1  0.55644639  0.47869479  0.65516070  1
  O  O84  1  0.52478691  0.22322826  0.84623807  1
  O  O85  1  0.25457410  0.71576267  0.45598734  1
  O  O86  1  0.06661567  0.89627743  0.91084016  1
  O  O87  1  0.28918892  0.00802795  0.74252034  1
  O  O88  1  0.27990898  0.66523254  0.21821231  1
  O  O89  1  0.32090123  0.64939888  0.93337863  1
  O  O90  1  0.20991626  0.44052496  0.29572349  1
  O  O91  1  0.82465190  0.63995160  0.80508403  1
  O  O92  1  0.52378684  0.53885905  0.41534959  1
  O  O93  1  0.38787947  0.92365431  0.99139513  1
  O  O94  1  0.71653515  0.72766386  0.54430797  1
  O  O95  1  0.82930221  0.96673204  0.52278070  1
  O  O96  1  0.96974748  0.63219432  0.22913932  1
  O  O97  1  0.75022963  0.14473760  0.31619696  1
  O  O98  1  0.07464220  0.58907199  0.77590494  1
  O  O99  1  0.77017131  0.47444739  0.34466688  1
