# generated using pymatgen
data_GaN
_symmetry_space_group_name_H-M   'P 1'
_cell_length_a   11.17229620
_cell_length_b   11.38565981
_cell_length_c   12.17525790
_cell_angle_alpha   86.74156807
_cell_angle_beta   86.30642431
_cell_angle_gamma   86.94641836
_symmetry_Int_Tables_number   1
_chemical_formula_structural   GaN
_chemical_formula_sum   'Ga50 N50'
_cell_volume   1541.11152050
_cell_formula_units_Z   50
loop_
 _symmetry_equiv_pos_site_id
 _symmetry_equiv_pos_as_xyz
  1  'x, y, z'
loop_
 _atom_site_type_symbol
 _atom_site_label
 _atom_site_symmetry_multiplicity
 _atom_site_fract_x
 _atom_site_fract_y
 _atom_site_fract_z
 _atom_site_occupancy
  Ga  Ga0  1  0.34910715  0.54976579  0.30486371  1
  Ga  Ga1  1  0.16008028  0.57290056  0.51760365  1
  Ga  Ga2  1  0.88193843  0.87741107  0.98015208  1
  Ga  Ga3  1  0.12612352  0.55883140  0.84736356  1
  Ga  Ga4  1  0.39351194  0.25873731  0.36910296  1
  Ga  Ga5  1  0.47405464  0.09045124  0.78497010  1
  Ga  Ga6  1  0.63927412  0.87537344  0.75323111  1
  Ga  Ga7  1  0.04095657  0.15785844  0.38490587  1
  Ga  Ga8  1  0.39851484  0.27179198  0.57263115  1
  Ga  Ga9  1  0.67510262  0.93191373  0.17356591  1
  Ga  Ga10  1  0.23392936  0.67969698  0.16945572  1
  Ga  Ga11  1  0.18156611  0.91733375  0.32224591  1
  Ga  Ga12  1  0.63117250  0.40869934  0.25883653  1
  Ga  Ga13  1  0.79652191  0.35087047  0.43580820  1
  Ga  Ga14  1  0.97000735  0.34401153  0.60749294  1
  Ga  Ga15  1  0.72471952  0.06506317  0.92853525  1
  Ga  Ga16  1  0.16657719  0.33000833  0.41277481  1
  Ga  Ga17  1  0.25534977  0.39869155  0.13419279  1
  Ga  Ga18  1  0.92531824  0.55830680  0.73202398  1
  Ga  Ga19  1  0.31535311  0.67704938  0.96893402  1
  Ga  Ga20  1  0.63980023  0.14988798  0.32607893  1
  Ga  Ga21  1  0.41080349  0.54180997  0.73764570  1
  Ga  Ga22  1  0.06280120  0.63610961  0.30723229  1
  Ga  Ga23  1  0.03971106  0.13247453  0.93973060  1
  Ga  Ga24  1  0.49908511  0.49178511  0.48130997  1
  Ga  Ga25  1  0.07339480  0.77324190  0.91339076  1
  Ga  Ga26  1  0.78909750  0.54218569  0.05437474  1
  Ga  Ga27  1  0.41504824  0.84799921  0.13373117  1
  Ga  Ga28  1  0.61070665  0.79233208  0.94667349  1
  Ga  Ga29  1  0.89521752  0.03616617  0.17441199  1
  Ga  Ga30  1  0.77273326  0.34799986  0.86356074  1
  Ga  Ga31  1  0.92695961  0.11876343  0.65551024  1
  Ga  Ga32  1  0.96879034  0.71683947  0.49983386  1
  Ga  Ga33  1  0.53295667  0.67877808  0.62162892  1
  Ga  Ga34  1  0.90526396  0.92361525  0.39975459  1
  Ga  Ga35  1  0.00602007  0.36259898  0.90874171  1
  Ga  Ga36  1  0.62597721  0.39488056  0.65627429  1
  Ga  Ga37  1  0.67878793  0.82780349  0.46854904  1
  Ga  Ga38  1  0.70290927  0.59266897  0.81893093  1
  Ga  Ga39  1  0.84523532  0.73366345  0.28223719  1
  Ga  Ga40  1  0.79888099  0.56956257  0.49313066  1
  Ga  Ga41  1  0.81617455  0.53008765  0.25796309  1
  Ga  Ga42  1  0.11851211  0.89471414  0.08262302  1
  Ga  Ga43  1  0.48434618  0.02984295  0.49098705  1
  Ga  Ga44  1  0.53798557  0.28313064  0.86984358  1
  Ga  Ga45  1  0.34832213  0.86787130  0.45646365  1
  Ga  Ga46  1  0.34680565  0.94371775  0.88717455  1
  Ga  Ga47  1  0.55481520  0.71259907  0.33803899  1
  Ga  Ga48  1  0.65688139  0.16604225  0.64714885  1
  Ga  Ga49  1  0.72776061  0.27315935  0.09482646  1
  N  N50  1  0.21564766  0.78392788  0.61150776  1
  N  N51  1  0.17548102  0.91379461  0.88032605  1
  N  N52  1  0.54298264  0.83749714  0.22414249  1
  N  N53  1  0.85294471  0.04591993  0.51594814  1
  N  N54  1  0.61148030  0.82131670  0.61454464  1
  N  N55  1  0.63851485  0.54184766  0.55702167  1
  N  N56  1  0.11661578  0.41265703  0.54085112  1
  N  N57  1  0.25013291  0.86004749  0.18306518  1
  N  N58  1  0.98546575  0.48410422  0.28919903  1
  N  N59  1  0.45205897  0.17091433  0.09715536  1
  N  N60  1  0.73463091  0.12010603  0.19077058  1
  N  N61  1  0.62446037  0.43241927  0.81079628  1
  N  N62  1  0.33953717  0.60010914  0.46650351  1
  N  N63  1  0.93596135  0.29502062  0.32829864  1
  N  N64  1  0.23166316  0.33119660  0.77385184  1
  N  N65  1  0.67021923  0.01555771  0.45251572  1
  N  N66  1  0.02390300  0.01553134  0.30569574  1
  N  N67  1  0.18475897  0.12162505  0.60710572  1
  N  N68  1  0.52626191  0.53996531  0.32008775  1
  N  N69  1  0.68753604  0.63824487  0.96731362  1
  N  N70  1  0.08253689  0.54625280  0.10366893  1
  N  N71  1  0.01373402  0.56729996  0.03833213  1
  N  N72  1  0.17663500  0.00832068  0.95403208  1
  N  N73  1  0.42836652  0.81296014  0.97852469  1
  N  N74  1  0.48993427  0.43552037  0.04286931  1
  N  N75  1  0.29892025  0.56729395  0.85632800  1
  N  N76  1  0.91447878  0.37824642  0.76252077  1
  N  N77  1  0.70248628  0.91293474  0.01353913  1
  N  N78  1  0.48349175  0.53459207  0.03962899  1
  N  N79  1  0.17327264  0.19402394  0.11184907  1
  N  N80  1  0.21641777  0.02789850  0.62516574  1
  N  N81  1  0.44822583  0.41147285  0.63052096  1
  N  N82  1  0.01543851  0.37767069  0.31828369  1
  N  N83  1  0.40968743  0.70303258  0.47361524  1
  N  N84  1  0.48472301  0.12776022  0.62307668  1
  N  N85  1  0.82309686  0.89571842  0.25037410  1
  N  N86  1  0.44392901  0.07589314  0.08183795  1
  N  N87  1  0.20118210  0.13546660  0.18439263  1
  N  N88  1  0.93417842  0.86928101  0.68135675  1
  N  N89  1  0.84199659  0.38722961  0.00101689  1
  N  N90  1  0.64428599  0.30194423  0.39247701  1
  N  N91  1  0.22472857  0.77778853  0.70278703  1
  N  N92  1  0.47144421  0.11597779  0.34493463  1
  N  N93  1  0.24236706  0.23430152  0.79473753  1
  N  N94  1  0.73798135  0.06221910  0.52566956  1
  N  N95  1  0.90231223  0.04985456  0.00343162  1
  N  N96  1  0.66101212  0.04499070  0.77816707  1
  N  N97  1  0.86341015  0.83045108  0.74116363  1
  N  N98  1  0.29594695  0.38390482  0.29939761  1
  N  N99  1  0.67827170  0.22516735  0.95054443  1
