# generated using pymatgen
data_AgGe2N3
_symmetry_space_group_name_H-M   'P 1'
_cell_length_a   5.74191631
_cell_length_b   5.82893991
_cell_length_c   5.25038700
_cell_angle_alpha   90.00000000
_cell_angle_beta   90.00000000
_cell_angle_gamma   120.50263361
_symmetry_Int_Tables_number   1
_chemical_formula_structural   AgGe2N3
_chemical_formula_sum   'Ag2 Ge4 N6'
_cell_volume   151.40714905
_cell_formula_units_Z   2
loop_
 _symmetry_equiv_pos_site_id
 _symmetry_equiv_pos_as_xyz
  1  'x, y, z'
loop_
 _atom_site_type_symbol
 _atom_site_label
 _atom_site_symmetry_multiplicity
 _atom_site_fract_x
 _atom_site_fract_y
 _atom_site_fract_z
 _atom_site_occupancy
  Ag  Ag0  1  0.00000000  0.63351400  0.48866500  1
  Ag  Ag1  1  0.00000000  0.36648600  0.98866500  1
  Ge  Ge2  1  0.33843400  0.32156200  0.49540100  1
  Ge  Ge3  1  0.66156600  0.98312900  0.49540100  1
  Ge  Ge4  1  0.66156600  0.67843800  0.99540100  1
  Ge  Ge5  1  0.33843400  0.01687100  0.99540100  1
  N  N6  1  0.40999900  0.34377200  0.84939800  1
  N  N7  1  0.59000100  0.93377400  0.84939800  1
  N  N8  1  0.59000100  0.65622800  0.34939800  1
  N  N9  1  0.40999900  0.06622600  0.34939800  1
  N  N10  1  0.00000000  0.75370200  0.90973900  1
  N  N11  1  0.00000000  0.24629800  0.40973900  1
