# generated using pymatgen
data_ZnS
_symmetry_space_group_name_H-M   'P 1'
_cell_length_a   13.06276429
_cell_length_b   13.22380334
_cell_length_c   13.33121300
_cell_angle_alpha   88.50628605
_cell_angle_beta   87.53079457
_cell_angle_gamma   87.77597464
_symmetry_Int_Tables_number   1
_chemical_formula_structural   ZnS
_chemical_formula_sum   'Zn50 S50'
_cell_volume   2298.26841901
_cell_formula_units_Z   50
loop_
 _symmetry_equiv_pos_site_id
 _symmetry_equiv_pos_as_xyz
  1  'x, y, z'
loop_
 _atom_site_type_symbol
 _atom_site_label
 _atom_site_symmetry_multiplicity
 _atom_site_fract_x
 _atom_site_fract_y
 _atom_site_fract_z
 _atom_site_occupancy
  Zn  Zn0  1  0.01419465  0.41273131  0.05377923  1
  Zn  Zn1  1  0.37457499  0.22246981  0.13459092  1
  Zn  Zn2  1  0.47296013  0.12846260  0.93870230  1
  Zn  Zn3  1  0.05994006  0.93611094  0.04261470  1
  Zn  Zn4  1  0.48917625  0.08424742  0.56451854  1
  Zn  Zn5  1  0.58696800  0.59823457  0.95308603  1
  Zn  Zn6  1  0.55932325  0.97946286  0.13766303  1
  Zn  Zn7  1  0.71078312  0.25171892  0.36369258  1
  Zn  Zn8  1  0.77715694  0.84006823  0.67706585  1
  Zn  Zn9  1  0.29420790  0.82067756  0.02354502  1
  Zn  Zn10  1  0.40470896  0.01275541  0.33512950  1
  Zn  Zn11  1  0.87384856  0.23250941  0.91892013  1
  Zn  Zn12  1  0.21117968  0.47656699  0.68016363  1
  Zn  Zn13  1  0.89412068  0.60375754  0.25915604  1
  Zn  Zn14  1  0.69546404  0.38700877  0.76681443  1
  Zn  Zn15  1  0.48444079  0.36712003  0.95508161  1
  Zn  Zn16  1  0.41788351  0.57351024  0.07012253  1
  Zn  Zn17  1  0.82333852  0.19931689  0.62471189  1
  Zn  Zn18  1  0.95718635  0.21875622  0.16074774  1
  Zn  Zn19  1  0.45273218  0.89691722  0.96883452  1
  Zn  Zn20  1  0.20969558  0.96852907  0.37255950  1
  Zn  Zn21  1  0.18414118  0.91750100  0.62071758  1
  Zn  Zn22  1  0.73381526  0.43081281  0.15727167  1
  Zn  Zn23  1  0.95005894  0.09354222  0.41135090  1
  Zn  Zn24  1  0.61439848  0.50125500  0.40090237  1
  Zn  Zn25  1  0.96401795  0.85711220  0.45261813  1
  Zn  Zn26  1  0.69877349  0.03759791  0.84706819  1
  Zn  Zn27  1  0.98069223  0.36735678  0.40709923  1
  Zn  Zn28  1  0.79602075  0.63892989  0.49724006  1
  Zn  Zn29  1  0.23325207  0.23856356  0.82961708  1
  Zn  Zn30  1  0.11048500  0.18982815  0.59665588  1
  Zn  Zn31  1  0.40458859  0.22050587  0.65043922  1
  Zn  Zn32  1  0.76673601  0.95910577  0.27806453  1
  Zn  Zn33  1  0.28157905  0.14486135  0.99427472  1
  Zn  Zn34  1  0.69641735  0.66611957  0.74636397  1
  Zn  Zn35  1  0.37264401  0.96669799  0.14683581  1
  Zn  Zn36  1  0.63217971  0.71478591  0.26004104  1
  Zn  Zn37  1  0.19029124  0.74122045  0.19991724  1
  Zn  Zn38  1  0.43970320  0.58648784  0.61301560  1
  Zn  Zn39  1  0.22313626  0.24620202  0.34242076  1
  Zn  Zn40  1  0.16396217  0.64397226  0.89865850  1
  Zn  Zn41  1  0.35305813  0.83493877  0.39051786  1
  Zn  Zn42  1  0.01967049  0.46881102  0.83830095  1
  Zn  Zn43  1  0.94651080  0.00835451  0.70367147  1
  Zn  Zn44  1  0.58933170  0.81891002  0.65772078  1
  Zn  Zn45  1  0.85067216  0.67252234  0.00565598  1
  Zn  Zn46  1  0.92566907  0.46136812  0.63615139  1
  Zn  Zn47  1  0.41044049  0.59235959  0.87873768  1
  Zn  Zn48  1  0.10031918  0.19811625  0.97391823  1
  Zn  Zn49  1  0.24125902  0.51088943  0.42573256  1
  S  S50  1  0.42838442  0.99570280  0.82352103  1
  S  S51  1  0.56611538  0.99908166  0.41645179  1
  S  S52  1  0.40655941  0.39387644  0.10481492  1
  S  S53  1  0.50642242  0.66148180  0.74382023  1
  S  S54  1  0.38447569  0.18865451  0.30387227  1
  S  S55  1  0.93341112  0.95327792  0.31153354  1
  S  S56  1  0.36119378  0.94679708  0.59419549  1
  S  S57  1  0.11114924  0.05264602  0.70927203  1
  S  S58  1  0.96367528  0.09377388  0.03190257  1
  S  S59  1  0.62224730  0.38210391  0.28321384  1
  S  S60  1  0.26823808  0.50579875  0.84294644  1
  S  S61  1  0.00505031  0.56915830  0.97662913  1
  S  S62  1  0.15244186  0.79758540  0.80658880  1
  S  S63  1  0.64251432  0.43014268  0.92662221  1
  S  S64  1  0.14181820  0.83793393  0.47557108  1
  S  S65  1  0.85124645  0.33635631  0.06426488  1
  S  S66  1  0.19568387  0.92416246  0.17493815  1
  S  S67  1  0.42064350  0.26438093  0.83795177  1
  S  S68  1  0.62609402  0.08545393  0.00432186  1
  S  S69  1  0.96057759  0.30198713  0.57499584  1
  S  S70  1  0.27666185  0.59487971  0.56041202  1
  S  S71  1  0.02339384  0.29735451  0.84164296  1
  S  S72  1  0.12914301  0.12255599  0.42568976  1
  S  S73  1  0.23546644  0.29694577  0.65928313  1
  S  S74  1  0.11974546  0.29271816  0.12484144  1
  S  S75  1  0.04731484  0.55662999  0.69314150  1
  S  S76  1  0.45429124  0.67951146  0.20568058  1
  S  S77  1  0.89312965  0.75371079  0.57184472  1
  S  S78  1  0.24918150  0.65649263  0.05363338  1
  S  S79  1  0.49844646  0.43563561  0.53046534  1
  S  S80  1  0.32463272  0.67901175  0.30933619  1
  S  S81  1  0.00906116  0.72478350  0.21011214  1
  S  S82  1  0.68370699  0.85768280  0.17521107  1
  S  S83  1  0.94503080  0.80416471  0.08756200  1
  S  S84  1  0.91772973  0.53533819  0.41088630  1
  S  S85  1  0.85779415  0.04159360  0.55783921  1
  S  S86  1  0.83722832  0.92750510  0.81228316  1
  S  S87  1  0.75994273  0.60320130  0.15571208  1
  S  S88  1  0.15068931  0.40572515  0.34303439  1
  S  S89  1  0.63560482  0.66608131  0.42861276  1
  S  S90  1  0.70943225  0.71591819  0.91167948  1
  S  S91  1  0.44645824  0.81952290  0.54008575  1
  S  S92  1  0.66386117  0.22681303  0.54101977  1
  S  S93  1  0.18616945  0.90745449  0.91063931  1
  S  S94  1  0.75717683  0.51977145  0.66121549  1
  S  S95  1  0.64572994  0.09415741  0.31041052  1
  S  S96  1  0.56511164  0.98969772  0.73579914  1
  S  S97  1  0.75905793  0.21443402  0.79145020  1
  S  S98  1  0.57513073  0.33161875  0.62556939  1
  S  S99  1  0.89084242  0.24134956  0.32604791  1
