# generated using pymatgen
data_Al2O3
_symmetry_space_group_name_H-M   'P 1'
_cell_length_a   10.40062292
_cell_length_b   9.71002326
_cell_length_c   10.75781557
_cell_angle_alpha   91.54746989
_cell_angle_beta   94.30571423
_cell_angle_gamma   89.83129683
_symmetry_Int_Tables_number   1
_chemical_formula_structural   Al2O3
_chemical_formula_sum   'Al40 O60'
_cell_volume   1082.97305079
_cell_formula_units_Z   20
loop_
 _symmetry_equiv_pos_site_id
 _symmetry_equiv_pos_as_xyz
  1  'x, y, z'
loop_
 _atom_site_type_symbol
 _atom_site_label
 _atom_site_symmetry_multiplicity
 _atom_site_fract_x
 _atom_site_fract_y
 _atom_site_fract_z
 _atom_site_occupancy
  Al  Al0  1  0.59544000  0.29869100  0.81707800  1
  Al  Al1  1  0.01387700  0.01640000  0.48652000  1
  Al  Al2  1  0.31539600  0.95140500  0.02002500  1
  Al  Al3  1  0.15215900  0.76649200  0.39042700  1
  Al  Al4  1  0.81736400  0.79553400  0.17027200  1
  Al  Al5  1  0.51585700  0.53653700  0.20754800  1
  Al  Al6  1  0.06146700  0.25974700  0.65648100  1
  Al  Al7  1  0.36139200  0.29804700  0.69436300  1
  Al  Al8  1  0.17402000  0.16786800  0.90180700  1
  Al  Al9  1  0.62262700  0.59031900  0.45084200  1
  Al  Al10  1  0.42099400  0.76065700  0.55825000  1
  Al  Al11  1  0.08955400  0.47179200  0.96174900  1
  Al  Al12  1  0.56892600  0.81906700  0.93540600  1
  Al  Al13  1  0.75618900  0.77968500  0.68745000  1
  Al  Al14  1  0.63200900  0.29645600  0.42707700  1
  Al  Al15  1  0.55233500  0.55876200  0.73924500  1
  Al  Al16  1  0.85149700  0.36132300  0.84934400  1
  Al  Al17  1  0.88650100  0.71808300  0.47466500  1
  Al  Al18  1  0.23312500  0.02777600  0.27763400  1
  Al  Al19  1  0.48058700  0.84157900  0.25718900  1
  Al  Al20  1  0.94456900  0.17945400  0.02385200  1
  Al  Al21  1  0.26468800  0.69744300  0.79801700  1
  Al  Al22  1  0.38963600  0.60543900  0.98904100  1
  Al  Al23  1  0.22979800  0.58141100  0.20182900  1
  Al  Al24  1  0.02252900  0.95184400  0.78219500  1
  Al  Al25  1  0.42777500  0.26596000  0.02981400  1
  Al  Al26  1  0.01855300  0.62807300  0.74066000  1
  Al  Al27  1  0.72303100  0.28893700  0.14640100  1
  Al  Al28  1  0.71227200  0.54901400  0.01872500  1
  Al  Al29  1  0.70060400  0.93849700  0.45956600  1
  Al  Al30  1  0.79290800  0.11764800  0.69097500  1
  Al  Al31  1  0.35723100  0.34134900  0.39998000  1
  Al  Al32  1  0.44177200  0.05219000  0.49531800  1
  Al  Al33  1  0.38105900  0.98154600  0.76220400  1
  Al  Al34  1  0.88958900  0.34491200  0.42101100  1
  Al  Al35  1  0.96083200  0.57957400  0.22052500  1
  Al  Al36  1  0.11577600  0.32755200  0.24999900  1
  Al  Al37  1  0.16972800  0.51738800  0.52790500  1
  Al  Al38  1  0.91497600  0.08714200  0.25022400  1
  Al  Al39  1  0.63341100  0.02026800  0.13268200  1
  O  O40  1  0.85783400  0.63608900  0.08100000  1
  O  O41  1  0.10422600  0.69099200  0.24295000  1
  O  O42  1  0.24385700  0.00676800  0.85257700  1
  O  O43  1  0.03383300  0.18107200  0.17288200  1
  O  O44  1  0.68693500  0.46170200  0.86078700  1
  O  O45  1  0.71077700  0.11415800  0.53911800  1
  O  O46  1  0.37362600  0.66709100  0.17250600  1
  O  O47  1  0.24326800  0.20956500  0.31824200  1
  O  O48  1  0.41081800  0.43954200  0.08465800  1
  O  O49  1  0.05418400  0.06521300  0.64440800  1
  O  O50  1  0.37977400  0.11014600  0.64054900  1
  O  O51  1  0.84549300  0.67660000  0.30959300  1
  O  O52  1  0.96653700  0.41783000  0.29641500  1
  O  O53  1  0.57196900  0.19658400  0.10334200  1
  O  O54  1  0.64322700  0.95105300  0.29723900  1
  O  O55  1  0.20224200  0.27218400  0.75965800  1
  O  O56  1  0.95807300  0.51453600  0.85097600  1
  O  O57  1  0.35948700  0.78767200  0.93727300  1
  O  O58  1  0.38120600  0.95652000  0.35236800  1
  O  O59  1  0.72889400  0.19484800  0.82322500  1
  O  O60  1  0.21401400  0.93513500  0.13945500  1
  O  O61  1  0.05252000  0.66260600  0.47734500  1
  O  O62  1  0.56748900  0.68498000  0.31197700  1
  O  O63  1  0.90371600  0.26743200  0.71016700  1
  O  O64  1  0.66462900  0.46153500  0.15123200  1
  O  O65  1  0.29869200  0.38377800  0.55117100  1
  O  O66  1  0.08748100  0.78656500  0.79755000  1
  O  O67  1  0.05565200  0.29526900  0.94196000  1
  O  O68  1  0.74036300  0.44279700  0.48274900  1
  O  O69  1  0.16895500  0.57512900  0.68848900  1
  O  O70  1  0.53336900  0.90572400  0.54017800  1
  O  O71  1  0.14102200  0.94951600  0.40291300  1
  O  O72  1  0.71437000  0.75133700  0.51251600  1
  O  O73  1  0.29536800  0.69372700  0.45578600  1
  O  O74  1  0.70357300  0.87126300  0.05529100  1
  O  O75  1  0.84091900  0.94118400  0.72890400  1
  O  O76  1  0.44391100  0.26889100  0.86629800  1
  O  O77  1  0.83590700  0.33541200  0.01915700  1
  O  O78  1  0.33914900  0.81749500  0.68810700  1
  O  O79  1  0.56661100  0.65072700  0.01672100  1
  O  O80  1  0.51129300  0.43800000  0.35676600  1
  O  O81  1  0.53028800  0.37165900  0.67902100  1
  O  O82  1  0.21513600  0.58287100  0.94248700  1
  O  O83  1  0.79838000  0.11708100  0.12090100  1
  O  O84  1  0.52232800  0.97314200  0.85968100  1
  O  O85  1  0.95601800  0.16153900  0.40536200  1
  O  O86  1  0.23468600  0.46003600  0.32851900  1
  O  O87  1  0.48310000  0.21045000  0.43628800  1
  O  O88  1  0.47457700  0.93498200  0.11260000  1
  O  O89  1  0.64569100  0.72367800  0.79257700  1
  O  O90  1  0.03560400  0.38181700  0.53521200  1
  O  O91  1  0.92970200  0.91461600  0.22453700  1
  O  O92  1  0.74728500  0.26119900  0.31462800  1
  O  O93  1  0.40977400  0.57232900  0.81704000  1
  O  O94  1  0.52421300  0.61571400  0.58046000  1
  O  O95  1  0.29124200  0.16486300  0.03488200  1
  O  O96  1  0.88271900  0.66743400  0.64606000  1
  O  O97  1  0.01141600  0.05904300  0.91470500  1
  O  O98  1  0.10431100  0.46719400  0.12681000  1
  O  O99  1  0.88240400  0.90573400  0.47615900  1
