# generated using pymatgen
data_Ca11(CrN5)2
_symmetry_space_group_name_H-M   'P 1'
_cell_length_a   15.18251600
_cell_length_b   15.18251600
_cell_length_c   3.57299700
_cell_angle_alpha   90.00000000
_cell_angle_beta   90.00000000
_cell_angle_gamma   90.00000000
_symmetry_Int_Tables_number   1
_chemical_formula_structural   Ca11(CrN5)2
_chemical_formula_sum   'Ca22 Cr4 N20'
_cell_volume   823.60722261
_cell_formula_units_Z   2
loop_
 _symmetry_equiv_pos_site_id
 _symmetry_equiv_pos_as_xyz
  1  'x, y, z'
loop_
 _atom_site_type_symbol
 _atom_site_label
 _atom_site_symmetry_multiplicity
 _atom_site_fract_x
 _atom_site_fract_y
 _atom_site_fract_z
 _atom_site_occupancy
  Ca  Ca0  1  0.50000000  0.50000000  0.50000000  1
  Ca  Ca1  1  0.00000000  0.00000000  0.00000000  1
  Ca  Ca2  1  0.97295000  0.80006500  0.50000000  1
  Ca  Ca3  1  0.02705000  0.19993500  0.50000000  1
  Ca  Ca4  1  0.52705000  0.30006500  0.00000000  1
  Ca  Ca5  1  0.47295000  0.69993500  0.00000000  1
  Ca  Ca6  1  0.80006500  0.97295000  0.50000000  1
  Ca  Ca7  1  0.19993500  0.02705000  0.50000000  1
  Ca  Ca8  1  0.30006500  0.52705000  0.00000000  1
  Ca  Ca9  1  0.69993500  0.47295000  0.00000000  1
  Ca  Ca10  1  0.65705300  0.65705300  0.50000000  1
  Ca  Ca11  1  0.34294700  0.34294700  0.50000000  1
  Ca  Ca12  1  0.84294700  0.15705300  0.00000000  1
  Ca  Ca13  1  0.15705300  0.84294700  0.00000000  1
  Ca  Ca14  1  0.37288000  0.90353200  0.50000000  1
  Ca  Ca15  1  0.62712000  0.09646800  0.50000000  1
  Ca  Ca16  1  0.12712000  0.40353200  0.00000000  1
  Ca  Ca17  1  0.87288000  0.59646800  0.00000000  1
  Ca  Ca18  1  0.90353200  0.37288000  0.50000000  1
  Ca  Ca19  1  0.09646800  0.62712000  0.50000000  1
  Ca  Ca20  1  0.40353200  0.12712000  0.00000000  1
  Ca  Ca21  1  0.59646800  0.87288000  0.00000000  1
  Cr  Cr22  1  0.30308700  0.69691300  0.50000000  1
  Cr  Cr23  1  0.69691300  0.30308700  0.50000000  1
  Cr  Cr24  1  0.19691300  0.19691300  0.00000000  1
  Cr  Cr25  1  0.80308700  0.80308700  0.00000000  1
  N  N26  1  0.08124400  0.91875600  0.50000000  1
  N  N27  1  0.91875600  0.08124400  0.50000000  1
  N  N28  1  0.41875600  0.41875600  0.00000000  1
  N  N29  1  0.58124400  0.58124400  0.00000000  1
  N  N30  1  0.49131300  0.18732200  0.50000000  1
  N  N31  1  0.50868700  0.81267800  0.50000000  1
  N  N32  1  0.00868700  0.68732200  0.00000000  1
  N  N33  1  0.99131300  0.31267800  0.00000000  1
  N  N34  1  0.18732200  0.49131300  0.50000000  1
  N  N35  1  0.81267800  0.50868700  0.50000000  1
  N  N36  1  0.68732200  0.00868700  0.00000000  1
  N  N37  1  0.31267800  0.99131300  0.00000000  1
  N  N38  1  0.22312100  0.77687900  0.50000000  1
  N  N39  1  0.77687900  0.22312100  0.50000000  1
  N  N40  1  0.27687900  0.27687900  0.00000000  1
  N  N41  1  0.72312100  0.72312100  0.00000000  1
  N  N42  1  0.38461500  0.61538500  0.50000000  1
  N  N43  1  0.61538500  0.38461500  0.50000000  1
  N  N44  1  0.11538500  0.11538500  0.00000000  1
  N  N45  1  0.88461500  0.88461500  0.00000000  1
