# generated using pymatgen
data_Nb5CoN9
_symmetry_space_group_name_H-M   'P 1'
_cell_length_a   9.47396282
_cell_length_b   5.37064800
_cell_length_c   16.27496492
_cell_angle_alpha   90.00000000
_cell_angle_beta   125.83007427
_cell_angle_gamma   90.00000000
_symmetry_Int_Tables_number   1
_chemical_formula_structural   Nb5CoN9
_chemical_formula_sum   'Nb20 Co4 N36'
_cell_volume   671.38085691
_cell_formula_units_Z   4
loop_
 _symmetry_equiv_pos_site_id
 _symmetry_equiv_pos_as_xyz
  1  'x, y, z'
loop_
 _atom_site_type_symbol
 _atom_site_label
 _atom_site_symmetry_multiplicity
 _atom_site_fract_x
 _atom_site_fract_y
 _atom_site_fract_z
 _atom_site_occupancy
  Nb  Nb0  1  0.27067300  0.04564500  0.56687200  1
  Nb  Nb1  1  0.72932700  0.54564500  0.93312800  1
  Nb  Nb2  1  0.72932700  0.95435500  0.43312800  1
  Nb  Nb3  1  0.27067300  0.45435500  0.06687200  1
  Nb  Nb4  1  0.77502700  0.46762700  0.54790500  1
  Nb  Nb5  1  0.22497300  0.96762700  0.95209500  1
  Nb  Nb6  1  0.22497300  0.53237300  0.45209500  1
  Nb  Nb7  1  0.77502700  0.03237300  0.04790500  1
  Nb  Nb8  1  0.27429800  0.47082900  0.72061400  1
  Nb  Nb9  1  0.72570200  0.97082900  0.77938600  1
  Nb  Nb10  1  0.72570200  0.52917100  0.27938600  1
  Nb  Nb11  1  0.27429800  0.02917100  0.22061400  1
  Nb  Nb12  1  0.44939400  0.99583800  0.82688500  1
  Nb  Nb13  1  0.55060600  0.49583800  0.67311500  1
  Nb  Nb14  1  0.55060600  0.00416200  0.17311500  1
  Nb  Nb15  1  0.44939400  0.50416200  0.32688500  1
  Nb  Nb16  1  0.99894200  0.52990600  0.82225300  1
  Nb  Nb17  1  0.00105800  0.02990600  0.67774700  1
  Nb  Nb18  1  0.00105800  0.47009400  0.17774700  1
  Nb  Nb19  1  0.99894200  0.97009400  0.32225300  1
  Co  Co20  1  0.00000000  0.50000000  0.50000000  1
  Co  Co21  1  0.00000000  0.00000000  0.00000000  1
  Co  Co22  1  0.50000000  0.00000000  0.50000000  1
  Co  Co23  1  0.50000000  0.50000000  0.00000000  1
  N  N24  1  0.97918500  0.90604700  0.78913400  1
  N  N25  1  0.02081500  0.40604700  0.71086600  1
  N  N26  1  0.02081500  0.09395300  0.21086600  1
  N  N27  1  0.97918500  0.59395300  0.28913400  1
  N  N28  1  0.54427300  0.67247600  0.78745800  1
  N  N29  1  0.45572700  0.17247600  0.71254200  1
  N  N30  1  0.45572700  0.32752400  0.21254200  1
  N  N31  1  0.54427300  0.82752400  0.28745800  1
  N  N32  1  0.23010500  0.82293100  0.75354100  1
  N  N33  1  0.76989500  0.32293100  0.74645900  1
  N  N34  1  0.76989500  0.17706900  0.24645900  1
  N  N35  1  0.23010500  0.67706900  0.25354100  1
  N  N36  1  0.88637500  0.78232700  0.39620100  1
  N  N37  1  0.11362500  0.28232700  0.10379900  1
  N  N38  1  0.11362500  0.21767300  0.60379900  1
  N  N39  1  0.88637500  0.71767300  0.89620100  1
  N  N40  1  0.07413500  0.25201300  0.44198400  1
  N  N41  1  0.92586500  0.75201300  0.05801600  1
  N  N42  1  0.92586500  0.74798700  0.55801600  1
  N  N43  1  0.07413500  0.24798700  0.94198400  1
  N  N44  1  0.41524500  0.16341100  0.36412800  1
  N  N45  1  0.58475500  0.66341100  0.13587200  1
  N  N46  1  0.58475500  0.83658900  0.63587200  1
  N  N47  1  0.41524500  0.33658900  0.86412800  1
  N  N48  1  0.57427400  0.69753200  0.46561900  1
  N  N49  1  0.42572600  0.19753200  0.03438100  1
  N  N50  1  0.42572600  0.30246800  0.53438100  1
  N  N51  1  0.57427400  0.80246800  0.96561900  1
  N  N52  1  0.76155700  0.34468700  0.42378600  1
  N  N53  1  0.23844300  0.84468700  0.07621400  1
  N  N54  1  0.23844300  0.65531300  0.57621400  1
  N  N55  1  0.76155700  0.15531300  0.92378600  1
  N  N56  1  0.25491900  0.90644800  0.43367000  1
  N  N57  1  0.74508100  0.40644800  0.06633000  1
  N  N58  1  0.74508100  0.09355200  0.56633000  1
  N  N59  1  0.25491900  0.59355200  0.93367000  1
