# generated using pymatgen
data_Ca2W3O8
_symmetry_space_group_name_H-M   'P 1'
_cell_length_a   6.52036400
_cell_length_b   6.52036462
_cell_length_c   10.32126300
_cell_angle_alpha   90.00000000
_cell_angle_beta   90.00000000
_cell_angle_gamma   120.00000702
_symmetry_Int_Tables_number   1
_chemical_formula_structural   Ca2W3O8
_chemical_formula_sum   'Ca4 W6 O16'
_cell_volume   380.02062555
_cell_formula_units_Z   2
loop_
 _symmetry_equiv_pos_site_id
 _symmetry_equiv_pos_as_xyz
  1  'x, y, z'
loop_
 _atom_site_type_symbol
 _atom_site_label
 _atom_site_symmetry_multiplicity
 _atom_site_fract_x
 _atom_site_fract_y
 _atom_site_fract_z
 _atom_site_occupancy
  Ca  Ca0  1  0.66666700  0.33333400  0.02988700  1
  Ca  Ca1  1  0.33333300  0.66666600  0.52988800  1
  Ca  Ca2  1  0.66666700  0.33333400  0.41709900  1
  Ca  Ca3  1  0.33333300  0.66666600  0.91710000  1
  W  W4  1  0.67113200  0.83556700  0.24511700  1
  W  W5  1  0.83556800  0.16443400  0.74511700  1
  W  W6  1  0.16443400  0.32886900  0.24511700  1
  W  W7  1  0.83556600  0.67113200  0.74511700  1
  W  W8  1  0.32886900  0.16443400  0.74511700  1
  W  W9  1  0.16443400  0.83556700  0.24511700  1
  O  O10  1  0.84067700  0.15932400  0.15457700  1
  O  O11  1  0.68135400  0.84067700  0.65457600  1
  O  O12  1  0.15932400  0.31864700  0.65457600  1
  O  O13  1  0.84067600  0.68135400  0.15457700  1
  O  O14  1  0.31864600  0.15932400  0.15457700  1
  O  O15  1  0.15932400  0.84067700  0.65457600  1
  O  O16  1  0.52484900  0.47515000  0.85418800  1
  O  O17  1  0.04969900  0.52484900  0.35418700  1
  O  O18  1  0.47515100  0.95030200  0.35418700  1
  O  O19  1  0.52484900  0.04969900  0.85418800  1
  O  O20  1  0.00000000  0.00000000  0.34653800  1
  O  O21  1  0.00000000  0.00000000  0.84653800  1
  O  O22  1  0.33333300  0.66666600  0.13833100  1
  O  O23  1  0.95030000  0.47515000  0.85418800  1
  O  O24  1  0.47515000  0.52484900  0.35418700  1
  O  O25  1  0.66666700  0.33333400  0.63833100  1
