# generated using pymatgen
data_ZnS
_symmetry_space_group_name_H-M   'P 1'
_cell_length_a   14.12797947
_cell_length_b   13.45119131
_cell_length_c   12.75923977
_cell_angle_alpha   87.92744191
_cell_angle_beta   87.66851932
_cell_angle_gamma   88.03921988
_symmetry_Int_Tables_number   1
_chemical_formula_structural   ZnS
_chemical_formula_sum   'Zn50 S50'
_cell_volume   2419.84812380
_cell_formula_units_Z   50
loop_
 _symmetry_equiv_pos_site_id
 _symmetry_equiv_pos_as_xyz
  1  'x, y, z'
loop_
 _atom_site_type_symbol
 _atom_site_label
 _atom_site_symmetry_multiplicity
 _atom_site_fract_x
 _atom_site_fract_y
 _atom_site_fract_z
 _atom_site_occupancy
  Zn  Zn0  1  0.57402396  0.01080708  0.59129357  1
  Zn  Zn1  1  0.09194644  0.52236380  0.78250920  1
  Zn  Zn2  1  0.80883095  0.24775759  0.85838604  1
  Zn  Zn3  1  0.62664517  0.42362689  0.77371069  1
  Zn  Zn4  1  0.03023986  0.11898406  0.47526264  1
  Zn  Zn5  1  0.44407194  0.08596986  0.41619826  1
  Zn  Zn6  1  0.72888808  0.59621625  0.45935301  1
  Zn  Zn7  1  0.49417846  0.78739260  0.23054889  1
  Zn  Zn8  1  0.45781792  0.29739387  0.56859783  1
  Zn  Zn9  1  0.79758989  0.06968836  0.11846937  1
  Zn  Zn10  1  0.92113141  0.38902887  0.49337544  1
  Zn  Zn11  1  0.60575836  0.93153771  0.05394260  1
  Zn  Zn12  1  0.88927535  0.51862922  0.21526605  1
  Zn  Zn13  1  0.96021904  0.07943341  0.70760336  1
  Zn  Zn14  1  0.50188370  0.68963394  0.51977075  1
  Zn  Zn15  1  0.59987160  0.60990659  0.95185495  1
  Zn  Zn16  1  0.18322317  0.94211491  0.61170598  1
  Zn  Zn17  1  0.10742680  0.84616835  0.16179932  1
  Zn  Zn18  1  0.09494513  0.11109488  0.98946978  1
  Zn  Zn19  1  0.28832011  0.61767612  0.26144223  1
  Zn  Zn20  1  0.10376388  0.37101837  0.98007571  1
  Zn  Zn21  1  0.49901476  0.16009641  0.81669630  1
  Zn  Zn22  1  0.66134186  0.36329878  0.40250223  1
  Zn  Zn23  1  0.71264108  0.99714437  0.78757533  1
  Zn  Zn24  1  0.44612051  0.88593181  0.88553745  1
  Zn  Zn25  1  0.13915964  0.69664688  0.00212698  1
  Zn  Zn26  1  0.59103939  0.78248306  0.63677780  1
  Zn  Zn27  1  0.51101710  0.53005919  0.29123638  1
  Zn  Zn28  1  0.82035700  0.13995611  0.43567425  1
  Zn  Zn29  1  0.37603265  0.37869849  0.93763736  1
  Zn  Zn30  1  0.06685941  0.00658768  0.20774397  1
  Zn  Zn31  1  0.97260984  0.87139069  0.59074266  1
  Zn  Zn32  1  0.16448757  0.31495527  0.36849679  1
  Zn  Zn33  1  0.26742520  0.30490410  0.21936179  1
  Zn  Zn34  1  0.84258271  0.36986352  0.98620296  1
  Zn  Zn35  1  0.33988135  0.85719770  0.03407850  1
  Zn  Zn36  1  0.63984403  0.93700122  0.31496605  1
  Zn  Zn37  1  0.80009107  0.45803299  0.79560861  1
  Zn  Zn38  1  0.34635621  0.90309539  0.62009732  1
  Zn  Zn39  1  0.01684408  0.25446951  0.18193363  1
  Zn  Zn40  1  0.70535827  0.57330206  0.64905448  1
  Zn  Zn41  1  0.70532139  0.74949715  0.15043491  1
  Zn  Zn42  1  0.22629785  0.22570950  0.76264977  1
  Zn  Zn43  1  0.01629350  0.65230386  0.34219651  1
  Zn  Zn44  1  0.04086890  0.34683224  0.61720534  1
  Zn  Zn45  1  0.45907241  0.62306281  0.77202393  1
  Zn  Zn46  1  0.83683491  0.86432988  0.25373461  1
  Zn  Zn47  1  0.92155940  0.65956840  0.94403177  1
  Zn  Zn48  1  0.17457097  0.56422789  0.53523782  1
  Zn  Zn49  1  0.01816284  0.75099591  0.73069676  1
  S  S50  1  0.51274454  0.95620375  0.20813248  1
  S  S51  1  0.35587396  0.22128305  0.87932004  1
  S  S52  1  0.47599120  0.20287877  0.29884581  1
  S  S53  1  0.74439965  0.23726515  0.09119094  1
  S  S54  1  0.10294658  0.34845860  0.80022387  1
  S  S55  1  0.08599354  0.96186837  0.76607172  1
  S  S56  1  0.81366447  0.62069214  0.08314415  1
  S  S57  1  0.72920751  0.51356884  0.02021142  1
  S  S58  1  0.84136206  0.08191972  0.83745796  1
  S  S59  1  0.16038956  0.64692113  0.68099847  1
  S  S60  1  0.02276277  0.78449665  0.92349728  1
  S  S61  1  0.63153176  0.67388755  0.77775374  1
  S  S62  1  0.16381524  0.23941938  0.08022732  1
  S  S63  1  0.56411189  0.74227248  0.06445249  1
  S  S64  1  0.89385079  0.54474061  0.38891124  1
  S  S65  1  0.77905196  0.03052033  0.30540693  1
  S  S66  1  0.56659910  0.00021813  0.88962289  1
  S  S67  1  0.16076463  0.53576466  0.95380198  1
  S  S68  1  0.42501625  0.54714072  0.61466460  1
  S  S69  1  0.63109716  0.25659234  0.86191267  1
  S  S70  1  0.66797597  0.51298301  0.31339121  1
  S  S71  1  0.53847375  0.44209697  0.60637529  1
  S  S72  1  0.07813573  0.17661329  0.63136742  1
  S  S73  1  0.96110835  0.40657623  0.09911755  1
  S  S74  1  0.39575493  0.36836177  0.12270765  1
  S  S75  1  0.10611279  0.87152550  0.46357500  1
  S  S76  1  0.42552673  0.67964179  0.34822243  1
  S  S77  1  0.77662064  0.29097060  0.49647105  1
  S  S78  1  0.61487095  0.26864042  0.02670206  1
  S  S79  1  0.92479396  0.57281073  0.79573051  1
  S  S80  1  0.30453130  0.53348701  0.90698362  1
  S  S81  1  0.17670848  0.05484132  0.84662872  1
  S  S82  1  0.49894445  0.32822462  0.38649761  1
  S  S83  1  0.96311044  0.10972292  0.10748253  1
  S  S84  1  0.89917731  0.02666515  0.54716819  1
  S  S85  1  0.20712796  0.37815316  0.53089907  1
  S  S86  1  0.47046898  0.93745867  0.48563811  1
  S  S87  1  0.70718138  0.77453243  0.33026118  1
  S  S88  1  0.50691548  0.48862878  0.88800292  1
  S  S89  1  0.12788904  0.00922823  0.38266992  1
  S  S90  1  0.40257137  0.51610538  0.16432614  1
  S  S91  1  0.23953034  0.74129072  0.12906637  1
  S  S92  1  0.15641892  0.56464442  0.35954501  1
  S  S93  1  0.39929303  0.79087062  0.75508023  1
  S  S94  1  0.69711843  0.91241775  0.63718716  1
  S  S95  1  0.96692800  0.75968718  0.21453863  1
  S  S96  1  0.29819013  0.26429917  0.58959975  1
  S  S97  1  0.00635830  0.26154976  0.36169330  1
  S  S98  1  0.55063141  0.16871533  0.63998846  1
  S  S99  1  0.77079469  0.90736208  0.06654101  1
