# generated using pymatgen
data_MgTiMo(PO4)3
_symmetry_space_group_name_H-M   'P 1'
_cell_length_a   8.65866966
_cell_length_b   8.65866986
_cell_length_c   8.65867057
_cell_angle_alpha   60.60776076
_cell_angle_beta   60.60776102
_cell_angle_gamma   60.60775620
_symmetry_Int_Tables_number   1
_chemical_formula_structural   MgTiMo(PO4)3
_chemical_formula_sum   'Mg2 Ti2 Mo2 P6 O24'
_cell_volume   465.32778126
_cell_formula_units_Z   2
loop_
 _symmetry_equiv_pos_site_id
 _symmetry_equiv_pos_as_xyz
  1  'x, y, z'
loop_
 _atom_site_type_symbol
 _atom_site_label
 _atom_site_symmetry_multiplicity
 _atom_site_fract_x
 _atom_site_fract_y
 _atom_site_fract_z
 _atom_site_occupancy
  Mg  Mg0  1  0.00097700  0.00097700  0.00097700  1
  Mg  Mg1  1  0.50097700  0.50097700  0.50097700  1
  Ti  Ti2  1  0.14591900  0.14591900  0.14591900  1
  Ti  Ti3  1  0.64591900  0.64591900  0.64591900  1
  Mo  Mo4  1  0.35779500  0.35779500  0.35779500  1
  Mo  Mo5  1  0.85779500  0.85779500  0.85779500  1
  P  P6  1  0.04362300  0.44869300  0.75727800  1
  P  P7  1  0.44869300  0.75727800  0.04362300  1
  P  P8  1  0.75727800  0.04362300  0.44869300  1
  P  P9  1  0.25727800  0.94869300  0.54362300  1
  P  P10  1  0.54362300  0.25727800  0.94869300  1
  P  P11  1  0.94869300  0.54362300  0.25727800  1
  O  O12  1  0.09603900  0.50487300  0.32773900  1
  O  O13  1  0.32773900  0.09603900  0.50487300  1
  O  O14  1  0.05276200  0.25327300  0.91492100  1
  O  O15  1  0.50487300  0.32773900  0.09603900  1
  O  O16  1  0.00487300  0.59603900  0.82773900  1
  O  O17  1  0.23919600  0.43478800  0.60116000  1
  O  O18  1  0.25327300  0.91492100  0.05276200  1
  O  O19  1  0.43478800  0.60116000  0.23919600  1
  O  O20  1  0.19005300  0.00173600  0.37917100  1
  O  O21  1  0.60116000  0.23919600  0.43478800  1
  O  O22  1  0.10116000  0.93478800  0.73919600  1
  O  O23  1  0.37917100  0.19005300  0.00173600  1
  O  O24  1  0.59603900  0.82773900  0.00487300  1
  O  O25  1  0.91492100  0.05276200  0.25327300  1
  O  O26  1  0.41492100  0.75327300  0.55276200  1
  O  O27  1  0.82773900  0.00487300  0.59603900  1
  O  O28  1  0.55276200  0.41492100  0.75327300  1
  O  O29  1  0.73919600  0.10116000  0.93478800  1
  O  O30  1  0.75327300  0.55276200  0.41492100  1
  O  O31  1  0.00173600  0.37917100  0.19005300  1
  O  O32  1  0.50173600  0.69005300  0.87917100  1
  O  O33  1  0.93478800  0.73919600  0.10116000  1
  O  O34  1  0.69005300  0.87917100  0.50173600  1
  O  O35  1  0.87917100  0.50173600  0.69005300  1
