# generated using pymatgen
data_Mn3Pb8N9
_symmetry_space_group_name_H-M   'P 1'
_cell_length_a   7.65201321
_cell_length_b   11.57834250
_cell_length_c   18.64363826
_cell_angle_alpha   90.00000000
_cell_angle_beta   104.51260425
_cell_angle_gamma   90.00000000
_symmetry_Int_Tables_number   1
_chemical_formula_structural   Mn3Pb8N9
_chemical_formula_sum   'Mn12 Pb32 N36'
_cell_volume   1599.07798071
_cell_formula_units_Z   4
loop_
 _symmetry_equiv_pos_site_id
 _symmetry_equiv_pos_as_xyz
  1  'x, y, z'
loop_
 _atom_site_type_symbol
 _atom_site_label
 _atom_site_symmetry_multiplicity
 _atom_site_fract_x
 _atom_site_fract_y
 _atom_site_fract_z
 _atom_site_occupancy
  Mn  Mn0  1  0.63856116  0.10908531  0.75965145  1
  Mn  Mn1  1  0.36143884  0.60908531  0.74034855  1
  Mn  Mn2  1  0.36143884  0.89091469  0.24034855  1
  Mn  Mn3  1  0.63856116  0.39091469  0.25965145  1
  Mn  Mn4  1  0.82317213  0.86648852  0.57130642  1
  Mn  Mn5  1  0.17682787  0.36648852  0.92869358  1
  Mn  Mn6  1  0.17682787  0.13351148  0.42869358  1
  Mn  Mn7  1  0.82317213  0.63351148  0.07130642  1
  Mn  Mn8  1  0.77059656  0.31429752  0.56206765  1
  Mn  Mn9  1  0.22940344  0.81429752  0.93793235  1
  Mn  Mn10  1  0.22940344  0.68570248  0.43793235  1
  Mn  Mn11  1  0.77059656  0.18570248  0.06206765  1
  Pb  Pb12  1  0.48961218  0.94082712  0.10595616  1
  Pb  Pb13  1  0.51038782  0.44082712  0.39404384  1
  Pb  Pb14  1  0.51038782  0.05917288  0.89404384  1
  Pb  Pb15  1  0.48961218  0.55917288  0.60595616  1
  Pb  Pb16  1  0.51066555  0.11646890  0.58733629  1
  Pb  Pb17  1  0.48933445  0.61646890  0.91266371  1
  Pb  Pb18  1  0.48933445  0.88353110  0.41266371  1
  Pb  Pb19  1  0.51066555  0.38353110  0.08733629  1
  Pb  Pb20  1  0.70825053  0.82499043  0.72642522  1
  Pb  Pb21  1  0.29174947  0.32499043  0.77357478  1
  Pb  Pb22  1  0.29174947  0.17500957  0.27357478  1
  Pb  Pb23  1  0.70825053  0.67500957  0.22642522  1
  Pb  Pb24  1  0.76052036  0.34630046  0.72457922  1
  Pb  Pb25  1  0.23947964  0.84630046  0.77542078  1
  Pb  Pb26  1  0.23947964  0.65369954  0.27542078  1
  Pb  Pb27  1  0.76052036  0.15369954  0.22457922  1
  Pb  Pb28  1  0.74132481  0.33732357  0.91621115  1
  Pb  Pb29  1  0.25867519  0.83732357  0.58378885  1
  Pb  Pb30  1  0.25867519  0.66267643  0.08378885  1
  Pb  Pb31  1  0.74132481  0.16267643  0.41621115  1
  Pb  Pb32  1  0.00855956  0.08814733  0.83131130  1
  Pb  Pb33  1  0.99144044  0.58814733  0.66868870  1
  Pb  Pb34  1  0.99144044  0.91185267  0.16868870  1
  Pb  Pb35  1  0.00855956  0.41185267  0.33131130  1
  Pb  Pb36  1  0.99352200  0.09139536  0.62617468  1
  Pb  Pb37  1  0.00647800  0.59139536  0.87382532  1
  Pb  Pb38  1  0.00647800  0.90860464  0.37382532  1
  Pb  Pb39  1  0.99352200  0.40860464  0.12617468  1
  Pb  Pb40  1  0.12425343  0.35599452  0.52865359  1
  Pb  Pb41  1  0.87574657  0.85599452  0.97134641  1
  Pb  Pb42  1  0.87574657  0.64400548  0.47134641  1
  Pb  Pb43  1  0.12425343  0.14400548  0.02865359  1
  N  N44  1  0.58209848  0.33635071  0.59423210  1
  N  N45  1  0.41790152  0.83635071  0.90576790  1
  N  N46  1  0.41790152  0.66364929  0.40576790  1
  N  N47  1  0.58209848  0.16364929  0.09423210  1
  N  N48  1  0.57314663  0.22931087  0.80460552  1
  N  N49  1  0.42685337  0.72931087  0.69539448  1
  N  N50  1  0.42685337  0.77068913  0.19539448  1
  N  N51  1  0.57314663  0.27068913  0.30460552  1
  N  N52  1  0.77874858  0.15099319  0.97118267  1
  N  N53  1  0.22125142  0.65099319  0.52881733  1
  N  N54  1  0.22125142  0.84900681  0.02881733  1
  N  N55  1  0.77874858  0.34900681  0.47118267  1
  N  N56  1  0.62971112  0.89011453  0.59514043  1
  N  N57  1  0.37028888  0.39011453  0.90485957  1
  N  N58  1  0.37028888  0.10988547  0.40485957  1
  N  N59  1  0.62971112  0.60988547  0.09514043  1
  N  N60  1  0.80962293  0.13220916  0.71267962  1
  N  N61  1  0.19037707  0.63220916  0.78732038  1
  N  N62  1  0.19037707  0.86779084  0.28732038  1
  N  N63  1  0.80962293  0.36779084  0.21267962  1
  N  N64  1  0.97265636  0.33287637  0.62438048  1
  N  N65  1  0.02734364  0.83287637  0.87561952  1
  N  N66  1  0.02734364  0.66712363  0.37561952  1
  N  N67  1  0.97265636  0.16712363  0.12438048  1
  N  N68  1  0.02179740  0.28658588  0.86857305  1
  N  N69  1  0.97820260  0.78658588  0.63142695  1
  N  N70  1  0.97820260  0.71341412  0.13142695  1
  N  N71  1  0.02179740  0.21341412  0.36857305  1
  N  N72  1  0.18657027  0.15803729  0.52056455  1
  N  N73  1  0.81342973  0.65803729  0.97943545  1
  N  N74  1  0.81342973  0.84196271  0.47943545  1
  N  N75  1  0.18657027  0.34196271  0.02056455  1
  N  N76  1  0.55486658  0.97922572  0.77589257  1
  N  N77  1  0.44513342  0.47922572  0.72410743  1
  N  N78  1  0.44513342  0.02077428  0.22410743  1
  N  N79  1  0.55486658  0.52077428  0.27589257  1
