# generated using pymatgen
data_ZnS
_symmetry_space_group_name_H-M   'P 1'
_cell_length_a   13.58552578
_cell_length_b   13.11358828
_cell_length_c   13.54170118
_cell_angle_alpha   85.01093225
_cell_angle_beta   88.42763051
_cell_angle_gamma   93.41221472
_symmetry_Int_Tables_number   1
_chemical_formula_structural   ZnS
_chemical_formula_sum   'Zn50 S50'
_cell_volume   2397.82984004
_cell_formula_units_Z   50
loop_
 _symmetry_equiv_pos_site_id
 _symmetry_equiv_pos_as_xyz
  1  'x, y, z'
loop_
 _atom_site_type_symbol
 _atom_site_label
 _atom_site_symmetry_multiplicity
 _atom_site_fract_x
 _atom_site_fract_y
 _atom_site_fract_z
 _atom_site_occupancy
  Zn  Zn0  1  0.63152013  0.89807855  0.17781212  1
  Zn  Zn1  1  0.42743708  0.50579808  0.41001180  1
  Zn  Zn2  1  0.35174022  0.01041442  0.56626223  1
  Zn  Zn3  1  0.04377155  0.42502367  0.16173429  1
  Zn  Zn4  1  0.29240485  0.29188181  0.62157585  1
  Zn  Zn5  1  0.97383304  0.64143171  0.00603752  1
  Zn  Zn6  1  0.44902703  0.45949339  0.17524669  1
  Zn  Zn7  1  0.98944653  0.70993785  0.46801794  1
  Zn  Zn8  1  0.98570620  0.51651357  0.53113370  1
  Zn  Zn9  1  0.28215857  0.09755414  0.91289412  1
  Zn  Zn10  1  0.21497479  0.18668662  0.31469529  1
  Zn  Zn11  1  0.23166445  0.39672823  0.97735389  1
  Zn  Zn12  1  0.45161996  0.16526885  0.34387384  1
  Zn  Zn13  1  0.85378441  0.98632516  0.28534830  1
  Zn  Zn14  1  0.01680582  0.07379948  0.78228022  1
  Zn  Zn15  1  0.28123641  0.67157868  0.55019833  1
  Zn  Zn16  1  0.12202286  0.91392831  0.68797419  1
  Zn  Zn17  1  0.61517618  0.70401488  0.84466874  1
  Zn  Zn18  1  0.95853119  0.27140375  0.99470059  1
  Zn  Zn19  1  0.83393390  0.14499877  0.06937834  1
  Zn  Zn20  1  0.93070756  0.96899718  0.54203834  1
  Zn  Zn21  1  0.79587413  0.78352067  0.27826384  1
  Zn  Zn22  1  0.31182618  0.67896513  0.97716270  1
  Zn  Zn23  1  0.51796337  0.08413969  0.01202918  1
  Zn  Zn24  1  0.63575521  0.92670536  0.94298875  1
  Zn  Zn25  1  0.00044398  0.35849915  0.66018513  1
  Zn  Zn26  1  0.76568647  0.16725570  0.37527899  1
  Zn  Zn27  1  0.01667564  0.82503984  0.13353556  1
  Zn  Zn28  1  0.37875466  0.66301146  0.69603056  1
  Zn  Zn29  1  0.57511907  0.06604047  0.66897995  1
  Zn  Zn30  1  0.06045009  0.09388748  0.09591556  1
  Zn  Zn31  1  0.83668052  0.75378237  0.01239729  1
  Zn  Zn32  1  0.81607828  0.53342066  0.72487379  1
  Zn  Zn33  1  0.24243459  0.49126958  0.18480443  1
  Zn  Zn34  1  0.24622687  0.35048468  0.44989934  1
  Zn  Zn35  1  0.65416368  0.42595032  0.89570710  1
  Zn  Zn36  1  0.64488519  0.32881397  0.25527594  1
  Zn  Zn37  1  0.10811748  0.58641017  0.81686714  1
  Zn  Zn38  1  0.42205173  0.89846311  0.76613407  1
  Zn  Zn39  1  0.78827587  0.25984943  0.76471273  1
  Zn  Zn40  1  0.16542900  0.43324639  0.59501386  1
  Zn  Zn41  1  0.12038298  0.87727364  0.96853440  1
  Zn  Zn42  1  0.82895491  0.41428663  0.18433562  1
  Zn  Zn43  1  0.92888463  0.77476982  0.72682534  1
  Zn  Zn44  1  0.18794254  0.89704449  0.18883653  1
  Zn  Zn45  1  0.64131623  0.59540404  0.23731033  1
  Zn  Zn46  1  0.58407331  0.32612708  0.53338321  1
  Zn  Zn47  1  0.55868696  0.23361870  0.82279534  1
  Zn  Zn48  1  0.08885700  0.55770907  0.36412631  1
  Zn  Zn49  1  0.45024870  0.21451030  0.17230830  1
  S  S50  1  0.34423932  0.51193396  0.03744965  1
  S  S51  1  0.83873418  0.42489603  0.60829045  1
  S  S52  1  0.14454559  0.68750899  0.94116659  1
  S  S53  1  0.65291448  0.55400674  0.77843227  1
  S  S54  1  0.44489123  0.72502383  0.83428169  1
  S  S55  1  0.11941293  0.29751491  0.08113728  1
  S  S56  1  0.53257437  0.02856302  0.84285349  1
  S  S57  1  0.90075487  0.08306612  0.40881644  1
  S  S58  1  0.91879939  0.45997668  0.04375268  1
  S  S59  1  0.69960276  0.26822246  0.91614247  1
  S  S60  1  0.09219757  0.26865561  0.41210662  1
  S  S61  1  0.22927453  0.90392963  0.46984619  1
  S  S62  1  0.42003355  0.32031049  0.82994499  1
  S  S63  1  0.67064643  0.04196611  0.06325023  1
  S  S64  1  0.71010335  0.73700794  0.14076010  1
  S  S65  1  0.35493865  0.83198698  0.06137501  1
  S  S66  1  0.11372729  0.58993492  0.19293039  1
  S  S67  1  0.55944061  0.36015834  0.11034350  1
  S  S68  1  0.11275085  0.07052242  0.93398730  1
  S  S69  1  0.46874233  0.43380171  0.55697030  1
  S  S70  1  0.24225573  0.54343996  0.44482734  1
  S  S71  1  0.15622873  0.41183336  0.83021076  1
  S  S72  1  0.50320961  0.93664243  0.59864146  1
  S  S73  1  0.05450807  0.06054405  0.61308880  1
  S  S74  1  0.34516346  0.19907233  0.76505880  1
  S  S75  1  0.94970699  0.23837667  0.79136046  1
  S  S76  1  0.36925047  0.12363104  0.05681987  1
  S  S77  1  0.73751004  0.47703738  0.30514844  1
  S  S78  1  0.24163907  0.52767577  0.72546246  1
  S  S79  1  0.31363467  0.35917203  0.27767002  1
  S  S80  1  0.14271014  0.78780507  0.55666821  1
  S  S81  1  0.95730097  0.77200220  0.30187808  1
  S  S82  1  0.32383433  0.15537308  0.46168248  1
  S  S83  1  0.61126667  0.22433895  0.40793583  1
  S  S84  1  0.24860310  0.76166316  0.28499618  1
  S  S85  1  0.27666386  0.97603602  0.72034270  1
  S  S86  1  0.30543547  0.90856066  0.92903270  1
  S  S87  1  0.47534083  0.59957239  0.26672328  1
  S  S88  1  0.87727395  0.79912304  0.56883655  1
  S  S89  1  0.64900204  0.22508884  0.66705276  1
  S  S90  1  0.51061372  0.81958761  0.06732273  1
  S  S91  1  0.94071301  0.61232408  0.80423462  1
  S  S92  1  0.91041861  0.98569819  0.12432011  1
  S  S93  1  0.14915789  0.05323822  0.23504339  1
  S  S94  1  0.01059221  0.38363330  0.34291776  1
  S  S95  1  0.69470963  0.90429052  0.33238497  1
  S  S96  1  0.73846281  0.81810439  0.87622407  1
  S  S97  1  0.00528856  0.88750322  0.82306865  1
  S  S98  1  0.32911357  0.82561051  0.39288959  1
  S  S99  1  0.78729949  0.23740110  0.21045663  1
