# generated using pymatgen
data_Al2O3
_symmetry_space_group_name_H-M   'P 1'
_cell_length_a   10.57881240
_cell_length_b   10.50506360
_cell_length_c   10.18303842
_cell_angle_alpha   89.57302067
_cell_angle_beta   95.25196330
_cell_angle_gamma   88.96079304
_symmetry_Int_Tables_number   1
_chemical_formula_structural   Al2O3
_chemical_formula_sum   'Al40 O60'
_cell_volume   1126.66877546
_cell_formula_units_Z   20
loop_
 _symmetry_equiv_pos_site_id
 _symmetry_equiv_pos_as_xyz
  1  'x, y, z'
loop_
 _atom_site_type_symbol
 _atom_site_label
 _atom_site_symmetry_multiplicity
 _atom_site_fract_x
 _atom_site_fract_y
 _atom_site_fract_z
 _atom_site_occupancy
  Al  Al0  1  0.57361100  0.52109400  0.76919300  1
  Al  Al1  1  0.72351300  0.66182100  0.55114500  1
  Al  Al2  1  0.31866300  0.02252100  0.57911000  1
  Al  Al3  1  0.53493400  0.56572600  0.03486200  1
  Al  Al4  1  0.82432500  0.45278300  0.33200400  1
  Al  Al5  1  0.15769600  0.74565100  0.52831200  1
  Al  Al6  1  0.39309300  0.34922400  0.51336600  1
  Al  Al7  1  0.97531000  0.22108100  0.31313000  1
  Al  Al8  1  0.30781800  0.42094500  0.21072700  1
  Al  Al9  1  0.86939100  0.44299100  0.78617400  1
  Al  Al10  1  0.41631400  0.63581200  0.34564100  1
  Al  Al11  1  0.22191200  0.56271600  0.98558700  1
  Al  Al12  1  0.56368700  0.36604100  0.29230200  1
  Al  Al13  1  0.91084800  0.89537900  0.70432600  1
  Al  Al14  1  0.67321400  0.78375900  0.85177200  1
  Al  Al15  1  0.12029100  0.77130200  0.79403800  1
  Al  Al16  1  0.53144200  0.10134000  0.32213200  1
  Al  Al17  1  0.19365000  0.49836100  0.69442100  1
  Al  Al18  1  0.38200900  0.73281900  0.83221100  1
  Al  Al19  1  0.63458100  0.97050300  0.60296700  1
  Al  Al20  1  0.73059900  0.15988800  0.81115300  1
  Al  Al21  1  0.99151000  0.42547700  0.10329100  1
  Al  Al22  1  0.97895500  0.48124300  0.53138300  1
  Al  Al23  1  0.00286500  0.81214800  0.24000400  1
  Al  Al24  1  0.28918500  0.88126700  0.33895400  1
  Al  Al25  1  0.68446600  0.36722500  0.59214200  1
  Al  Al26  1  0.83335800  0.00582800  0.97898500  1
  Al  Al27  1  0.75194400  0.23355400  0.15343600  1
  Al  Al28  1  0.47107000  0.02408900  0.85421000  1
  Al  Al29  1  0.48114700  0.75358800  0.57304300  1
  Al  Al30  1  0.77084700  0.99037000  0.37884200  1
  Al  Al31  1  0.50613600  0.86416500  0.15331200  1
  Al  Al32  1  0.74957500  0.80574500  0.15879800  1
  Al  Al33  1  0.38004200  0.35024400  0.82652400  1
  Al  Al34  1  0.36574000  0.14335200  0.05622500  1
  Al  Al35  1  0.20304000  0.99300700  0.86419600  1
  Al  Al36  1  0.11068100  0.03941500  0.14290400  1
  Al  Al37  1  0.28032900  0.19689700  0.33727600  1
  Al  Al38  1  0.92501900  0.66886900  0.95688300  1
  Al  Al39  1  0.13657500  0.54547400  0.33684600  1
  O  O40  1  0.11813000  0.14037800  0.28526400  1
  O  O41  1  0.22642800  0.37182700  0.35563900  1
  O  O42  1  0.00642800  0.45900300  0.70293300  1
  O  O43  1  0.66078900  0.79089200  0.66054700  1
  O  O44  1  0.69645600  0.38105800  0.42643100  1
  O  O45  1  0.83482800  0.02570700  0.80434400  1
  O  O46  1  0.94551700  0.34281000  0.43323500  1
  O  O47  1  0.30070600  0.17626900  0.51547900  1
  O  O48  1  0.59255900  0.20751500  0.20152600  1
  O  O49  1  0.13157000  0.54040300  0.51985200  1
  O  O50  1  0.41541800  0.19887200  0.90363200  1
  O  O51  1  0.05624400  0.93930900  0.80029600  1
  O  O52  1  0.81054400  0.93867500  0.55736500  1
  O  O53  1  0.90345300  0.49301800  0.95134700  1
  O  O54  1  0.23115500  0.66896700  0.71325500  1
  O  O55  1  0.59462700  0.07599600  0.74558400  1
  O  O56  1  0.64014100  0.07090000  0.46185200  1
  O  O57  1  0.32154500  0.25416100  0.16914400  1
  O  O58  1  0.78793100  0.29733600  0.73275500  1
  O  O59  1  0.20953000  0.91651200  0.49462900  1
  O  O60  1  0.83394600  0.13083800  0.30151700  1
  O  O61  1  0.96142700  0.98712200  0.08952100  1
  O  O62  1  0.08851900  0.66628600  0.92933900  1
  O  O63  1  0.85343800  0.76441500  0.82531200  1
  O  O64  1  0.53795000  0.37351700  0.65200300  1
  O  O65  1  0.62929900  0.94604500  0.25091600  1
  O  O66  1  0.57825700  0.68352100  0.45233400  1
  O  O67  1  0.73215600  0.52544800  0.68020400  1
  O  O68  1  0.08249400  0.71298700  0.36429200  1
  O  O69  1  0.36705300  0.03689300  0.30161200  1
  O  O70  1  0.72266200  0.88520700  0.99863300  1
  O  O71  1  0.26886700  0.58775800  0.24562900  1
  O  O72  1  0.45000200  0.47645700  0.40570800  1
  O  O73  1  0.02285800  0.77312500  0.63431500  1
  O  O74  1  0.84459100  0.57895000  0.46603400  1
  O  O75  1  0.93089800  0.27777500  0.14503500  1
  O  O76  1  0.90142300  0.72394700  0.11475600  1
  O  O77  1  0.33100100  0.71881100  0.47329400  1
  O  O78  1  0.15525000  0.44671200  0.08861400  1
  O  O79  1  0.60351200  0.71561500  0.13489100  1
  O  O80  1  0.40467200  0.79197300  0.25653500  1
  O  O81  1  0.51255100  0.43633300  0.89944200  1
  O  O82  1  0.24106800  0.44577100  0.86276000  1
  O  O83  1  0.74857900  0.16065300  0.98771600  1
  O  O84  1  0.31558300  0.03376700  0.75252000  1
  O  O85  1  0.26071700  0.83654200  0.88406600  1
  O  O86  1  0.37728600  0.63582400  0.97912600  1
  O  O87  1  0.85341400  0.86167400  0.29944600  1
  O  O88  1  0.47202700  0.46638100  0.16311000  1
  O  O89  1  0.72370700  0.40687500  0.19138700  1
  O  O90  1  0.20357300  0.08194100  0.01138500  1
  O  O91  1  0.46486800  0.92554300  0.56800200  1
  O  O92  1  0.46666600  0.64380900  0.70671300  1
  O  O93  1  0.50885300  0.85118000  0.84264700  1
  O  O94  1  0.30951000  0.38375500  0.65669100  1
  O  O95  1  0.97656800  0.50539200  0.25548900  1
  O  O96  1  0.45203600  0.99437500  0.03694600  1
  O  O97  1  0.64780600  0.62253700  0.90595300  1
  O  O98  1  0.46732800  0.25192300  0.38754500  1
  O  O99  1  0.15253800  0.89019700  0.21831400  1
