# generated using pymatgen
data_GaN
_symmetry_space_group_name_H-M   'P 1'
_cell_length_a   11.53170216
_cell_length_b   11.64254486
_cell_length_c   11.69105154
_cell_angle_alpha   92.44871753
_cell_angle_beta   86.39916260
_cell_angle_gamma   90.03897451
_symmetry_Int_Tables_number   1
_chemical_formula_structural   GaN
_chemical_formula_sum   'Ga50 N50'
_cell_volume   1565.08906496
_cell_formula_units_Z   50
loop_
 _symmetry_equiv_pos_site_id
 _symmetry_equiv_pos_as_xyz
  1  'x, y, z'
loop_
 _atom_site_type_symbol
 _atom_site_label
 _atom_site_symmetry_multiplicity
 _atom_site_fract_x
 _atom_site_fract_y
 _atom_site_fract_z
 _atom_site_occupancy
  Ga  Ga0  1  0.05687127  0.66456972  0.59110132  1
  Ga  Ga1  1  0.25474979  0.41426197  0.37122736  1
  Ga  Ga2  1  0.08251455  0.62649737  0.82912321  1
  Ga  Ga3  1  0.81881445  0.77348820  0.67481432  1
  Ga  Ga4  1  0.32551023  0.17819624  0.14588632  1
  Ga  Ga5  1  0.43589264  0.47389750  0.81081401  1
  Ga  Ga6  1  0.58979555  0.71811608  0.76797979  1
  Ga  Ga7  1  0.22412108  0.91179293  0.18403816  1
  Ga  Ga8  1  0.43750815  0.54957044  0.35153567  1
  Ga  Ga9  1  0.93002642  0.03243548  0.24451183  1
  Ga  Ga10  1  0.26363529  0.73797134  0.00313652  1
  Ga  Ga11  1  0.13483595  0.07996925  0.04061554  1
  Ga  Ga12  1  0.73525411  0.49133673  0.77994529  1
  Ga  Ga13  1  0.76167532  0.25018107  0.89113410  1
  Ga  Ga14  1  0.01026931  0.24311469  0.33331590  1
  Ga  Ga15  1  0.49547514  0.95265271  0.77979455  1
  Ga  Ga16  1  0.75938679  0.25318303  0.37293505  1
  Ga  Ga17  1  0.54223078  0.73551481  0.01154079  1
  Ga  Ga18  1  0.71075937  0.54610703  0.12516972  1
  Ga  Ga19  1  0.94214686  0.10932596  0.52776768  1
  Ga  Ga20  1  0.04387674  0.71376117  0.33586112  1
  Ga  Ga21  1  0.50702599  0.77525129  0.27783702  1
  Ga  Ga22  1  0.71126792  0.46290139  0.39832519  1
  Ga  Ga23  1  0.50298321  0.33559398  0.24287991  1
  Ga  Ga24  1  0.42765834  0.33012646  0.49801752  1
  Ga  Ga25  1  0.62352108  0.06530160  0.22015142  1
  Ga  Ga26  1  0.15204430  0.32801142  0.12153007  1
  Ga  Ga27  1  0.98498903  0.50571859  0.33955737  1
  Ga  Ga28  1  0.27669725  0.71601670  0.42351744  1
  Ga  Ga29  1  0.85814049  0.03665263  0.03001237  1
  Ga  Ga30  1  0.93450211  0.46981539  0.93489835  1
  Ga  Ga31  1  0.51735095  0.54484580  0.58681611  1
  Ga  Ga32  1  0.90811697  0.17634296  0.73226425  1
  Ga  Ga33  1  0.98798955  0.38049753  0.58932147  1
  Ga  Ga34  1  0.44439438  0.93679298  0.05745985  1
  Ga  Ga35  1  0.00041904  0.18838028  0.92417414  1
  Ga  Ga36  1  0.74058032  0.94269080  0.82846279  1
  Ga  Ga37  1  0.80916112  0.70033516  0.93680865  1
  Ga  Ga38  1  0.30640255  0.75063158  0.65371624  1
  Ga  Ga39  1  0.97089674  0.58059272  0.12681362  1
  Ga  Ga40  1  0.83260140  0.32395924  0.14272398  1
  Ga  Ga41  1  0.75658006  0.81352250  0.16534553  1
  Ga  Ga42  1  0.99149441  0.87102734  0.81292760  1
  Ga  Ga43  1  0.24055520  0.47362280  0.59917229  1
  Ga  Ga44  1  0.39318412  0.05004575  0.32284038  1
  Ga  Ga45  1  0.22572158  0.48739428  0.94867477  1
  Ga  Ga46  1  0.11708323  0.91474156  0.38359992  1
  Ga  Ga47  1  0.49918502  0.75823107  0.51048616  1
  Ga  Ga48  1  0.80372678  0.56767286  0.56691277  1
  Ga  Ga49  1  0.01528818  0.82944318  0.04000457  1
  N  N50  1  0.27909229  0.02656772  0.76365315  1
  N  N51  1  0.63216161  0.31009066  0.64685760  1
  N  N52  1  0.61298179  0.14920205  0.41056103  1
  N  N53  1  0.01559143  0.05005731  0.38249776  1
  N  N54  1  0.96630934  0.53430699  0.51336638  1
  N  N55  1  0.12121841  0.76749887  0.92254255  1
  N  N56  1  0.83500357  0.48025514  0.22849624  1
  N  N57  1  0.19226912  0.62058559  0.68332609  1
  N  N58  1  0.76065175  0.74696033  0.37549954  1
  N  N59  1  0.18274319  0.68180876  0.17883058  1
  N  N60  1  0.96096551  0.71336298  0.74220094  1
  N  N61  1  0.67546884  0.78488992  0.89537437  1
  N  N62  1  0.17507390  0.17043826  0.53473320  1
  N  N63  1  0.61725600  0.34521940  0.92201567  1
  N  N64  1  0.15514149  0.30007226  0.82343173  1
  N  N65  1  0.27216907  0.15743974  0.52607702  1
  N  N66  1  0.61218320  0.02857651  0.97188686  1
  N  N67  1  0.64834081  0.95360860  0.50030813  1
  N  N68  1  0.89924900  0.25829007  0.46366169  1
  N  N69  1  0.63256579  0.70377747  0.15634399  1
  N  N70  1  0.43785515  0.53659739  0.11114516  1
  N  N71  1  0.34573009  0.50773896  0.09742999  1
  N  N72  1  0.44231241  0.20095985  0.83925275  1
  N  N73  1  0.88549470  0.73571874  0.08270531  1
  N  N74  1  0.06537483  0.86273264  0.55355485  1
  N  N75  1  0.29486702  0.02691541  0.07077278  1
  N  N76  1  0.58069124  0.55681800  0.74322457  1
  N  N77  1  0.50198905  0.93658855  0.22306296  1
  N  N78  1  0.01950010  0.93014664  0.62196484  1
  N  N79  1  0.64679218  0.38216267  0.11723182  1
  N  N80  1  0.65672751  0.99032991  0.58958249  1
  N  N81  1  0.04968693  0.96259754  0.13102930  1
  N  N82  1  0.82081604  0.80542019  0.42434179  1
  N  N83  1  0.91807764  0.19732753  0.20572966  1
  N  N84  1  0.47912063  0.17324698  0.20466634  1
  N  N85  1  0.10485817  0.37729907  0.29718323  1
  N  N86  1  0.23029494  0.64257548  0.25592918  1
  N  N87  1  0.58820481  0.38934703  0.01792678  1
  N  N88  1  0.67036263  0.22183681  0.64597767  1
  N  N89  1  0.89358880  0.31475907  0.98144912  1
  N  N90  1  0.77914046  0.97484124  0.18697349  1
  N  N91  1  0.22161008  0.95635677  0.72813947  1
  N  N92  1  0.51146058  0.15865141  0.44336505  1
  N  N93  1  0.20623454  0.28702893  0.73847821  1
  N  N94  1  0.54443212  0.45326371  0.43732396  1
  N  N95  1  0.39639552  0.43362123  0.64130007  1
  N  N96  1  0.47462040  0.80474048  0.69382919  1
  N  N97  1  0.65324625  0.10574411  0.02415567  1
  N  N98  1  0.38550943  0.22640445  0.91812180  1
  N  N99  1  0.77463055  0.54264000  0.94810206  1
