# generated using pymatgen
data_Al2O3
_symmetry_space_group_name_H-M   'P 1'
_cell_length_a   10.02485551
_cell_length_b   10.02510928
_cell_length_c   10.97272465
_cell_angle_alpha   90.96522365
_cell_angle_beta   86.21402004
_cell_angle_gamma   89.32107611
_symmetry_Int_Tables_number   1
_chemical_formula_structural   Al2O3
_chemical_formula_sum   'Al40 O60'
_cell_volume   1100.10621840
_cell_formula_units_Z   20
loop_
 _symmetry_equiv_pos_site_id
 _symmetry_equiv_pos_as_xyz
  1  'x, y, z'
loop_
 _atom_site_type_symbol
 _atom_site_label
 _atom_site_symmetry_multiplicity
 _atom_site_fract_x
 _atom_site_fract_y
 _atom_site_fract_z
 _atom_site_occupancy
  Al  Al0  1  0.75599800  0.48647400  0.76510900  1
  Al  Al1  1  0.78885100  0.82776500  0.32462800  1
  Al  Al2  1  0.55226300  0.70303700  0.73796900  1
  Al  Al3  1  0.05826100  0.67662500  0.14665700  1
  Al  Al4  1  0.83593900  0.48801900  0.20041400  1
  Al  Al5  1  0.22654400  0.00477600  0.46523400  1
  Al  Al6  1  0.05869100  0.57522500  0.68037100  1
  Al  Al7  1  0.95331500  0.34382700  0.55620300  1
  Al  Al8  1  0.56355200  0.35975300  0.18265200  1
  Al  Al9  1  0.69601400  0.24446800  0.92368300  1
  Al  Al10  1  0.46721700  0.48439800  0.50520700  1
  Al  Al11  1  0.24264000  0.25930900  0.63022400  1
  Al  Al12  1  0.68005400  0.30083900  0.60441700  1
  Al  Al13  1  0.72616500  0.80680000  0.55743300  1
  Al  Al14  1  0.55946300  0.04365200  0.03957600  1
  Al  Al15  1  0.07256100  0.88946500  0.67908600  1
  Al  Al16  1  0.32786500  0.15249300  0.22558700  1
  Al  Al17  1  0.77836600  0.91541900  0.82812400  1
  Al  Al18  1  0.37021900  0.45539700  0.73686400  1
  Al  Al19  1  0.48482600  0.90518900  0.30283100  1
  Al  Al20  1  0.55143600  0.11546300  0.75853500  1
  Al  Al21  1  0.20452400  0.50096300  0.91980800  1
  Al  Al22  1  0.93876700  0.64581200  0.93451400  1
  Al  Al23  1  0.07634900  0.90893700  0.27577000  1
  Al  Al24  1  0.28707500  0.67519200  0.31759800  1
  Al  Al25  1  0.49842700  0.19020900  0.44900900  1
  Al  Al26  1  0.99301700  0.26094400  0.00370800  1
  Al  Al27  1  0.53885100  0.53249400  0.98435700  1
  Al  Al28  1  0.11355900  0.95252400  0.98315600  1
  Al  Al29  1  0.90706500  0.07676200  0.45567500  1
  Al  Al30  1  0.84674000  0.05443800  0.14533600  1
  Al  Al31  1  0.53878300  0.63578700  0.23967200  1
  Al  Al32  1  0.42498500  0.89979800  0.58440800  1
  Al  Al33  1  0.32033700  0.21382100  0.93149200  1
  Al  Al34  1  0.30800900  0.89933900  0.80888700  1
  Al  Al35  1  0.71476900  0.79293200  0.04586200  1
  Al  Al36  1  0.28807100  0.41397600  0.17607500  1
  Al  Al37  1  0.90165600  0.15886600  0.74133800  1
  Al  Al38  1  0.02277200  0.33793100  0.28953900  1
  Al  Al39  1  0.98938400  0.64397100  0.43538300  1
  O  O40  1  0.95273300  0.76522000  0.27207200  1
  O  O41  1  0.19240900  0.30433800  0.27042600  1
  O  O42  1  0.72272300  0.09080300  0.80750900  1
  O  O43  1  0.83293700  0.18686900  0.59480400  1
  O  O44  1  0.55757300  0.04116700  0.38176700  1
  O  O45  1  0.80188600  0.43610200  0.61121300  1
  O  O46  1  0.19691300  0.52410900  0.76139000  1
  O  O47  1  0.24712400  0.92292100  0.64463800  1
  O  O48  1  0.63415400  0.38048200  0.02332900  1
  O  O49  1  0.02851300  0.73265400  0.62596800  1
  O  O50  1  0.26140200  0.04237100  0.92938700  1
  O  O51  1  0.06149200  0.25604700  0.66295200  1
  O  O52  1  0.95607300  0.25233600  0.41419100  1
  O  O53  1  0.60757700  0.66194100  0.07977800  1
  O  O54  1  0.39968700  0.74930300  0.81460400  1
  O  O55  1  0.78782400  0.94128500  0.46358900  1
  O  O56  1  0.44767400  0.01915600  0.16576500  1
  O  O57  1  0.92430100  0.32655800  0.15093300  1
  O  O58  1  0.85725300  0.80064400  0.93353700  1
  O  O59  1  0.12983100  0.85689200  0.84453300  1
  O  O60  1  0.20928600  0.03132600  0.30033500  1
  O  O61  1  0.88271800  0.26474600  0.88370000  1
  O  O62  1  0.40187600  0.76344600  0.22590900  1
  O  O63  1  0.93829000  0.98678300  0.75314100  1
  O  O64  1  0.81771500  0.69204100  0.46207800  1
  O  O65  1  0.50728200  0.15887800  0.92060200  1
  O  O66  1  0.92076200  0.54643400  0.80201800  1
  O  O67  1  0.14863100  0.33660700  0.96469700  1
  O  O68  1  0.14122500  0.74802100  0.38637300  1
  O  O69  1  0.33117900  0.26984400  0.77188600  1
  O  O70  1  0.70886900  0.14170200  0.07463800  1
  O  O71  1  0.32510000  0.40569600  0.57907600  1
  O  O72  1  0.44542400  0.49223300  0.14789100  1
  O  O73  1  0.95742400  0.50537800  0.31250200  1
  O  O74  1  0.93529300  0.03672300  0.28374000  1
  O  O75  1  0.99129900  0.08259700  0.03479800  1
  O  O76  1  0.11392800  0.85336900  0.11673000  1
  O  O77  1  0.41704700  0.57445300  0.37979100  1
  O  O78  1  0.45796100  0.26332800  0.28860200  1
  O  O79  1  0.05280100  0.99500300  0.51325100  1
  O  O80  1  0.66798000  0.47998600  0.25211400  1
  O  O81  1  0.56241400  0.16878600  0.60827500  1
  O  O82  1  0.19716000  0.57202500  0.20013100  1
  O  O83  1  0.58704600  0.35338800  0.47439100  1
  O  O84  1  0.54951300  0.77577200  0.57746800  1
  O  O85  1  0.66090200  0.33208200  0.77837600  1
  O  O86  1  0.50816500  0.54041600  0.65854800  1
  O  O87  1  0.76713100  0.89941300  0.16464900  1
  O  O88  1  0.63995000  0.59383700  0.84855600  1
  O  O89  1  0.62146900  0.77304400  0.31516400  1
  O  O90  1  0.45492500  0.97851200  0.73060900  1
  O  O91  1  0.72182000  0.80121500  0.71910800  1
  O  O92  1  0.04470700  0.49751300  0.53373100  1
  O  O93  1  0.38446000  0.48330800  0.90894400  1
  O  O94  1  0.31429700  0.15281900  0.50971100  1
  O  O95  1  0.88306900  0.60837500  0.09100000  1
  O  O96  1  0.63179000  0.90804300  0.95386700  1
  O  O97  1  0.10193700  0.62555700  0.98556400  1
  O  O98  1  0.33991800  0.25833600  0.08830400  1
  O  O99  1  0.36317300  0.88832200  0.43753900  1
