# generated using pymatgen
data_Al2O3
_symmetry_space_group_name_H-M   'P 1'
_cell_length_a   10.55428581
_cell_length_b   10.15682272
_cell_length_c   10.46520676
_cell_angle_alpha   94.02333762
_cell_angle_beta   95.11472453
_cell_angle_gamma   89.79878877
_symmetry_Int_Tables_number   1
_chemical_formula_structural   Al2O3
_chemical_formula_sum   'Al40 O60'
_cell_volume   1114.62436694
_cell_formula_units_Z   20
loop_
 _symmetry_equiv_pos_site_id
 _symmetry_equiv_pos_as_xyz
  1  'x, y, z'
loop_
 _atom_site_type_symbol
 _atom_site_label
 _atom_site_symmetry_multiplicity
 _atom_site_fract_x
 _atom_site_fract_y
 _atom_site_fract_z
 _atom_site_occupancy
  Al  Al0  1  0.55886100  0.14208900  0.76425700  1
  Al  Al1  1  0.66289600  0.07018300  0.53061600  1
  Al  Al2  1  0.29981600  0.40525200  0.82747300  1
  Al  Al3  1  0.08061600  0.22940600  0.35853700  1
  Al  Al4  1  0.89579700  0.19744700  0.13933900  1
  Al  Al5  1  0.27580600  0.71589600  0.21075000  1
  Al  Al6  1  0.16337000  0.00823700  0.58263300  1
  Al  Al7  1  0.07251700  0.30673800  0.62444300  1
  Al  Al8  1  0.43282400  0.18600600  0.98723900  1
  Al  Al9  1  0.68398200  0.36442500  0.00296100  1
  Al  Al10  1  0.48741600  0.48220300  0.64060100  1
  Al  Al11  1  0.38936700  0.85825300  0.79456000  1
  Al  Al12  1  0.43061700  0.93244000  0.53730000  1
  Al  Al13  1  0.85923900  0.93242000  0.64000400  1
  Al  Al14  1  0.48577200  0.10773500  0.26919800  1
  Al  Al15  1  0.69947600  0.88745700  0.82241300  1
  Al  Al16  1  0.18026500  0.28764600  0.15221100  1
  Al  Al17  1  0.62030600  0.85685300  0.30048100  1
  Al  Al18  1  0.21346200  0.99811100  0.31466900  1
  Al  Al19  1  0.53123800  0.91499600  0.01233300  1
  Al  Al20  1  0.95756700  0.04026600  0.93749100  1
  Al  Al21  1  0.44575400  0.60170000  0.95880400  1
  Al  Al22  1  0.82257500  0.88347700  0.11814200  1
  Al  Al23  1  0.98714000  0.69401100  0.21685000  1
  Al  Al24  1  0.24258500  0.92505700  0.01229100  1
  Al  Al25  1  0.34669400  0.21611200  0.51169800  1
  Al  Al26  1  0.06463500  0.58785500  0.71000400  1
  Al  Al27  1  0.53562900  0.55932500  0.20720400  1
  Al  Al28  1  0.97382200  0.34576400  0.90278600  1
  Al  Al29  1  0.12893800  0.85009300  0.77391600  1
  Al  Al30  1  0.90415900  0.65967800  0.91265400  1
  Al  Al31  1  0.59546400  0.35385300  0.42157700  1
  Al  Al32  1  0.31830800  0.47434100  0.36678700  1
  Al  Al33  1  0.28815400  0.70482000  0.53677700  1
  Al  Al34  1  0.77106100  0.62407800  0.66217800  1
  Al  Al35  1  0.77900000  0.61789900  0.39105700  1
  Al  Al36  1  0.16007400  0.50631600  0.04586500  1
  Al  Al37  1  0.78731700  0.35709200  0.71175800  1
  Al  Al38  1  0.91280300  0.99938100  0.36088800  1
  Al  Al39  1  0.88627600  0.38550300  0.31729300  1
  O  O40  1  0.99402200  0.85136900  0.29464900  1
  O  O41  1  0.16002000  0.13328200  0.21299600  1
  O  O42  1  0.59207600  0.22035300  0.93112600  1
  O  O43  1  0.00049600  0.34286100  0.47020900  1
  O  O44  1  0.77703800  0.32900900  0.14902400  1
  O  O45  1  0.95236800  0.27958400  0.73271000  1
  O  O46  1  0.49359200  0.76071000  0.91668900  1
  O  O47  1  0.08678800  0.05897300  0.42101600  1
  O  O48  1  0.57492700  0.49846800  0.04966800  1
  O  O49  1  0.10738000  0.97998400  0.92195700  1
  O  O50  1  0.20297200  0.18853000  0.60514200  1
  O  O51  1  0.91143200  0.57281300  0.30308000  1
  O  O52  1  0.89929800  0.16780000  0.30620700  1
  O  O53  1  0.38377800  0.01283400  0.98861200  1
  O  O54  1  0.76715700  0.91843200  0.27042800  1
  O  O55  1  0.85820300  0.95924400  0.81776600  1
  O  O56  1  0.26120500  0.79551800  0.88972800  1
  O  O57  1  0.78441400  0.40226200  0.88032300  1
  O  O58  1  0.69663100  0.90210400  0.00014700  1
  O  O59  1  0.42603600  0.79035100  0.63250300  1
  O  O60  1  0.25169200  0.88601500  0.18026500  1
  O  O61  1  0.90353000  0.51703600  0.68151900  1
  O  O62  1  0.49013900  0.45815100  0.32682100  1
  O  O63  1  0.92241500  0.20703900  0.97284000  1
  O  O64  1  0.02842300  0.93252000  0.64486800  1
  O  O65  1  0.43764600  0.21899100  0.15280000  1
  O  O66  1  0.25978900  0.95279700  0.71869900  1
  O  O67  1  0.00292600  0.51782800  0.94738800  1
  O  O68  1  0.36305900  0.54445900  0.54084400  1
  O  O69  1  0.15841000  0.69757500  0.63375500  1
  O  O70  1  0.41800900  0.66678800  0.14220400  1
  O  O71  1  0.27602700  0.65642500  0.36366400  1
  O  O72  1  0.80076200  0.71900800  0.53452500  1
  O  O73  1  0.25304100  0.44318300  0.19389500  1
  O  O74  1  0.82902700  0.02852300  0.50385500  1
  O  O75  1  0.91484900  0.01857300  0.09487500  1
  O  O76  1  0.15954600  0.43770200  0.72009300  1
  O  O77  1  0.48008600  0.33046900  0.54168600  1
  O  O78  1  0.24319800  0.32104100  0.40620600  1
  O  O79  1  0.88161600  0.72395900  0.07271000  1
  O  O80  1  0.61168100  0.17831100  0.38718400  1
  O  O81  1  0.68578600  0.20846800  0.67090600  1
  O  O82  1  0.12663200  0.65564000  0.13929400  1
  O  O83  1  0.74367800  0.44035700  0.39991000  1
  O  O84  1  0.35783200  0.24761400  0.84868900  1
  O  O85  1  0.46189700  0.09541200  0.61234200  1
  O  O86  1  0.65931400  0.48968100  0.63922300  1
  O  O87  1  0.52665700  0.94797700  0.18623700  1
  O  O88  1  0.64557300  0.67997000  0.29235400  1
  O  O89  1  0.68676300  0.93617200  0.65464900  1
  O  O90  1  0.75882500  0.71149200  0.81294200  1
  O  O91  1  0.01679800  0.72390300  0.81568300  1
  O  O92  1  0.26539300  0.89962000  0.46900500  1
  O  O93  1  0.44536600  0.49586200  0.79836300  1
  O  O94  1  0.36118800  0.09140600  0.37453300  1
  O  O95  1  0.02132800  0.33266600  0.21645100  1
  O  O96  1  0.53909400  0.97622600  0.82879800  1
  O  O97  1  0.14036100  0.32714600  0.98819500  1
  O  O98  1  0.28851800  0.53023200  0.95304600  1
  O  O99  1  0.55944200  0.92836700  0.43766000  1
