# generated using pymatgen
data_ZnS
_symmetry_space_group_name_H-M   'P 1'
_cell_length_a   13.91725089
_cell_length_b   13.52046042
_cell_length_c   12.45853008
_cell_angle_alpha   90.78487527
_cell_angle_beta   91.55615652
_cell_angle_gamma   88.88854967
_symmetry_Int_Tables_number   1
_chemical_formula_structural   ZnS
_chemical_formula_sum   'Zn50 S50'
_cell_volume   2342.78322147
_cell_formula_units_Z   50
loop_
 _symmetry_equiv_pos_site_id
 _symmetry_equiv_pos_as_xyz
  1  'x, y, z'
loop_
 _atom_site_type_symbol
 _atom_site_label
 _atom_site_symmetry_multiplicity
 _atom_site_fract_x
 _atom_site_fract_y
 _atom_site_fract_z
 _atom_site_occupancy
  Zn  Zn0  1  0.43914846  0.92699845  0.89536048  1
  Zn  Zn1  1  0.38365413  0.27283143  0.19073180  1
  Zn  Zn2  1  0.73965334  0.20139737  0.93494425  1
  Zn  Zn3  1  0.56619400  0.28001307  0.88052163  1
  Zn  Zn4  1  0.14688945  0.14960795  0.20289729  1
  Zn  Zn5  1  0.84302474  0.29005802  0.65158678  1
  Zn  Zn6  1  0.51052172  0.91395548  0.63442312  1
  Zn  Zn7  1  0.79332904  0.18435775  0.15035894  1
  Zn  Zn8  1  0.27766642  0.10552949  0.70407318  1
  Zn  Zn9  1  0.51522714  0.71754928  0.87076779  1
  Zn  Zn10  1  0.71794058  0.44081956  0.49409294  1
  Zn  Zn11  1  0.73392069  0.92694005  0.09049458  1
  Zn  Zn12  1  0.80371924  0.61957176  0.08898283  1
  Zn  Zn13  1  0.97622382  0.05139343  0.98875123  1
  Zn  Zn14  1  0.19284658  0.65574398  0.02763492  1
  Zn  Zn15  1  0.69343847  0.44952846  0.05169806  1
  Zn  Zn16  1  0.98110325  0.11411071  0.46161410  1
  Zn  Zn17  1  0.06149883  0.77239217  0.26620156  1
  Zn  Zn18  1  0.94799759  0.02422192  0.30369287  1
  Zn  Zn19  1  0.07173858  0.94186783  0.72023323  1
  Zn  Zn20  1  0.89364202  0.28719516  0.85272320  1
  Zn  Zn21  1  0.58664422  0.29818180  0.67836433  1
  Zn  Zn22  1  0.81857002  0.47010477  0.19939337  1
  Zn  Zn23  1  0.59429959  0.16594351  0.42055491  1
  Zn  Zn24  1  0.29070626  0.08274792  0.02232555  1
  Zn  Zn25  1  0.29129789  0.70856704  0.67505335  1
  Zn  Zn26  1  0.83519527  0.80894909  0.84013485  1
  Zn  Zn27  1  0.57351612  0.79117018  0.02955990  1
  Zn  Zn28  1  0.66970369  0.03812326  0.89702004  1
  Zn  Zn29  1  0.52242586  0.13859043  0.74584786  1
  Zn  Zn30  1  0.36443314  0.86822071  0.16810959  1
  Zn  Zn31  1  0.00281350  0.38860791  0.44181321  1
  Zn  Zn32  1  0.38690376  0.75274822  0.41191339  1
  Zn  Zn33  1  0.26471549  0.31023799  0.45280364  1
  Zn  Zn34  1  0.29614546  0.03232805  0.35995161  1
  Zn  Zn35  1  0.61105587  0.77181507  0.27882299  1
  Zn  Zn36  1  0.57597583  0.38389434  0.26419242  1
  Zn  Zn37  1  0.66082017  0.71239101  0.66394734  1
  Zn  Zn38  1  0.17387842  0.21822485  0.60332068  1
  Zn  Zn39  1  0.44721163  0.50210023  0.46714085  1
  Zn  Zn40  1  0.22283810  0.49352932  0.27642505  1
  Zn  Zn41  1  0.47177649  0.53530040  0.74309189  1
  Zn  Zn42  1  0.28939965  0.36594668  0.64427891  1
  Zn  Zn43  1  0.97795325  0.59682753  0.35365660  1
  Zn  Zn44  1  0.92876578  0.13486817  0.73654001  1
  Zn  Zn45  1  0.14290474  0.77346127  0.88999260  1
  Zn  Zn46  1  0.01449696  0.62215896  0.99168353  1
  Zn  Zn47  1  0.81410484  0.51169187  0.80378827  1
  Zn  Zn48  1  0.21254971  0.41119204  0.99468645  1
  Zn  Zn49  1  0.82679929  0.89407159  0.53441976  1
  S  S50  1  0.62829603  0.00886534  0.71454453  1
  S  S51  1  0.04904285  0.02142730  0.15571130  1
  S  S52  1  0.46100594  0.15878632  0.55246543  1
  S  S53  1  0.90691496  0.21043588  0.02181715  1
  S  S54  1  0.00847763  0.26203666  0.56021905  1
  S  S55  1  0.24002904  0.24625716  0.08582687  1
  S  S56  1  0.35194871  0.39754324  0.33536543  1
  S  S57  1  0.71244948  0.76380858  0.13737521  1
  S  S58  1  0.72942471  0.32898214  0.19308585  1
  S  S59  1  0.71960214  0.37980594  0.88454719  1
  S  S60  1  0.45556613  0.40668523  0.62748580  1
  S  S61  1  0.61730214  0.60061802  0.78573223  1
  S  S62  1  0.52958840  0.22107817  0.25824511  1
  S  S63  1  0.32543913  0.58124583  0.81816539  1
  S  S64  1  0.33144520  0.62894592  0.51202500  1
  S  S65  1  0.77601256  0.03699026  0.23445310  1
  S  S66  1  0.41997436  0.81327048  0.74490178  1
  S  S67  1  0.27464373  0.53435179  0.11066567  1
  S  S68  1  0.13265350  0.78237014  0.70930587  1
  S  S69  1  0.81102640  0.77320661  0.66506600  1
  S  S70  1  0.04167228  0.44949779  0.98870017  1
  S  S71  1  0.69451798  0.27010901  0.54278050  1
  S  S72  1  0.06647691  0.07801375  0.83611764  1
  S  S73  1  0.18970877  0.16571383  0.38627823  1
  S  S74  1  0.45462474  0.74140065  0.24555803  1
  S  S75  1  0.20691066  0.93194600  0.96216992  1
  S  S76  1  0.59645847  0.51192613  0.39004194  1
  S  S77  1  0.99797945  0.75596062  0.43490046  1
  S  S78  1  0.46575970  0.35010909  0.00904354  1
  S  S79  1  0.83507009  0.46341049  0.63141516  1
  S  S80  1  0.99052862  0.41925585  0.83335918  1
  S  S81  1  0.85995199  0.64851243  0.91190058  1
  S  S82  1  0.55675846  0.77263515  0.53148567  1
  S  S83  1  0.86618176  0.47195970  0.37444251  1
  S  S84  1  0.21664090  0.80875450  0.25609205  1
  S  S85  1  0.11495639  0.50608017  0.40789279  1
  S  S86  1  0.57009714  0.97149701  0.02509794  1
  S  S87  1  0.83432590  0.94862123  0.94399987  1
  S  S88  1  0.24179366  0.45366400  0.80394178  1
  S  S89  1  0.68043021  0.78690712  0.44090950  1
  S  S90  1  0.53058483  0.46738487  0.09322115  1
  S  S91  1  0.38366235  0.08850827  0.85310077  1
  S  S92  1  0.25186905  0.87102176  0.40574861  1
  S  S93  1  0.36427001  0.03438606  0.19012546  1
  S  S94  1  0.69644805  0.02694445  0.37367421  1
  S  S95  1  0.32236968  0.83109892  0.99029008  1
  S  S96  1  0.94130967  0.00386393  0.61328017  1
  S  S97  1  0.88842832  0.84808475  0.36649659  1
  S  S98  1  0.39258553  0.02301162  0.54556373  1
  S  S99  1  0.97096532  0.66169431  0.17006409  1
