# generated using pymatgen
data_Sr4C2N5
_symmetry_space_group_name_H-M   'P 1'
_cell_length_a   13.03188795
_cell_length_b   7.10083213
_cell_length_c   7.27368944
_cell_angle_alpha   90.00000000
_cell_angle_beta   100.88648877
_cell_angle_gamma   90.00000000
_symmetry_Int_Tables_number   1
_chemical_formula_structural   Sr4C2N5
_chemical_formula_sum   'Sr16 C8 N20'
_cell_volume   660.97384467
_cell_formula_units_Z   4
loop_
 _symmetry_equiv_pos_site_id
 _symmetry_equiv_pos_as_xyz
  1  'x, y, z'
loop_
 _atom_site_type_symbol
 _atom_site_label
 _atom_site_symmetry_multiplicity
 _atom_site_fract_x
 _atom_site_fract_y
 _atom_site_fract_z
 _atom_site_occupancy
  Sr  Sr0  1  0.03935491  0.76990865  0.00747705  1
  Sr  Sr1  1  0.96064509  0.26990865  0.49252295  1
  Sr  Sr2  1  0.96064509  0.23009135  0.99252295  1
  Sr  Sr3  1  0.03935491  0.73009135  0.50747705  1
  Sr  Sr4  1  0.17181895  0.09416616  0.76798465  1
  Sr  Sr5  1  0.82818105  0.59416616  0.73201535  1
  Sr  Sr6  1  0.82818105  0.90583384  0.23201535  1
  Sr  Sr7  1  0.17181895  0.40583384  0.26798465  1
  Sr  Sr8  1  0.38914796  0.15911138  0.52928577  1
  Sr  Sr9  1  0.61085204  0.65911138  0.97071423  1
  Sr  Sr10  1  0.61085204  0.84088862  0.47071423  1
  Sr  Sr11  1  0.38914796  0.34088862  0.02928577  1
  Sr  Sr12  1  0.67792521  0.17668450  0.84961713  1
  Sr  Sr13  1  0.32207479  0.67668450  0.65038287  1
  Sr  Sr14  1  0.32207479  0.82331550  0.15038287  1
  Sr  Sr15  1  0.67792521  0.32331550  0.34961713  1
  C  C16  1  0.13629641  0.49213892  0.78180356  1
  C  C17  1  0.86370359  0.99213892  0.71819644  1
  C  C18  1  0.86370359  0.50786108  0.21819644  1
  C  C19  1  0.13629641  0.00786108  0.28180356  1
  C  C20  1  0.53480397  0.48160991  0.61634137  1
  C  C21  1  0.46519603  0.98160991  0.88365863  1
  C  C22  1  0.46519603  0.51839009  0.38365863  1
  C  C23  1  0.53480397  0.01839009  0.11634137  1
  N  N24  1  0.79403210  0.08544199  0.57680834  1
  N  N25  1  0.20596790  0.58544199  0.92319166  1
  N  N26  1  0.20596790  0.91455801  0.42319166  1
  N  N27  1  0.79403210  0.41455801  0.07680834  1
  N  N28  1  0.03022630  0.47736920  0.78705746  1
  N  N29  1  0.96977370  0.97736920  0.71294254  1
  N  N30  1  0.96977370  0.52263080  0.21294254  1
  N  N31  1  0.03022630  0.02263080  0.28705746  1
  N  N32  1  0.17049744  0.42061397  0.62342019  1
  N  N33  1  0.82950256  0.92061397  0.87657981  1
  N  N34  1  0.82950256  0.57938603  0.37657981  1
  N  N35  1  0.17049744  0.07938603  0.12342019  1
  N  N36  1  0.63834989  0.50946485  0.64278477  1
  N  N37  1  0.36165011  0.00946485  0.85721523  1
  N  N38  1  0.36165011  0.49053515  0.35721523  1
  N  N39  1  0.63834989  0.99053515  0.14278477  1
  N  N40  1  0.47899502  0.43222811  0.74612882  1
  N  N41  1  0.52100498  0.93222811  0.75387118  1
  N  N42  1  0.52100498  0.56777189  0.25387118  1
  N  N43  1  0.47899502  0.06777189  0.24612882  1
