# generated using pymatgen
data_VZnBiO5
_symmetry_space_group_name_H-M   'P 1'
_cell_length_a   5.38190235
_cell_length_b   7.75716569
_cell_length_c   11.79108700
_cell_angle_alpha   90.00000000
_cell_angle_beta   90.00000000
_cell_angle_gamma   107.29570450
_symmetry_Int_Tables_number   1
_chemical_formula_structural   VZnBiO5
_chemical_formula_sum   'V4 Zn4 Bi4 O20'
_cell_volume   469.99955225
_cell_formula_units_Z   4
loop_
 _symmetry_equiv_pos_site_id
 _symmetry_equiv_pos_as_xyz
  1  'x, y, z'
loop_
 _atom_site_type_symbol
 _atom_site_label
 _atom_site_symmetry_multiplicity
 _atom_site_fract_x
 _atom_site_fract_y
 _atom_site_fract_z
 _atom_site_occupancy
  V  V0  1  0.78688400  0.96788000  0.64799000  1
  V  V1  1  0.21311600  0.03212000  0.35201000  1
  V  V2  1  0.71311600  0.53212000  0.14799000  1
  V  V3  1  0.28688400  0.46788000  0.85201000  1
  Zn  Zn4  1  0.62502300  0.17316000  0.91920100  1
  Zn  Zn5  1  0.37497700  0.82684000  0.08079900  1
  Zn  Zn6  1  0.87497700  0.32684000  0.41920100  1
  Zn  Zn7  1  0.12502300  0.67316000  0.58079900  1
  Bi  Bi8  1  0.11954500  0.17677200  0.09573100  1
  Bi  Bi9  1  0.88045500  0.82322800  0.90426900  1
  Bi  Bi10  1  0.61954500  0.67677200  0.40426900  1
  Bi  Bi11  1  0.38045500  0.32322800  0.59573100  1
  O  O12  1  0.57028300  0.33188100  0.07411500  1
  O  O13  1  0.03203800  0.32632500  0.93305700  1
  O  O14  1  0.48410800  0.64219100  0.17454900  1
  O  O15  1  0.75596800  0.51352000  0.52563900  1
  O  O16  1  0.80581600  0.48846200  0.28499000  1
  O  O17  1  0.30581600  0.98846200  0.21501000  1
  O  O18  1  0.53203800  0.82632500  0.56694300  1
  O  O19  1  0.46796200  0.17367500  0.43305700  1
  O  O20  1  0.24403200  0.48648000  0.47436100  1
  O  O21  1  0.92971700  0.16811900  0.57411500  1
  O  O22  1  0.19418400  0.51153800  0.71501000  1
  O  O23  1  0.42971700  0.66811900  0.92588500  1
  O  O24  1  0.07028300  0.83188100  0.42588500  1
  O  O25  1  0.69418400  0.01153800  0.78499000  1
  O  O26  1  0.74403200  0.98648000  0.02563900  1
  O  O27  1  0.25596800  0.01352000  0.97436100  1
  O  O28  1  0.51589200  0.35780900  0.82545100  1
  O  O29  1  0.96796200  0.67367500  0.06694300  1
  O  O30  1  0.01589200  0.85780900  0.67454900  1
  O  O31  1  0.98410800  0.14219100  0.32545100  1
