# generated using pymatgen
data_Sr2AlGaW2O7
_symmetry_space_group_name_H-M   'P 1'
_cell_length_a   5.50473485
_cell_length_b   6.12728308
_cell_length_c   11.83236414
_cell_angle_alpha   105.09288936
_cell_angle_beta   103.11877988
_cell_angle_gamma   90.00518469
_symmetry_Int_Tables_number   1
_chemical_formula_structural   Sr2AlGaW2O7
_chemical_formula_sum   'Sr4 Al2 Ga2 W4 O14'
_cell_volume   374.52717717
_cell_formula_units_Z   2
loop_
 _symmetry_equiv_pos_site_id
 _symmetry_equiv_pos_as_xyz
  1  'x, y, z'
loop_
 _atom_site_type_symbol
 _atom_site_label
 _atom_site_symmetry_multiplicity
 _atom_site_fract_x
 _atom_site_fract_y
 _atom_site_fract_z
 _atom_site_occupancy
  Sr  Sr0  1  0.15353200  0.16979100  0.30624300  1
  Sr  Sr1  1  0.83423500  0.81148100  0.68732100  1
  Sr  Sr2  1  0.65936400  0.62347400  0.31238600  1
  Sr  Sr3  1  0.32989200  0.37552700  0.67995800  1
  Al  Al4  1  0.45610900  0.45435600  0.98181900  1
  Al  Al5  1  0.03235800  0.99655800  0.99969200  1
  Ga  Ga6  1  0.22181500  0.81883700  0.49601500  1
  Ga  Ga7  1  0.72222100  0.17664000  0.49908900  1
  W  W8  1  0.44265800  0.91325000  0.87098800  1
  W  W9  1  0.08520300  0.58590300  0.13260300  1
  W  W10  1  0.94183200  0.41899900  0.86719300  1
  W  W11  1  0.56513900  0.07954500  0.13397300  1
  O  O12  1  0.70067500  0.40782400  0.10304600  1
  O  O13  1  0.88997600  0.90687800  0.50262000  1
  O  O14  1  0.21094100  0.24429000  0.12135000  1
  O  O15  1  0.83857000  0.38142200  0.65183500  1
  O  O16  1  0.80146700  0.09398300  0.88540600  1
  O  O17  1  0.27908800  0.22887600  0.85042400  1
  O  O18  1  0.38753100  0.09388500  0.49901100  1
  O  O19  1  0.09162200  0.75376100  0.87315300  1
  O  O20  1  0.59407700  0.58511200  0.88519800  1
  O  O21  1  0.35458100  0.75182600  0.64180600  1
  O  O22  1  0.17533200  0.60848500  0.34652500  1
  O  O23  1  0.71360600  0.25085100  0.35639900  1
  O  O24  1  0.90235100  0.89986500  0.10970000  1
  O  O25  1  0.39610200  0.83102900  0.19445000  1
