# generated using pymatgen
data_Al2O3
_symmetry_space_group_name_H-M   'P 1'
_cell_length_a   10.42288379
_cell_length_b   10.24025617
_cell_length_c   10.52342839
_cell_angle_alpha   86.84111449
_cell_angle_beta   87.61405328
_cell_angle_gamma   90.11148092
_symmetry_Int_Tables_number   1
_chemical_formula_structural   Al2O3
_chemical_formula_sum   'Al40 O60'
_cell_volume   1120.50808502
_cell_formula_units_Z   20
loop_
 _symmetry_equiv_pos_site_id
 _symmetry_equiv_pos_as_xyz
  1  'x, y, z'
loop_
 _atom_site_type_symbol
 _atom_site_label
 _atom_site_symmetry_multiplicity
 _atom_site_fract_x
 _atom_site_fract_y
 _atom_site_fract_z
 _atom_site_occupancy
  Al  Al0  1  0.94054800  0.11854000  0.59535200  1
  Al  Al1  1  0.73964600  0.69282600  0.42430700  1
  Al  Al2  1  0.38583700  0.28845400  0.46833400  1
  Al  Al3  1  0.13646100  0.45948000  0.82086000  1
  Al  Al4  1  0.59098300  0.64658100  0.74346200  1
  Al  Al5  1  0.06935800  0.34147400  0.05718500  1
  Al  Al6  1  0.41885600  0.97663100  0.82789400  1
  Al  Al7  1  0.15398400  0.75658700  0.26452300  1
  Al  Al8  1  0.03600400  0.85606600  0.73909700  1
  Al  Al9  1  0.03735500  0.95600000  0.14043200  1
  Al  Al10  1  0.86944300  0.33056500  0.78097400  1
  Al  Al11  1  0.18002600  0.47178100  0.33892700  1
  Al  Al12  1  0.05901200  0.65082500  0.06682300  1
  Al  Al13  1  0.35805200  0.57660100  0.72390400  1
  Al  Al14  1  0.99076400  0.18637200  0.31316500  1
  Al  Al15  1  0.59129200  0.36673800  0.67569900  1
  Al  Al16  1  0.21870000  0.73968600  0.55537200  1
  Al  Al17  1  0.74748600  0.08562900  0.13477900  1
  Al  Al18  1  0.67610600  0.45660800  0.95662500  1
  Al  Al19  1  0.37937000  0.38549700  0.99510000  1
  Al  Al20  1  0.41922600  0.66382100  0.33327200  1
  Al  Al21  1  0.97533100  0.89006700  0.45275500  1
  Al  Al22  1  0.25326700  0.19405300  0.22595900  1
  Al  Al23  1  0.50356800  0.82340300  0.54277000  1
  Al  Al24  1  0.76224200  0.66685800  0.12685900  1
  Al  Al25  1  0.99414000  0.59642800  0.60720600  1
  Al  Al26  1  0.76448500  0.90441100  0.65099000  1
  Al  Al27  1  0.25996500  0.03880900  0.63846000  1
  Al  Al28  1  0.85522400  0.02572000  0.89726400  1
  Al  Al29  1  0.52241300  0.09145000  0.59268800  1
  Al  Al30  1  0.72015600  0.01241800  0.41485900  1
  Al  Al31  1  0.50516200  0.16999100  0.18902600  1
  Al  Al32  1  0.11074700  0.12916800  0.82222600  1
  Al  Al33  1  0.45120700  0.92137200  0.13755000  1
  Al  Al34  1  0.58200500  0.18825000  0.90792500  1
  Al  Al35  1  0.82805300  0.41231200  0.50053000  1
  Al  Al36  1  0.10883200  0.33218400  0.55214900  1
  Al  Al37  1  0.49385100  0.69690300  0.00409000  1
  Al  Al38  1  0.81480800  0.72230200  0.88112400  1
  Al  Al39  1  0.77337400  0.36652900  0.21106000  1
  O  O40  1  0.09071600  0.27511500  0.90225500  1
  O  O41  1  0.71428100  0.10348900  0.96330400  1
  O  O42  1  0.23875200  0.33277600  0.10295500  1
  O  O43  1  0.83313900  0.58645400  0.53235200  1
  O  O44  1  0.66149200  0.73956200  0.01399400  1
  O  O45  1  0.95199100  0.70294700  0.75870000  1
  O  O46  1  0.73047000  0.50078000  0.11122100  1
  O  O47  1  0.14853000  0.28990200  0.34573300  1
  O  O48  1  0.27396600  0.76290900  0.37898800  1
  O  O49  1  0.73248500  0.06784700  0.57907400  1
  O  O50  1  0.27279100  0.36619500  0.56653700  1
  O  O51  1  0.43131600  0.93543700  0.66366900  1
  O  O52  1  0.71700500  0.59039200  0.83393400  1
  O  O53  1  0.11394300  0.15655900  0.64682500  1
  O  O54  1  0.00843900  0.06209000  0.44157200  1
  O  O55  1  0.03088600  0.97233100  0.86245800  1
  O  O56  1  0.46127400  0.22774800  0.02547200  1
  O  O57  1  0.18359800  0.60371000  0.70028300  1
  O  O58  1  0.02976900  0.86822300  0.29309000  1
  O  O59  1  0.58962500  0.35016600  0.84581800  1
  O  O60  1  0.35661900  0.12046000  0.52471900  1
  O  O61  1  0.00915700  0.42541900  0.70797000  1
  O  O62  1  0.37920500  0.70463500  0.58793800  1
  O  O63  1  0.94427500  0.31739900  0.18519500  1
  O  O64  1  0.07333400  0.49494200  0.47634600  1
  O  O65  1  0.44480500  0.89159000  0.97239900  1
  O  O66  1  0.13495300  0.81036800  0.09234400  1
  O  O67  1  0.93525800  0.93803700  0.62889700  1
  O  O68  1  0.35234800  0.05047400  0.18920000  1
  O  O69  1  0.09822000  0.11231800  0.18510900  1
  O  O70  1  0.75946200  0.36490300  0.65515500  1
  O  O71  1  0.89171500  0.00166100  0.06862700  1
  O  O72  1  0.53548700  0.27058000  0.55546400  1
  O  O73  1  0.11446800  0.59293200  0.22318900  1
  O  O74  1  0.51826200  0.51995400  0.66372000  1
  O  O75  1  0.94318600  0.27892500  0.50642900  1
  O  O76  1  0.90437200  0.70006100  0.02289500  1
  O  O77  1  0.08360800  0.51000700  0.97838500  1
  O  O78  1  0.49591600  0.51124500  0.02070400  1
  O  O79  1  0.18349300  0.88280300  0.64786900  1
  O  O80  1  0.79934900  0.85837100  0.46146700  1
  O  O81  1  0.56324800  0.71024800  0.41456700  1
  O  O82  1  0.78310500  0.88902700  0.82209600  1
  O  O83  1  0.66647000  0.24363500  0.16601600  1
  O  O84  1  0.30743500  0.44238400  0.84567300  1
  O  O85  1  0.53267000  0.10497300  0.77659500  1
  O  O86  1  0.40598500  0.25250100  0.30113700  1
  O  O87  1  0.55676300  0.97732800  0.45631900  1
  O  O88  1  0.81837300  0.09498300  0.29513600  1
  O  O89  1  0.74556000  0.40398000  0.36654800  1
  O  O90  1  0.34494900  0.51055000  0.34213000  1
  O  O91  1  0.80335100  0.69912900  0.27387900  1
  O  O92  1  0.43772600  0.74426200  0.17281500  1
  O  O93  1  0.89662400  0.15742000  0.76755500  1
  O  O94  1  0.27136400  0.06455400  0.80963300  1
  O  O95  1  0.64085900  0.78213900  0.64331300  1
  O  O96  1  0.05146700  0.74232200  0.51507100  1
  O  O97  1  0.82381500  0.36781700  0.93185600  1
  O  O98  1  0.59271700  0.00779100  0.18356600  1
  O  O99  1  0.44851400  0.68332200  0.83471100  1
