# generated using pymatgen
data_Y2O3
_symmetry_space_group_name_H-M   'P 1'
_cell_length_a   12.31494606
_cell_length_b   11.18125823
_cell_length_c   11.65439086
_cell_angle_alpha   95.07478751
_cell_angle_beta   91.29994316
_cell_angle_gamma   93.95222724
_symmetry_Int_Tables_number   1
_chemical_formula_structural   Y2O3
_chemical_formula_sum   'Y40 O60'
_cell_volume   1594.00884595
_cell_formula_units_Z   20
loop_
 _symmetry_equiv_pos_site_id
 _symmetry_equiv_pos_as_xyz
  1  'x, y, z'
loop_
 _atom_site_type_symbol
 _atom_site_label
 _atom_site_symmetry_multiplicity
 _atom_site_fract_x
 _atom_site_fract_y
 _atom_site_fract_z
 _atom_site_occupancy
  Y  Y0  1  0.78993570  0.29289060  0.15707199  1
  Y  Y1  1  0.97739441  0.28052680  0.63554913  1
  Y  Y2  1  0.92912361  0.13180033  0.86499946  1
  Y  Y3  1  0.30290738  0.13970589  0.23969461  1
  Y  Y4  1  0.27950058  0.57061089  0.14913996  1
  Y  Y5  1  0.54450847  0.03253525  0.33463899  1
  Y  Y6  1  0.56801679  0.85545553  0.58782911  1
  Y  Y7  1  0.52274625  0.49456306  0.63729484  1
  Y  Y8  1  0.06619307  0.38072116  0.29808505  1
  Y  Y9  1  0.15038113  0.54343575  0.61330343  1
  Y  Y10  1  0.75147883  0.96726911  0.09562387  1
  Y  Y11  1  0.27972810  0.89639221  0.03705062  1
  Y  Y12  1  0.35988770  0.58079845  0.84257757  1
  Y  Y13  1  0.62283865  0.34924803  0.87318011  1
  Y  Y14  1  0.58096181  0.03196167  0.82843732  1
  Y  Y15  1  0.71924490  0.56407887  0.09305743  1
  Y  Y16  1  0.06483317  0.93390029  0.55385271  1
  Y  Y17  1  0.80455142  0.44829318  0.47818324  1
  Y  Y18  1  0.51832755  0.78149913  0.12356719  1
  Y  Y19  1  0.40544792  0.09824070  0.59798982  1
  Y  Y20  1  0.17917947  0.06283748  0.79591392  1
  Y  Y21  1  0.88192059  0.11125837  0.36259118  1
  Y  Y22  1  0.09036316  0.39083973  0.94267080  1
  Y  Y23  1  0.18997311  0.18256700  0.51055005  1
  Y  Y24  1  0.35939432  0.27484190  0.91696512  1
  Y  Y25  1  0.32300955  0.42397094  0.43470907  1
  Y  Y26  1  0.72524585  0.13927761  0.59412734  1
  Y  Y27  1  0.67537390  0.72224501  0.85243149  1
  Y  Y28  1  0.54440353  0.39843566  0.25512782  1
  Y  Y29  1  0.78641884  0.81497289  0.36833615  1
  Y  Y30  1  0.00210048  0.61201496  0.10712238  1
  Y  Y31  1  0.51472514  0.67065710  0.37041098  1
  Y  Y32  1  0.84886421  0.86813797  0.67480991  1
  Y  Y33  1  0.29949548  0.80848231  0.66678881  1
  Y  Y34  1  0.04601270  0.67166523  0.39970117  1
  Y  Y35  1  0.51711060  0.11174573  0.08791818  1
  Y  Y36  1  0.28941488  0.85295473  0.34785234  1
  Y  Y37  1  0.04161894  0.88428965  0.21539815  1
  Y  Y38  1  0.86350914  0.51686529  0.78810732  1
  Y  Y39  1  0.07004229  0.75936013  0.84908119  1
  O  O40  1  0.58726680  0.94979111  0.99255151  1
  O  O41  1  0.47884331  0.20571640  0.25575926  1
  O  O42  1  0.01115447  0.92308416  0.76468968  1
  O  O43  1  0.20341667  0.26515559  0.33861993  1
  O  O44  1  0.36509052  0.26710690  0.53002733  1
  O  O45  1  0.87210480  0.95076281  0.23539356  1
  O  O46  1  0.01216764  0.56988344  0.91140318  1
  O  O47  1  0.23146781  0.88922958  0.85152614  1
  O  O48  1  0.40992126  0.78959752  0.49780754  1
  O  O49  1  0.07289858  0.80945404  0.03304990  1
  O  O50  1  0.70392158  0.45983230  0.64959456  1
  O  O51  1  0.69378103  0.75675195  0.04424421  1
  O  O52  1  0.36497090  0.44408346  0.24234771  1
  O  O53  1  0.51780474  0.19531958  0.92914827  1
  O  O54  1  0.81439928  0.11790345  0.00235751  1
  O  O55  1  0.58004088  0.59668175  0.20441265  1
  O  O56  1  0.83803449  0.25951505  0.50626301  1
  O  O57  1  0.71436587  0.38166151  0.31643425  1
  O  O58  1  0.52038363  0.66646360  0.75268616  1
  O  O59  1  0.38416359  0.71904443  0.25032083  1
  O  O60  1  0.93443194  0.24416071  0.24719944  1
  O  O61  1  0.36215071  0.03845678  0.39410668  1
  O  O62  1  0.13021058  0.34862499  0.56699033  1
  O  O63  1  0.67696902  0.10365795  0.20797340  1
  O  O64  1  0.14591632  0.68747592  0.22203439  1
  O  O65  1  0.94616603  0.49896785  0.37903093  1
  O  O66  1  0.36738596  0.70916665  0.00947180  1
  O  O67  1  0.24396554  0.98146838  0.60215047  1
  O  O68  1  0.47164596  0.41789475  0.81896608  1
  O  O69  1  0.68199348  0.88833334  0.74299927  1
  O  O70  1  0.45277315  0.94369669  0.71351357  1
  O  O71  1  0.43408141  0.95174555  0.16728738  1
  O  O72  1  0.91730118  0.79794877  0.50874819  1
  O  O73  1  0.60807478  0.85151557  0.29195729  1
  O  O74  1  0.17467134  0.53074963  0.41571583  1
  O  O75  1  0.63450849  0.36994592  0.07710126  1
  O  O76  1  0.08262295  0.13184900  0.66119792  1
  O  O77  1  0.10210645  0.19273929  0.92098958  1
  O  O78  1  0.71111953  0.53579038  0.90138127  1
  O  O79  1  0.33770758  0.53121198  0.62337322  1
  O  O80  1  0.93384711  0.32353685  0.82194436  1
  O  O81  1  0.86533496  0.46526568  0.10001513  1
  O  O82  1  0.21000200  0.96407800  0.19973593  1
  O  O83  1  0.50566701  0.49024118  0.44122404  1
  O  O84  1  0.32295892  0.17438471  0.76096500  1
  O  O85  1  0.66356004  0.72563178  0.48588142  1
  O  O86  1  0.13734143  0.74047191  0.57976225  1
  O  O87  1  0.56522230  0.04519233  0.52689885  1
  O  O88  1  0.33071583  0.11974453  0.04252646  1
  O  O89  1  0.26909656  0.44690739  0.95001951  1
  O  O90  1  0.03496640  0.08200007  0.43449897  1
  O  O91  1  0.95837167  0.48596766  0.63458986  1
  O  O92  1  0.11626131  0.86184198  0.38502711  1
  O  O93  1  0.21045006  0.65173016  0.77997697  1
  O  O94  1  0.85450367  0.07827827  0.69698565  1
  O  O95  1  0.64463749  0.19363670  0.74989181  1
  O  O96  1  0.91786930  0.71846384  0.24799062  1
  O  O97  1  0.77321702  0.98818656  0.46900977  1
  O  O98  1  0.10645212  0.45200729  0.12655150  1
  O  O99  1  0.84768793  0.71844480  0.78972345  1
