# generated using pymatgen
data_In5(SiN3)3
_symmetry_space_group_name_H-M   'P 1'
_cell_length_a   7.63071720
_cell_length_b   10.86676173
_cell_length_c   15.68249500
_cell_angle_alpha   90.00000000
_cell_angle_beta   90.00000000
_cell_angle_gamma   135.40118418
_symmetry_Int_Tables_number   1
_chemical_formula_structural   In5(SiN3)3
_chemical_formula_sum   'In20 Si12 N36'
_cell_volume   913.06847243
_cell_formula_units_Z   4
loop_
 _symmetry_equiv_pos_site_id
 _symmetry_equiv_pos_as_xyz
  1  'x, y, z'
loop_
 _atom_site_type_symbol
 _atom_site_label
 _atom_site_symmetry_multiplicity
 _atom_site_fract_x
 _atom_site_fract_y
 _atom_site_fract_z
 _atom_site_occupancy
  In  In0  1  0.00000000  0.53617000  0.84144000  1
  In  In1  1  0.00000000  0.46383000  0.15856000  1
  In  In2  1  0.00000000  0.96383000  0.34144000  1
  In  In3  1  0.00000000  0.03617000  0.65856000  1
  In  In4  1  0.39795800  0.01344800  0.84649100  1
  In  In5  1  0.39795800  0.38451000  0.15350900  1
  In  In6  1  0.39795800  0.88451000  0.34649100  1
  In  In7  1  0.39795800  0.51344800  0.65350900  1
  In  In8  1  0.60204200  0.98655200  0.15350900  1
  In  In9  1  0.60204200  0.61549000  0.84649100  1
  In  In10  1  0.60204200  0.11549000  0.65350900  1
  In  In11  1  0.60204200  0.48655200  0.34649100  1
  In  In12  1  0.00000000  0.50344400  0.60672800  1
  In  In13  1  0.00000000  0.49655600  0.39327200  1
  In  In14  1  0.00000000  0.99655600  0.10672800  1
  In  In15  1  0.00000000  0.00344400  0.89327200  1
  In  In16  1  0.59383500  0.29691800  0.00000000  1
  In  In17  1  0.59383500  0.79691800  0.50000000  1
  In  In18  1  0.40616500  0.70308200  0.00000000  1
  In  In19  1  0.40616500  0.20308200  0.50000000  1
  Si  Si20  1  0.00000000  0.77169800  0.00269800  1
  Si  Si21  1  0.00000000  0.22830200  0.99730200  1
  Si  Si22  1  0.00000000  0.72830200  0.50269800  1
  Si  Si23  1  0.00000000  0.27169800  0.49730200  1
  Si  Si24  1  0.00000000  0.25385900  0.78266100  1
  Si  Si25  1  0.00000000  0.74614100  0.21733900  1
  Si  Si26  1  0.00000000  0.24614100  0.28266100  1
  Si  Si27  1  0.00000000  0.75385900  0.71733900  1
  Si  Si28  1  0.50000000  0.82237000  0.75000000  1
  Si  Si29  1  0.50000000  0.67763000  0.25000000  1
  Si  Si30  1  0.50000000  0.17763000  0.25000000  1
  Si  Si31  1  0.50000000  0.32237000  0.75000000  1
  N  N32  1  0.00000000  0.40011300  0.73541700  1
  N  N33  1  0.00000000  0.59988700  0.26458300  1
  N  N34  1  0.00000000  0.09988700  0.23541700  1
  N  N35  1  0.00000000  0.90011300  0.76458300  1
  N  N36  1  0.00000000  0.20915000  0.88772000  1
  N  N37  1  0.00000000  0.79085000  0.11228000  1
  N  N38  1  0.00000000  0.29085000  0.38772000  1
  N  N39  1  0.00000000  0.70915000  0.61228000  1
  N  N40  1  0.00000000  0.61954600  0.96916400  1
  N  N41  1  0.00000000  0.38045400  0.03083600  1
  N  N42  1  0.00000000  0.88045400  0.46916400  1
  N  N43  1  0.00000000  0.11954600  0.53083600  1
  N  N44  1  0.74201700  0.55130800  0.76046600  1
  N  N45  1  0.74201700  0.19070900  0.23953400  1
  N  N46  1  0.74201700  0.69070900  0.26046600  1
  N  N47  1  0.74201700  0.05130800  0.73953400  1
  N  N48  1  0.25798300  0.44869200  0.23953400  1
  N  N49  1  0.25798300  0.80929100  0.76046600  1
  N  N50  1  0.25798300  0.30929100  0.73953400  1
  N  N51  1  0.25798300  0.94869200  0.26046600  1
  N  N52  1  0.56121400  0.27190800  0.84448600  1
  N  N53  1  0.56121400  0.28930700  0.15551400  1
  N  N54  1  0.56121400  0.78930700  0.34448600  1
  N  N55  1  0.56121400  0.77190800  0.65551400  1
  N  N56  1  0.43878600  0.72809200  0.15551400  1
  N  N57  1  0.43878600  0.71069300  0.84448600  1
  N  N58  1  0.43878600  0.21069300  0.65551400  1
  N  N59  1  0.43878600  0.22809200  0.34448600  1
  N  N60  1  0.25323500  0.99250900  0.96634600  1
  N  N61  1  0.25323500  0.26072600  0.03365400  1
  N  N62  1  0.25323500  0.76072600  0.46634600  1
  N  N63  1  0.25323500  0.49250900  0.53365400  1
  N  N64  1  0.74676500  0.00749100  0.03365400  1
  N  N65  1  0.74676500  0.73927400  0.96634600  1
  N  N66  1  0.74676500  0.23927400  0.53365400  1
  N  N67  1  0.74676500  0.50749100  0.46634600  1
