# generated using pymatgen
data_PmBr2
_symmetry_space_group_name_H-M   'P 1'
_cell_length_a   7.48074900
_cell_length_b   7.48074900
_cell_length_c   3.75654500
_cell_angle_alpha   90.00000000
_cell_angle_beta   90.00000000
_cell_angle_gamma   90.00000000
_symmetry_Int_Tables_number   1
_chemical_formula_structural   PmBr2
_chemical_formula_sum   'Pm2 Br4'
_cell_volume   210.22228971
_cell_formula_units_Z   2
loop_
 _symmetry_equiv_pos_site_id
 _symmetry_equiv_pos_as_xyz
  1  'x, y, z'
loop_
 _atom_site_type_symbol
 _atom_site_label
 _atom_site_symmetry_multiplicity
 _atom_site_fract_x
 _atom_site_fract_y
 _atom_site_fract_z
 _atom_site_occupancy
  Pm  Pm0  1  0.00000000  0.00000000  0.00000000  1
  Pm  Pm1  1  0.50000000  0.50000000  0.50000000  1
  Br  Br2  1  0.28160900  0.28160900  0.00000000  1
  Br  Br3  1  0.71839100  0.71839100  0.00000000  1
  Br  Br4  1  0.21839100  0.78160900  0.50000000  1
  Br  Br5  1  0.78160900  0.21839100  0.50000000  1
