# generated using pymatgen
data_Fe2O3
_symmetry_space_group_name_H-M   'P 1'
_cell_length_a   9.25609206
_cell_length_b   10.28126352
_cell_length_c   10.88277650
_cell_angle_alpha   86.61346245
_cell_angle_beta   98.21484333
_cell_angle_gamma   88.04233968
_symmetry_Int_Tables_number   1
_chemical_formula_structural   Fe2O3
_chemical_formula_sum   'Fe32 O48'
_cell_volume   1022.28386619
_cell_formula_units_Z   16
loop_
 _symmetry_equiv_pos_site_id
 _symmetry_equiv_pos_as_xyz
  1  'x, y, z'
loop_
 _atom_site_type_symbol
 _atom_site_label
 _atom_site_symmetry_multiplicity
 _atom_site_fract_x
 _atom_site_fract_y
 _atom_site_fract_z
 _atom_site_occupancy
  Fe  Fe0  1  0.49592200  0.03020700  0.87662600  1
  Fe  Fe1  1  0.17993500  0.12928300  0.99624300  1
  Fe  Fe2  1  0.53876400  0.74364100  0.86536600  1
  Fe  Fe3  1  0.07556700  0.59988200  0.56548300  1
  Fe  Fe4  1  0.03578200  0.88211300  0.06449300  1
  Fe  Fe5  1  0.82989300  0.19395600  0.94010100  1
  Fe  Fe6  1  0.28144700  0.07161200  0.56892100  1
  Fe  Fe7  1  0.69735100  0.55068300  0.65727100  1
  Fe  Fe8  1  0.97513900  0.06526300  0.76635200  1
  Fe  Fe9  1  0.71626800  0.76314700  0.44621500  1
  Fe  Fe10  1  0.72428400  0.03233400  0.38482200  1
  Fe  Fe11  1  0.67779900  0.97107500  0.67319600  1
  Fe  Fe12  1  0.30975900  0.62785500  0.05834000  1
  Fe  Fe13  1  0.18204300  0.94739400  0.32656400  1
  Fe  Fe14  1  0.00569400  0.36208000  0.18719200  1
  Fe  Fe15  1  0.01870600  0.38519700  0.75615500  1
  Fe  Fe16  1  0.92304200  0.67741600  0.23467900  1
  Fe  Fe17  1  0.85470000  0.54342000  0.97139200  1
  Fe  Fe18  1  0.33156600  0.32388200  0.20102800  1
  Fe  Fe19  1  0.34639400  0.27177900  0.75113000  1
  Fe  Fe20  1  0.43151400  0.91990700  0.19259200  1
  Fe  Fe21  1  0.83937600  0.47379600  0.43499700  1
  Fe  Fe22  1  0.36580700  0.54958100  0.73028800  1
  Fe  Fe23  1  0.59621600  0.39437300  0.95060500  1
  Fe  Fe24  1  0.57271300  0.17807100  0.12460100  1
  Fe  Fe25  1  0.75402100  0.94356600  0.13604000  1
  Fe  Fe26  1  0.03154200  0.89309000  0.58537300  1
  Fe  Fe27  1  0.40838500  0.75834900  0.51425200  1
  Fe  Fe28  1  0.19193600  0.80085400  0.84655300  1
  Fe  Fe29  1  0.10962100  0.29274200  0.44506100  1
  Fe  Fe30  1  0.63000000  0.24330200  0.63116500  1
  Fe  Fe31  1  0.52457500  0.62506300  0.27006800  1
  O  O32  1  0.32979000  0.15656500  0.89396700  1
  O  O33  1  0.28478800  0.60572300  0.56386400  1
  O  O34  1  0.98108100  0.54410200  0.12669500  1
  O  O35  1  0.54513200  0.64148400  0.44610000  1
  O  O36  1  0.43804800  0.15582200  0.24106100  1
  O  O37  1  0.23996000  0.88931400  0.52719900  1
  O  O38  1  0.82441400  0.35804500  0.02649300  1
  O  O39  1  0.91328000  0.33556800  0.33985000  1
  O  O40  1  0.86651800  0.50075100  0.79816400  1
  O  O41  1  0.59086500  0.86485100  0.54496500  1
  O  O42  1  0.65084800  0.58069300  0.94788300  1
  O  O43  1  0.89598100  0.04043200  0.04191700  1
  O  O44  1  0.36940900  0.51884600  0.20558600  1
  O  O45  1  0.16136900  0.11197600  0.40184100  1
  O  O46  1  0.48821800  0.35522500  0.08006100  1
  O  O47  1  0.15329200  0.28095300  0.09083000  1
  O  O48  1  0.01993300  0.22594900  0.86251000  1
  O  O49  1  0.13239300  0.72673300  0.00193200  1
  O  O50  1  0.21930600  0.42398500  0.77905300  1
  O  O51  1  0.88137500  0.91798300  0.69743200  1
  O  O52  1  0.75326900  0.11206500  0.22913700  1
  O  O53  1  0.47851600  0.10818900  0.69215900  1
  O  O54  1  0.67361400  0.11685700  0.52199700  1
  O  O55  1  0.35392100  0.63429600  0.88694700  1
  O  O56  1  0.83319900  0.63086600  0.56078800  1
  O  O57  1  0.87635600  0.89560300  0.44767200  1
  O  O58  1  0.00890600  0.59652000  0.39476100  1
  O  O59  1  0.69550500  0.40036500  0.55798600  1
  O  O60  1  0.36096700  0.84246800  0.33753000  1
  O  O61  1  0.77547100  0.15347400  0.75810600  1
  O  O62  1  0.10330200  0.06177000  0.64563500  1
  O  O63  1  0.01074000  0.40861500  0.57598400  1
  O  O64  1  0.73809700  0.60511600  0.29645800  1
  O  O65  1  0.64411100  0.88335700  0.28729100  1
  O  O66  1  0.09847700  0.73446200  0.69205100  1
  O  O67  1  0.62200600  0.19830000  0.94384600  1
  O  O68  1  0.45519600  0.74478800  0.12412900  1
  O  O69  1  0.27736500  0.26405100  0.57741800  1
  O  O70  1  0.51238000  0.39210300  0.76301300  1
  O  O71  1  0.18851400  0.36932300  0.30875100  1
  O  O72  1  0.64675300  0.89954900  0.83900900  1
  O  O73  1  0.03651500  0.83992600  0.24771000  1
  O  O74  1  0.37466100  0.87989900  0.84111500  1
  O  O75  1  0.22093500  0.98920800  0.13737700  1
  O  O76  1  0.83538500  0.78540300  0.08112900  1
  O  O77  1  0.54648900  0.99452500  0.06355900  1
  O  O78  1  0.09965000  0.96625500  0.90318200  1
  O  O79  1  0.53537500  0.66169100  0.70215300  1
