# generated using pymatgen
data_CsNiN
_symmetry_space_group_name_H-M   'P 1'
_cell_length_a   11.39912000
_cell_length_b   3.51559500
_cell_length_c   6.60221900
_cell_angle_alpha   90.00000000
_cell_angle_beta   90.00000000
_cell_angle_gamma   90.00000000
_symmetry_Int_Tables_number   1
_chemical_formula_structural   CsNiN
_chemical_formula_sum   'Cs4 Ni4 N4'
_cell_volume   264.58187496
_cell_formula_units_Z   4
loop_
 _symmetry_equiv_pos_site_id
 _symmetry_equiv_pos_as_xyz
  1  'x, y, z'
loop_
 _atom_site_type_symbol
 _atom_site_label
 _atom_site_symmetry_multiplicity
 _atom_site_fract_x
 _atom_site_fract_y
 _atom_site_fract_z
 _atom_site_occupancy
  Cs  Cs0  1  0.66008800  0.25000000  0.06619600  1
  Cs  Cs1  1  0.16008800  0.25000000  0.43380400  1
  Cs  Cs2  1  0.33991200  0.75000000  0.93380400  1
  Cs  Cs3  1  0.83991200  0.75000000  0.56619600  1
  Ni  Ni4  1  0.54922000  0.25000000  0.57987500  1
  Ni  Ni5  1  0.04922000  0.25000000  0.92012500  1
  Ni  Ni6  1  0.45078000  0.75000000  0.42012500  1
  Ni  Ni7  1  0.95078000  0.75000000  0.07987500  1
  N  N8  1  0.93342900  0.25000000  0.14892600  1
  N  N9  1  0.43342900  0.25000000  0.35107400  1
  N  N10  1  0.06657100  0.75000000  0.85107400  1
  N  N11  1  0.56657100  0.75000000  0.64892600  1
