# generated using pymatgen
data_Li3Mn2(PO4)3
_symmetry_space_group_name_H-M   'P 1'
_cell_length_a   8.54287314
_cell_length_b   12.50763515
_cell_length_c   8.64288037
_cell_angle_alpha   90.02659637
_cell_angle_beta   90.00638818
_cell_angle_gamma   92.05654028
_symmetry_Int_Tables_number   1
_chemical_formula_structural   Li3Mn2(PO4)3
_chemical_formula_sum   'Li12 Mn8 P12 O48'
_cell_volume   922.90669071
_cell_formula_units_Z   4
loop_
 _symmetry_equiv_pos_site_id
 _symmetry_equiv_pos_as_xyz
  1  'x, y, z'
loop_
 _atom_site_type_symbol
 _atom_site_label
 _atom_site_symmetry_multiplicity
 _atom_site_fract_x
 _atom_site_fract_y
 _atom_site_fract_z
 _atom_site_occupancy
  Li  Li0  1  0.08253867  0.69641483  0.09120326  1
  Li  Li1  1  0.08123207  0.75911528  0.69559045  1
  Li  Li2  1  0.21097849  0.17111520  0.78210279  1
  Li  Li3  1  0.28899030  0.32928545  0.28212543  1
  Li  Li4  1  0.41762383  0.73926482  0.19423095  1
  Li  Li5  1  0.41667072  0.80225926  0.59047934  1
  Li  Li6  1  0.58251511  0.19714857  0.40824421  1
  Li  Li7  1  0.58087872  0.26096653  0.80455604  1
  Li  Li8  1  0.71101651  0.67062868  0.71675430  1
  Li  Li9  1  0.78878916  0.82938232  0.21566672  1
  Li  Li10  1  0.91743462  0.23999730  0.30560908  1
  Li  Li11  1  0.91663281  0.30325860  0.90992550  1
  Mn  Mn12  1  0.24815554  0.90233011  0.03923856  1
  Mn  Mn13  1  0.25178410  0.59635807  0.53944557  1
  Mn  Mn14  1  0.25300698  0.39082850  0.95753506  1
  Mn  Mn15  1  0.24817265  0.11189401  0.45502957  1
  Mn  Mn16  1  0.75332516  0.89024184  0.54313580  1
  Mn  Mn17  1  0.74808300  0.61061138  0.04357823  1
  Mn  Mn18  1  0.74889370  0.40304506  0.46071791  1
  Mn  Mn19  1  0.74999260  0.09708791  0.95938024  1
  P  P20  1  0.96216260  0.50378484  0.75080891  1
  P  P21  1  0.89810890  0.13509968  0.61374076  1
  P  P22  1  0.90022677  0.84120854  0.90504183  1
  P  P23  1  0.60311003  0.36522692  0.11378337  1
  P  P24  1  0.60009269  0.65681069  0.40280698  1
  P  P25  1  0.53720188  0.99788168  0.24580705  1
  P  P26  1  0.46109780  0.00380806  0.74865111  1
  P  P27  1  0.39925891  0.34344825  0.59562359  1
  P  P28  1  0.03763299  0.49777084  0.25473022  1
  P  P29  1  0.10313305  0.86438695  0.38679470  1
  P  P30  1  0.39851829  0.63497766  0.88519968  1
  P  P31  1  0.10028095  0.15672346  0.09716463  1
  O  O32  1  0.17201825  0.44010197  0.17823697  1
  O  O33  1  0.91668542  0.14906904  0.10708675  1
  O  O34  1  0.92758517  0.40587411  0.32138080  1
  O  O35  1  0.92455651  0.83649842  0.40802452  1
  O  O36  1  0.89636835  0.42390831  0.62932264  1
  O  O37  1  0.87009500  0.01267022  0.61276782  1
  O  O38  1  0.86177732  0.17385975  0.78393991  1
  O  O39  1  0.85145955  0.80093329  0.74267389  1
  O  O40  1  0.05059267  0.43233535  0.86593891  1
  O  O41  1  0.08422548  0.85111142  0.89476260  1
  O  O42  1  0.07293289  0.59358763  0.68268213  1
  O  O43  1  0.07566504  0.16371353  0.59000336  1
  O  O44  1  0.10154154  0.57719100  0.37799681  1
  O  O45  1  0.13289400  0.98578451  0.39136736  1
  O  O46  1  0.14000628  0.82519378  0.21683571  1
  O  O47  1  0.13712453  0.24931983  0.97794237  1
  O  O48  1  0.15204701  0.19320157  0.26220297  1
  O  O49  1  0.94871321  0.56829931  0.13976626  1
  O  O50  1  0.17558021  0.05791044  0.03537213  1
  O  O51  1  0.19776910  0.80389697  0.50866106  1
  O  O52  1  0.30163137  0.69312264  0.00725324  1
  O  O53  1  0.32303584  0.44462843  0.53923306  1
  O  O54  1  0.32751850  0.06100500  0.66667320  1
  O  O55  1  0.36204854  0.67223510  0.71459468  1
  O  O56  1  0.35015091  0.30230455  0.75705909  1
  O  O57  1  0.37091413  0.51250032  0.88835068  1
  O  O58  1  0.36277322  0.25376595  0.47195198  1
  O  O59  1  0.39619226  0.92467869  0.87098955  1
  O  O60  1  0.42702876  0.90622501  0.17915723  1
  O  O61  1  0.41635670  0.64806065  0.39410155  1
  O  O62  1  0.42487965  0.33651341  0.09180324  1
  O  O63  1  0.44833498  0.06853482  0.36182929  1
  O  O64  1  0.55061458  0.93247530  0.63447793  1
  O  O65  1  0.57590963  0.66374020  0.90883301  1
  O  O66  1  0.58286303  0.35267101  0.60482323  1
  O  O67  1  0.57065688  0.09516658  0.81627250  1
  O  O68  1  0.59864442  0.07889266  0.12343880  1
  O  O69  1  0.63624214  0.74964146  0.52236389  1
  O  O70  1  0.63122787  0.48687399  0.11120521  1
  O  O71  1  0.65105593  0.69367352  0.23816235  1
  O  O72  1  0.64002341  0.32567428  0.28342270  1
  O  O73  1  0.67185522  0.94076789  0.32208793  1
  O  O74  1  0.67634752  0.55843968  0.46495957  1
  O  O75  1  0.69808546  0.30635219  0.99094055  1
  O  O76  1  0.80121257  0.19278050  0.49174558  1
  O  O77  1  0.82392818  0.94117447  0.96291393  1
  O  O78  1  0.82759304  0.56067508  0.83227789  1
  O  O79  1  0.86569714  0.75060389  0.02741433  1
