# generated using pymatgen
data_Ca5(AgN2)2
_symmetry_space_group_name_H-M   'P 1'
_cell_length_a   7.98932200
_cell_length_b   7.98932200
_cell_length_c   13.39375100
_cell_angle_alpha   90.00000000
_cell_angle_beta   90.00000000
_cell_angle_gamma   90.00000000
_symmetry_Int_Tables_number   1
_chemical_formula_structural   Ca5(AgN2)2
_chemical_formula_sum   'Ca20 Ag8 N16'
_cell_volume   854.91329558
_cell_formula_units_Z   4
loop_
 _symmetry_equiv_pos_site_id
 _symmetry_equiv_pos_as_xyz
  1  'x, y, z'
loop_
 _atom_site_type_symbol
 _atom_site_label
 _atom_site_symmetry_multiplicity
 _atom_site_fract_x
 _atom_site_fract_y
 _atom_site_fract_z
 _atom_site_occupancy
  Ca  Ca0  1  0.75000000  0.75000000  0.37194900  1
  Ca  Ca1  1  0.75000000  0.75000000  0.87194900  1
  Ca  Ca2  1  0.25000000  0.25000000  0.62805100  1
  Ca  Ca3  1  0.25000000  0.25000000  0.12805100  1
  Ca  Ca4  1  0.13266200  0.57757700  0.41659200  1
  Ca  Ca5  1  0.36733800  0.57757700  0.91659200  1
  Ca  Ca6  1  0.13266200  0.92242300  0.91659200  1
  Ca  Ca7  1  0.36733800  0.92242300  0.41659200  1
  Ca  Ca8  1  0.57757700  0.13266200  0.91659200  1
  Ca  Ca9  1  0.92242300  0.13266200  0.41659200  1
  Ca  Ca10  1  0.57757700  0.36733800  0.41659200  1
  Ca  Ca11  1  0.92242300  0.36733800  0.91659200  1
  Ca  Ca12  1  0.86733800  0.42242300  0.58340800  1
  Ca  Ca13  1  0.63266200  0.42242300  0.08340800  1
  Ca  Ca14  1  0.86733800  0.07757700  0.08340800  1
  Ca  Ca15  1  0.63266200  0.07757700  0.58340800  1
  Ca  Ca16  1  0.42242300  0.86733800  0.08340800  1
  Ca  Ca17  1  0.07757700  0.86733800  0.58340800  1
  Ca  Ca18  1  0.42242300  0.63266200  0.58340800  1
  Ca  Ca19  1  0.07757700  0.63266200  0.08340800  1
  Ag  Ag20  1  0.09498400  0.90501600  0.25000000  1
  Ag  Ag21  1  0.40501600  0.90501600  0.75000000  1
  Ag  Ag22  1  0.09498400  0.59498400  0.75000000  1
  Ag  Ag23  1  0.40501600  0.59498400  0.25000000  1
  Ag  Ag24  1  0.90501600  0.09498400  0.75000000  1
  Ag  Ag25  1  0.59498400  0.09498400  0.25000000  1
  Ag  Ag26  1  0.90501600  0.40501600  0.25000000  1
  Ag  Ag27  1  0.59498400  0.40501600  0.75000000  1
  N  N28  1  0.63771700  0.05055100  0.40430900  1
  N  N29  1  0.86228300  0.05055100  0.90430900  1
  N  N30  1  0.63771700  0.44944900  0.90430900  1
  N  N31  1  0.86228300  0.44944900  0.40430900  1
  N  N32  1  0.05055100  0.63771700  0.90430900  1
  N  N33  1  0.44944900  0.63771700  0.40430900  1
  N  N34  1  0.05055100  0.86228300  0.40430900  1
  N  N35  1  0.44944900  0.86228300  0.90430900  1
  N  N36  1  0.36228300  0.94944900  0.59569100  1
  N  N37  1  0.13771700  0.94944900  0.09569100  1
  N  N38  1  0.36228300  0.55055100  0.09569100  1
  N  N39  1  0.13771700  0.55055100  0.59569100  1
  N  N40  1  0.94944900  0.36228300  0.09569100  1
  N  N41  1  0.55055100  0.36228300  0.59569100  1
  N  N42  1  0.94944900  0.13771700  0.59569100  1
  N  N43  1  0.55055100  0.13771700  0.09569100  1
