# generated using pymatgen
data_Mn3Cd8N9
_symmetry_space_group_name_H-M   'P 1'
_cell_length_a   7.03002398
_cell_length_b   10.48872080
_cell_length_c   18.88753380
_cell_angle_alpha   90.00000000
_cell_angle_beta   112.48128734
_cell_angle_gamma   90.00000000
_symmetry_Int_Tables_number   1
_chemical_formula_structural   Mn3Cd8N9
_chemical_formula_sum   'Mn12 Cd32 N36'
_cell_volume   1286.85216295
_cell_formula_units_Z   4
loop_
 _symmetry_equiv_pos_site_id
 _symmetry_equiv_pos_as_xyz
  1  'x, y, z'
loop_
 _atom_site_type_symbol
 _atom_site_label
 _atom_site_symmetry_multiplicity
 _atom_site_fract_x
 _atom_site_fract_y
 _atom_site_fract_z
 _atom_site_occupancy
  Mn  Mn0  1  0.50475500  0.09017944  0.73943824  1
  Mn  Mn1  1  0.49524500  0.59017944  0.76056176  1
  Mn  Mn2  1  0.49524500  0.90982056  0.26056176  1
  Mn  Mn3  1  0.50475500  0.40982056  0.23943824  1
  Mn  Mn4  1  0.85813348  0.87873393  0.59153497  1
  Mn  Mn5  1  0.14186652  0.37873393  0.90846503  1
  Mn  Mn6  1  0.14186652  0.12126607  0.40846503  1
  Mn  Mn7  1  0.85813348  0.62126607  0.09153497  1
  Mn  Mn8  1  0.78433221  0.39167416  0.57163207  1
  Mn  Mn9  1  0.21566779  0.89167416  0.92836793  1
  Mn  Mn10  1  0.21566779  0.60832584  0.42836793  1
  Mn  Mn11  1  0.78433221  0.10832584  0.07163207  1
  Cd  Cd12  1  0.56622902  0.92491406  0.12475871  1
  Cd  Cd13  1  0.43377098  0.42491406  0.37524129  1
  Cd  Cd14  1  0.43377098  0.07508594  0.87524129  1
  Cd  Cd15  1  0.56622902  0.57508594  0.62475871  1
  Cd  Cd16  1  0.57201977  0.11002459  0.57901720  1
  Cd  Cd17  1  0.42798023  0.61002459  0.92098280  1
  Cd  Cd18  1  0.42798023  0.88997541  0.42098280  1
  Cd  Cd19  1  0.57201977  0.38997541  0.07901720  1
  Cd  Cd20  1  0.82655495  0.83025350  0.76102906  1
  Cd  Cd21  1  0.17344505  0.33025350  0.73897094  1
  Cd  Cd22  1  0.17344505  0.16974650  0.23897094  1
  Cd  Cd23  1  0.82655495  0.66974650  0.26102906  1
  Cd  Cd24  1  0.67257711  0.35858348  0.73344805  1
  Cd  Cd25  1  0.32742289  0.85858348  0.76655195  1
  Cd  Cd26  1  0.32742289  0.64141652  0.26655195  1
  Cd  Cd27  1  0.67257711  0.14141652  0.23344805  1
  Cd  Cd28  1  0.67344382  0.33704426  0.90494457  1
  Cd  Cd29  1  0.32655618  0.83704426  0.59505543  1
  Cd  Cd30  1  0.32655618  0.66295574  0.09505543  1
  Cd  Cd31  1  0.67344382  0.16295574  0.40494457  1
  Cd  Cd32  1  0.02103125  0.11973489  0.85866055  1
  Cd  Cd33  1  0.97896875  0.61973489  0.64133945  1
  Cd  Cd34  1  0.97896875  0.88026511  0.14133945  1
  Cd  Cd35  1  0.02103125  0.38026511  0.35866055  1
  Cd  Cd36  1  0.02305644  0.10816646  0.58620287  1
  Cd  Cd37  1  0.97694356  0.60816646  0.91379713  1
  Cd  Cd38  1  0.97694356  0.89183354  0.41379713  1
  Cd  Cd39  1  0.02305644  0.39183354  0.08620287  1
  Cd  Cd40  1  0.22360716  0.35913956  0.54067348  1
  Cd  Cd41  1  0.77639284  0.85913956  0.95932652  1
  Cd  Cd42  1  0.77639284  0.64086044  0.45932652  1
  Cd  Cd43  1  0.22360716  0.14086044  0.04067348  1
  N  N44  1  0.59061122  0.33013118  0.60162459  1
  N  N45  1  0.40938878  0.83013118  0.89837541  1
  N  N46  1  0.40938878  0.66986882  0.39837541  1
  N  N47  1  0.59061122  0.16986882  0.10162459  1
  N  N48  1  0.47759953  0.23002357  0.78668713  1
  N  N49  1  0.52240047  0.73002357  0.71331287  1
  N  N50  1  0.52240047  0.76997643  0.21331287  1
  N  N51  1  0.47759953  0.26997643  0.28668713  1
  N  N52  1  0.72086347  0.07405429  0.97872045  1
  N  N53  1  0.27913653  0.57405429  0.52127955  1
  N  N54  1  0.27913653  0.92594571  0.02127955  1
  N  N55  1  0.72086347  0.42594571  0.47872045  1
  N  N56  1  0.59639560  0.88468976  0.55674236  1
  N  N57  1  0.40360440  0.38468976  0.94325764  1
  N  N58  1  0.40360440  0.11531024  0.44325764  1
  N  N59  1  0.59639560  0.61531024  0.05674236  1
  N  N60  1  0.73921462  0.03483910  0.77375956  1
  N  N61  1  0.26078538  0.53483910  0.72624044  1
  N  N62  1  0.26078538  0.96516090  0.22624044  1
  N  N63  1  0.73921462  0.46516090  0.27375956  1
  N  N64  1  0.02949697  0.32176930  0.61254412  1
  N  N65  1  0.97050303  0.82176930  0.88745588  1
  N  N66  1  0.97050303  0.67823070  0.38745588  1
  N  N67  1  0.02949697  0.17823070  0.11254412  1
  N  N68  1  0.00180938  0.32392435  0.81418807  1
  N  N69  1  0.99819062  0.82392435  0.68581193  1
  N  N70  1  0.99819062  0.67607565  0.18581193  1
  N  N71  1  0.00180938  0.17607565  0.31418807  1
  N  N72  1  0.02589678  0.18260511  0.46779399  1
  N  N73  1  0.97410322  0.68260511  0.03220601  1
  N  N74  1  0.97410322  0.81739489  0.53220601  1
  N  N75  1  0.02589678  0.31739489  0.96779399  1
  N  N76  1  0.35995921  0.05184236  0.64607505  1
  N  N77  1  0.64004079  0.55184236  0.85392495  1
  N  N78  1  0.64004079  0.94815764  0.35392495  1
  N  N79  1  0.35995921  0.44815764  0.14607505  1
