# generated using pymatgen
data_ZrGeN2
_symmetry_space_group_name_H-M   'P 1'
_cell_length_a   3.95563300
_cell_length_b   3.95563300
_cell_length_c   7.83911800
_cell_angle_alpha   90.00000000
_cell_angle_beta   90.00000000
_cell_angle_gamma   90.00000000
_symmetry_Int_Tables_number   1
_chemical_formula_structural   ZrGeN2
_chemical_formula_sum   'Zr2 Ge2 N4'
_cell_volume   122.65893357
_cell_formula_units_Z   2
loop_
 _symmetry_equiv_pos_site_id
 _symmetry_equiv_pos_as_xyz
  1  'x, y, z'
loop_
 _atom_site_type_symbol
 _atom_site_label
 _atom_site_symmetry_multiplicity
 _atom_site_fract_x
 _atom_site_fract_y
 _atom_site_fract_z
 _atom_site_occupancy
  Zr  Zr0  1  0.75000000  0.75000000  0.61088800  1
  Zr  Zr1  1  0.25000000  0.25000000  0.38911200  1
  Ge  Ge2  1  0.75000000  0.75000000  0.11216500  1
  Ge  Ge3  1  0.25000000  0.25000000  0.88783500  1
  N  N4  1  0.75000000  0.25000000  0.50000000  1
  N  N5  1  0.25000000  0.75000000  0.50000000  1
  N  N6  1  0.75000000  0.75000000  0.87896300  1
  N  N7  1  0.25000000  0.25000000  0.12103700  1
