# generated using pymatgen
data_Cd3(GaN2)2
_symmetry_space_group_name_H-M   'P 1'
_cell_length_a   5.75572800
_cell_length_b   10.87635900
_cell_length_c   8.84619200
_cell_angle_alpha   90.00000000
_cell_angle_beta   90.00000000
_cell_angle_gamma   90.00000000
_symmetry_Int_Tables_number   1
_chemical_formula_structural   Cd3(GaN2)2
_chemical_formula_sum   'Cd12 Ga8 N16'
_cell_volume   553.78368571
_cell_formula_units_Z   4
loop_
 _symmetry_equiv_pos_site_id
 _symmetry_equiv_pos_as_xyz
  1  'x, y, z'
loop_
 _atom_site_type_symbol
 _atom_site_label
 _atom_site_symmetry_multiplicity
 _atom_site_fract_x
 _atom_site_fract_y
 _atom_site_fract_z
 _atom_site_occupancy
  Cd  Cd0  1  0.72038000  0.15394700  0.37987100  1
  Cd  Cd1  1  0.77962000  0.84605300  0.37987100  1
  Cd  Cd2  1  0.72038000  0.34605300  0.12012900  1
  Cd  Cd3  1  0.77962000  0.65394700  0.12012900  1
  Cd  Cd4  1  0.27962000  0.84605300  0.62012900  1
  Cd  Cd5  1  0.22038000  0.15394700  0.62012900  1
  Cd  Cd6  1  0.27962000  0.65394700  0.87987100  1
  Cd  Cd7  1  0.22038000  0.34605300  0.87987100  1
  Cd  Cd8  1  0.75000000  0.50000000  0.44958700  1
  Cd  Cd9  1  0.75000000  0.00000000  0.05041300  1
  Cd  Cd10  1  0.25000000  0.50000000  0.55041300  1
  Cd  Cd11  1  0.25000000  0.00000000  0.94958700  1
  Ga  Ga12  1  0.75000000  0.50000000  0.79288200  1
  Ga  Ga13  1  0.75000000  0.00000000  0.70711800  1
  Ga  Ga14  1  0.25000000  0.50000000  0.20711800  1
  Ga  Ga15  1  0.25000000  0.00000000  0.29288200  1
  Ga  Ga16  1  0.76874000  0.25000000  0.75000000  1
  Ga  Ga17  1  0.73126000  0.75000000  0.75000000  1
  Ga  Ga18  1  0.23126000  0.75000000  0.25000000  1
  Ga  Ga19  1  0.26874000  0.25000000  0.25000000  1
  N  N20  1  0.96938000  0.39256800  0.67328700  1
  N  N21  1  0.53062000  0.60743200  0.67328700  1
  N  N22  1  0.96938000  0.10743200  0.82671300  1
  N  N23  1  0.53062000  0.89256800  0.82671300  1
  N  N24  1  0.03062000  0.60743200  0.32671300  1
  N  N25  1  0.46938000  0.39256800  0.32671300  1
  N  N26  1  0.03062000  0.89256800  0.17328700  1
  N  N27  1  0.46938000  0.10743200  0.17328700  1
  N  N28  1  0.59990200  0.35818400  0.88381600  1
  N  N29  1  0.90009800  0.64181600  0.88381600  1
  N  N30  1  0.59990200  0.14181600  0.61618400  1
  N  N31  1  0.90009800  0.85818400  0.61618400  1
  N  N32  1  0.40009800  0.64181600  0.11618400  1
  N  N33  1  0.09990200  0.35818400  0.11618400  1
  N  N34  1  0.40009800  0.85818400  0.38381600  1
  N  N35  1  0.09990200  0.14181600  0.38381600  1
