# generated using pymatgen
data_Y2AlN3
_symmetry_space_group_name_H-M   'P 1'
_cell_length_a   5.95780646
_cell_length_b   10.55414603
_cell_length_c   11.17560300
_cell_angle_alpha   90.00000000
_cell_angle_beta   90.00000000
_cell_angle_gamma   27.65716967
_symmetry_Int_Tables_number   1
_chemical_formula_structural   Y2AlN3
_chemical_formula_sum   'Y8 Al4 N12'
_cell_volume   326.18721387
_cell_formula_units_Z   4
loop_
 _symmetry_equiv_pos_site_id
 _symmetry_equiv_pos_as_xyz
  1  'x, y, z'
loop_
 _atom_site_type_symbol
 _atom_site_label
 _atom_site_symmetry_multiplicity
 _atom_site_fract_x
 _atom_site_fract_y
 _atom_site_fract_z
 _atom_site_occupancy
  Y  Y0  1  0.00000000  0.47133200  0.65069600  1
  Y  Y1  1  0.00000000  0.52866800  0.34930400  1
  Y  Y2  1  0.00000000  0.02866800  0.15069600  1
  Y  Y3  1  0.00000000  0.97133200  0.84930400  1
  Y  Y4  1  0.00000000  0.14184600  0.57672700  1
  Y  Y5  1  0.00000000  0.85815400  0.42327300  1
  Y  Y6  1  0.00000000  0.35815400  0.07672700  1
  Y  Y7  1  0.00000000  0.64184600  0.92327300  1
  Al  Al8  1  0.00000000  0.24949800  0.83699600  1
  Al  Al9  1  0.00000000  0.75050200  0.16300400  1
  Al  Al10  1  0.00000000  0.25050200  0.33699600  1
  Al  Al11  1  0.00000000  0.74949800  0.66300400  1
  N  N12  1  0.00000000  0.15175200  0.98074100  1
  N  N13  1  0.00000000  0.84824800  0.01925900  1
  N  N14  1  0.00000000  0.34824800  0.48074100  1
  N  N15  1  0.00000000  0.65175200  0.51925900  1
  N  N16  1  0.00000000  0.42671700  0.86194900  1
  N  N17  1  0.00000000  0.57328300  0.13805100  1
  N  N18  1  0.00000000  0.07328300  0.36194900  1
  N  N19  1  0.00000000  0.92671700  0.63805100  1
  N  N20  1  0.50000000  0.42875300  0.75000000  1
  N  N21  1  0.50000000  0.07124700  0.25000000  1
  N  N22  1  0.50000000  0.57124700  0.25000000  1
  N  N23  1  0.50000000  0.92875300  0.75000000  1
