# generated using pymatgen
data_LaMg2W3S8
_symmetry_space_group_name_H-M   'P 1'
_cell_length_a   7.72848534
_cell_length_b   7.72778450
_cell_length_c   7.57218918
_cell_angle_alpha   56.39089995
_cell_angle_beta   56.38507952
_cell_angle_gamma   58.35106460
_symmetry_Int_Tables_number   1
_chemical_formula_structural   LaMg2W3S8
_chemical_formula_sum   'La1 Mg2 W3 S8'
_cell_volume   297.72039693
_cell_formula_units_Z   1
loop_
 _symmetry_equiv_pos_site_id
 _symmetry_equiv_pos_as_xyz
  1  'x, y, z'
loop_
 _atom_site_type_symbol
 _atom_site_label
 _atom_site_symmetry_multiplicity
 _atom_site_fract_x
 _atom_site_fract_y
 _atom_site_fract_z
 _atom_site_occupancy
  La  La0  1  0.49998800  0.50000400  0.49997400  1
  Mg  Mg1  1  0.87536900  0.87536400  0.86779400  1
  Mg  Mg2  1  0.12465700  0.12464500  0.13226900  1
  W  W3  1  0.50029700  0.50025500  0.99944700  1
  W  W4  1  0.99973100  0.49999800  0.50029100  1
  W  W5  1  0.50000000  0.99977100  0.50024500  1
  S  S6  1  0.74319600  0.74321600  0.73454000  1
  S  S7  1  0.23584000  0.23584500  0.72547400  1
  S  S8  1  0.24181100  0.73086800  0.23553300  1
  S  S9  1  0.73087900  0.24181400  0.23551800  1
  S  S10  1  0.75817800  0.26898300  0.76442200  1
  S  S11  1  0.26900800  0.75818400  0.76444000  1
  S  S12  1  0.25693300  0.25693500  0.26544300  1
  S  S13  1  0.76411700  0.76411300  0.27461000  1
