# generated using pymatgen
data_Ba3(BiN2)2
_symmetry_space_group_name_H-M   'P 1'
_cell_length_a   8.76432860
_cell_length_b   12.77348904
_cell_length_c   6.31420356
_cell_angle_alpha   89.99999958
_cell_angle_beta   97.45115692
_cell_angle_gamma   136.77922606
_symmetry_Int_Tables_number   1
_chemical_formula_structural   Ba3(BiN2)2
_chemical_formula_sum   'Ba6 Bi4 N8'
_cell_volume   475.32184790
_cell_formula_units_Z   2
loop_
 _symmetry_equiv_pos_site_id
 _symmetry_equiv_pos_as_xyz
  1  'x, y, z'
loop_
 _atom_site_type_symbol
 _atom_site_label
 _atom_site_symmetry_multiplicity
 _atom_site_fract_x
 _atom_site_fract_y
 _atom_site_fract_z
 _atom_site_occupancy
  Ba  Ba0  1  0.22359700  0.00528200  0.04358100  1
  Ba  Ba1  1  0.77640300  0.78168500  0.45641900  1
  Ba  Ba2  1  0.77640300  0.99471800  0.95641900  1
  Ba  Ba3  1  0.22359700  0.21831500  0.54358100  1
  Ba  Ba4  1  0.00000000  0.60501200  0.75000000  1
  Ba  Ba5  1  0.00000000  0.39498800  0.25000000  1
  Bi  Bi6  1  0.57865900  0.17905700  0.63422200  1
  Bi  Bi7  1  0.42134100  0.60039800  0.86577800  1
  Bi  Bi8  1  0.42134100  0.82094300  0.36577800  1
  Bi  Bi9  1  0.57865900  0.39960200  0.13422200  1
  N  N10  1  0.21397100  0.00740900  0.58590200  1
  N  N11  1  0.78602900  0.79343800  0.91409800  1
  N  N12  1  0.78602900  0.99259100  0.41409800  1
  N  N13  1  0.21397100  0.20656200  0.08590200  1
  N  N14  1  0.68815100  0.32219900  0.93914700  1
  N  N15  1  0.31184900  0.63404800  0.56085300  1
  N  N16  1  0.31184900  0.67780100  0.06085300  1
  N  N17  1  0.68815100  0.36595200  0.43914700  1
