# generated using pymatgen
data_Sr2VN2
_symmetry_space_group_name_H-M   'P 1'
_cell_length_a   6.36365275
_cell_length_b   11.57780692
_cell_length_c   12.90530200
_cell_angle_alpha   90.00000000
_cell_angle_beta   90.00000000
_cell_angle_gamma   24.53849434
_symmetry_Int_Tables_number   1
_chemical_formula_structural   Sr2VN2
_chemical_formula_sum   'Sr8 V4 N8'
_cell_volume   394.88223368
_cell_formula_units_Z   4
loop_
 _symmetry_equiv_pos_site_id
 _symmetry_equiv_pos_as_xyz
  1  'x, y, z'
loop_
 _atom_site_type_symbol
 _atom_site_label
 _atom_site_symmetry_multiplicity
 _atom_site_fract_x
 _atom_site_fract_y
 _atom_site_fract_z
 _atom_site_occupancy
  Sr  Sr0  1  0.00000000  0.45786800  0.85150400  1
  Sr  Sr1  1  0.00000000  0.54213200  0.14849600  1
  Sr  Sr2  1  0.00000000  0.04213200  0.35150400  1
  Sr  Sr3  1  0.00000000  0.95786800  0.64849600  1
  Sr  Sr4  1  0.00000000  0.14912100  0.94064500  1
  Sr  Sr5  1  0.00000000  0.85087900  0.05935500  1
  Sr  Sr6  1  0.00000000  0.35087900  0.44064500  1
  Sr  Sr7  1  0.00000000  0.64912100  0.55935500  1
  V  V8  1  0.00000000  0.26871800  0.67908100  1
  V  V9  1  0.00000000  0.73128200  0.32091900  1
  V  V10  1  0.00000000  0.23128200  0.17908100  1
  V  V11  1  0.00000000  0.76871800  0.82091900  1
  N  N12  1  0.00000000  0.41583700  0.63931200  1
  N  N13  1  0.00000000  0.58416300  0.36068800  1
  N  N14  1  0.00000000  0.08416300  0.13931200  1
  N  N15  1  0.00000000  0.91583700  0.86068800  1
  N  N16  1  0.00000000  0.16753500  0.57629900  1
  N  N17  1  0.00000000  0.83246500  0.42370100  1
  N  N18  1  0.00000000  0.33246500  0.07629900  1
  N  N19  1  0.00000000  0.66753500  0.92370100  1
