# generated using pymatgen
data_Mg7SiN6
_symmetry_space_group_name_H-M   'P 1'
_cell_length_a   5.49580100
_cell_length_b   8.19537998
_cell_length_c   8.19537998
_cell_angle_alpha   77.77185128
_cell_angle_beta   70.40929171
_cell_angle_gamma   70.40929171
_symmetry_Int_Tables_number   1
_chemical_formula_structural   Mg7SiN6
_chemical_formula_sum   'Mg14 Si2 N12'
_cell_volume   325.56265431
_cell_formula_units_Z   2
loop_
 _symmetry_equiv_pos_site_id
 _symmetry_equiv_pos_as_xyz
  1  'x, y, z'
loop_
 _atom_site_type_symbol
 _atom_site_label
 _atom_site_symmetry_multiplicity
 _atom_site_fract_x
 _atom_site_fract_y
 _atom_site_fract_z
 _atom_site_occupancy
  Mg  Mg0  1  0.28134300  0.95788700  0.04211300  1
  Mg  Mg1  1  0.71865700  0.04211300  0.95788700  1
  Mg  Mg2  1  0.21865700  0.45788700  0.54211300  1
  Mg  Mg3  1  0.78134300  0.54211300  0.45788700  1
  Mg  Mg4  1  0.72514200  0.15112500  0.60891700  1
  Mg  Mg5  1  0.51481700  0.60891700  0.15112500  1
  Mg  Mg6  1  0.77485800  0.89108300  0.34887500  1
  Mg  Mg7  1  0.98518300  0.34887500  0.89108300  1
  Mg  Mg8  1  0.27485800  0.84887500  0.39108300  1
  Mg  Mg9  1  0.48518300  0.39108300  0.84887500  1
  Mg  Mg10  1  0.22514200  0.10891700  0.65112500  1
  Mg  Mg11  1  0.01481700  0.65112500  0.10891700  1
  Mg  Mg12  1  0.25000000  0.25000000  0.25000000  1
  Mg  Mg13  1  0.75000000  0.75000000  0.75000000  1
  Si  Si14  1  0.75000000  0.25000000  0.25000000  1
  Si  Si15  1  0.25000000  0.75000000  0.75000000  1
  N  N16  1  0.02173200  0.06678200  0.27717300  1
  N  N17  1  0.63431300  0.27717300  0.06678200  1
  N  N18  1  0.47826800  0.22282700  0.43321800  1
  N  N19  1  0.86568700  0.43321800  0.22282700  1
  N  N20  1  0.97826800  0.93321800  0.72282700  1
  N  N21  1  0.36568700  0.72282700  0.93321800  1
  N  N22  1  0.52173200  0.77717300  0.56678200  1
  N  N23  1  0.13431300  0.56678200  0.77717300  1
  N  N24  1  0.87083900  0.34454200  0.65545800  1
  N  N25  1  0.12916100  0.65545800  0.34454200  1
  N  N26  1  0.62916100  0.84454200  0.15545800  1
  N  N27  1  0.37083900  0.15545800  0.84454200  1
