# generated using pymatgen
data_AlInN2
_symmetry_space_group_name_H-M   'P 1'
_cell_length_a   5.50076700
_cell_length_b   11.02744800
_cell_length_c   14.01175700
_cell_angle_alpha   90.00000000
_cell_angle_beta   90.00000000
_cell_angle_gamma   90.00000000
_symmetry_Int_Tables_number   1
_chemical_formula_structural   AlInN2
_chemical_formula_sum   'Al16 In16 N32'
_cell_volume   849.94508156
_cell_formula_units_Z   16
loop_
 _symmetry_equiv_pos_site_id
 _symmetry_equiv_pos_as_xyz
  1  'x, y, z'
loop_
 _atom_site_type_symbol
 _atom_site_label
 _atom_site_symmetry_multiplicity
 _atom_site_fract_x
 _atom_site_fract_y
 _atom_site_fract_z
 _atom_site_occupancy
  Al  Al0  1  0.66870500  0.02334000  0.18771900  1
  Al  Al1  1  0.16870500  0.47666000  0.81228100  1
  Al  Al2  1  0.33129500  0.52334000  0.31228100  1
  Al  Al3  1  0.83129500  0.97666000  0.68771900  1
  Al  Al4  1  0.33129500  0.97666000  0.81228100  1
  Al  Al5  1  0.83129500  0.52334000  0.18771900  1
  Al  Al6  1  0.66870500  0.47666000  0.68771900  1
  Al  Al7  1  0.16870500  0.02334000  0.31228100  1
  Al  Al8  1  0.78520500  0.28466400  0.06203600  1
  Al  Al9  1  0.28520500  0.21533600  0.93796400  1
  Al  Al10  1  0.21479500  0.78466400  0.43796400  1
  Al  Al11  1  0.71479500  0.71533600  0.56203600  1
  Al  Al12  1  0.21479500  0.71533600  0.93796400  1
  Al  Al13  1  0.71479500  0.78466400  0.06203600  1
  Al  Al14  1  0.78520500  0.21533600  0.56203600  1
  Al  Al15  1  0.28520500  0.28466400  0.43796400  1
  In  In16  1  0.71723900  0.96620300  0.44075300  1
  In  In17  1  0.21723900  0.53379700  0.55924700  1
  In  In18  1  0.28276100  0.46620300  0.05924700  1
  In  In19  1  0.78276100  0.03379700  0.94075300  1
  In  In20  1  0.28276100  0.03379700  0.55924700  1
  In  In21  1  0.78276100  0.46620300  0.44075300  1
  In  In22  1  0.71723900  0.53379700  0.94075300  1
  In  In23  1  0.21723900  0.96620300  0.05924700  1
  In  In24  1  0.78529300  0.26031500  0.30951200  1
  In  In25  1  0.28529300  0.23968500  0.69048800  1
  In  In26  1  0.21470700  0.76031500  0.19048800  1
  In  In27  1  0.71470700  0.73968500  0.80951200  1
  In  In28  1  0.21470700  0.73968500  0.69048800  1
  In  In29  1  0.71470700  0.76031500  0.30951200  1
  In  In30  1  0.78529300  0.23968500  0.80951200  1
  In  In31  1  0.28529300  0.26031500  0.19048800  1
  N  N32  1  0.65807100  0.47136700  0.29646800  1
  N  N33  1  0.15807100  0.02863300  0.70353200  1
  N  N34  1  0.34192900  0.97136700  0.20353200  1
  N  N35  1  0.84192900  0.52863300  0.79646800  1
  N  N36  1  0.34192900  0.52863300  0.70353200  1
  N  N37  1  0.84192900  0.97136700  0.29646800  1
  N  N38  1  0.65807100  0.02863300  0.79646800  1
  N  N39  1  0.15807100  0.47136700  0.20353200  1
  N  N40  1  0.63045100  0.27615000  0.45149600  1
  N  N41  1  0.13045100  0.22385000  0.54850400  1
  N  N42  1  0.36954900  0.77615000  0.04850400  1
  N  N43  1  0.86954900  0.72385000  0.95149600  1
  N  N44  1  0.36954900  0.72385000  0.54850400  1
  N  N45  1  0.86954900  0.77615000  0.45149600  1
  N  N46  1  0.63045100  0.22385000  0.95149600  1
  N  N47  1  0.13045100  0.27615000  0.04850400  1
  N  N48  1  0.69267000  0.44922900  0.07742700  1
  N  N49  1  0.19267000  0.05077100  0.92257300  1
  N  N50  1  0.30733000  0.94922900  0.42257300  1
  N  N51  1  0.80733000  0.55077100  0.57742700  1
  N  N52  1  0.30733000  0.55077100  0.92257300  1
  N  N53  1  0.80733000  0.94922900  0.07742700  1
  N  N54  1  0.69267000  0.05077100  0.57742700  1
  N  N55  1  0.19267000  0.44922900  0.42257300  1
  N  N56  1  0.66454800  0.19746600  0.17215800  1
  N  N57  1  0.16454800  0.30253400  0.82784200  1
  N  N58  1  0.33545200  0.69746600  0.32784200  1
  N  N59  1  0.83545200  0.80253400  0.67215800  1
  N  N60  1  0.33545200  0.80253400  0.82784200  1
  N  N61  1  0.83545200  0.69746600  0.17215800  1
  N  N62  1  0.66454800  0.30253400  0.67215800  1
  N  N63  1  0.16454800  0.19746600  0.32784200  1
