# generated using pymatgen
data_TaGaN2
_symmetry_space_group_name_H-M   'P 1'
_cell_length_a   5.69883500
_cell_length_b   11.84814300
_cell_length_c   16.19664200
_cell_angle_alpha   90.00000000
_cell_angle_beta   90.00000000
_cell_angle_gamma   90.00000000
_symmetry_Int_Tables_number   1
_chemical_formula_structural   TaGaN2
_chemical_formula_sum   'Ta16 Ga16 N32'
_cell_volume   1093.60718040
_cell_formula_units_Z   16
loop_
 _symmetry_equiv_pos_site_id
 _symmetry_equiv_pos_as_xyz
  1  'x, y, z'
loop_
 _atom_site_type_symbol
 _atom_site_label
 _atom_site_symmetry_multiplicity
 _atom_site_fract_x
 _atom_site_fract_y
 _atom_site_fract_z
 _atom_site_occupancy
  Ta  Ta0  1  0.78265000  0.99521600  0.30912200  1
  Ta  Ta1  1  0.28265000  0.50478400  0.69087800  1
  Ta  Ta2  1  0.21735000  0.49521600  0.19087800  1
  Ta  Ta3  1  0.71735000  0.00478400  0.80912200  1
  Ta  Ta4  1  0.21735000  0.00478400  0.69087800  1
  Ta  Ta5  1  0.71735000  0.49521600  0.30912200  1
  Ta  Ta6  1  0.78265000  0.50478400  0.80912200  1
  Ta  Ta7  1  0.28265000  0.99521600  0.19087800  1
  Ta  Ta8  1  0.74801300  0.26164300  0.43670700  1
  Ta  Ta9  1  0.24801300  0.23835700  0.56329300  1
  Ta  Ta10  1  0.25198700  0.76164300  0.06329300  1
  Ta  Ta11  1  0.75198700  0.73835700  0.93670700  1
  Ta  Ta12  1  0.25198700  0.73835700  0.56329300  1
  Ta  Ta13  1  0.75198700  0.76164300  0.43670700  1
  Ta  Ta14  1  0.74801300  0.23835700  0.93670700  1
  Ta  Ta15  1  0.24801300  0.26164300  0.06329300  1
  Ga  Ga16  1  0.26860200  0.96524700  0.42780800  1
  Ga  Ga17  1  0.76860200  0.53475300  0.57219200  1
  Ga  Ga18  1  0.73139800  0.46524700  0.07219200  1
  Ga  Ga19  1  0.23139800  0.03475300  0.92780800  1
  Ga  Ga20  1  0.73139800  0.03475300  0.57219200  1
  Ga  Ga21  1  0.23139800  0.46524700  0.42780800  1
  Ga  Ga22  1  0.26860200  0.53475300  0.92780800  1
  Ga  Ga23  1  0.76860200  0.96524700  0.07219200  1
  Ga  Ga24  1  0.20763900  0.18624100  0.35483900  1
  Ga  Ga25  1  0.70763900  0.31375900  0.64516100  1
  Ga  Ga26  1  0.79236100  0.68624100  0.14516100  1
  Ga  Ga27  1  0.29236100  0.81375900  0.85483900  1
  Ga  Ga28  1  0.79236100  0.81375900  0.64516100  1
  Ga  Ga29  1  0.29236100  0.68624100  0.35483900  1
  Ga  Ga30  1  0.20763900  0.31375900  0.85483900  1
  Ga  Ga31  1  0.70763900  0.18624100  0.14516100  1
  N  N32  1  0.07556800  0.30034800  0.46606600  1
  N  N33  1  0.57556800  0.19965200  0.53393400  1
  N  N34  1  0.92443200  0.80034800  0.03393400  1
  N  N35  1  0.42443200  0.69965200  0.96606600  1
  N  N36  1  0.92443200  0.69965200  0.53393400  1
  N  N37  1  0.42443200  0.80034800  0.46606600  1
  N  N38  1  0.07556800  0.19965200  0.96606600  1
  N  N39  1  0.57556800  0.30034800  0.03393400  1
  N  N40  1  0.58871000  0.39148900  0.39105900  1
  N  N41  1  0.08871000  0.10851100  0.60894100  1
  N  N42  1  0.41129000  0.89148900  0.10894100  1
  N  N43  1  0.91129000  0.60851100  0.89105900  1
  N  N44  1  0.41129000  0.60851100  0.60894100  1
  N  N45  1  0.91129000  0.89148900  0.39105900  1
  N  N46  1  0.58871000  0.10851100  0.89105900  1
  N  N47  1  0.08871000  0.39148900  0.10894100  1
  N  N48  1  0.82612800  0.14779500  0.35490500  1
  N  N49  1  0.32612800  0.35220500  0.64509500  1
  N  N50  1  0.17387200  0.64779500  0.14509500  1
  N  N51  1  0.67387200  0.85220500  0.85490500  1
  N  N52  1  0.17387200  0.85220500  0.64509500  1
  N  N53  1  0.67387200  0.64779500  0.35490500  1
  N  N54  1  0.82612800  0.35220500  0.85490500  1
  N  N55  1  0.32612800  0.14779500  0.14509500  1
  N  N56  1  0.54864400  0.46918200  0.20544100  1
  N  N57  1  0.04864400  0.03081800  0.79455900  1
  N  N58  1  0.45135600  0.96918200  0.29455900  1
  N  N59  1  0.95135600  0.53081800  0.70544100  1
  N  N60  1  0.45135600  0.53081800  0.79455900  1
  N  N61  1  0.95135600  0.96918200  0.20544100  1
  N  N62  1  0.54864400  0.03081800  0.70544100  1
  N  N63  1  0.04864400  0.46918200  0.29455900  1
