# generated using pymatgen
data_Ba(ZnN)2
_symmetry_space_group_name_H-M   'P 1'
_cell_length_a   6.25871858
_cell_length_b   6.66537132
_cell_length_c   8.23601268
_cell_angle_alpha   89.99999776
_cell_angle_beta   48.85528979
_cell_angle_gamma   57.82635969
_symmetry_Int_Tables_number   1
_chemical_formula_structural   Ba(ZnN)2
_chemical_formula_sum   'Ba2 Zn4 N4'
_cell_volume   182.95138574
_cell_formula_units_Z   2
loop_
 _symmetry_equiv_pos_site_id
 _symmetry_equiv_pos_as_xyz
  1  'x, y, z'
loop_
 _atom_site_type_symbol
 _atom_site_label
 _atom_site_symmetry_multiplicity
 _atom_site_fract_x
 _atom_site_fract_y
 _atom_site_fract_z
 _atom_site_occupancy
  Ba  Ba0  1  0.00000000  0.00000000  0.25000000  1
  Ba  Ba1  1  0.00000000  0.00000000  0.75000000  1
  Zn  Zn2  1  0.73044000  0.50000000  0.63478000  1
  Zn  Zn3  1  0.26956000  0.50000000  0.36522000  1
  Zn  Zn4  1  0.26956000  0.23044000  0.86522000  1
  Zn  Zn5  1  0.73044000  0.76956000  0.13478000  1
  N  N6  1  0.67347200  0.50000000  0.16326400  1
  N  N7  1  0.32652800  0.50000000  0.83673600  1
  N  N8  1  0.32652800  0.17347200  0.33673600  1
  N  N9  1  0.67347200  0.82652800  0.66326400  1
