# generated using pymatgen
data_Ca3V3N5
_symmetry_space_group_name_H-M   'P 1'
_cell_length_a   5.71819165
_cell_length_b   7.32755765
_cell_length_c   8.25228485
_cell_angle_alpha   109.61435037
_cell_angle_beta   105.32420150
_cell_angle_gamma   99.50883500
_symmetry_Int_Tables_number   1
_chemical_formula_structural   Ca3V3N5
_chemical_formula_sum   'Ca6 V6 N10'
_cell_volume   301.61059647
_cell_formula_units_Z   2
loop_
 _symmetry_equiv_pos_site_id
 _symmetry_equiv_pos_as_xyz
  1  'x, y, z'
loop_
 _atom_site_type_symbol
 _atom_site_label
 _atom_site_symmetry_multiplicity
 _atom_site_fract_x
 _atom_site_fract_y
 _atom_site_fract_z
 _atom_site_occupancy
  Ca  Ca0  1  0.74142300  0.42500400  0.59521300  1
  Ca  Ca1  1  0.25857700  0.57499600  0.40478700  1
  Ca  Ca2  1  0.65675900  0.84898700  0.88929000  1
  Ca  Ca3  1  0.34324100  0.15101300  0.11071000  1
  Ca  Ca4  1  0.67494000  0.68212500  0.22261700  1
  Ca  Ca5  1  0.32506000  0.31787500  0.77738300  1
  V  V6  1  0.90299800  0.31569600  0.96537100  1
  V  V7  1  0.09700200  0.68430400  0.03462900  1
  V  V8  1  0.70026600  0.98873900  0.59819000  1
  V  V9  1  0.29973400  0.01126100  0.40181000  1
  V  V10  1  0.09445900  0.86496000  0.69780000  1
  V  V11  1  0.90554100  0.13504000  0.30220000  1
  N  N12  1  0.00412600  0.09762000  0.81974900  1
  N  N13  1  0.99587400  0.90238000  0.18025100  1
  N  N14  1  0.74958700  0.71962200  0.53204200  1
  N  N15  1  0.25041300  0.28037800  0.46795800  1
  N  N16  1  0.75360200  0.51739000  0.90452600  1
  N  N17  1  0.24639800  0.48261000  0.09547400  1
  N  N18  1  0.37176800  0.93902800  0.62066900  1
  N  N19  1  0.62823200  0.06097200  0.37933100  1
  N  N20  1  0.21795000  0.76143300  0.86917300  1
  N  N21  1  0.78205000  0.23856700  0.13082700  1
