# generated using pymatgen
data_Al(PbN)3
_symmetry_space_group_name_H-M   'P 1'
_cell_length_a   10.33688210
_cell_length_b   10.33527751
_cell_length_c   3.61581900
_cell_angle_alpha   90.00000000
_cell_angle_beta   90.00000000
_cell_angle_gamma   120.02192540
_symmetry_Int_Tables_number   1
_chemical_formula_structural   Al(PbN)3
_chemical_formula_sum   'Al2 Pb6 N6'
_cell_volume   334.46680850
_cell_formula_units_Z   2
loop_
 _symmetry_equiv_pos_site_id
 _symmetry_equiv_pos_as_xyz
  1  'x, y, z'
loop_
 _atom_site_type_symbol
 _atom_site_label
 _atom_site_symmetry_multiplicity
 _atom_site_fract_x
 _atom_site_fract_y
 _atom_site_fract_z
 _atom_site_occupancy
  Al  Al0  1  0.66663200  0.33344100  0.75000000  1
  Al  Al1  1  0.33336800  0.66655900  0.25000000  1
  Pb  Pb2  1  0.97627200  0.63417900  0.25000000  1
  Pb  Pb3  1  0.65809200  0.02367200  0.25000000  1
  Pb  Pb4  1  0.36569800  0.34211700  0.25000000  1
  Pb  Pb5  1  0.02372800  0.36582100  0.75000000  1
  Pb  Pb6  1  0.34190800  0.97632800  0.75000000  1
  Pb  Pb7  1  0.63430200  0.65788300  0.75000000  1
  N  N8  1  0.86543700  0.46828400  0.75000000  1
  N  N9  1  0.60289000  0.13449000  0.75000000  1
  N  N10  1  0.53147800  0.39670600  0.75000000  1
  N  N11  1  0.13456300  0.53171600  0.25000000  1
  N  N12  1  0.39711000  0.86551000  0.25000000  1
  N  N13  1  0.46852200  0.60329400  0.25000000  1
