# generated using pymatgen
data_Ca(VN2)2
_symmetry_space_group_name_H-M   'P 1'
_cell_length_a   10.18191008
_cell_length_b   10.18191008
_cell_length_c   10.18191008
_cell_angle_alpha   90.00000000
_cell_angle_beta   90.00000000
_cell_angle_gamma   90.00000000
_symmetry_Int_Tables_number   1
_chemical_formula_structural   Ca(VN2)2
_chemical_formula_sum   'Ca12 V24 N48'
_cell_volume   1055.57178195
_cell_formula_units_Z   12
loop_
 _symmetry_equiv_pos_site_id
 _symmetry_equiv_pos_as_xyz
  1  'x, y, z'
loop_
 _atom_site_type_symbol
 _atom_site_label
 _atom_site_symmetry_multiplicity
 _atom_site_fract_x
 _atom_site_fract_y
 _atom_site_fract_z
 _atom_site_occupancy
  Ca  Ca0  1  0.50000000  0.50000000  -0.00000000  1
  Ca  Ca1  1  0.50000000  0.00000000  0.50000000  1
  Ca  Ca2  1  -0.00000000  0.50000000  0.50000000  1
  Ca  Ca3  1  0.00000000  0.00000000  -0.00000000  1
  Ca  Ca4  1  0.12095325  0.87904675  0.37904675  1
  Ca  Ca5  1  0.87904675  0.37904675  0.12095325  1
  Ca  Ca6  1  0.37904675  0.12095325  0.87904675  1
  Ca  Ca7  1  0.62095325  0.62095325  0.62095325  1
  Ca  Ca8  1  0.87904675  0.12095325  0.62095325  1
  Ca  Ca9  1  0.12095325  0.62095325  0.87904675  1
  Ca  Ca10  1  0.62095325  0.87904675  0.12095325  1
  Ca  Ca11  1  0.37904675  0.37904675  0.37904675  1
  V  V12  1  0.38757843  0.71257583  0.35973641  1
  V  V13  1  0.61242157  0.21257583  0.14026359  1
  V  V14  1  0.11242157  0.28742417  0.85973641  1
  V  V15  1  0.88757843  0.78742417  0.64026359  1
  V  V16  1  0.35973641  0.38757843  0.71257583  1
  V  V17  1  0.14026359  0.61242157  0.21257583  1
  V  V18  1  0.85973641  0.11242157  0.28742417  1
  V  V19  1  0.64026359  0.88757843  0.78742417  1
  V  V20  1  0.71257583  0.35973641  0.38757843  1
  V  V21  1  0.21257583  0.14026359  0.61242157  1
  V  V22  1  0.28742417  0.85973641  0.11242157  1
  V  V23  1  0.78742417  0.64026359  0.88757843  1
  V  V24  1  0.61242157  0.28742417  0.64026359  1
  V  V25  1  0.38757843  0.78742417  0.85973641  1
  V  V26  1  0.88757843  0.71257583  0.14026359  1
  V  V27  1  0.11242157  0.21257583  0.35973641  1
  V  V28  1  0.64026359  0.61242157  0.28742417  1
  V  V29  1  0.85973641  0.38757843  0.78742417  1
  V  V30  1  0.14026359  0.88757843  0.71257583  1
  V  V31  1  0.35973641  0.11242157  0.21257583  1
  V  V32  1  0.28742417  0.64026359  0.61242157  1
  V  V33  1  0.78742417  0.85973641  0.38757843  1
  V  V34  1  0.71257583  0.14026359  0.88757843  1
  V  V35  1  0.21257583  0.35973641  0.11242157  1
  N  N36  1  0.34798215  0.87339844  0.27938745  1
  N  N37  1  0.65201785  0.37339844  0.22061255  1
  N  N38  1  0.15201785  0.12660156  0.77938745  1
  N  N39  1  0.84798215  0.62660156  0.72061255  1
  N  N40  1  0.27938745  0.34798215  0.87339844  1
  N  N41  1  0.22061255  0.65201785  0.37339844  1
  N  N42  1  0.77938745  0.15201785  0.12660156  1
  N  N43  1  0.72061255  0.84798215  0.62660156  1
  N  N44  1  0.87339844  0.27938745  0.34798215  1
  N  N45  1  0.37339844  0.22061255  0.65201785  1
  N  N46  1  0.12660156  0.77938745  0.15201785  1
  N  N47  1  0.62660156  0.72061255  0.84798215  1
  N  N48  1  0.65201785  0.12660156  0.72061255  1
  N  N49  1  0.34798215  0.62660156  0.77938745  1
  N  N50  1  0.84798215  0.87339844  0.22061255  1
  N  N51  1  0.15201785  0.37339844  0.27938745  1
  N  N52  1  0.72061255  0.65201785  0.12660156  1
  N  N53  1  0.77938745  0.34798215  0.62660156  1
  N  N54  1  0.22061255  0.84798215  0.87339844  1
  N  N55  1  0.27938745  0.15201785  0.37339844  1
  N  N56  1  0.12660156  0.72061255  0.65201785  1
  N  N57  1  0.62660156  0.77938745  0.34798215  1
  N  N58  1  0.87339844  0.22061255  0.84798215  1
  N  N59  1  0.37339844  0.27938745  0.15201785  1
  N  N60  1  0.42571903  0.72811998  0.53005891  1
  N  N61  1  0.57428097  0.22811998  0.96994109  1
  N  N62  1  0.07428097  0.27188002  0.03005891  1
  N  N63  1  0.92571903  0.77188002  0.46994109  1
  N  N64  1  0.53005891  0.42571903  0.72811998  1
  N  N65  1  0.96994109  0.57428097  0.22811998  1
  N  N66  1  0.03005891  0.07428097  0.27188002  1
  N  N67  1  0.46994109  0.92571903  0.77188002  1
  N  N68  1  0.72811998  0.53005891  0.42571903  1
  N  N69  1  0.22811998  0.96994109  0.57428097  1
  N  N70  1  0.27188002  0.03005891  0.07428097  1
  N  N71  1  0.77188002  0.46994109  0.92571903  1
  N  N72  1  0.57428097  0.27188002  0.46994109  1
  N  N73  1  0.42571903  0.77188002  0.03005891  1
  N  N74  1  0.92571903  0.72811998  0.96994109  1
  N  N75  1  0.07428097  0.22811998  0.53005891  1
  N  N76  1  0.46994109  0.57428097  0.27188002  1
  N  N77  1  0.03005891  0.42571903  0.77188002  1
  N  N78  1  0.96994109  0.92571903  0.72811998  1
  N  N79  1  0.53005891  0.07428097  0.22811998  1
  N  N80  1  0.27188002  0.46994109  0.57428097  1
  N  N81  1  0.77188002  0.03005891  0.42571903  1
  N  N82  1  0.72811998  0.96994109  0.92571903  1
  N  N83  1  0.22811998  0.53005891  0.07428097  1
