# generated using pymatgen
data_Cs6MoN4
_symmetry_space_group_name_H-M   'P 1'
_cell_length_a   8.93099200
_cell_length_b   8.93099200
_cell_length_c   7.97125300
_cell_angle_alpha   90.00000000
_cell_angle_beta   90.00000000
_cell_angle_gamma   90.00000000
_symmetry_Int_Tables_number   1
_chemical_formula_structural   Cs6MoN4
_chemical_formula_sum   'Cs12 Mo2 N8'
_cell_volume   635.80800885
_cell_formula_units_Z   2
loop_
 _symmetry_equiv_pos_site_id
 _symmetry_equiv_pos_as_xyz
  1  'x, y, z'
loop_
 _atom_site_type_symbol
 _atom_site_label
 _atom_site_symmetry_multiplicity
 _atom_site_fract_x
 _atom_site_fract_y
 _atom_site_fract_z
 _atom_site_occupancy
  Cs  Cs0  1  0.00000000  0.50000000  0.73670600  1
  Cs  Cs1  1  0.50000000  0.00000000  0.76329400  1
  Cs  Cs2  1  0.50000000  0.00000000  0.26329400  1
  Cs  Cs3  1  0.00000000  0.50000000  0.23670600  1
  Cs  Cs4  1  0.21224900  0.21224900  0.50000000  1
  Cs  Cs5  1  0.78775100  0.78775100  0.50000000  1
  Cs  Cs6  1  0.71224900  0.71224900  0.00000000  1
  Cs  Cs7  1  0.28775100  0.28775100  0.00000000  1
  Cs  Cs8  1  0.78775100  0.21224900  0.50000000  1
  Cs  Cs9  1  0.21224900  0.78775100  0.50000000  1
  Cs  Cs10  1  0.28775100  0.71224900  0.00000000  1
  Cs  Cs11  1  0.71224900  0.28775100  0.00000000  1
  Mo  Mo12  1  0.50000000  0.50000000  0.50000000  1
  Mo  Mo13  1  0.00000000  0.00000000  0.00000000  1
  N  N14  1  0.31801600  0.50000000  0.37251200  1
  N  N15  1  0.68198400  0.50000000  0.37251200  1
  N  N16  1  0.81801600  0.00000000  0.12748800  1
  N  N17  1  0.18198400  0.00000000  0.12748800  1
  N  N18  1  0.50000000  0.31801600  0.62748800  1
  N  N19  1  0.50000000  0.68198400  0.62748800  1
  N  N20  1  0.00000000  0.81801600  0.87251200  1
  N  N21  1  0.00000000  0.18198400  0.87251200  1
