# generated using pymatgen
data_SrHf7N10
_symmetry_space_group_name_H-M   'P 1'
_cell_length_a   6.55426372
_cell_length_b   6.87100900
_cell_length_c   13.45868745
_cell_angle_alpha   90.00000000
_cell_angle_beta   88.19506813
_cell_angle_gamma   90.00000000
_symmetry_Int_Tables_number   1
_chemical_formula_structural   SrHf7N10
_chemical_formula_sum   'Sr2 Hf14 N20'
_cell_volume   605.80326453
_cell_formula_units_Z   2
loop_
 _symmetry_equiv_pos_site_id
 _symmetry_equiv_pos_as_xyz
  1  'x, y, z'
loop_
 _atom_site_type_symbol
 _atom_site_label
 _atom_site_symmetry_multiplicity
 _atom_site_fract_x
 _atom_site_fract_y
 _atom_site_fract_z
 _atom_site_occupancy
  Sr  Sr0  1  0.88920000  0.06181300  0.61698900  1
  Sr  Sr1  1  0.88920000  0.93818700  0.11698900  1
  Hf  Hf2  1  0.59564100  0.04485700  0.82778900  1
  Hf  Hf3  1  0.59564100  0.95514300  0.32778900  1
  Hf  Hf4  1  0.40803400  0.96307900  0.03831000  1
  Hf  Hf5  1  0.40803400  0.03692100  0.53831000  1
  Hf  Hf6  1  0.12312000  0.41498500  0.07850100  1
  Hf  Hf7  1  0.12312000  0.58501500  0.57850100  1
  Hf  Hf8  1  0.69513100  0.40992200  0.98612100  1
  Hf  Hf9  1  0.69513100  0.59007800  0.48612100  1
  Hf  Hf10  1  0.88369200  0.60136100  0.78668000  1
  Hf  Hf11  1  0.88369200  0.39863900  0.28668000  1
  Hf  Hf12  1  0.31013500  0.59584700  0.87977500  1
  Hf  Hf13  1  0.31013500  0.40415300  0.37977500  1
  Hf  Hf14  1  0.50063000  0.41735800  0.68397000  1
  Hf  Hf15  1  0.50063000  0.58264200  0.18397000  1
  N  N16  1  0.83137400  0.88400900  0.78310600  1
  N  N17  1  0.83137400  0.11599100  0.28310600  1
  N  N18  1  0.65438700  0.11877000  0.98435600  1
  N  N19  1  0.65438700  0.88123000  0.48435600  1
  N  N20  1  0.37279200  0.87670200  0.88907500  1
  N  N21  1  0.37279200  0.12329800  0.38907500  1
  N  N22  1  0.17172100  0.13632600  0.06259700  1
  N  N23  1  0.17172100  0.86367400  0.56259700  1
  N  N24  1  0.20030800  0.53681700  0.73277900  1
  N  N25  1  0.20030800  0.46318300  0.23277900  1
  N  N26  1  0.51387700  0.12870600  0.67993100  1
  N  N27  1  0.51387700  0.87129400  0.17993100  1
  N  N28  1  0.79771600  0.48030500  0.13526500  1
  N  N29  1  0.79771600  0.51969500  0.63526500  1
  N  N30  1  0.99504700  0.51883000  0.93551400  1
  N  N31  1  0.99504700  0.48117000  0.43551400  1
  N  N32  1  0.59495600  0.44733000  0.83570800  1
  N  N33  1  0.59495600  0.55267000  0.33570800  1
  N  N34  1  0.40453800  0.55043400  0.03283500  1
  N  N35  1  0.40453800  0.44956600  0.53283500  1
