# generated using pymatgen
data_MgRuN2
_symmetry_space_group_name_H-M   'P 1'
_cell_length_a   5.78386500
_cell_length_b   6.57400500
_cell_length_c   5.35790800
_cell_angle_alpha   90.00000000
_cell_angle_beta   90.00000000
_cell_angle_gamma   90.00000000
_symmetry_Int_Tables_number   1
_chemical_formula_structural   MgRuN2
_chemical_formula_sum   'Mg4 Ru4 N8'
_cell_volume   203.72457938
_cell_formula_units_Z   4
loop_
 _symmetry_equiv_pos_site_id
 _symmetry_equiv_pos_as_xyz
  1  'x, y, z'
loop_
 _atom_site_type_symbol
 _atom_site_label
 _atom_site_symmetry_multiplicity
 _atom_site_fract_x
 _atom_site_fract_y
 _atom_site_fract_z
 _atom_site_occupancy
  Mg  Mg0  1  0.59221500  0.87548500  0.99843100  1
  Mg  Mg1  1  0.40778500  0.12451500  0.49843100  1
  Mg  Mg2  1  0.90778500  0.37548500  0.49843100  1
  Mg  Mg3  1  0.09221500  0.62451500  0.99843100  1
  Ru  Ru4  1  0.57173800  0.36210200  0.00989800  1
  Ru  Ru5  1  0.42826200  0.63789800  0.50989800  1
  Ru  Ru6  1  0.92826200  0.86210200  0.50989800  1
  Ru  Ru7  1  0.07173800  0.13789800  0.00989800  1
  N  N8  1  0.56826200  0.39151400  0.36612100  1
  N  N9  1  0.43173800  0.60848600  0.86612100  1
  N  N10  1  0.93173800  0.89151400  0.86612100  1
  N  N11  1  0.06826200  0.10848600  0.36612100  1
  N  N12  1  0.60803200  0.87008400  0.39555000  1
  N  N13  1  0.39196800  0.12991600  0.89555000  1
  N  N14  1  0.89196800  0.37008400  0.89555000  1
  N  N15  1  0.10803200  0.62991600  0.39555000  1
