# generated using pymatgen
data_Ba3(GeN2)2
_symmetry_space_group_name_H-M   'P 1'
_cell_length_a   6.18591839
_cell_length_b   10.83304312
_cell_length_c   10.32349548
_cell_angle_alpha   90.00000000
_cell_angle_beta   90.00000000
_cell_angle_gamma   90.00000000
_symmetry_Int_Tables_number   1
_chemical_formula_structural   Ba3(GeN2)2
_chemical_formula_sum   'Ba12 Ge8 N16'
_cell_volume   691.80138939
_cell_formula_units_Z   4
loop_
 _symmetry_equiv_pos_site_id
 _symmetry_equiv_pos_as_xyz
  1  'x, y, z'
loop_
 _atom_site_type_symbol
 _atom_site_label
 _atom_site_symmetry_multiplicity
 _atom_site_fract_x
 _atom_site_fract_y
 _atom_site_fract_z
 _atom_site_occupancy
  Ba  Ba0  1  0.12198390  0.34026163  0.58147786  1
  Ba  Ba1  1  0.37801610  0.65973837  0.58147786  1
  Ba  Ba2  1  0.12198390  0.15973837  0.91852214  1
  Ba  Ba3  1  0.37801610  0.84026163  0.91852214  1
  Ba  Ba4  1  0.87801610  0.65973837  0.41852214  1
  Ba  Ba5  1  0.62198390  0.34026163  0.41852214  1
  Ba  Ba6  1  0.87801610  0.84026163  0.08147786  1
  Ba  Ba7  1  0.62198390  0.15973837  0.08147786  1
  Ba  Ba8  1  0.75000000  0.50000000  0.10204265  1
  Ba  Ba9  1  0.75000000  0.00000000  0.39795735  1
  Ba  Ba10  1  0.25000000  0.50000000  0.89795735  1
  Ba  Ba11  1  0.25000000  0.00000000  0.60204265  1
  Ge  Ge12  1  0.58445007  0.25000000  0.75000000  1
  Ge  Ge13  1  0.91554993  0.75000000  0.75000000  1
  Ge  Ge14  1  0.41554993  0.75000000  0.25000000  1
  Ge  Ge15  1  0.08445007  0.25000000  0.25000000  1
  Ge  Ge16  1  0.75000000  0.50000000  0.75688838  1
  Ge  Ge17  1  0.75000000  0.00000000  0.74311162  1
  Ge  Ge18  1  0.25000000  0.50000000  0.24311162  1
  Ge  Ge19  1  0.25000000  0.00000000  0.25688838  1
  N  N20  1  0.51707442  0.44753711  0.65595334  1
  N  N21  1  0.98292558  0.55246289  0.65595334  1
  N  N22  1  0.51707442  0.05246289  0.84404666  1
  N  N23  1  0.98292558  0.94753711  0.84404666  1
  N  N24  1  0.48292558  0.55246289  0.34404666  1
  N  N25  1  0.01707442  0.44753711  0.34404666  1
  N  N26  1  0.48292558  0.94753711  0.15595334  1
  N  N27  1  0.01707442  0.05246289  0.15595334  1
  N  N28  1  0.78991654  0.14752823  0.63584262  1
  N  N29  1  0.71008346  0.85247177  0.63584262  1
  N  N30  1  0.78991654  0.35247177  0.86415738  1
  N  N31  1  0.71008346  0.64752823  0.86415738  1
  N  N32  1  0.21008346  0.85247177  0.36415738  1
  N  N33  1  0.28991654  0.14752823  0.36415738  1
  N  N34  1  0.21008346  0.64752823  0.13584262  1
  N  N35  1  0.28991654  0.35247177  0.13584262  1
