# generated using pymatgen
data_Mg(InN)2
_symmetry_space_group_name_H-M   'P 1'
_cell_length_a   3.34034114
_cell_length_b   3.34025056
_cell_length_c   8.00700564
_cell_angle_alpha   90.00000284
_cell_angle_beta   102.00886136
_cell_angle_gamma   119.99909775
_symmetry_Int_Tables_number   1
_chemical_formula_structural   Mg(InN)2
_chemical_formula_sum   'Mg1 In2 N2'
_cell_volume   75.10429037
_cell_formula_units_Z   1
loop_
 _symmetry_equiv_pos_site_id
 _symmetry_equiv_pos_as_xyz
  1  'x, y, z'
loop_
 _atom_site_type_symbol
 _atom_site_label
 _atom_site_symmetry_multiplicity
 _atom_site_fract_x
 _atom_site_fract_y
 _atom_site_fract_z
 _atom_site_occupancy
  Mg  Mg0  1  0.00000000  0.00000000  0.00000000  1
  In  In1  1  0.87754500  0.43877300  0.31702000  1
  In  In2  1  0.12245500  0.56122700  0.68298000  1
  N  N3  1  0.55465300  0.27732600  0.83183000  1
  N  N4  1  0.44534700  0.72267400  0.16817000  1
