# generated using pymatgen
data_Sn(PbN)4
_symmetry_space_group_name_H-M   'P 1'
_cell_length_a   6.53177393
_cell_length_b   7.76524325
_cell_length_c   8.61190313
_cell_angle_alpha   88.44812464
_cell_angle_beta   78.69912501
_cell_angle_gamma   60.78117372
_symmetry_Int_Tables_number   1
_chemical_formula_structural   Sn(PbN)4
_chemical_formula_sum   'Sn2 Pb8 N8'
_cell_volume   372.63140251
_cell_formula_units_Z   2
loop_
 _symmetry_equiv_pos_site_id
 _symmetry_equiv_pos_as_xyz
  1  'x, y, z'
loop_
 _atom_site_type_symbol
 _atom_site_label
 _atom_site_symmetry_multiplicity
 _atom_site_fract_x
 _atom_site_fract_y
 _atom_site_fract_z
 _atom_site_occupancy
  Sn  Sn0  1  0.74092400  0.81679400  0.77929000  1
  Sn  Sn1  1  0.25907600  0.18320600  0.22071000  1
  Pb  Pb2  1  0.71791700  0.66006300  0.16549100  1
  Pb  Pb3  1  0.28208300  0.33993700  0.83450900  1
  Pb  Pb4  1  0.76183600  0.22794800  0.99500100  1
  Pb  Pb5  1  0.23816400  0.77205200  0.00499900  1
  Pb  Pb6  1  0.77704200  0.42684600  0.59273900  1
  Pb  Pb7  1  0.22295800  0.57315400  0.40726100  1
  Pb  Pb8  1  0.26266500  0.96554900  0.61060100  1
  Pb  Pb9  1  0.73733500  0.03445100  0.38939900  1
  N  N10  1  0.02456900  0.53228200  0.66887700  1
  N  N11  1  0.97543100  0.46771800  0.33112300  1
  N  N12  1  0.83399600  0.88747800  0.97747800  1
  N  N13  1  0.16600400  0.11252200  0.02252200  1
  N  N14  1  0.49260300  0.71715000  0.75725500  1
  N  N15  1  0.50739700  0.28285000  0.24274500  1
  N  N16  1  0.46270600  0.93103700  0.34452100  1
  N  N17  1  0.53729400  0.06896300  0.65547900  1
