# generated using pymatgen
data_Mg2Mo3WS8
_symmetry_space_group_name_H-M   'P 1'
_cell_length_a   7.17229809
_cell_length_b   7.16777797
_cell_length_c   7.16991047
_cell_angle_alpha   63.65884296
_cell_angle_beta   63.58517486
_cell_angle_gamma   63.61818548
_symmetry_Int_Tables_number   1
_chemical_formula_structural   Mg2Mo3WS8
_chemical_formula_sum   'Mg2 Mo3 W1 S8'
_cell_volume   281.48846493
_cell_formula_units_Z   1
loop_
 _symmetry_equiv_pos_site_id
 _symmetry_equiv_pos_as_xyz
  1  'x, y, z'
loop_
 _atom_site_type_symbol
 _atom_site_label
 _atom_site_symmetry_multiplicity
 _atom_site_fract_x
 _atom_site_fract_y
 _atom_site_fract_z
 _atom_site_occupancy
  Mg  Mg0  1  0.87789600  0.87786500  0.87783500  1
  Mg  Mg1  1  0.12211300  0.12216500  0.12213500  1
  Mo  Mo2  1  0.50000800  0.50000100  0.00006500  1
  Mo  Mo3  1  0.00002500  0.49998600  0.50002900  1
  Mo  Mo4  1  0.49999100  0.99997700  0.49999300  1
  W  W5  1  0.49998100  0.50003400  0.49992800  1
  S  S6  1  0.73848100  0.73832900  0.73841600  1
  S  S7  1  0.26016700  0.26001500  0.72190900  1
  S  S8  1  0.26006200  0.72195400  0.26001100  1
  S  S9  1  0.72192100  0.26006600  0.26018500  1
  S  S10  1  0.73989000  0.27812800  0.73997100  1
  S  S11  1  0.27808300  0.73987100  0.73985800  1
  S  S12  1  0.26151300  0.26165500  0.26159200  1
  S  S13  1  0.73987300  0.73994900  0.27807400  1
