# generated using pymatgen
data_Mg3(GaN2)2
_symmetry_space_group_name_H-M   'P 1'
_cell_length_a   6.23740480
_cell_length_b   7.86771300
_cell_length_c   5.36031405
_cell_angle_alpha   89.99999880
_cell_angle_beta   90.38568111
_cell_angle_gamma   129.10091188
_symmetry_Int_Tables_number   1
_chemical_formula_structural   Mg3(GaN2)2
_chemical_formula_sum   'Mg6 Ga4 N8'
_cell_volume   204.13074081
_cell_formula_units_Z   2
loop_
 _symmetry_equiv_pos_site_id
 _symmetry_equiv_pos_as_xyz
  1  'x, y, z'
loop_
 _atom_site_type_symbol
 _atom_site_label
 _atom_site_symmetry_multiplicity
 _atom_site_fract_x
 _atom_site_fract_y
 _atom_site_fract_z
 _atom_site_occupancy
  Mg  Mg0  1  0.22461600  0.98482700  0.06274800  1
  Mg  Mg1  1  0.77538400  0.76021100  0.43725200  1
  Mg  Mg2  1  0.77538400  0.01517300  0.93725200  1
  Mg  Mg3  1  0.22461600  0.23978900  0.56274800  1
  Mg  Mg4  1  0.00000000  0.63348300  0.75000000  1
  Mg  Mg5  1  0.00000000  0.36651700  0.25000000  1
  Ga  Ga6  1  0.60458800  0.18279500  0.62242000  1
  Ga  Ga7  1  0.39541200  0.57820700  0.87758000  1
  Ga  Ga8  1  0.39541200  0.81720500  0.37758000  1
  Ga  Ga9  1  0.60458800  0.42179300  0.12242000  1
  N  N10  1  0.21497700  0.94379500  0.50031200  1
  N  N11  1  0.78502300  0.72881900  0.99968800  1
  N  N12  1  0.78502300  0.05620500  0.49968800  1
  N  N13  1  0.21497700  0.27118100  0.00031200  1
  N  N14  1  0.68993600  0.24701100  0.97361300  1
  N  N15  1  0.31006400  0.55707500  0.52638700  1
  N  N16  1  0.31006400  0.75298900  0.02638700  1
  N  N17  1  0.68993600  0.44292500  0.47361300  1
