# generated using pymatgen
data_Pd(CN)2
_symmetry_space_group_name_H-M   'P 1'
_cell_length_a   3.57237754
_cell_length_b   6.63501971
_cell_length_c   6.63502055
_cell_angle_alpha   90.00000008
_cell_angle_beta   90.00000232
_cell_angle_gamma   89.99999710
_symmetry_Int_Tables_number   1
_chemical_formula_structural   Pd(CN)2
_chemical_formula_sum   'Pd2 C4 N4'
_cell_volume   157.26853434
_cell_formula_units_Z   2
loop_
 _symmetry_equiv_pos_site_id
 _symmetry_equiv_pos_as_xyz
  1  'x, y, z'
loop_
 _atom_site_type_symbol
 _atom_site_label
 _atom_site_symmetry_multiplicity
 _atom_site_fract_x
 _atom_site_fract_y
 _atom_site_fract_z
 _atom_site_occupancy
  Pd  Pd0  1  0.25000000  0.50000000  0.00000000  1
  Pd  Pd1  1  0.75000000  0.00000000  0.50000000  1
  C  C2  1  0.25000000  0.71123000  0.21123000  1
  C  C3  1  0.25000000  0.28877000  0.78877000  1
  C  C4  1  0.75000000  0.78877000  0.71123000  1
  C  C5  1  0.75000000  0.21123000  0.28877000  1
  N  N6  1  0.25000000  0.83710900  0.33710900  1
  N  N7  1  0.25000000  0.16289100  0.66289100  1
  N  N8  1  0.75000000  0.66289100  0.83710900  1
  N  N9  1  0.75000000  0.33710900  0.16289100  1
