# generated using pymatgen
data_Sr3Ta3N5
_symmetry_space_group_name_H-M   'P 1'
_cell_length_a   6.23622101
_cell_length_b   8.24865112
_cell_length_c   8.35487597
_cell_angle_alpha   109.21251510
_cell_angle_beta   102.39974764
_cell_angle_gamma   102.83894158
_symmetry_Int_Tables_number   1
_chemical_formula_structural   Sr3Ta3N5
_chemical_formula_sum   'Sr6 Ta6 N10'
_cell_volume   375.85820720
_cell_formula_units_Z   2
loop_
 _symmetry_equiv_pos_site_id
 _symmetry_equiv_pos_as_xyz
  1  'x, y, z'
loop_
 _atom_site_type_symbol
 _atom_site_label
 _atom_site_symmetry_multiplicity
 _atom_site_fract_x
 _atom_site_fract_y
 _atom_site_fract_z
 _atom_site_occupancy
  Sr  Sr0  1  0.73559100  0.43659600  0.59159900  1
  Sr  Sr1  1  0.26440900  0.56340400  0.40840100  1
  Sr  Sr2  1  0.64279300  0.84902600  0.87873700  1
  Sr  Sr3  1  0.35720700  0.15097400  0.12126300  1
  Sr  Sr4  1  0.67875800  0.68360000  0.23241200  1
  Sr  Sr5  1  0.32124200  0.31640000  0.76758800  1
  Ta  Ta6  1  0.90066700  0.30686500  0.96147700  1
  Ta  Ta7  1  0.09933300  0.69313500  0.03852300  1
  Ta  Ta8  1  0.72882800  0.01894600  0.59792100  1
  Ta  Ta9  1  0.27117200  0.98105400  0.40207900  1
  Ta  Ta10  1  0.09105600  0.87356800  0.68548100  1
  Ta  Ta11  1  0.90894400  0.12643200  0.31451900  1
  N  N12  1  0.01784900  0.09153200  0.83758800  1
  N  N13  1  0.98215100  0.90846800  0.16241200  1
  N  N14  1  0.73066700  0.74758300  0.57166900  1
  N  N15  1  0.26933300  0.25241700  0.42833100  1
  N  N16  1  0.77796000  0.51563400  0.93258300  1
  N  N17  1  0.22204000  0.48436600  0.06741700  1
  N  N18  1  0.40262500  0.95365100  0.63859500  1
  N  N19  1  0.59737500  0.04634900  0.36140500  1
  N  N20  1  0.19980100  0.75313400  0.84801700  1
  N  N21  1  0.80019900  0.24686600  0.15198300  1
