# generated using pymatgen
data_InGeN2
_symmetry_space_group_name_H-M   'P 1'
_cell_length_a   5.74781600
_cell_length_b   7.32305300
_cell_length_c   5.52242200
_cell_angle_alpha   90.00000000
_cell_angle_beta   90.00000000
_cell_angle_gamma   90.00000000
_symmetry_Int_Tables_number   1
_chemical_formula_structural   InGeN2
_chemical_formula_sum   'In4 Ge4 N8'
_cell_volume   232.44736360
_cell_formula_units_Z   4
loop_
 _symmetry_equiv_pos_site_id
 _symmetry_equiv_pos_as_xyz
  1  'x, y, z'
loop_
 _atom_site_type_symbol
 _atom_site_label
 _atom_site_symmetry_multiplicity
 _atom_site_fract_x
 _atom_site_fract_y
 _atom_site_fract_z
 _atom_site_occupancy
  In  In0  1  0.57487600  0.87620500  0.99255800  1
  In  In1  1  0.42512400  0.12379500  0.49255800  1
  In  In2  1  0.92512400  0.37620500  0.49255800  1
  In  In3  1  0.07487600  0.62379500  0.99255800  1
  Ge  Ge4  1  0.56020000  0.37409100  0.99929500  1
  Ge  Ge5  1  0.43980000  0.62590900  0.49929500  1
  Ge  Ge6  1  0.93980000  0.87409100  0.49929500  1
  Ge  Ge7  1  0.06020000  0.12590900  0.99929500  1
  N  N8  1  0.55066300  0.41068600  0.34354100  1
  N  N9  1  0.44933700  0.58931400  0.84354100  1
  N  N10  1  0.94933700  0.91068600  0.84354100  1
  N  N11  1  0.05066300  0.08931400  0.34354100  1
  N  N12  1  0.62507700  0.83185300  0.40560600  1
  N  N13  1  0.37492300  0.16814700  0.90560600  1
  N  N14  1  0.87492300  0.33185300  0.90560600  1
  N  N15  1  0.12507700  0.66814700  0.40560600  1
