# generated using pymatgen
data_Ca3(VN2)2
_symmetry_space_group_name_H-M   'P 1'
_cell_length_a   6.84697165
_cell_length_b   8.28715898
_cell_length_c   5.49133769
_cell_angle_alpha   90.00000352
_cell_angle_beta   91.65797716
_cell_angle_gamma   127.24105386
_symmetry_Int_Tables_number   1
_chemical_formula_structural   Ca3(VN2)2
_chemical_formula_sum   'Ca6 V4 N8'
_cell_volume   247.89116885
_cell_formula_units_Z   2
loop_
 _symmetry_equiv_pos_site_id
 _symmetry_equiv_pos_as_xyz
  1  'x, y, z'
loop_
 _atom_site_type_symbol
 _atom_site_label
 _atom_site_symmetry_multiplicity
 _atom_site_fract_x
 _atom_site_fract_y
 _atom_site_fract_z
 _atom_site_occupancy
  Ca  Ca0  1  0.23030300  0.98446700  0.03683800  1
  Ca  Ca1  1  0.76969700  0.75416400  0.46316200  1
  Ca  Ca2  1  0.76969700  0.01553300  0.96316200  1
  Ca  Ca3  1  0.23030300  0.24583600  0.53683800  1
  Ca  Ca4  1  0.00000000  0.60270100  0.75000000  1
  Ca  Ca5  1  0.00000000  0.39729900  0.25000000  1
  V  V6  1  0.59430600  0.17453900  0.58682500  1
  V  V7  1  0.40569400  0.58023300  0.91317500  1
  V  V8  1  0.40569400  0.82546100  0.41317500  1
  V  V9  1  0.59430600  0.41976700  0.08682500  1
  N  N10  1  0.24478500  0.94773600  0.52793200  1
  N  N11  1  0.75521500  0.70295000  0.97206800  1
  N  N12  1  0.75521500  0.05226400  0.47206800  1
  N  N13  1  0.24478500  0.29705000  0.02793200  1
  N  N14  1  0.67412300  0.26581000  0.91484200  1
  N  N15  1  0.32587700  0.59168700  0.58515800  1
  N  N16  1  0.32587700  0.73419000  0.08515800  1
  N  N17  1  0.67412300  0.40831300  0.41484200  1
