# generated using pymatgen
data_HfCrAgS4
_symmetry_space_group_name_H-M   'P 1'
_cell_length_a   11.29880300
_cell_length_b   3.59933900
_cell_length_c   13.14896000
_cell_angle_alpha   90.00000000
_cell_angle_beta   90.00000000
_cell_angle_gamma   90.00000000
_symmetry_Int_Tables_number   1
_chemical_formula_structural   HfCrAgS4
_chemical_formula_sum   'Hf4 Cr4 Ag4 S16'
_cell_volume   534.74482818
_cell_formula_units_Z   4
loop_
 _symmetry_equiv_pos_site_id
 _symmetry_equiv_pos_as_xyz
  1  'x, y, z'
loop_
 _atom_site_type_symbol
 _atom_site_label
 _atom_site_symmetry_multiplicity
 _atom_site_fract_x
 _atom_site_fract_y
 _atom_site_fract_z
 _atom_site_occupancy
  Hf  Hf0  1  0.05796500  0.25000000  0.11692400  1
  Hf  Hf1  1  0.55796500  0.25000000  0.38307600  1
  Hf  Hf2  1  0.08561600  0.25000000  0.59567000  1
  Hf  Hf3  1  0.58561600  0.25000000  0.90433000  1
  Cr  Cr4  1  0.94385700  0.75000000  0.88984500  1
  Cr  Cr5  1  0.44385700  0.75000000  0.61015500  1
  Cr  Cr6  1  0.91780400  0.75000000  0.40514500  1
  Cr  Cr7  1  0.41780400  0.75000000  0.09485500  1
  Ag  Ag8  1  0.24530700  0.25000000  0.33150000  1
  Ag  Ag9  1  0.75855300  0.75000000  0.66436200  1
  Ag  Ag10  1  0.25855300  0.75000000  0.83563800  1
  Ag  Ag11  1  0.74530700  0.25000000  0.16850000  1
  S  S12  1  0.02343300  0.75000000  0.71669900  1
  S  S13  1  0.96639500  0.25000000  0.29073300  1
  S  S14  1  0.46639500  0.25000000  0.20926700  1
  S  S15  1  0.52343300  0.75000000  0.78330100  1
  S  S16  1  0.08332700  0.25000000  0.92434500  1
  S  S17  1  0.90818900  0.75000000  0.06871800  1
  S  S18  1  0.40818900  0.75000000  0.43128200  1
  S  S19  1  0.58332700  0.25000000  0.57565500  1
  S  S20  1  0.11878500  0.75000000  0.46193900  1
  S  S21  1  0.87607400  0.25000000  0.52159400  1
  S  S22  1  0.37607400  0.25000000  0.97840600  1
  S  S23  1  0.61878500  0.75000000  0.03806100  1
  S  S24  1  0.21132000  0.75000000  0.15949700  1
  S  S25  1  0.80337600  0.25000000  0.84784500  1
  S  S26  1  0.30337600  0.25000000  0.65215500  1
  S  S27  1  0.71132000  0.75000000  0.34050300  1
