# generated using pymatgen
data_Ca3(CrN2)2
_symmetry_space_group_name_H-M   'P 1'
_cell_length_a   6.79220659
_cell_length_b   8.28451684
_cell_length_c   5.40157864
_cell_angle_alpha   90.00000163
_cell_angle_beta   92.17687209
_cell_angle_gamma   127.57899077
_symmetry_Int_Tables_number   1
_chemical_formula_structural   Ca3(CrN2)2
_chemical_formula_sum   'Ca6 Cr4 N8'
_cell_volume   240.60571536
_cell_formula_units_Z   2
loop_
 _symmetry_equiv_pos_site_id
 _symmetry_equiv_pos_as_xyz
  1  'x, y, z'
loop_
 _atom_site_type_symbol
 _atom_site_label
 _atom_site_symmetry_multiplicity
 _atom_site_fract_x
 _atom_site_fract_y
 _atom_site_fract_z
 _atom_site_occupancy
  Ca  Ca0  1  0.23555400  0.98484600  0.04111500  1
  Ca  Ca1  1  0.76444600  0.74929200  0.45888500  1
  Ca  Ca2  1  0.76444600  0.01515400  0.95888500  1
  Ca  Ca3  1  0.23555400  0.25070800  0.54111500  1
  Ca  Ca4  1  0.00000000  0.60004200  0.75000000  1
  Ca  Ca5  1  0.00000000  0.39995800  0.25000000  1
  Cr  Cr6  1  0.59012400  0.17037200  0.58371300  1
  Cr  Cr7  1  0.40987600  0.58024900  0.91628700  1
  Cr  Cr8  1  0.40987600  0.82962800  0.41628700  1
  Cr  Cr9  1  0.59012400  0.41975100  0.08371300  1
  N  N10  1  0.24372500  0.94534400  0.52544600  1
  N  N11  1  0.75627500  0.70161800  0.97455400  1
  N  N12  1  0.75627500  0.05465600  0.47455400  1
  N  N13  1  0.24372500  0.29838200  0.02544600  1
  N  N14  1  0.66990800  0.26686800  0.91183300  1
  N  N15  1  0.33009200  0.59696100  0.58816700  1
  N  N16  1  0.33009200  0.73313200  0.08816700  1
  N  N17  1  0.66990800  0.40303900  0.41183300  1
