# generated using pymatgen
data_Ba3(NbN2)2
_symmetry_space_group_name_H-M   'P 1'
_cell_length_a   6.37642600
_cell_length_b   11.12783900
_cell_length_c   10.55657900
_cell_angle_alpha   90.00000000
_cell_angle_beta   90.00000000
_cell_angle_gamma   90.00000000
_symmetry_Int_Tables_number   1
_chemical_formula_structural   Ba3(NbN2)2
_chemical_formula_sum   'Ba12 Nb8 N16'
_cell_volume   749.05095078
_cell_formula_units_Z   4
loop_
 _symmetry_equiv_pos_site_id
 _symmetry_equiv_pos_as_xyz
  1  'x, y, z'
loop_
 _atom_site_type_symbol
 _atom_site_label
 _atom_site_symmetry_multiplicity
 _atom_site_fract_x
 _atom_site_fract_y
 _atom_site_fract_z
 _atom_site_occupancy
  Ba  Ba0  1  0.61909200  0.15866600  0.41972800  1
  Ba  Ba1  1  0.88090800  0.84133400  0.41972800  1
  Ba  Ba2  1  0.61909200  0.34133400  0.08027200  1
  Ba  Ba3  1  0.88090800  0.65866600  0.08027200  1
  Ba  Ba4  1  0.38090800  0.84133400  0.58027200  1
  Ba  Ba5  1  0.11909200  0.15866600  0.58027200  1
  Ba  Ba6  1  0.38090800  0.65866600  0.91972800  1
  Ba  Ba7  1  0.11909200  0.34133400  0.91972800  1
  Ba  Ba8  1  0.75000000  0.50000000  0.40273100  1
  Ba  Ba9  1  0.75000000  0.00000000  0.09726900  1
  Ba  Ba10  1  0.25000000  0.50000000  0.59726900  1
  Ba  Ba11  1  0.25000000  0.00000000  0.90273100  1
  Nb  Nb12  1  0.75000000  0.50000000  0.73639400  1
  Nb  Nb13  1  0.75000000  0.00000000  0.76360600  1
  Nb  Nb14  1  0.25000000  0.50000000  0.26360600  1
  Nb  Nb15  1  0.25000000  0.00000000  0.23639400  1
  Nb  Nb16  1  0.63699500  0.25000000  0.75000000  1
  Nb  Nb17  1  0.86300500  0.75000000  0.75000000  1
  Nb  Nb18  1  0.36300500  0.75000000  0.25000000  1
  Nb  Nb19  1  0.13699500  0.25000000  0.25000000  1
  N  N20  1  0.83501600  0.35057000  0.63763900  1
  N  N21  1  0.66498400  0.64943000  0.63763900  1
  N  N22  1  0.83501600  0.14943000  0.86236100  1
  N  N23  1  0.66498400  0.85057000  0.86236100  1
  N  N24  1  0.16498400  0.64943000  0.36236100  1
  N  N25  1  0.33501600  0.35057000  0.36236100  1
  N  N26  1  0.16498400  0.85057000  0.13763900  1
  N  N27  1  0.33501600  0.14943000  0.13763900  1
  N  N28  1  0.51920200  0.41433200  0.83139100  1
  N  N29  1  0.98079800  0.58566800  0.83139100  1
  N  N30  1  0.51920200  0.08566800  0.66860900  1
  N  N31  1  0.98079800  0.91433200  0.66860900  1
  N  N32  1  0.48079800  0.58566800  0.16860900  1
  N  N33  1  0.01920200  0.41433200  0.16860900  1
  N  N34  1  0.48079800  0.91433200  0.33139100  1
  N  N35  1  0.01920200  0.08566800  0.33139100  1
