# generated using pymatgen
data_Ba3Ir3N5
_symmetry_space_group_name_H-M   'P 1'
_cell_length_a   7.15954196
_cell_length_b   8.02625229
_cell_length_c   9.13338923
_cell_angle_alpha   104.44349831
_cell_angle_beta   113.54528300
_cell_angle_gamma   100.04011654
_symmetry_Int_Tables_number   1
_chemical_formula_structural   Ba3Ir3N5
_chemical_formula_sum   'Ba6 Ir6 N10'
_cell_volume   443.19708115
_cell_formula_units_Z   2
loop_
 _symmetry_equiv_pos_site_id
 _symmetry_equiv_pos_as_xyz
  1  'x, y, z'
loop_
 _atom_site_type_symbol
 _atom_site_label
 _atom_site_symmetry_multiplicity
 _atom_site_fract_x
 _atom_site_fract_y
 _atom_site_fract_z
 _atom_site_occupancy
  Ba  Ba0  1  0.73535200  0.42977500  0.63763000  1
  Ba  Ba1  1  0.26464800  0.57022500  0.36237000  1
  Ba  Ba2  1  0.60026200  0.85077200  0.85267800  1
  Ba  Ba3  1  0.39973800  0.14922800  0.14732200  1
  Ba  Ba4  1  0.75108300  0.70067800  0.25077000  1
  Ba  Ba5  1  0.24891700  0.29932200  0.74923000  1
  Ir  Ir6  1  0.75715400  0.31438600  0.96791600  1
  Ir  Ir7  1  0.24284600  0.68561400  0.03208400  1
  Ir  Ir8  1  0.74541600  0.01083200  0.58113300  1
  Ir  Ir9  1  0.25458400  0.98916800  0.41886700  1
  Ir  Ir10  1  0.03558100  0.83079800  0.67439900  1
  Ir  Ir11  1  0.96441900  0.16920200  0.32560100  1
  N  N12  1  0.75928300  0.14678900  0.79054400  1
  N  N13  1  0.24071700  0.85321100  0.20945600  1
  N  N14  1  0.71981700  0.75265900  0.59276100  1
  N  N15  1  0.28018300  0.24734100  0.40723900  1
  N  N16  1  0.67953700  0.51334900  0.91699200  1
  N  N17  1  0.32046300  0.48665100  0.08300800  1
  N  N18  1  0.22344000  0.92854200  0.59376400  1
  N  N19  1  0.77656000  0.07145800  0.40623600  1
  N  N20  1  0.16915700  0.69917200  0.81326400  1
  N  N21  1  0.83084300  0.30082800  0.18673600  1
