# generated using pymatgen
data_Ca4Mn3CrO11
_symmetry_space_group_name_H-M   'P 1'
_cell_length_a   5.42484265
_cell_length_b   10.83761839
_cell_length_c   15.49698513
_cell_angle_alpha   90.45154304
_cell_angle_beta   89.76428544
_cell_angle_gamma   90.55215167
_symmetry_Int_Tables_number   1
_chemical_formula_structural   Ca4Mn3CrO11
_chemical_formula_sum   'Ca16 Mn12 Cr4 O44'
_cell_volume   911.02652571
_cell_formula_units_Z   4
loop_
 _symmetry_equiv_pos_site_id
 _symmetry_equiv_pos_as_xyz
  1  'x, y, z'
loop_
 _atom_site_type_symbol
 _atom_site_label
 _atom_site_symmetry_multiplicity
 _atom_site_fract_x
 _atom_site_fract_y
 _atom_site_fract_z
 _atom_site_occupancy
  Ca  Ca0  1  0.01100100  0.99804000  0.10922000  1
  Ca  Ca1  1  0.99464700  0.01643300  0.62975200  1
  Ca  Ca2  1  0.96569900  0.54210300  0.12684300  1
  Ca  Ca3  1  0.99719800  0.52310300  0.62406800  1
  Ca  Ca4  1  0.99990600  0.49670300  0.39066600  1
  Ca  Ca5  1  0.00072700  0.49748400  0.85771900  1
  Ca  Ca6  1  0.00702900  0.96414600  0.38629900  1
  Ca  Ca7  1  0.01445400  0.97072300  0.87406300  1
  Ca  Ca8  1  0.50989900  0.23604400  0.39780300  1
  Ca  Ca9  1  0.50687800  0.22638900  0.87339600  1
  Ca  Ca10  1  0.49911000  0.73019500  0.38558700  1
  Ca  Ca11  1  0.50068200  0.73992400  0.86297000  1
  Ca  Ca12  1  0.46712700  0.22129800  0.11223100  1
  Ca  Ca13  1  0.51783900  0.26878000  0.63165700  1
  Ca  Ca14  1  0.50588900  0.77963200  0.11821200  1
  Ca  Ca15  1  0.51062800  0.77137400  0.62534500  1
  Mn  Mn16  1  0.50383300  0.00075000  0.50255000  1
  Mn  Mn17  1  0.47072800  0.50658900  0.98679000  1
  Mn  Mn18  1  0.50448400  0.49715300  0.50419700  1
  Mn  Mn19  1  0.01279200  0.24835300  0.51159200  1
  Mn  Mn20  1  0.99467200  0.74393200  0.99757200  1
  Mn  Mn21  1  0.00504500  0.74957800  0.50321600  1
  Mn  Mn22  1  0.01144200  0.25194200  0.75444600  1
  Mn  Mn23  1  0.00462400  0.75213000  0.25024700  1
  Mn  Mn24  1  0.00354900  0.75142100  0.74719300  1
  Mn  Mn25  1  0.50377900  0.00285000  0.75056500  1
  Mn  Mn26  1  0.49892200  0.51467700  0.25354400  1
  Mn  Mn27  1  0.50811700  0.50038500  0.74654800  1
  Cr  Cr28  1  0.50826200  0.99332300  0.99484500  1
  Cr  Cr29  1  0.01994100  0.23897700  0.99562900  1
  Cr  Cr30  1  0.88060400  0.26693900  0.23361600  1
  Cr  Cr31  1  0.52907200  0.98562500  0.25526000  1
  O  O32  1  0.21372900  0.10915700  0.77903300  1
  O  O33  1  0.16787300  0.58278800  0.25783600  1
  O  O34  1  0.22649800  0.61207300  0.76449500  1
  O  O35  1  0.69563100  0.39260900  0.18358600  1
  O  O36  1  0.80027600  0.39786100  0.72837100  1
  O  O37  1  0.84749900  0.91867400  0.23778400  1
  O  O38  1  0.78493900  0.89345900  0.72964700  1
  O  O39  1  0.61380400  0.16846800  0.24883900  1
  O  O40  1  0.71244200  0.14847800  0.73528700  1
  O  O41  1  0.70218900  0.66137900  0.22472900  1
  O  O42  1  0.71917400  0.64407400  0.72562600  1
  O  O43  1  0.29871300  0.35844400  0.77503100  1
  O  O44  1  0.30555600  0.85136200  0.27936100  1
  O  O45  1  0.28354600  0.86149200  0.76966100  1
  O  O46  1  0.28271600  0.35781200  0.48581800  1
  O  O47  1  0.32962900  0.34867000  0.99962100  1
  O  O48  1  0.29156600  0.85808800  0.48089000  1
  O  O49  1  0.29075900  0.84116500  0.97761700  1
  O  O50  1  0.72533100  0.14269200  0.01445900  1
  O  O51  1  0.71331800  0.14814800  0.52055000  1
  O  O52  1  0.69047300  0.62989000  0.02851900  1
  O  O53  1  0.71793000  0.64123800  0.52013400  1
  O  O54  1  0.79276600  0.39122900  0.51550200  1
  O  O55  1  0.79061300  0.88375300  0.01628500  1
  O  O56  1  0.79263700  0.89557700  0.51971300  1
  O  O57  1  0.21518600  0.10922000  0.47553400  1
  O  O58  1  0.21727800  0.09855700  0.98200400  1
  O  O59  1  0.22591100  0.60955200  0.48455200  1
  O  O60  1  0.15820600  0.58478600  0.99186700  1
  O  O61  1  0.58413500  0.01695500  0.38032300  1
  O  O62  1  0.58973200  0.00555700  0.87113700  1
  O  O63  1  0.56204800  0.48959400  0.37719100  1
  O  O64  1  0.57804100  0.51564400  0.86984100  1
  O  O65  1  0.42479700  0.48615700  0.62634700  1
  O  O66  1  0.43785800  0.99645600  0.12949500  1
  O  O67  1  0.42373800  0.99466500  0.62600300  1
  O  O68  1  0.05594400  0.22532900  0.13781500  1
  O  O69  1  0.08817100  0.23512500  0.63518100  1
  O  O70  1  0.08061600  0.74960500  0.12484900  1
  O  O71  1  0.07885900  0.74612300  0.62465100  1
  O  O72  1  0.02106600  0.28961200  0.33332600  1
  O  O73  1  0.92734300  0.28375300  0.88279400  1
  O  O74  1  0.92889500  0.74701700  0.37606900  1
  O  O75  1  0.92771600  0.74595000  0.87384900  1
