# generated using pymatgen
data_SrCa7Ti3Mn5O23
_symmetry_space_group_name_H-M   'P 1'
_cell_length_a   10.95522829
_cell_length_b   15.46492745
_cell_length_c   10.83572796
_cell_angle_alpha   90.11959706
_cell_angle_beta   90.38657206
_cell_angle_gamma   90.03797187
_symmetry_Int_Tables_number   1
_chemical_formula_structural   SrCa7Ti3Mn5O23
_chemical_formula_sum   'Sr4 Ca28 Ti12 Mn20 O92'
_cell_volume   1835.76244705
_cell_formula_units_Z   4
loop_
 _symmetry_equiv_pos_site_id
 _symmetry_equiv_pos_as_xyz
  1  'x, y, z'
loop_
 _atom_site_type_symbol
 _atom_site_label
 _atom_site_symmetry_multiplicity
 _atom_site_fract_x
 _atom_site_fract_y
 _atom_site_fract_z
 _atom_site_occupancy
  Sr  Sr0  1  0.00791063  0.12128210  0.50416690  1
  Sr  Sr1  1  0.49907836  0.38003742  0.99518904  1
  Sr  Sr2  1  0.24220102  0.38464930  0.25404202  1
  Sr  Sr3  1  0.24959940  0.11961620  0.26498652  1
  Ca  Ca4  1  0.01202660  0.11741244  0.99581619  1
  Ca  Ca5  1  0.02010436  0.62591462  0.49881141  1
  Ca  Ca6  1  0.01337821  0.62648743  0.99429447  1
  Ca  Ca7  1  0.53055612  0.13181159  0.50734241  1
  Ca  Ca8  1  0.53807744  0.12248802  0.97220219  1
  Ca  Ca9  1  0.52613647  0.62464514  0.49763637  1
  Ca  Ca10  1  0.52653138  0.62578997  0.99426794  1
  Ca  Ca11  1  0.48205695  0.38442556  0.50881672  1
  Ca  Ca12  1  0.48808187  0.87037149  0.99695988  1
  Ca  Ca13  1  0.48414342  0.86398218  0.51374842  1
  Ca  Ca14  1  0.96589154  0.38764931  0.99859793  1
  Ca  Ca15  1  0.97426289  0.38222686  0.50591773  1
  Ca  Ca16  1  0.97294920  0.86866616  0.00299783  1
  Ca  Ca17  1  0.96874063  0.86850322  0.50519432  1
  Ca  Ca18  1  0.22675905  0.38474894  0.73482283  1
  Ca  Ca19  1  0.22971745  0.87121083  0.24709914  1
  Ca  Ca20  1  0.23071862  0.86557123  0.74825416  1
  Ca  Ca21  1  0.73212919  0.38552117  0.24560105  1
  Ca  Ca22  1  0.72452594  0.37973432  0.74581807  1
  Ca  Ca23  1  0.73053756  0.86576121  0.24737451  1
  Ca  Ca24  1  0.72515728  0.87117985  0.74440482  1
  Ca  Ca25  1  0.27909629  0.11742730  0.73894488  1
  Ca  Ca26  1  0.27684224  0.62684905  0.26147889  1
  Ca  Ca27  1  0.27292259  0.62561208  0.75164104  1
  Ca  Ca28  1  0.77164940  0.11822296  0.25131751  1
  Ca  Ca29  1  0.76638243  0.12562181  0.75339531  1
  Ca  Ca30  1  0.76333433  0.62491709  0.25165693  1
  Ca  Ca31  1  0.77103682  0.62552214  0.75540082  1
  Ti  Ti32  1  0.99436430  0.99387930  0.24793536  1
  Ti  Ti33  1  0.98823649  0.99626685  0.75727699  1
  Ti  Ti34  1  0.99788366  0.50264709  0.25064970  1
  Ti  Ti35  1  0.25089240  0.99487251  0.99432806  1
  Ti  Ti36  1  0.23336502  0.98999584  0.51389377  1
  Ti  Ti37  1  0.24932816  0.50629570  0.00414430  1
  Ti  Ti38  1  0.25580033  0.24471392  0.96344640  1
  Ti  Ti39  1  0.24693516  0.25497030  0.50595359  1
  Ti  Ti40  1  0.25096964  0.74768012  0.00271944  1
  Ti  Ti41  1  0.98545621  0.25147460  0.26682133  1
  Ti  Ti42  1  0.98865025  0.25318086  0.75096034  1
  Ti  Ti43  1  0.99867812  0.74785413  0.25140446  1
  Mn  Mn44  1  0.99991093  0.50203656  0.74907627  1
  Mn  Mn45  1  0.50849155  0.98691637  0.24270167  1
  Mn  Mn46  1  0.50302004  0.99833042  0.74898467  1
  Mn  Mn47  1  0.50189825  0.50582394  0.25162594  1
  Mn  Mn48  1  0.50025472  0.50273040  0.74753235  1
  Mn  Mn49  1  0.25165561  0.50539585  0.50161924  1
  Mn  Mn50  1  0.74827471  0.99715269  0.99828462  1
  Mn  Mn51  1  0.74359445  0.99947260  0.49964223  1
  Mn  Mn52  1  0.74867177  0.50286192  0.99941682  1
  Mn  Mn53  1  0.75024091  0.50167353  0.50217788  1
  Mn  Mn54  1  0.25255148  0.74818833  0.50000550  1
  Mn  Mn55  1  0.75163966  0.24890405  0.00095874  1
  Mn  Mn56  1  0.74641281  0.25207945  0.50233269  1
  Mn  Mn57  1  0.74864029  0.75047503  0.99953008  1
  Mn  Mn58  1  0.74987586  0.74808796  0.50190677  1
  Mn  Mn59  1  0.00048520  0.74882460  0.75003173  1
  Mn  Mn60  1  0.51891661  0.25724034  0.26477682  1
  Mn  Mn61  1  0.50494451  0.25081320  0.74428612  1
  Mn  Mn62  1  0.50052874  0.74866608  0.25289791  1
  Mn  Mn63  1  0.50183241  0.74757060  0.75126670  1
  O  O64  1  0.10323134  0.26524320  0.59781289  1
  O  O65  1  0.10818207  0.77105941  0.10523230  1
  O  O66  1  0.10630169  0.77189975  0.60395348  1
  O  O67  1  0.59298209  0.25298806  0.10764951  1
  O  O68  1  0.60234336  0.26866507  0.59389065  1
  O  O69  1  0.60561659  0.77181597  0.10685191  1
  O  O70  1  0.60790657  0.76668888  0.60771593  1
  O  O71  1  0.39754150  0.22168654  0.37449355  1
  O  O72  1  0.40328836  0.22877308  0.89837396  1
  O  O73  1  0.39628524  0.72552196  0.39695412  1
  O  O74  1  0.39464638  0.73154221  0.89484084  1
  O  O75  1  0.89274867  0.23432029  0.39783186  1
  O  O76  1  0.90139053  0.23377846  0.89884811  1
  O  O77  1  0.89403485  0.73223863  0.39539330  1
  O  O78  1  0.89714556  0.73189095  0.89592499  1
  O  O79  1  0.14425020  0.24246036  0.34493971  1
  O  O80  1  0.14983939  0.22945240  0.83874706  1
  O  O81  1  0.14620811  0.73215595  0.35484272  1
  O  O82  1  0.14590147  0.73125911  0.85466876  1
  O  O83  1  0.65520227  0.22145078  0.35517914  1
  O  O84  1  0.65126805  0.23111977  0.85587383  1
  O  O85  1  0.64611392  0.72861576  0.35427792  1
  O  O86  1  0.64546073  0.72908718  0.85512105  1
  O  O87  1  0.35014946  0.26328083  0.64254532  1
  O  O88  1  0.35626180  0.76949512  0.14479665  1
  O  O89  1  0.35576605  0.76902424  0.64500445  1
  O  O90  1  0.86514073  0.27223820  0.14132859  1
  O  O91  1  0.85341192  0.27113693  0.64766458  1
  O  O92  1  0.85697696  0.76956776  0.14311290  1
  O  O93  1  0.85738081  0.77197166  0.64651749  1
  O  O94  1  0.36098840  0.49184275  0.13920299  1
  O  O95  1  0.35502163  0.48384255  0.64375620  1
  O  O96  1  0.35637903  0.99240088  0.15584988  1
  O  O97  1  0.35731847  0.98144768  0.64194734  1
  O  O98  1  0.85731324  0.48268435  0.14221066  1
  O  O99  1  0.85652433  0.47753741  0.64627729  1
  O  O100  1  0.85367935  0.97884632  0.14325373  1
  O  O101  1  0.85514374  0.98037456  0.64400349  1
  O  O102  1  0.14117367  0.00686298  0.36201975  1
  O  O103  1  0.14650574  0.02275168  0.85995910  1
  O  O104  1  0.14531328  0.51971449  0.35658103  1
  O  O105  1  0.14628177  0.51597364  0.85389699  1
  O  O106  1  0.62622512  0.02947622  0.35802038  1
  O  O107  1  0.64885023  0.01982783  0.84929370  1
  O  O108  1  0.64708386  0.51990476  0.35520529  1
  O  O109  1  0.64349712  0.52006921  0.85508551  1
  O  O110  1  0.39424078  0.02170272  0.89515466  1
  O  O111  1  0.39517699  0.52145280  0.39380677  1
  O  O112  1  0.39030894  0.51465822  0.89083288  1
  O  O113  1  0.88351009  0.01637024  0.38732833  1
  O  O114  1  0.89496207  0.01386440  0.89722263  1
  O  O115  1  0.89508605  0.51716922  0.39508374  1
  O  O116  1  0.89710091  0.51810977  0.89648201  1
  O  O117  1  0.10541438  0.48478672  0.10367015  1
  O  O118  1  0.10391083  0.48060473  0.60693265  1
  O  O119  1  0.10754928  0.98347928  0.10586232  1
  O  O120  1  0.10323516  0.97591025  0.61036461  1
  O  O121  1  0.61354092  0.48664397  0.11067004  1
  O  O122  1  0.60693931  0.48263395  0.60427952  1
  O  O123  1  0.60451773  0.98562604  0.09471078  1
  O  O124  1  0.59977999  0.98017708  0.59977836  1
  O  O125  1  0.00862292  0.37550440  0.27631148  1
  O  O126  1  0.01270372  0.37560833  0.78581911  1
  O  O127  1  0.00702420  0.87430826  0.28431415  1
  O  O128  1  0.01223677  0.87378384  0.78904176  1
  O  O129  1  0.49714221  0.37942361  0.28063671  1
  O  O130  1  0.50745202  0.37531518  0.77145865  1
  O  O131  1  0.50717634  0.87200653  0.29845304  1
  O  O132  1  0.50860450  0.87443431  0.78488808  1
  O  O133  1  0.49514550  0.12519117  0.71664705  1
  O  O134  1  0.49272287  0.62735571  0.20975195  1
  O  O135  1  0.48900578  0.62477235  0.71299832  1
  O  O136  1  0.99822774  0.12774646  0.21642172  1
  O  O137  1  0.98758205  0.12348899  0.72543497  1
  O  O138  1  0.99080139  0.62595456  0.21332172  1
  O  O139  1  0.98776120  0.62510886  0.71065321  1
  O  O140  1  0.22708704  0.14758555  0.05300532  1
  O  O141  1  0.25279032  0.11738358  0.51790095  1
  O  O142  1  0.23723800  0.62602366  0.03748685  1
  O  O143  1  0.23517067  0.62693686  0.54012644  1
  O  O144  1  0.74909189  0.12260809  0.03649845  1
  O  O145  1  0.74643436  0.12651307  0.54083193  1
  O  O146  1  0.74403007  0.62719377  0.03631921  1
  O  O147  1  0.74392330  0.62387685  0.53958843  1
  O  O148  1  0.26402980  0.37473293  0.47529984  1
  O  O149  1  0.25073605  0.35971048  0.00781636  1
  O  O150  1  0.27101424  0.87611628  0.45939554  1
  O  O151  1  0.26331140  0.87827262  0.96609675  1
  O  O152  1  0.75796781  0.37565326  0.46008110  1
  O  O153  1  0.74938654  0.37576755  0.96635046  1
  O  O154  1  0.75420930  0.87407597  0.46267193  1
  O  O155  1  0.75610094  0.87427964  0.96034846  1
