# generated using pymatgen
data_Na3RuN2
_symmetry_space_group_name_H-M   'P 1'
_cell_length_a   9.48748200
_cell_length_b   10.95519933
_cell_length_c   10.95519919
_cell_angle_alpha   89.99999956
_cell_angle_beta   125.26438839
_cell_angle_gamma   54.73561214
_symmetry_Int_Tables_number   1
_chemical_formula_structural   Na3RuN2
_chemical_formula_sum   'Na24 Ru8 N16'
_cell_volume   657.40186261
_cell_formula_units_Z   8
loop_
 _symmetry_equiv_pos_site_id
 _symmetry_equiv_pos_as_xyz
  1  'x, y, z'
loop_
 _atom_site_type_symbol
 _atom_site_label
 _atom_site_symmetry_multiplicity
 _atom_site_fract_x
 _atom_site_fract_y
 _atom_site_fract_z
 _atom_site_occupancy
  Na  Na0  1  0.19196300  0.06445800  0.95576100  1
  Na  Na1  1  0.80803700  0.75642100  0.54423900  1
  Na  Na2  1  0.80803700  0.43554200  0.76379800  1
  Na  Na3  1  0.19196300  0.74357900  0.73620200  1
  Na  Na4  1  0.28044300  0.76379800  0.30066100  1
  Na  Na5  1  0.71955700  0.73620200  0.02021800  1
  Na  Na6  1  0.28044300  0.95576100  0.47978200  1
  Na  Na7  1  0.71955700  0.54423900  0.19933900  1
  Na  Na8  1  0.67912100  0.02021800  0.74357900  1
  Na  Na9  1  0.67912100  0.30066100  0.43554200  1
  Na  Na10  1  0.32087900  0.19933900  0.75642100  1
  Na  Na11  1  0.32087900  0.47978200  0.06445800  1
  Na  Na12  1  0.80803700  0.93554200  0.04423900  1
  Na  Na13  1  0.19196300  0.24357900  0.45576100  1
  Na  Na14  1  0.19196300  0.56445800  0.23620200  1
  Na  Na15  1  0.80803700  0.25642100  0.26379800  1
  Na  Na16  1  0.71955700  0.23620200  0.69933900  1
  Na  Na17  1  0.28044300  0.26379800  0.97978200  1
  Na  Na18  1  0.71955700  0.04423900  0.52021800  1
  Na  Na19  1  0.28044300  0.45576100  0.80066100  1
  Na  Na20  1  0.32087900  0.97978200  0.25642100  1
  Na  Na21  1  0.32087900  0.69933900  0.56445800  1
  Na  Na22  1  0.67912100  0.80066100  0.24357900  1
  Na  Na23  1  0.67912100  0.52021800  0.93554200  1
  Ru  Ru24  1  0.20257300  0.00000000  0.70257300  1
  Ru  Ru25  1  0.79742700  0.70257300  0.79742700  1
  Ru  Ru26  1  0.79742700  0.50000000  0.50000000  1
  Ru  Ru27  1  0.20257300  0.79742700  0.00000000  1
  Ru  Ru28  1  0.79742700  0.00000000  0.29742700  1
  Ru  Ru29  1  0.20257300  0.29742700  0.20257300  1
  Ru  Ru30  1  0.20257300  0.50000000  0.50000000  1
  Ru  Ru31  1  0.79742700  0.20257300  0.00000000  1
  N  N32  1  0.00000000  0.00000000  0.50000000  1
  N  N33  1  0.00000000  0.50000000  0.00000000  1
  N  N34  1  0.00000000  0.50000000  0.50000000  1
  N  N35  1  0.00000000  0.00000000  0.00000000  1
  N  N36  1  0.50000000  0.93342600  0.75000000  1
  N  N37  1  0.50000000  0.56657400  0.25000000  1
  N  N38  1  0.00000000  0.25000000  0.68342600  1
  N  N39  1  0.00000000  0.75000000  0.81657400  1
  N  N40  1  0.63314800  0.68342600  0.56657400  1
  N  N41  1  0.36685200  0.81657400  0.93342600  1
  N  N42  1  0.50000000  0.06657400  0.25000000  1
  N  N43  1  0.50000000  0.43342600  0.75000000  1
  N  N44  1  0.00000000  0.75000000  0.31657400  1
  N  N45  1  0.00000000  0.25000000  0.18342600  1
  N  N46  1  0.36685200  0.31657400  0.43342600  1
  N  N47  1  0.63314800  0.18342600  0.06657400  1
