# generated using pymatgen
data_Mg2Cr3GaS8
_symmetry_space_group_name_H-M   'P 1'
_cell_length_a   7.25436454
_cell_length_b   7.25455427
_cell_length_c   7.25451782
_cell_angle_alpha   59.91809595
_cell_angle_beta   59.91641515
_cell_angle_gamma   59.91778724
_symmetry_Int_Tables_number   1
_chemical_formula_structural   Mg2Cr3GaS8
_chemical_formula_sum   'Mg2 Cr3 Ga1 S8'
_cell_volume   269.45700443
_cell_formula_units_Z   1
loop_
 _symmetry_equiv_pos_site_id
 _symmetry_equiv_pos_as_xyz
  1  'x, y, z'
loop_
 _atom_site_type_symbol
 _atom_site_label
 _atom_site_symmetry_multiplicity
 _atom_site_fract_x
 _atom_site_fract_y
 _atom_site_fract_z
 _atom_site_occupancy
  Mg  Mg0  1  0.87549100  0.87553200  0.87551500  1
  Mg  Mg1  1  0.12449700  0.12450000  0.12448600  1
  Cr  Cr2  1  0.50010600  0.49983500  0.99993200  1
  Cr  Cr3  1  0.99990600  0.49993800  0.50002700  1
  Cr  Cr4  1  0.50003700  0.00011300  0.50008000  1
  Ga  Ga5  1  0.50002000  0.50001900  0.49996500  1
  S  S6  1  0.73657700  0.73662500  0.73658800  1
  S  S7  1  0.25965100  0.25961500  0.71201200  1
  S  S8  1  0.25963100  0.71205200  0.25964600  1
  S  S9  1  0.71199400  0.25963700  0.25963100  1
  S  S10  1  0.74035000  0.28801600  0.74036900  1
  S  S11  1  0.28796100  0.74035000  0.74037100  1
  S  S12  1  0.26338600  0.26342300  0.26340700  1
  S  S13  1  0.74039900  0.74033900  0.28797200  1
