# generated using pymatgen
data_Sr3Mn3N5
_symmetry_space_group_name_H-M   'P 1'
_cell_length_a   5.63751467
_cell_length_b   7.08332095
_cell_length_c   8.57177505
_cell_angle_alpha   107.87920769
_cell_angle_beta   102.82357458
_cell_angle_gamma   95.12958254
_symmetry_Int_Tables_number   1
_chemical_formula_structural   Sr3Mn3N5
_chemical_formula_sum   'Sr6 Mn6 N10'
_cell_volume   313.02382031
_cell_formula_units_Z   2
loop_
 _symmetry_equiv_pos_site_id
 _symmetry_equiv_pos_as_xyz
  1  'x, y, z'
loop_
 _atom_site_type_symbol
 _atom_site_label
 _atom_site_symmetry_multiplicity
 _atom_site_fract_x
 _atom_site_fract_y
 _atom_site_fract_z
 _atom_site_occupancy
  Sr  Sr0  1  0.82067300  0.41755100  0.61523000  1
  Sr  Sr1  1  0.17932700  0.58244900  0.38477000  1
  Sr  Sr2  1  0.65936800  0.86787100  0.87967100  1
  Sr  Sr3  1  0.34063200  0.13212900  0.12032900  1
  Sr  Sr4  1  0.65276300  0.67655200  0.20770500  1
  Sr  Sr5  1  0.34723700  0.32344800  0.79229500  1
  Mn  Mn6  1  0.91229800  0.32238000  0.97602000  1
  Mn  Mn7  1  0.08770200  0.67762000  0.02398000  1
  Mn  Mn8  1  0.68580700  0.95915600  0.57183400  1
  Mn  Mn9  1  0.31419300  0.04084400  0.42816600  1
  Mn  Mn10  1  0.09317200  0.89070200  0.70065000  1
  Mn  Mn11  1  0.90682800  0.10929800  0.29935000  1
  N  N12  1  0.92317600  0.12222200  0.77738400  1
  N  N13  1  0.07682400  0.87777700  0.22261600  1
  N  N14  1  0.82316200  0.72934500  0.52440900  1
  N  N15  1  0.17683800  0.27065500  0.47559100  1
  N  N16  1  0.76412100  0.53361900  0.92265200  1
  N  N17  1  0.23587900  0.46638100  0.07734800  1
  N  N18  1  0.36621800  0.94139000  0.61354400  1
  N  N19  1  0.63378200  0.05861000  0.38645600  1
  N  N20  1  0.16352900  0.77822600  0.86791000  1
  N  N21  1  0.83647100  0.22177400  0.13209000  1
