# generated using pymatgen
data_Zn4GeN4
_symmetry_space_group_name_H-M   'P 1'
_cell_length_a   5.30069400
_cell_length_b   11.08911200
_cell_length_c   8.04628900
_cell_angle_alpha   90.00000000
_cell_angle_beta   90.00000000
_cell_angle_gamma   90.00000000
_symmetry_Int_Tables_number   1
_chemical_formula_structural   Zn4GeN4
_chemical_formula_sum   'Zn16 Ge4 N16'
_cell_volume   472.96078248
_cell_formula_units_Z   4
loop_
 _symmetry_equiv_pos_site_id
 _symmetry_equiv_pos_as_xyz
  1  'x, y, z'
loop_
 _atom_site_type_symbol
 _atom_site_label
 _atom_site_symmetry_multiplicity
 _atom_site_fract_x
 _atom_site_fract_y
 _atom_site_fract_z
 _atom_site_occupancy
  Zn  Zn0  1  0.21242800  0.36542500  0.62689200  1
  Zn  Zn1  1  0.28757200  0.63457500  0.62689200  1
  Zn  Zn2  1  0.21242800  0.13457500  0.87310800  1
  Zn  Zn3  1  0.28757200  0.86542500  0.87310800  1
  Zn  Zn4  1  0.78757200  0.63457500  0.37310800  1
  Zn  Zn5  1  0.71242800  0.36542500  0.37310800  1
  Zn  Zn6  1  0.78757200  0.86542500  0.12689200  1
  Zn  Zn7  1  0.71242800  0.13457500  0.12689200  1
  Zn  Zn8  1  0.75000000  0.50000000  0.05348700  1
  Zn  Zn9  1  0.75000000  0.00000000  0.44651300  1
  Zn  Zn10  1  0.25000000  0.50000000  0.94651300  1
  Zn  Zn11  1  0.25000000  0.00000000  0.55348700  1
  Zn  Zn12  1  0.75742500  0.25000000  0.75000000  1
  Zn  Zn13  1  0.74257500  0.75000000  0.75000000  1
  Zn  Zn14  1  0.24257500  0.75000000  0.25000000  1
  Zn  Zn15  1  0.25742500  0.25000000  0.25000000  1
  Ge  Ge16  1  0.75000000  0.50000000  0.70579600  1
  Ge  Ge17  1  0.75000000  0.00000000  0.79420400  1
  Ge  Ge18  1  0.25000000  0.50000000  0.29420400  1
  Ge  Ge19  1  0.25000000  0.00000000  0.20579600  1
  N  N20  1  0.58042000  0.37086600  0.60379300  1
  N  N21  1  0.91958000  0.62913400  0.60379300  1
  N  N22  1  0.58042000  0.12913400  0.89620700  1
  N  N23  1  0.91958000  0.87086600  0.89620700  1
  N  N24  1  0.41958000  0.62913400  0.39620700  1
  N  N25  1  0.08042000  0.37086600  0.39620700  1
  N  N26  1  0.41958000  0.87086600  0.10379300  1
  N  N27  1  0.08042000  0.12913400  0.10379300  1
  N  N28  1  0.98244500  0.09491000  0.66814900  1
  N  N29  1  0.51755500  0.90509000  0.66814900  1
  N  N30  1  0.98244500  0.40509000  0.83185100  1
  N  N31  1  0.51755500  0.59491000  0.83185100  1
  N  N32  1  0.01755500  0.90509000  0.33185100  1
  N  N33  1  0.48244500  0.09491000  0.33185100  1
  N  N34  1  0.01755500  0.59491000  0.16814900  1
  N  N35  1  0.48244500  0.40509000  0.16814900  1
