# generated using pymatgen
data_MgMnWS4
_symmetry_space_group_name_H-M   'P 1'
_cell_length_a   6.86969322
_cell_length_b   7.38985722
_cell_length_c   7.38548721
_cell_angle_alpha   60.17997632
_cell_angle_beta   62.34490354
_cell_angle_gamma   62.35783270
_symmetry_Int_Tables_number   1
_chemical_formula_structural   MgMnWS4
_chemical_formula_sum   'Mg2 Mn2 W2 S8'
_cell_volume   274.54705798
_cell_formula_units_Z   2
loop_
 _symmetry_equiv_pos_site_id
 _symmetry_equiv_pos_as_xyz
  1  'x, y, z'
loop_
 _atom_site_type_symbol
 _atom_site_label
 _atom_site_symmetry_multiplicity
 _atom_site_fract_x
 _atom_site_fract_y
 _atom_site_fract_z
 _atom_site_occupancy
  Mg  Mg0  1  0.86178400  0.88693500  0.88578400  1
  Mg  Mg1  1  0.10443700  0.14715100  0.14621400  1
  Mn  Mn2  1  0.51163600  0.49781300  0.97868900  1
  Mn  Mn3  1  0.51269900  0.97686900  0.49715600  1
  W  W4  1  0.45015900  0.50135500  0.50116600  1
  W  W5  1  0.04784600  0.50124300  0.50103900  1
  S  S6  1  0.77087400  0.72586500  0.72608600  1
  S  S7  1  0.26147800  0.22883100  0.74865500  1
  S  S8  1  0.26126500  0.74903300  0.22887900  1
  S  S9  1  0.69409300  0.27515900  0.27597000  1
  S  S10  1  0.74590600  0.28955400  0.71894000  1
  S  S11  1  0.27547800  0.72634800  0.72659000  1
  S  S12  1  0.25588900  0.27533500  0.27600500  1
  S  S13  1  0.74646200  0.71850400  0.28882800  1
