# generated using pymatgen
data_MgFeMoS4
_symmetry_space_group_name_H-M   'P 1'
_cell_length_a   7.25812970
_cell_length_b   7.12267940
_cell_length_c   7.13114228
_cell_angle_alpha   58.14765311
_cell_angle_beta   59.51979299
_cell_angle_gamma   59.48794396
_symmetry_Int_Tables_number   1
_chemical_formula_structural   MgFeMoS4
_chemical_formula_sum   'Mg2 Fe2 Mo2 S8'
_cell_volume   254.94891318
_cell_formula_units_Z   2
loop_
 _symmetry_equiv_pos_site_id
 _symmetry_equiv_pos_as_xyz
  1  'x, y, z'
loop_
 _atom_site_type_symbol
 _atom_site_label
 _atom_site_symmetry_multiplicity
 _atom_site_fract_x
 _atom_site_fract_y
 _atom_site_fract_z
 _atom_site_occupancy
  Mg  Mg0  1  0.87102700  0.88004000  0.88058400  1
  Mg  Mg1  1  0.12896300  0.11997600  0.11941100  1
  Fe  Fe2  1  0.49999700  0.49998300  0.50001900  1
  Fe  Fe3  1  0.00000700  0.50000500  0.49999300  1
  Mo  Mo4  1  0.49999700  0.50003700  0.99996700  1
  Mo  Mo5  1  0.49999200  0.99996300  0.50005000  1
  S  S6  1  0.75901800  0.73010600  0.72985800  1
  S  S7  1  0.25734400  0.28342600  0.70146300  1
  S  S8  1  0.25737000  0.70136300  0.28353400  1
  S  S9  1  0.71919800  0.26931300  0.26944900  1
  S  S10  1  0.74263600  0.29864900  0.71644500  1
  S  S11  1  0.28078600  0.73067600  0.73055400  1
  S  S12  1  0.24101600  0.26987600  0.27013700  1
  S  S13  1  0.74265300  0.71658100  0.29853600  1
