# generated using pymatgen
data_Mg3Sc2N4
_symmetry_space_group_name_H-M   'P 1'
_cell_length_a   6.18890231
_cell_length_b   8.69325977
_cell_length_c   5.67128669
_cell_angle_alpha   90.00000273
_cell_angle_beta   90.41547215
_cell_angle_gamma   134.61396203
_symmetry_Int_Tables_number   1
_chemical_formula_structural   Mg3Sc2N4
_chemical_formula_sum   'Mg6 Sc4 N8'
_cell_volume   217.19351063
_cell_formula_units_Z   2
loop_
 _symmetry_equiv_pos_site_id
 _symmetry_equiv_pos_as_xyz
  1  'x, y, z'
loop_
 _atom_site_type_symbol
 _atom_site_label
 _atom_site_symmetry_multiplicity
 _atom_site_fract_x
 _atom_site_fract_y
 _atom_site_fract_z
 _atom_site_occupancy
  Mg  Mg0  1  0.26014100  0.01944100  0.10620100  1
  Mg  Mg1  1  0.73985900  0.75930000  0.39379900  1
  Mg  Mg2  1  0.73985900  0.98055900  0.89379900  1
  Mg  Mg3  1  0.26014100  0.24070000  0.60620100  1
  Mg  Mg4  1  0.00000000  0.74917100  0.75000000  1
  Mg  Mg5  1  0.00000000  0.25082900  0.25000000  1
  Sc  Sc6  1  0.70840600  0.24140500  0.60815500  1
  Sc  Sc7  1  0.29159400  0.53300000  0.89184500  1
  Sc  Sc8  1  0.29159400  0.75859500  0.39184500  1
  Sc  Sc9  1  0.70840600  0.46700000  0.10815500  1
  N  N10  1  0.24268100  0.98800800  0.49199500  1
  N  N11  1  0.75731900  0.74532700  0.00800500  1
  N  N12  1  0.75731900  0.01199200  0.50800500  1
  N  N13  1  0.24268100  0.25467300  0.99199500  1
  N  N14  1  0.75632200  0.25272000  0.98161100  1
  N  N15  1  0.24367800  0.49639800  0.51838900  1
  N  N16  1  0.24367800  0.74728000  0.01838900  1
  N  N17  1  0.75632200  0.50360200  0.48161100  1
