# generated using pymatgen
data_Ca4TeN4
_symmetry_space_group_name_H-M   'P 1'
_cell_length_a   11.88937600
_cell_length_b   3.61411100
_cell_length_c   16.09592900
_cell_angle_alpha   90.00000000
_cell_angle_beta   90.00000000
_cell_angle_gamma   90.00000000
_symmetry_Int_Tables_number   1
_chemical_formula_structural   Ca4TeN4
_chemical_formula_sum   'Ca16 Te4 N16'
_cell_volume   691.63441688
_cell_formula_units_Z   4
loop_
 _symmetry_equiv_pos_site_id
 _symmetry_equiv_pos_as_xyz
  1  'x, y, z'
loop_
 _atom_site_type_symbol
 _atom_site_label
 _atom_site_symmetry_multiplicity
 _atom_site_fract_x
 _atom_site_fract_y
 _atom_site_fract_z
 _atom_site_occupancy
  Ca  Ca0  1  0.09189300  0.25000000  0.16884000  1
  Ca  Ca1  1  0.59189300  0.25000000  0.33116000  1
  Ca  Ca2  1  0.90810700  0.75000000  0.83116000  1
  Ca  Ca3  1  0.40810700  0.75000000  0.66884000  1
  Ca  Ca4  1  0.87777400  0.25000000  0.04497100  1
  Ca  Ca5  1  0.37777400  0.25000000  0.45502900  1
  Ca  Ca6  1  0.12222600  0.75000000  0.95502900  1
  Ca  Ca7  1  0.62222600  0.75000000  0.54497100  1
  Ca  Ca8  1  0.41146900  0.25000000  0.89103900  1
  Ca  Ca9  1  0.91146900  0.25000000  0.60896100  1
  Ca  Ca10  1  0.58853100  0.75000000  0.10896100  1
  Ca  Ca11  1  0.08853100  0.75000000  0.39103900  1
  Ca  Ca12  1  0.19016800  0.25000000  0.77171600  1
  Ca  Ca13  1  0.69016800  0.25000000  0.72828400  1
  Ca  Ca14  1  0.80983200  0.75000000  0.22828400  1
  Ca  Ca15  1  0.30983200  0.75000000  0.27171600  1
  Te  Te16  1  0.35305800  0.25000000  0.09646700  1
  Te  Te17  1  0.85305800  0.25000000  0.40353300  1
  Te  Te18  1  0.64694200  0.75000000  0.90353300  1
  Te  Te19  1  0.14694200  0.75000000  0.59646700  1
  N  N20  1  0.72481500  0.25000000  0.13267000  1
  N  N21  1  0.22481500  0.25000000  0.36733000  1
  N  N22  1  0.27518500  0.75000000  0.86733000  1
  N  N23  1  0.77518500  0.75000000  0.63267000  1
  N  N24  1  0.04593800  0.25000000  0.85966200  1
  N  N25  1  0.54593800  0.25000000  0.64033800  1
  N  N26  1  0.95406200  0.75000000  0.14033800  1
  N  N27  1  0.45406200  0.75000000  0.35966200  1
  N  N28  1  0.97291600  0.25000000  0.92224500  1
  N  N29  1  0.47291600  0.25000000  0.57775500  1
  N  N30  1  0.02708400  0.75000000  0.07775500  1
  N  N31  1  0.52708400  0.75000000  0.42224500  1
  N  N32  1  0.66624900  0.25000000  0.20530800  1
  N  N33  1  0.16624900  0.25000000  0.29469200  1
  N  N34  1  0.33375100  0.75000000  0.79469200  1
  N  N35  1  0.83375100  0.75000000  0.70530800  1
