# generated using pymatgen
data_Ba10Pr5Sn2(SbO10)3
_symmetry_space_group_name_H-M   'P 1'
_cell_length_a   30.87067582
_cell_length_b   16.33833601
_cell_length_c   10.67471698
_cell_angle_alpha   29.30429341
_cell_angle_beta   30.10023770
_cell_angle_gamma   19.14674812
_symmetry_Int_Tables_number   1
_chemical_formula_structural   Ba10Pr5Sn2(SbO10)3
_chemical_formula_sum   'Ba10 Pr5 Sn2 Sb3 O30'
_cell_volume   835.14882549
_cell_formula_units_Z   1
loop_
 _symmetry_equiv_pos_site_id
 _symmetry_equiv_pos_as_xyz
  1  'x, y, z'
loop_
 _atom_site_type_symbol
 _atom_site_label
 _atom_site_symmetry_multiplicity
 _atom_site_fract_x
 _atom_site_fract_y
 _atom_site_fract_z
 _atom_site_occupancy
  Ba  Ba0  1  0.10046000  0.24950900  0.24958900  1
  Ba  Ba1  1  0.29981100  0.25037500  0.24934600  1
  Ba  Ba2  1  0.10018900  0.74962500  0.75065400  1
  Ba  Ba3  1  0.49980600  0.24904600  0.25161900  1
  Ba  Ba4  1  0.29954000  0.75049100  0.75041100  1
  Ba  Ba5  1  0.70006800  0.25154200  0.24804000  1
  Ba  Ba6  1  0.49972100  0.75099000  0.75058600  1
  Ba  Ba7  1  0.90027900  0.24901000  0.24941400  1
  Ba  Ba8  1  0.69993200  0.74845800  0.75196000  1
  Ba  Ba9  1  0.90019400  0.75095400  0.74838100  1
  Pr  Pr10  1  0.99845600  0.50216800  0.50117300  1
  Pr  Pr11  1  0.20000000  0.50000000  0.50000000  1
  Pr  Pr12  1  0.40154400  0.49783200  0.49882700  1
  Pr  Pr13  1  0.59911700  0.50079100  0.50175000  1
  Pr  Pr14  1  0.80088300  0.49920900  0.49825000  1
  Sn  Sn15  1  0.99939700  0.00076800  0.00072100  1
  Sn  Sn16  1  0.40060300  0.99923200  0.99927900  1
  Sb  Sb17  1  0.20000000  0.00000000  0.00000000  1
  Sb  Sb18  1  0.59984900  0.00027300  0.00010200  1
  Sb  Sb19  1  0.80015100  0.99972700  0.99989800  1
  O  O20  1  0.02376800  0.19462400  0.26338600  1
  O  O21  1  0.21789000  0.20085700  0.27292300  1
  O  O22  1  0.09439400  0.22870700  0.80593100  1
  O  O23  1  0.02255800  0.72653100  0.23531700  1
  O  O24  1  0.17886800  0.26496600  0.77066800  1
  O  O25  1  0.10884900  0.76388200  0.20077100  1
  O  O26  1  0.42320300  0.19500300  0.26491700  1
  O  O27  1  0.29115100  0.23611800  0.79922900  1
  O  O28  1  0.22113200  0.73503400  0.22933200  1
  O  O29  1  0.37744200  0.27346900  0.76468300  1
  O  O30  1  0.30560600  0.77129300  0.19406900  1
  O  O31  1  0.18211000  0.79914300  0.72707700  1
  O  O32  1  0.62391100  0.19451800  0.26317900  1
  O  O33  1  0.49464300  0.22828400  0.80574800  1
  O  O34  1  0.42137300  0.72822100  0.23606900  1
  O  O35  1  0.57871000  0.26497500  0.77157000  1
  O  O36  1  0.50950200  0.76282700  0.20110600  1
  O  O37  1  0.37623200  0.80537600  0.73661400  1
  O  O38  1  0.81731300  0.20119100  0.27399100  1
  O  O39  1  0.69492500  0.22807900  0.80533000  1
  O  O40  1  0.62107700  0.73496200  0.22992000  1
  O  O41  1  0.77892300  0.26503800  0.77008000  1
  O  O42  1  0.70507500  0.77192100  0.19467000  1
  O  O43  1  0.58268700  0.79880900  0.72600900  1
  O  O44  1  0.89049800  0.23717300  0.79889400  1
  O  O45  1  0.82129000  0.73502500  0.22843000  1
  O  O46  1  0.97862700  0.27177900  0.76393100  1
  O  O47  1  0.90535700  0.77171600  0.19425200  1
  O  O48  1  0.77608900  0.80548200  0.73682100  1
  O  O49  1  0.97679700  0.80499700  0.73508300  1
