# generated using pymatgen
data_CoSi2N3
_symmetry_space_group_name_H-M   'P 1'
_cell_length_a   5.34061269
_cell_length_b   5.39863209
_cell_length_c   4.82646800
_cell_angle_alpha   90.00000000
_cell_angle_beta   90.00000000
_cell_angle_gamma   120.36001586
_symmetry_Int_Tables_number   1
_chemical_formula_structural   CoSi2N3
_chemical_formula_sum   'Co2 Si4 N6'
_cell_volume   120.07370295
_cell_formula_units_Z   2
loop_
 _symmetry_equiv_pos_site_id
 _symmetry_equiv_pos_as_xyz
  1  'x, y, z'
loop_
 _atom_site_type_symbol
 _atom_site_label
 _atom_site_symmetry_multiplicity
 _atom_site_fract_x
 _atom_site_fract_y
 _atom_site_fract_z
 _atom_site_occupancy
  Co  Co0  1  0.00000000  0.60287600  0.49975400  1
  Co  Co1  1  0.00000000  0.39712400  0.99975400  1
  Si  Si2  1  0.33807400  0.32742700  0.49370600  1
  Si  Si3  1  0.66192600  0.98935300  0.49370600  1
  Si  Si4  1  0.66192600  0.67257300  0.99370600  1
  Si  Si5  1  0.33807400  0.01064700  0.99370600  1
  N  N6  1  0.38915500  0.33867900  0.85547600  1
  N  N7  1  0.61084500  0.94952500  0.85547600  1
  N  N8  1  0.61084500  0.66132100  0.35547600  1
  N  N9  1  0.38915500  0.05047500  0.35547600  1
  N  N10  1  0.00000000  0.74761800  0.88988400  1
  N  N11  1  0.00000000  0.25238200  0.38988400  1
