# generated using pymatgen
data_Na3Ca3Zr2Si4(O5F)3
_symmetry_space_group_name_H-M   'P 1'
_cell_length_a   8.98983985
_cell_length_b   10.14866355
_cell_length_c   10.06890698
_cell_angle_alpha   78.78498779
_cell_angle_beta   86.25782305
_cell_angle_gamma   96.87727952
_symmetry_Int_Tables_number   1
_chemical_formula_structural   Na3Ca3Zr2Si4(O5F)3
_chemical_formula_sum   'Na6 Ca6 Zr4 Si8 O30 F6'
_cell_volume   890.90336797
_cell_formula_units_Z   2
loop_
 _symmetry_equiv_pos_site_id
 _symmetry_equiv_pos_as_xyz
  1  'x, y, z'
loop_
 _atom_site_type_symbol
 _atom_site_label
 _atom_site_symmetry_multiplicity
 _atom_site_fract_x
 _atom_site_fract_y
 _atom_site_fract_z
 _atom_site_occupancy
  Na  Na0  1  0.16405200  0.53404600  0.20074800  1
  Na  Na1  1  0.17717700  0.21325400  0.35566200  1
  Na  Na2  1  0.42459900  0.84519100  0.39055100  1
  Na  Na3  1  0.57540100  0.15480900  0.60944900  1
  Na  Na4  1  0.82282300  0.78674600  0.64433800  1
  Na  Na5  1  0.83594800  0.46595400  0.79925200  1
  Ca  Ca6  1  0.16661800  0.51579600  0.56979600  1
  Ca  Ca7  1  0.14920900  0.06305200  0.03939400  1
  Ca  Ca8  1  0.39698000  0.35838700  0.97764700  1
  Ca  Ca9  1  0.60302000  0.64161300  0.02235300  1
  Ca  Ca10  1  0.85079100  0.93694800  0.96060600  1
  Ca  Ca11  1  0.83338200  0.48420400  0.43020400  1
  Zr  Zr12  1  0.38022900  0.85152800  0.06121900  1
  Zr  Zr13  1  0.45075000  0.48833100  0.32815600  1
  Zr  Zr14  1  0.54925000  0.51166900  0.67184400  1
  Zr  Zr15  1  0.61977100  0.14847200  0.93878100  1
  Si  Si16  1  0.75196400  0.37947800  0.13487500  1
  Si  Si17  1  0.83233600  0.94520400  0.34822400  1
  Si  Si18  1  0.08724600  0.78621400  0.84981800  1
  Si  Si19  1  0.94974300  0.18648100  0.70547600  1
  Si  Si20  1  0.05025700  0.81351900  0.29452400  1
  Si  Si21  1  0.91275400  0.21378600  0.15018200  1
  Si  Si22  1  0.16766400  0.05479600  0.65177600  1
  Si  Si23  1  0.24803600  0.62052200  0.86512500  1
  O  O24  1  0.15336600  0.85472200  0.97520800  1
  O  O25  1  0.03358400  0.13334600  0.57235900  1
  O  O26  1  0.14101000  0.89012100  0.70153300  1
  O  O27  1  0.29092700  0.51330000  0.77140300  1
  O  O28  1  0.09617500  0.23712000  0.13580400  1
  O  O29  1  0.03287400  0.64915200  0.33762200  1
  O  O30  1  0.93242000  0.89669100  0.19325000  1
  O  O31  1  0.23828700  0.42709100  0.40081500  1
  O  O32  1  0.37967400  0.70766600  0.93069700  1
  O  O33  1  0.41579400  0.46139000  0.14472300  1
  O  O34  1  0.22108100  0.88601100  0.23486400  1
  O  O35  1  0.55728300  0.29115500  0.79595300  1
  O  O36  1  0.48848100  0.70650100  0.58063600  1
  O  O37  1  0.41389400  0.60605400  0.50500700  1
  O  O38  1  0.39916700  0.07981100  0.01833100  1
  O  O39  1  0.60083300  0.92018900  0.98166900  1
  O  O40  1  0.58610600  0.39394600  0.49499300  1
  O  O41  1  0.51151900  0.29349900  0.41936400  1
  O  O42  1  0.44271700  0.70884500  0.20404700  1
  O  O43  1  0.77891900  0.11398900  0.76513600  1
  O  O44  1  0.58420600  0.53861000  0.85527700  1
  O  O45  1  0.62032600  0.29233400  0.06930300  1
  O  O46  1  0.76171300  0.57290900  0.59918500  1
  O  O47  1  0.06758000  0.10330900  0.80675000  1
  O  O48  1  0.96712600  0.35084800  0.66237800  1
  O  O49  1  0.90382500  0.76288000  0.86419600  1
  O  O50  1  0.70907300  0.48670000  0.22859700  1
  O  O51  1  0.85899000  0.10987900  0.29846700  1
  O  O52  1  0.96641600  0.86665400  0.42764100  1
  O  O53  1  0.84663400  0.14527800  0.02479200  1
  F  F54  1  0.15503800  0.50575000  0.99605800  1
  F  F55  1  0.26352600  0.04789800  0.49992100  1
  F  F56  1  0.32573000  0.12504000  0.69869800  1
  F  F57  1  0.67427000  0.87496000  0.30130200  1
  F  F58  1  0.73647400  0.95210200  0.50007900  1
  F  F59  1  0.84496200  0.49425000  0.00394200  1
