# generated using pymatgen
data_MgMnCrS4
_symmetry_space_group_name_H-M   'P 1'
_cell_length_a   7.25175254
_cell_length_b   7.25303818
_cell_length_c   7.25330594
_cell_angle_alpha   60.05230196
_cell_angle_beta   60.03248025
_cell_angle_gamma   60.03289348
_symmetry_Int_Tables_number   1
_chemical_formula_structural   MgMnCrS4
_chemical_formula_sum   'Mg2 Mn2 Cr2 S8'
_cell_volume   270.00379558
_cell_formula_units_Z   2
loop_
 _symmetry_equiv_pos_site_id
 _symmetry_equiv_pos_as_xyz
  1  'x, y, z'
loop_
 _atom_site_type_symbol
 _atom_site_label
 _atom_site_symmetry_multiplicity
 _atom_site_fract_x
 _atom_site_fract_y
 _atom_site_fract_z
 _atom_site_occupancy
  Mg  Mg0  1  0.87375900  0.87632100  0.87635200  1
  Mg  Mg1  1  0.12630200  0.12365100  0.12366200  1
  Mn  Mn2  1  0.50005100  0.50004900  0.49989600  1
  Mn  Mn3  1  0.00009600  0.49996600  0.49996700  1
  Cr  Cr4  1  0.49983600  0.50010800  0.00023300  1
  Cr  Cr5  1  0.49981400  0.99996900  0.49990900  1
  S  S6  1  0.73217100  0.73982100  0.73982700  1
  S  S7  1  0.26466600  0.25796500  0.71268200  1
  S  S8  1  0.26467500  0.71264400  0.25797300  1
  S  S9  1  0.71189300  0.26011800  0.26013100  1
  S  S10  1  0.73536300  0.28734500  0.74198800  1
  S  S11  1  0.28814600  0.73985800  0.73986800  1
  S  S12  1  0.26785200  0.26014200  0.26019500  1
  S  S13  1  0.73538000  0.74204000  0.28731800  1
