# generated using pymatgen
data_Ca4Mn3CrO10
_symmetry_space_group_name_H-M   'P 1'
_cell_length_a   5.55091567
_cell_length_b   10.96805184
_cell_length_c   15.39075916
_cell_angle_alpha   90.45897833
_cell_angle_beta   89.89374977
_cell_angle_gamma   91.59991704
_symmetry_Int_Tables_number   1
_chemical_formula_structural   Ca4Mn3CrO10
_chemical_formula_sum   'Ca16 Mn12 Cr4 O40'
_cell_volume   936.63485145
_cell_formula_units_Z   4
loop_
 _symmetry_equiv_pos_site_id
 _symmetry_equiv_pos_as_xyz
  1  'x, y, z'
loop_
 _atom_site_type_symbol
 _atom_site_label
 _atom_site_symmetry_multiplicity
 _atom_site_fract_x
 _atom_site_fract_y
 _atom_site_fract_z
 _atom_site_occupancy
  Ca  Ca0  1  0.01198000  0.00333800  0.11031100  1
  Ca  Ca1  1  0.00972400  0.00996400  0.61226800  1
  Ca  Ca2  1  0.97477700  0.54571200  0.12785200  1
  Ca  Ca3  1  0.96396400  0.54192700  0.62970200  1
  Ca  Ca4  1  0.98683400  0.51505200  0.37391100  1
  Ca  Ca5  1  0.98067600  0.51846400  0.87401900  1
  Ca  Ca6  1  0.00842600  0.95854900  0.38572200  1
  Ca  Ca7  1  0.00203000  0.95855300  0.88170500  1
  Ca  Ca8  1  0.53709400  0.22887700  0.39454900  1
  Ca  Ca9  1  0.54688200  0.22843700  0.89178700  1
  Ca  Ca10  1  0.50092600  0.74547800  0.37578100  1
  Ca  Ca11  1  0.50605400  0.74933900  0.87276300  1
  Ca  Ca12  1  0.48796800  0.22420100  0.11980600  1
  Ca  Ca13  1  0.49597300  0.22835100  0.62012900  1
  Ca  Ca14  1  0.51038100  0.78143600  0.11935100  1
  Ca  Ca15  1  0.50720000  0.78290400  0.62477200  1
  Mn  Mn16  1  0.50657700  0.99301900  0.49679100  1
  Mn  Mn17  1  0.47890600  0.50382400  0.99137100  1
  Mn  Mn18  1  0.47319100  0.50478400  0.49267300  1
  Mn  Mn19  1  0.04276300  0.24699800  0.50100400  1
  Mn  Mn20  1  0.99978100  0.74616200  0.00161700  1
  Mn  Mn21  1  0.99150900  0.74409000  0.50346100  1
  Mn  Mn22  1  0.92836200  0.27482900  0.74491000  1
  Mn  Mn23  1  0.00446900  0.75634500  0.24859900  1
  Mn  Mn24  1  0.00441600  0.75705000  0.74651500  1
  Mn  Mn25  1  0.51902500  0.99609000  0.75277100  1
  Mn  Mn26  1  0.51082500  0.50885300  0.24918400  1
  Mn  Mn27  1  0.50029600  0.51145700  0.74775600  1
  Cr  Cr28  1  0.50649900  0.99659700  0.99798100  1
  Cr  Cr29  1  0.04278000  0.24088600  0.99945100  1
  Cr  Cr30  1  0.90871100  0.27088100  0.24183700  1
  Cr  Cr31  1  0.53164500  0.99063300  0.25321700  1
  O  O32  1  0.19267900  0.58367800  0.25570500  1
  O  O33  1  0.18708400  0.58740000  0.75619000  1
  O  O34  1  0.72164200  0.39359200  0.18281600  1
  O  O35  1  0.69987700  0.39951400  0.68380900  1
  O  O36  1  0.83166300  0.91569900  0.23261300  1
  O  O37  1  0.83349900  0.90553900  0.73223900  1
  O  O38  1  0.63049500  0.16734500  0.25307800  1
  O  O39  1  0.63304200  0.16115000  0.75024600  1
  O  O40  1  0.71172100  0.66037400  0.22656300  1
  O  O41  1  0.71113700  0.65891800  0.72718700  1
  O  O42  1  0.29339100  0.85891200  0.27799400  1
  O  O43  1  0.29851600  0.85588200  0.77290200  1
  O  O44  1  0.33750400  0.34793800  0.50464700  1
  O  O45  1  0.33973100  0.34708200  0.01052000  1
  O  O46  1  0.27684300  0.84613500  0.48145400  1
  O  O47  1  0.28456200  0.84784800  0.97851500  1
  O  O48  1  0.73249000  0.14892000  0.01307600  1
  O  O49  1  0.74675600  0.15868800  0.51172300  1
  O  O50  1  0.70545900  0.63162000  0.02584200  1
  O  O51  1  0.68848900  0.63068300  0.52941200  1
  O  O52  1  0.78929100  0.88571400  0.01594100  1
  O  O53  1  0.78480300  0.88739400  0.51914400  1
  O  O54  1  0.24143100  0.09802800  0.47231700  1
  O  O55  1  0.22310500  0.10057600  0.97197500  1
  O  O56  1  0.17077800  0.59034200  0.49546800  1
  O  O57  1  0.17979000  0.59528200  0.99400100  1
  O  O58  1  0.60149300  0.00186900  0.37775900  1
  O  O59  1  0.59101500  0.00118600  0.87428300  1
  O  O60  1  0.57967200  0.47584400  0.37565000  1
  O  O61  1  0.56520400  0.47862700  0.87214700  1
  O  O62  1  0.43191400  0.00048300  0.12822100  1
  O  O63  1  0.43214800  0.00149100  0.62719200  1
  O  O64  1  0.07305700  0.22275300  0.13784100  1
  O  O65  1  0.08366600  0.22846500  0.63160300  1
  O  O66  1  0.08597700  0.75273300  0.12361400  1
  O  O67  1  0.08554000  0.74826200  0.62565100  1
  O  O68  1  0.99059300  0.29233300  0.36475900  1
  O  O69  1  0.97150600  0.29926900  0.87872300  1
  O  O70  1  0.92226600  0.73858000  0.37888000  1
  O  O71  1  0.92699000  0.74124700  0.87446400  1
