# generated using pymatgen
data_Ag5Au3S4
_symmetry_space_group_name_H-M   'P 1'
_cell_length_a   5.85148440
_cell_length_b   4.74221885
_cell_length_c   12.99799725
_cell_angle_alpha   66.12395598
_cell_angle_beta   81.07569827
_cell_angle_gamma   84.04658801
_symmetry_Int_Tables_number   1
_chemical_formula_structural   Ag5Au3S4
_chemical_formula_sum   'Ag5 Au3 S4'
_cell_volume   325.48841594
_cell_formula_units_Z   1
loop_
 _symmetry_equiv_pos_site_id
 _symmetry_equiv_pos_as_xyz
  1  'x, y, z'
loop_
 _atom_site_type_symbol
 _atom_site_label
 _atom_site_symmetry_multiplicity
 _atom_site_fract_x
 _atom_site_fract_y
 _atom_site_fract_z
 _atom_site_occupancy
  Ag  Ag0  1  0.12103300  0.54508700  0.41833600  1
  Ag  Ag1  1  0.36773800  0.91863800  0.81152700  1
  Ag  Ag2  1  0.90141300  0.48524400  0.00105400  1
  Ag  Ag3  1  0.63490200  0.40791400  0.48545200  1
  Ag  Ag4  1  0.73979700  0.03251500  0.32544700  1
  Au  Au5  1  0.72288700  0.23686400  0.85852500  1
  Au  Au6  1  0.77609800  0.81978800  0.14273500  1
  Au  Au7  1  0.73156100  0.75409600  0.60491900  1
  S  S8  1  0.02551000  0.00398100  0.96951300  1
  S  S9  1  0.03680900  0.99515400  0.46832800  1
  S  S10  1  0.51063100  0.55250200  0.29476700  1
  S  S11  1  0.43161900  0.49821800  0.74439800  1
