# generated using pymatgen
data_Mn3Fe8N9
_symmetry_space_group_name_H-M   'P 1'
_cell_length_a   6.51995241
_cell_length_b   7.32057100
_cell_length_c   16.10163081
_cell_angle_alpha   90.00000000
_cell_angle_beta   96.20978040
_cell_angle_gamma   90.00000000
_symmetry_Int_Tables_number   1
_chemical_formula_structural   Mn3Fe8N9
_chemical_formula_sum   'Mn12 Fe32 N36'
_cell_volume   764.01788533
_cell_formula_units_Z   4
loop_
 _symmetry_equiv_pos_site_id
 _symmetry_equiv_pos_as_xyz
  1  'x, y, z'
loop_
 _atom_site_type_symbol
 _atom_site_label
 _atom_site_symmetry_multiplicity
 _atom_site_fract_x
 _atom_site_fract_y
 _atom_site_fract_z
 _atom_site_occupancy
  Mn  Mn0  1  0.46081800  0.09913500  0.73619500  1
  Mn  Mn1  1  0.53918200  0.59913500  0.76380500  1
  Mn  Mn2  1  0.53918200  0.90086500  0.26380500  1
  Mn  Mn3  1  0.46081800  0.40086500  0.23619500  1
  Mn  Mn4  1  0.74863900  0.79855500  0.54883200  1
  Mn  Mn5  1  0.25136100  0.29855500  0.95116800  1
  Mn  Mn6  1  0.25136100  0.20144500  0.45116800  1
  Mn  Mn7  1  0.74863900  0.70144500  0.04883200  1
  Mn  Mn8  1  0.73763400  0.45264600  0.55184800  1
  Mn  Mn9  1  0.26236600  0.95264600  0.94815200  1
  Mn  Mn10  1  0.26236600  0.54735400  0.44815200  1
  Mn  Mn11  1  0.73763400  0.04735400  0.05184800  1
  Fe  Fe12  1  0.44183900  0.86728600  0.10743800  1
  Fe  Fe13  1  0.55816100  0.36728600  0.39256200  1
  Fe  Fe14  1  0.55816100  0.13271400  0.89256200  1
  Fe  Fe15  1  0.44183900  0.63271400  0.60743800  1
  Fe  Fe16  1  0.51592300  0.12342700  0.56843100  1
  Fe  Fe17  1  0.48407700  0.62342700  0.93156900  1
  Fe  Fe18  1  0.48407700  0.87657300  0.43156900  1
  Fe  Fe19  1  0.51592300  0.37657300  0.06843100  1
  Fe  Fe20  1  0.73038200  0.84250600  0.70763200  1
  Fe  Fe21  1  0.26961800  0.34250600  0.79236800  1
  Fe  Fe22  1  0.26961800  0.15749400  0.29236800  1
  Fe  Fe23  1  0.73038200  0.65749400  0.20763200  1
  Fe  Fe24  1  0.72897500  0.36031100  0.70505000  1
  Fe  Fe25  1  0.27102500  0.86031100  0.79495000  1
  Fe  Fe26  1  0.27102500  0.63968900  0.29495000  1
  Fe  Fe27  1  0.72897500  0.13968900  0.20505000  1
  Fe  Fe28  1  0.75701800  0.40938000  0.88619800  1
  Fe  Fe29  1  0.24298200  0.90938000  0.61380200  1
  Fe  Fe30  1  0.24298200  0.59062000  0.11380200  1
  Fe  Fe31  1  0.75701800  0.09062000  0.38619800  1
  Fe  Fe32  1  0.98449700  0.11514700  0.87095800  1
  Fe  Fe33  1  0.01550300  0.61514700  0.62904200  1
  Fe  Fe34  1  0.01550300  0.88485300  0.12904200  1
  Fe  Fe35  1  0.98449700  0.38485300  0.37095800  1
  Fe  Fe36  1  0.97268500  0.10921000  0.66256500  1
  Fe  Fe37  1  0.02731500  0.60921000  0.83743500  1
  Fe  Fe38  1  0.02731500  0.89079000  0.33743500  1
  Fe  Fe39  1  0.97268500  0.39079000  0.16256500  1
  Fe  Fe40  1  0.23604500  0.33782100  0.61238500  1
  Fe  Fe41  1  0.76395500  0.83782100  0.88761500  1
  Fe  Fe42  1  0.76395500  0.66217900  0.38761500  1
  Fe  Fe43  1  0.23604500  0.16217900  0.11238500  1
  N  N44  1  0.52649000  0.38594000  0.61299500  1
  N  N45  1  0.47351000  0.88594000  0.88700500  1
  N  N46  1  0.47351000  0.61406000  0.38700500  1
  N  N47  1  0.52649000  0.11406000  0.11299500  1
  N  N48  1  0.56363000  0.30877500  0.79707300  1
  N  N49  1  0.43637000  0.80877500  0.70292700  1
  N  N50  1  0.43637000  0.69122500  0.20292700  1
  N  N51  1  0.56363000  0.19122500  0.29707300  1
  N  N52  1  0.81062700  0.06300600  0.94496000  1
  N  N53  1  0.18937300  0.56300600  0.55504000  1
  N  N54  1  0.18937300  0.93699400  0.05504000  1
  N  N55  1  0.81062700  0.43699400  0.44496000  1
  N  N56  1  0.46755800  0.84950400  0.54589000  1
  N  N57  1  0.53244200  0.34950400  0.95411000  1
  N  N58  1  0.53244200  0.15049600  0.45411000  1
  N  N59  1  0.46755800  0.65049600  0.04589000  1
  N  N60  1  0.69080800  0.09487100  0.67162200  1
  N  N61  1  0.30919200  0.59487100  0.82837800  1
  N  N62  1  0.30919200  0.90512900  0.32837800  1
  N  N63  1  0.69080800  0.40512900  0.17162200  1
  N  N64  1  0.94456100  0.36242700  0.62992600  1
  N  N65  1  0.05543900  0.86242700  0.87007400  1
  N  N66  1  0.05543900  0.63757300  0.37007300  1
  N  N67  1  0.94456100  0.13757300  0.12992700  1
  N  N68  1  0.04126100  0.36156500  0.86973300  1
  N  N69  1  0.95873900  0.86156500  0.63026700  1
  N  N70  1  0.95873900  0.63843500  0.13026700  1
  N  N71  1  0.04126100  0.13843500  0.36973300  1
  N  N72  1  0.21262000  0.12204100  0.55408200  1
  N  N73  1  0.78738000  0.62204100  0.94591800  1
  N  N74  1  0.78738000  0.87795900  0.44591800  1
  N  N75  1  0.21262000  0.37795900  0.05408200  1
  N  N76  1  0.17733300  0.10711900  0.75118900  1
  N  N77  1  0.82266700  0.60711900  0.74881100  1
  N  N78  1  0.82266700  0.89288100  0.24881100  1
  N  N79  1  0.17733300  0.39288100  0.25118900  1
