# generated using pymatgen
data_Al(NiO2)3
_symmetry_space_group_name_H-M   'P 1'
_cell_length_a   17.44794660
_cell_length_b   5.75787893
_cell_length_c   5.75787926
_cell_angle_alpha   59.96879094
_cell_angle_beta   60.32304060
_cell_angle_gamma   60.32304807
_symmetry_Int_Tables_number   1
_chemical_formula_structural   Al(NiO2)3
_chemical_formula_sum   'Al4 Ni12 O24'
_cell_volume   410.91717477
_cell_formula_units_Z   4
loop_
 _symmetry_equiv_pos_site_id
 _symmetry_equiv_pos_as_xyz
  1  'x, y, z'
loop_
 _atom_site_type_symbol
 _atom_site_label
 _atom_site_symmetry_multiplicity
 _atom_site_fract_x
 _atom_site_fract_y
 _atom_site_fract_z
 _atom_site_occupancy
  Al  Al0  1  0.20319200  0.63002500  0.63002500  1
  Al  Al1  1  0.88571300  0.61429800  0.61429800  1
  Al  Al2  1  0.46347500  0.36997500  0.36997500  1
  Al  Al3  1  0.78095400  0.38570200  0.38570200  1
  Ni  Ni4  1  0.99759600  0.49678800  0.00548100  1
  Ni  Ni5  1  0.33333300  0.50000000  0.00000000  1
  Ni  Ni6  1  0.66907100  0.50321200  0.99451900  1
  Ni  Ni7  1  0.99768000  0.00506000  0.00506000  1
  Ni  Ni8  1  0.33333300  0.00000000  0.00000000  1
  Ni  Ni9  1  0.66898700  0.99494000  0.99494000  1
  Ni  Ni10  1  0.16269200  0.00412400  0.00412400  1
  Ni  Ni11  1  0.50397500  0.99587600  0.99587600  1
  Ni  Ni12  1  0.83333300  0.00000000  0.00000000  1
  Ni  Ni13  1  0.99759600  0.00548100  0.49678800  1
  Ni  Ni14  1  0.33333300  0.00000000  0.50000000  1
  Ni  Ni15  1  0.66907100  0.99451900  0.50321200  1
  O  O16  1  0.08001800  0.75325700  0.75325700  1
  O  O17  1  0.39243900  0.77435000  0.77435100  1
  O  O18  1  0.76160800  0.73836200  0.73836200  1
  O  O19  1  0.07143100  0.24007200  0.80558600  1
  O  O20  1  0.41968500  0.24169700  0.75766800  1
  O  O21  1  0.74219500  0.25128500  0.77059200  1
  O  O22  1  0.07143100  0.80558600  0.24007200  1
  O  O23  1  0.41968500  0.75766800  0.24169800  1
  O  O24  1  0.74219500  0.77059200  0.25128500  1
  O  O25  1  0.07077500  0.24148200  0.24148200  1
  O  O26  1  0.41920800  0.24272100  0.24272100  1
  O  O27  1  0.74203900  0.25171400  0.25171400  1
  O  O28  1  0.24698200  0.75830200  0.24233300  1
  O  O29  1  0.59523500  0.75992700  0.19441400  1
  O  O30  1  0.92447100  0.74871400  0.22940800  1
  O  O31  1  0.27422800  0.22565000  0.22565000  1
  O  O32  1  0.58664900  0.24674200  0.24674300  1
  O  O33  1  0.90505800  0.26163800  0.26163800  1
  O  O34  1  0.24698200  0.24233300  0.75830200  1
  O  O35  1  0.59523500  0.19441400  0.75992800  1
  O  O36  1  0.92447100  0.22940800  0.74871400  1
  O  O37  1  0.24745900  0.75727900  0.75727900  1
  O  O38  1  0.59589200  0.75851800  0.75851800  1
  O  O39  1  0.92462700  0.74828600  0.74828600  1
