# generated using pymatgen
data_Be3Cr2(SiO4)3
_symmetry_space_group_name_H-M   'P 1'
_cell_length_a   7.50964800
_cell_length_b   8.00805200
_cell_length_c   15.92519718
_cell_angle_alpha   59.93898479
_cell_angle_beta   90.00000000
_cell_angle_gamma   90.00000000
_symmetry_Int_Tables_number   1
_chemical_formula_structural   Be3Cr2(SiO4)3
_chemical_formula_sum   'Be12 Cr8 Si12 O48'
_cell_volume   828.88555218
_cell_formula_units_Z   4
loop_
 _symmetry_equiv_pos_site_id
 _symmetry_equiv_pos_as_xyz
  1  'x, y, z'
loop_
 _atom_site_type_symbol
 _atom_site_label
 _atom_site_symmetry_multiplicity
 _atom_site_fract_x
 _atom_site_fract_y
 _atom_site_fract_z
 _atom_site_occupancy
  Be  Be0  1  0.85535200  0.80849100  0.76494300  1
  Be  Be1  1  0.65019400  0.17301600  0.40174100  1
  Be  Be2  1  0.15019400  0.82698400  0.09825900  1
  Be  Be3  1  0.34980600  0.82698400  0.59825900  1
  Be  Be4  1  0.84980600  0.17301600  0.90174100  1
  Be  Be5  1  0.14385900  0.47083200  0.41433200  1
  Be  Be6  1  0.64385900  0.52916800  0.08566800  1
  Be  Be7  1  0.85614100  0.52916800  0.58566800  1
  Be  Be8  1  0.35614100  0.47083200  0.91433200  1
  Be  Be9  1  0.64464800  0.80849100  0.26494300  1
  Be  Be10  1  0.14464800  0.19150900  0.23505700  1
  Be  Be11  1  0.35535200  0.19150900  0.73505700  1
  Cr  Cr12  1  0.44984800  0.16663700  0.08869400  1
  Cr  Cr13  1  0.05015200  0.16663700  0.58869400  1
  Cr  Cr14  1  0.55015200  0.83336300  0.91130600  1
  Cr  Cr15  1  0.94984800  0.83336300  0.41130600  1
  Cr  Cr16  1  0.56155100  0.83108900  0.42381700  1
  Cr  Cr17  1  0.06155100  0.16891100  0.07618300  1
  Cr  Cr18  1  0.43844900  0.16891100  0.57618300  1
  Cr  Cr19  1  0.93844900  0.83108900  0.92381700  1
  Si  Si20  1  0.23527200  0.80319700  0.76684400  1
  Si  Si21  1  0.73527200  0.19680300  0.73315600  1
  Si  Si22  1  0.76472800  0.19680300  0.23315600  1
  Si  Si23  1  0.26472800  0.80319700  0.26684400  1
  Si  Si24  1  0.73700200  0.46785200  0.91924400  1
  Si  Si25  1  0.23700200  0.53214800  0.58075600  1
  Si  Si26  1  0.26299800  0.53214800  0.08075600  1
  Si  Si27  1  0.76299800  0.46785200  0.41924400  1
  Si  Si28  1  0.23819500  0.15955500  0.90127600  1
  Si  Si29  1  0.73819500  0.84044500  0.59872400  1
  Si  Si30  1  0.76180500  0.84044500  0.09872400  1
  Si  Si31  1  0.26180500  0.15955500  0.40127600  1
  O  O32  1  0.11690200  0.71202800  0.03581700  1
  O  O33  1  0.04462500  0.78058000  0.82343800  1
  O  O34  1  0.54462500  0.21942000  0.67656200  1
  O  O35  1  0.95537500  0.21942000  0.17656200  1
  O  O36  1  0.45537500  0.78058000  0.32343800  1
  O  O37  1  0.54389200  0.35561300  0.95909300  1
  O  O38  1  0.04389200  0.64438700  0.54090700  1
  O  O39  1  0.45610800  0.64438700  0.04090700  1
  O  O40  1  0.95610800  0.35561300  0.45909300  1
  O  O41  1  0.03883300  0.08592900  0.88835800  1
  O  O42  1  0.53883300  0.91407100  0.61164200  1
  O  O43  1  0.96116700  0.91407100  0.11164200  1
  O  O44  1  0.11997400  0.06460900  0.35591100  1
  O  O45  1  0.61997400  0.93539100  0.14408900  1
  O  O46  1  0.88002600  0.93539100  0.64408900  1
  O  O47  1  0.38002600  0.06460900  0.85591100  1
  O  O48  1  0.61690200  0.28797200  0.46418300  1
  O  O49  1  0.46116700  0.08592900  0.38835800  1
  O  O50  1  0.38309800  0.71202800  0.53581700  1
  O  O51  1  0.88309800  0.28797200  0.96418300  1
  O  O52  1  0.75938700  0.94446600  0.47533100  1
  O  O53  1  0.61402500  0.29010000  0.14466600  1
  O  O54  1  0.88597500  0.29010000  0.64466600  1
  O  O55  1  0.38597500  0.70990000  0.85533400  1
  O  O56  1  0.73720800  0.26983900  0.80913100  1
  O  O57  1  0.23720800  0.73016100  0.69086900  1
  O  O58  1  0.26279200  0.73016100  0.19086900  1
  O  O59  1  0.76279200  0.26983900  0.30913100  1
  O  O60  1  0.74777800  0.62130400  0.80706700  1
  O  O61  1  0.24777800  0.37869600  0.69293300  1
  O  O62  1  0.25222200  0.37869600  0.19293300  1
  O  O63  1  0.75222200  0.62130400  0.30706700  1
  O  O64  1  0.24835500  0.38331400  0.86464900  1
  O  O65  1  0.74835500  0.61668600  0.63535100  1
  O  O66  1  0.75164500  0.61668600  0.13535100  1
  O  O67  1  0.25164500  0.38331400  0.36464900  1
  O  O68  1  0.75578600  0.95132100  0.80559000  1
  O  O69  1  0.25578600  0.04867900  0.69441000  1
  O  O70  1  0.24421400  0.04867900  0.19441000  1
  O  O71  1  0.74421400  0.95132100  0.30559000  1
  O  O72  1  0.75010700  0.60837300  0.97221600  1
  O  O73  1  0.25010700  0.39162700  0.52778400  1
  O  O74  1  0.24989300  0.39162700  0.02778400  1
  O  O75  1  0.74989300  0.60837300  0.47221600  1
  O  O76  1  0.74061300  0.94446600  0.97533100  1
  O  O77  1  0.24061300  0.05553400  0.52466900  1
  O  O78  1  0.25938700  0.05553400  0.02466900  1
  O  O79  1  0.11402500  0.70990000  0.35533400  1
