# generated using pymatgen
data_ZnCu(SiO3)2
_symmetry_space_group_name_H-M   'P 1'
_cell_length_a   5.27559400
_cell_length_b   9.14321100
_cell_length_c   18.48020900
_cell_angle_alpha   90.00000000
_cell_angle_beta   90.00000000
_cell_angle_gamma   90.00000000
_symmetry_Int_Tables_number   1
_chemical_formula_structural   ZnCu(SiO3)2
_chemical_formula_sum   'Zn8 Cu8 Si16 O48'
_cell_volume   891.40894212
_cell_formula_units_Z   8
loop_
 _symmetry_equiv_pos_site_id
 _symmetry_equiv_pos_as_xyz
  1  'x, y, z'
loop_
 _atom_site_type_symbol
 _atom_site_label
 _atom_site_symmetry_multiplicity
 _atom_site_fract_x
 _atom_site_fract_y
 _atom_site_fract_z
 _atom_site_occupancy
  Zn  Zn0  1  0.61648500  0.15058200  0.37634400  1
  Zn  Zn1  1  0.38351500  0.84941800  0.62365600  1
  Zn  Zn2  1  0.61648500  0.65058200  0.12365600  1
  Zn  Zn3  1  0.11648500  0.84941800  0.12365600  1
  Zn  Zn4  1  0.88351500  0.15058200  0.87634400  1
  Zn  Zn5  1  0.38351500  0.34941800  0.87634400  1
  Zn  Zn6  1  0.11648500  0.34941800  0.37634400  1
  Zn  Zn7  1  0.88351500  0.65058200  0.62365600  1
  Cu  Cu8  1  0.38000600  0.99108700  0.87585500  1
  Cu  Cu9  1  0.61999400  0.00891300  0.12414500  1
  Cu  Cu10  1  0.88000600  0.00891300  0.62414500  1
  Cu  Cu11  1  0.11999400  0.99108700  0.37585500  1
  Cu  Cu12  1  0.38000600  0.49108700  0.62414500  1
  Cu  Cu13  1  0.61999400  0.50891300  0.37585500  1
  Cu  Cu14  1  0.88000600  0.50891300  0.87585500  1
  Cu  Cu15  1  0.11999400  0.49108700  0.12414500  1
  Si  Si16  1  0.57316700  0.66158500  0.77351800  1
  Si  Si17  1  0.72192200  0.83560300  0.47375800  1
  Si  Si18  1  0.77807800  0.83560300  0.97375800  1
  Si  Si19  1  0.92683300  0.16158500  0.22648200  1
  Si  Si20  1  0.07316700  0.33841500  0.72648200  1
  Si  Si21  1  0.42683300  0.83841500  0.27351800  1
  Si  Si22  1  0.22192200  0.66439700  0.47375800  1
  Si  Si23  1  0.72192200  0.33560300  0.02624200  1
  Si  Si24  1  0.77807800  0.33560300  0.52624200  1
  Si  Si25  1  0.92683300  0.66158500  0.27351800  1
  Si  Si26  1  0.42683300  0.33841500  0.22648200  1
  Si  Si27  1  0.57316700  0.16158500  0.72648200  1
  Si  Si28  1  0.27807800  0.16439700  0.52624200  1
  Si  Si29  1  0.07316700  0.83841500  0.77351800  1
  Si  Si30  1  0.27807800  0.66439700  0.97375800  1
  Si  Si31  1  0.22192200  0.16439700  0.02624200  1
  O  O32  1  0.91448500  0.50223900  0.31334900  1
  O  O33  1  0.31212800  0.01649000  0.06822800  1
  O  O34  1  0.08551500  0.49776100  0.68665100  1
  O  O35  1  0.71388300  0.34241200  0.93720500  1
  O  O36  1  0.21388300  0.15758800  0.93720500  1
  O  O37  1  0.92799800  0.20694200  0.05068100  1
  O  O38  1  0.93655100  0.66170300  0.18546700  1
  O  O39  1  0.06344900  0.83829700  0.68546700  1
  O  O40  1  0.71388300  0.84241200  0.56279500  1
  O  O41  1  0.93655100  0.16170300  0.31453300  1
  O  O42  1  0.41448500  0.49776100  0.18665100  1
  O  O43  1  0.78611700  0.34241200  0.43720500  1
  O  O44  1  0.68787200  0.98351000  0.93177200  1
  O  O45  1  0.43655100  0.83829700  0.18546700  1
  O  O46  1  0.58551500  0.00223900  0.68665100  1
  O  O47  1  0.31212800  0.51649000  0.43177200  1
  O  O48  1  0.41448500  0.99776100  0.31334900  1
  O  O49  1  0.16190100  0.76270500  0.30383400  1
  O  O50  1  0.33809900  0.76270500  0.80383400  1
  O  O51  1  0.57200200  0.70694200  0.94931900  1
  O  O52  1  0.78611700  0.84241200  0.06279500  1
  O  O53  1  0.56344900  0.66170300  0.68546700  1
  O  O54  1  0.81212800  0.48351000  0.06822800  1
  O  O55  1  0.16190100  0.26270500  0.19616600  1
  O  O56  1  0.28611700  0.15758800  0.43720500  1
  O  O57  1  0.56344900  0.16170300  0.81453300  1
  O  O58  1  0.68787200  0.48351000  0.56822800  1
  O  O59  1  0.21388300  0.65758800  0.56279500  1
  O  O60  1  0.18787200  0.51649000  0.93177200  1
  O  O61  1  0.66190100  0.73729500  0.30383400  1
  O  O62  1  0.08551500  0.99776100  0.81334900  1
  O  O63  1  0.83809900  0.73729500  0.80383400  1
  O  O64  1  0.83809900  0.23729500  0.69616600  1
  O  O65  1  0.81212800  0.98351000  0.43177200  1
  O  O66  1  0.28611700  0.65758800  0.06279500  1
  O  O67  1  0.18787200  0.01649000  0.56822800  1
  O  O68  1  0.33809900  0.26270500  0.69616600  1
  O  O69  1  0.07200200  0.79305800  0.94931900  1
  O  O70  1  0.42799800  0.79305800  0.44931900  1
  O  O71  1  0.66190100  0.23729500  0.19616600  1
  O  O72  1  0.42799800  0.29305800  0.05068100  1
  O  O73  1  0.57200200  0.20694200  0.55068100  1
  O  O74  1  0.07200200  0.29305800  0.55068100  1
  O  O75  1  0.43655100  0.33829700  0.31453300  1
  O  O76  1  0.58551500  0.50223900  0.81334900  1
  O  O77  1  0.92799800  0.70694200  0.44931900  1
  O  O78  1  0.06344900  0.33829700  0.81453300  1
  O  O79  1  0.91448500  0.00223900  0.18665100  1
