# generated using pymatgen
data_NaNi5O6
_symmetry_space_group_name_H-M   'P 1'
_cell_length_a   5.18668659
_cell_length_b   5.18674705
_cell_length_c   9.91314397
_cell_angle_alpha   94.55001394
_cell_angle_beta   94.54833658
_cell_angle_gamma   119.34237754
_symmetry_Int_Tables_number   1
_chemical_formula_structural   NaNi5O6
_chemical_formula_sum   'Na2 Ni10 O12'
_cell_volume   229.58450899
_cell_formula_units_Z   2
loop_
 _symmetry_equiv_pos_site_id
 _symmetry_equiv_pos_as_xyz
  1  'x, y, z'
loop_
 _atom_site_type_symbol
 _atom_site_label
 _atom_site_symmetry_multiplicity
 _atom_site_fract_x
 _atom_site_fract_y
 _atom_site_fract_z
 _atom_site_occupancy
  Na  Na0  1  0.41747100  0.08431800  0.25008100  1
  Na  Na1  1  0.91569100  0.58253900  0.74991900  1
  Ni  Ni2  1  0.50080300  0.49919100  0.49999400  1
  Ni  Ni3  1  0.33218400  0.66782500  0.00000300  1
  Ni  Ni4  1  0.83090900  0.16905700  0.50000500  1
  Ni  Ni5  1  0.74559600  0.75003400  0.25021400  1
  Ni  Ni6  1  0.24998500  0.25442200  0.74977400  1
  Ni  Ni7  1  0.66457900  0.33542100  0.00000900  1
  Ni  Ni8  1  0.17063400  0.82934900  0.49999800  1
  Ni  Ni9  1  0.00308200  0.99691300  0.00000700  1
  Ni  Ni10  1  0.08857500  0.41921300  0.25011300  1
  Ni  Ni11  1  0.58078600  0.91142400  0.74989000  1
  O  O12  1  0.81556500  0.46861700  0.38570200  1
  O  O13  1  0.30125800  0.97987700  0.88600500  1
  O  O14  1  0.02013200  0.69874700  0.11398500  1
  O  O15  1  0.53136400  0.18442600  0.61430700  1
  O  O16  1  0.37740300  0.39940700  0.12277300  1
  O  O17  1  0.87490500  0.90664200  0.61741700  1
  O  O18  1  0.45808100  0.77021600  0.37698200  1
  O  O19  1  0.95626900  0.25901000  0.88310400  1
  O  O20  1  0.74100800  0.04373900  0.11688400  1
  O  O21  1  0.22978800  0.54192400  0.62301200  1
  O  O22  1  0.09332700  0.12508700  0.38259900  1
  O  O23  1  0.60060300  0.62260500  0.87722200  1
