# generated using pymatgen
data_SrCaMn2O6
_symmetry_space_group_name_H-M   'P 1'
_cell_length_a   3.82952769
_cell_length_b   5.40709326
_cell_length_c   10.88132878
_cell_angle_alpha   89.99514468
_cell_angle_beta   89.99986485
_cell_angle_gamma   90.00021600
_symmetry_Int_Tables_number   1
_chemical_formula_structural   SrCaMn2O6
_chemical_formula_sum   'Sr2 Ca2 Mn4 O12'
_cell_volume   225.31546715
_cell_formula_units_Z   2
loop_
 _symmetry_equiv_pos_site_id
 _symmetry_equiv_pos_as_xyz
  1  'x, y, z'
loop_
 _atom_site_type_symbol
 _atom_site_label
 _atom_site_symmetry_multiplicity
 _atom_site_fract_x
 _atom_site_fract_y
 _atom_site_fract_z
 _atom_site_occupancy
  Sr  Sr0  1  0.49999900  0.99990800  0.25138600  1
  Sr  Sr1  1  0.49999900  0.99992700  0.75139800  1
  Ca  Ca2  1  0.50000200  0.50005300  0.01177100  1
  Ca  Ca3  1  0.49999700  0.50005100  0.51175600  1
  Mn  Mn4  1  0.99999400  0.00002000  0.50288600  1
  Mn  Mn5  1  0.00000300  0.49992300  0.75603300  1
  Mn  Mn6  1  0.00001500  0.00001400  0.00286500  1
  Mn  Mn7  1  0.99999900  0.49991400  0.25593100  1
  O  O8  1  0.50000300  0.49999900  0.24073500  1
  O  O9  1  0.49999900  0.50000900  0.74073100  1
  O  O10  1  0.50000800  0.00006700  0.99866800  1
  O  O11  1  0.50000200  0.00005800  0.49869100  1
  O  O12  1  0.99999800  0.25153700  0.37398800  1
  O  O13  1  0.99999900  0.25164100  0.87395700  1
  O  O14  1  0.99999800  0.74449900  0.12034400  1
  O  O15  1  0.99999300  0.74458500  0.62031600  1
  O  O16  1  0.99999800  0.25650300  0.11985600  1
  O  O17  1  0.99999900  0.25641500  0.61981300  1
  O  O18  1  0.99999500  0.74746500  0.37445500  1
  O  O19  1  0.99999900  0.74741300  0.87442100  1
