# generated using pymatgen
data_Sr2VMoO6
_symmetry_space_group_name_H-M   'P 1'
_cell_length_a   5.65398056
_cell_length_b   6.94419949
_cell_length_c   6.94449395
_cell_angle_alpha   71.04487880
_cell_angle_beta   89.93352437
_cell_angle_gamma   89.93720361
_symmetry_Int_Tables_number   1
_chemical_formula_structural   Sr2VMoO6
_chemical_formula_sum   'Sr4 V2 Mo2 O12'
_cell_volume   257.87172997
_cell_formula_units_Z   2
loop_
 _symmetry_equiv_pos_site_id
 _symmetry_equiv_pos_as_xyz
  1  'x, y, z'
loop_
 _atom_site_type_symbol
 _atom_site_label
 _atom_site_symmetry_multiplicity
 _atom_site_fract_x
 _atom_site_fract_y
 _atom_site_fract_z
 _atom_site_occupancy
  Sr  Sr0  1  0.49666600  0.75017500  0.25166900  1
  Sr  Sr1  1  0.49674500  0.25167600  0.75019900  1
  Sr  Sr2  1  0.00157000  0.00135800  0.49522500  1
  Sr  Sr3  1  0.00155700  0.49522300  0.00137600  1
  V  V4  1  0.99737700  0.49850100  0.49850600  1
  V  V5  1  0.99940600  0.99958600  0.99960400  1
  Mo  Mo6  1  0.50058300  0.25005300  0.25006500  1
  Mo  Mo7  1  0.50033800  0.75044200  0.75044200  1
  O  O8  1  0.00256000  0.74156300  0.26136600  1
  O  O9  1  0.00250300  0.26137200  0.74156200  1
  O  O10  1  0.49873700  0.99509900  0.50402800  1
  O  O11  1  0.49884800  0.50407700  0.99515900  1
  O  O12  1  0.25170600  0.12661900  0.12640200  1
  O  O13  1  0.25577200  0.62667400  0.62660000  1
  O  O14  1  0.75468200  0.37664300  0.37673700  1
  O  O15  1  0.74089800  0.87093900  0.87106900  1
  O  O16  1  0.24916800  0.37811100  0.37809700  1
  O  O17  1  0.24557100  0.87512700  0.87508200  1
  O  O18  1  0.75298000  0.12317400  0.12325400  1
  O  O19  1  0.75233600  0.62358800  0.62356000  1
