# generated using pymatgen
data_CaSi2NiO6
_symmetry_space_group_name_H-M   'P 1'
_cell_length_a   5.45559100
_cell_length_b   9.71675200
_cell_length_c   18.95129100
_cell_angle_alpha   90.00000000
_cell_angle_beta   90.00000000
_cell_angle_gamma   90.00000000
_symmetry_Int_Tables_number   1
_chemical_formula_structural   CaSi2NiO6
_chemical_formula_sum   'Ca8 Si16 Ni8 O48'
_cell_volume   1004.61977593
_cell_formula_units_Z   8
loop_
 _symmetry_equiv_pos_site_id
 _symmetry_equiv_pos_as_xyz
  1  'x, y, z'
loop_
 _atom_site_type_symbol
 _atom_site_label
 _atom_site_symmetry_multiplicity
 _atom_site_fract_x
 _atom_site_fract_y
 _atom_site_fract_z
 _atom_site_occupancy
  Ca  Ca0  1  0.61155400  0.14382300  0.37907500  1
  Ca  Ca1  1  0.38844600  0.85617700  0.62092500  1
  Ca  Ca2  1  0.61155400  0.64382300  0.12092500  1
  Ca  Ca3  1  0.11155400  0.85617700  0.12092500  1
  Ca  Ca4  1  0.88844600  0.14382300  0.87907500  1
  Ca  Ca5  1  0.38844600  0.35617700  0.87907500  1
  Ca  Ca6  1  0.11155400  0.35617700  0.37907500  1
  Ca  Ca7  1  0.88844600  0.64382300  0.62092500  1
  Si  Si8  1  0.56328200  0.66430400  0.77452800  1
  Si  Si9  1  0.75696800  0.83324100  0.47465700  1
  Si  Si10  1  0.74303200  0.83324100  0.97465700  1
  Si  Si11  1  0.93671800  0.16430400  0.22547200  1
  Si  Si12  1  0.06328200  0.33569600  0.72547200  1
  Si  Si13  1  0.43671800  0.83569600  0.27452800  1
  Si  Si14  1  0.25696800  0.66675900  0.47465700  1
  Si  Si15  1  0.75696800  0.33324100  0.02534300  1
  Si  Si16  1  0.74303200  0.33324100  0.52534300  1
  Si  Si17  1  0.93671800  0.66430400  0.27452800  1
  Si  Si18  1  0.43671800  0.33569600  0.22547200  1
  Si  Si19  1  0.56328200  0.16430400  0.72547200  1
  Si  Si20  1  0.24303200  0.16675900  0.52534300  1
  Si  Si21  1  0.06328200  0.83569600  0.77452800  1
  Si  Si22  1  0.24303200  0.66675900  0.97465700  1
  Si  Si23  1  0.25696800  0.16675900  0.02534300  1
  Ni  Ni24  1  0.38398000  0.00043400  0.87181700  1
  Ni  Ni25  1  0.61602000  0.99956600  0.12818300  1
  Ni  Ni26  1  0.88398000  0.99956600  0.62818300  1
  Ni  Ni27  1  0.11602000  0.00043400  0.37181700  1
  Ni  Ni28  1  0.38398000  0.50043400  0.62818300  1
  Ni  Ni29  1  0.61602000  0.49956600  0.37181700  1
  Ni  Ni30  1  0.88398000  0.49956600  0.87181700  1
  Ni  Ni31  1  0.11602000  0.50043400  0.12818300  1
  O  O32  1  0.91553400  0.51788000  0.31460300  1
  O  O33  1  0.32468900  0.03174000  0.07056300  1
  O  O34  1  0.08446600  0.48212000  0.68539700  1
  O  O35  1  0.75568600  0.35118900  0.93906100  1
  O  O36  1  0.25568600  0.14881100  0.93906100  1
  O  O37  1  0.96730500  0.21303400  0.04466300  1
  O  O38  1  0.95663800  0.65329700  0.18819100  1
  O  O39  1  0.04336200  0.84670300  0.68819100  1
  O  O40  1  0.75568600  0.85118900  0.56093900  1
  O  O41  1  0.95663800  0.15329700  0.31180900  1
  O  O42  1  0.41553400  0.48212000  0.18539700  1
  O  O43  1  0.74431400  0.35118900  0.43906100  1
  O  O44  1  0.67531100  0.96826000  0.92943700  1
  O  O45  1  0.45663800  0.84670300  0.18819100  1
  O  O46  1  0.58446600  0.01788000  0.68539700  1
  O  O47  1  0.32468900  0.53174000  0.42943700  1
  O  O48  1  0.41553400  0.98212000  0.31460300  1
  O  O49  1  0.17698400  0.75718400  0.29978100  1
  O  O50  1  0.32301600  0.75718400  0.79978100  1
  O  O51  1  0.53269500  0.71303400  0.95533700  1
  O  O52  1  0.74431400  0.85118900  0.06093900  1
  O  O53  1  0.54336200  0.65329700  0.68819100  1
  O  O54  1  0.82468900  0.46826000  0.07056300  1
  O  O55  1  0.17698400  0.25718400  0.20021900  1
  O  O56  1  0.24431400  0.14881100  0.43906100  1
  O  O57  1  0.54336200  0.15329700  0.81180900  1
  O  O58  1  0.67531100  0.46826000  0.57056300  1
  O  O59  1  0.25568600  0.64881100  0.56093900  1
  O  O60  1  0.17531100  0.53174000  0.92943700  1
  O  O61  1  0.67698400  0.74281600  0.29978100  1
  O  O62  1  0.08446600  0.98212000  0.81460300  1
  O  O63  1  0.82301600  0.74281600  0.79978100  1
  O  O64  1  0.82301600  0.24281600  0.70021900  1
  O  O65  1  0.82468900  0.96826000  0.42943700  1
  O  O66  1  0.24431400  0.64881100  0.06093900  1
  O  O67  1  0.17531100  0.03174000  0.57056300  1
  O  O68  1  0.32301600  0.25718400  0.70021900  1
  O  O69  1  0.03269500  0.78696600  0.95533700  1
  O  O70  1  0.46730500  0.78696600  0.45533700  1
  O  O71  1  0.67698400  0.24281600  0.20021900  1
  O  O72  1  0.46730500  0.28696600  0.04466300  1
  O  O73  1  0.53269500  0.21303400  0.54466300  1
  O  O74  1  0.03269500  0.28696600  0.54466300  1
  O  O75  1  0.45663800  0.34670300  0.31180900  1
  O  O76  1  0.58446600  0.51788000  0.81460300  1
  O  O77  1  0.96730500  0.71303400  0.45533700  1
  O  O78  1  0.04336200  0.34670300  0.81180900  1
  O  O79  1  0.91553400  0.01788000  0.18539700  1
