# generated using pymatgen
data_Sr2YAlV2O7
_symmetry_space_group_name_H-M   'P 1'
_cell_length_a   11.81042114
_cell_length_b   11.80544684
_cell_length_c   11.80460069
_cell_angle_alpha   40.14510881
_cell_angle_beta   151.35480782
_cell_angle_gamma   152.37454184
_symmetry_Int_Tables_number   1
_chemical_formula_structural   Sr2YAlV2O7
_chemical_formula_sum   'Sr4 Y2 Al2 V4 O14'
_cell_volume   365.21616710
_cell_formula_units_Z   2
loop_
 _symmetry_equiv_pos_site_id
 _symmetry_equiv_pos_as_xyz
  1  'x, y, z'
loop_
 _atom_site_type_symbol
 _atom_site_label
 _atom_site_symmetry_multiplicity
 _atom_site_fract_x
 _atom_site_fract_y
 _atom_site_fract_z
 _atom_site_occupancy
  Sr  Sr0  1  0.03753300  0.85437200  0.86918900  1
  Sr  Sr1  1  0.98251300  0.16837300  0.12846300  1
  Sr  Sr2  1  0.03751300  0.66832700  0.68315100  1
  Sr  Sr3  1  0.98247100  0.35409300  0.31403900  1
  Y  Y4  1  0.01349400  0.51056300  0.50253000  1
  Y  Y5  1  0.01341100  0.01094800  0.00286800  1
  Al  Al6  1  0.56859300  0.74079100  0.32781300  1
  Al  Al7  1  0.41325000  0.24103600  0.67219300  1
  V  V8  1  0.51858900  0.44516900  0.92336000  1
  V  V9  1  0.52078200  0.59887700  0.07895100  1
  V  V10  1  0.51850000  0.09525700  0.57343300  1
  V  V11  1  0.52060700  0.94163300  0.42189500  1
  O  O12  1  0.00918200  0.93517900  0.57398200  1
  O  O13  1  0.35803900  0.43452600  0.42348800  1
  O  O14  1  0.43033500  0.16384000  0.13201800  1
  O  O15  1  0.00626700  0.28726900  0.85201400  1
  O  O16  1  0.43043700  0.79839900  0.76652800  1
  O  O17  1  0.00621900  0.65423000  0.21899200  1
  O  O18  1  0.62556300  0.74495800  0.73470500  1
  O  O19  1  0.03622400  0.90154400  0.28241500  1
  O  O20  1  0.62558900  0.39090000  0.38059100  1
  O  O21  1  0.03620400  0.25382300  0.63460900  1
  O  O22  1  0.47766400  0.85622200  0.26193400  1
  O  O23  1  0.59665500  0.21720400  0.73998300  1
  O  O24  1  0.47775100  0.71585600  0.12142800  1
  O  O25  1  0.59661300  0.35660700  0.87942800  1
