# generated using pymatgen
data_Be3Si3(SnO6)2
_symmetry_space_group_name_H-M   'P 1'
_cell_length_a   8.18828300
_cell_length_b   8.25742028
_cell_length_c   14.25503794
_cell_angle_alpha   89.23031481
_cell_angle_beta   90.00000000
_cell_angle_gamma   90.00000000
_symmetry_Int_Tables_number   1
_chemical_formula_structural   Be3Si3(SnO6)2
_chemical_formula_sum   'Be12 Si12 Sn8 O48'
_cell_volume   963.75451041
_cell_formula_units_Z   4
loop_
 _symmetry_equiv_pos_site_id
 _symmetry_equiv_pos_as_xyz
  1  'x, y, z'
loop_
 _atom_site_type_symbol
 _atom_site_label
 _atom_site_symmetry_multiplicity
 _atom_site_fract_x
 _atom_site_fract_y
 _atom_site_fract_z
 _atom_site_occupancy
  Be  Be0  1  0.86916300  0.92142100  0.75581600  1
  Be  Be1  1  0.65027700  0.92917100  0.40623000  1
  Be  Be2  1  0.15027800  0.57082900  0.09377000  1
  Be  Be3  1  0.34972200  0.07082800  0.59377000  1
  Be  Be4  1  0.84972200  0.42917100  0.90623000  1
  Be  Be5  1  0.09054900  0.63388800  0.37673600  1
  Be  Be6  1  0.59054900  0.86611200  0.12326400  1
  Be  Be7  1  0.90945100  0.36611100  0.62326400  1
  Be  Be8  1  0.40945000  0.13388800  0.87673600  1
  Be  Be9  1  0.63083700  0.42142100  0.25581600  1
  Be  Be10  1  0.13083700  0.07857800  0.24418400  1
  Be  Be11  1  0.36916400  0.57857900  0.74418400  1
  Si  Si12  1  0.23986800  0.92548400  0.75478700  1
  Si  Si13  1  0.73986800  0.57451600  0.74521300  1
  Si  Si14  1  0.76013200  0.07451500  0.24521300  1
  Si  Si15  1  0.26013300  0.42548400  0.25478700  1
  Si  Si16  1  0.77193500  0.09801100  0.91327400  1
  Si  Si17  1  0.27193500  0.40199000  0.58672600  1
  Si  Si18  1  0.22806500  0.90198900  0.08672600  1
  Si  Si19  1  0.72806400  0.59801100  0.41327400  1
  Si  Si20  1  0.22054300  0.43852500  0.89996500  1
  Si  Si21  1  0.72054400  0.06147400  0.60003500  1
  Si  Si22  1  0.77945700  0.56147500  0.10003500  1
  Si  Si23  1  0.27945600  0.93852500  0.39996500  1
  Sn  Sn24  1  0.48391100  0.23152800  0.08040700  1
  Sn  Sn25  1  0.01608900  0.73152900  0.58040700  1
  Sn  Sn26  1  0.51609000  0.76847200  0.91959300  1
  Sn  Sn27  1  0.98391100  0.26847100  0.41959300  1
  Sn  Sn28  1  0.53998700  0.24872500  0.41894600  1
  Sn  Sn29  1  0.03998800  0.25127300  0.08105400  1
  Sn  Sn30  1  0.46001300  0.75127500  0.58105400  1
  Sn  Sn31  1  0.96001200  0.74872700  0.91894600  1
  O  O32  1  0.12673400  0.74532400  0.03539900  1
  O  O33  1  0.06112700  0.88228600  0.80430600  1
  O  O34  1  0.56112700  0.61771400  0.69569400  1
  O  O35  1  0.93887300  0.11771400  0.19569400  1
  O  O36  1  0.43887200  0.38228500  0.30430600  1
  O  O37  1  0.57595300  0.13748200  0.93627600  1
  O  O38  1  0.07595300  0.36251800  0.56372500  1
  O  O39  1  0.42404700  0.86251800  0.06372400  1
  O  O40  1  0.92404600  0.63748200  0.43627500  1
  O  O41  1  0.03402100  0.51155200  0.87327700  1
  O  O42  1  0.53402100  0.98844800  0.62672300  1
  O  O43  1  0.96597900  0.48844900  0.12672300  1
  O  O44  1  0.15527700  0.08153000  0.35947200  1
  O  O45  1  0.65527600  0.41847100  0.14052800  1
  O  O46  1  0.84472400  0.91847000  0.64052800  1
  O  O47  1  0.34472400  0.58153000  0.85947200  1
  O  O48  1  0.62673500  0.75467600  0.46460100  1
  O  O49  1  0.46598000  0.01155200  0.37327700  1
  O  O50  1  0.37326600  0.24532400  0.53539900  1
  O  O51  1  0.87326600  0.25467500  0.96460100  1
  O  O52  1  0.70224100  0.07216200  0.48241000  1
  O  O53  1  0.62801000  0.04138600  0.15973900  1
  O  O54  1  0.87199000  0.54138500  0.65973900  1
  O  O55  1  0.37198900  0.95861400  0.84026100  1
  O  O56  1  0.72816100  0.43305300  0.82241700  1
  O  O57  1  0.22816100  0.06694600  0.67758300  1
  O  O58  1  0.27183900  0.56694700  0.17758300  1
  O  O59  1  0.77183800  0.93305300  0.32241700  1
  O  O60  1  0.79818500  0.07217800  0.80395400  1
  O  O61  1  0.29818500  0.42782300  0.69604600  1
  O  O62  1  0.20181400  0.92782200  0.19604600  1
  O  O63  1  0.70181500  0.57217800  0.30395400  1
  O  O64  1  0.28161600  0.26337100  0.87119900  1
  O  O65  1  0.78161500  0.23662900  0.62880200  1
  O  O66  1  0.71838500  0.73662800  0.12880100  1
  O  O67  1  0.21838500  0.76337200  0.37119800  1
  O  O68  1  0.79641700  0.74442400  0.79986200  1
  O  O69  1  0.29641600  0.75557600  0.70013800  1
  O  O70  1  0.20358300  0.25557500  0.20013800  1
  O  O71  1  0.70358400  0.24442500  0.29986200  1
  O  O72  1  0.83001000  0.93424600  0.97252300  1
  O  O73  1  0.33000900  0.56575400  0.52747700  1
  O  O74  1  0.16999000  0.06575400  0.02747700  1
  O  O75  1  0.66999100  0.43424500  0.47252300  1
  O  O76  1  0.79776000  0.57216100  0.98241000  1
  O  O77  1  0.29776000  0.92783800  0.51759000  1
  O  O78  1  0.20224000  0.42783900  0.01759000  1
  O  O79  1  0.12801000  0.45861400  0.34026100  1
