# generated using pymatgen
data_AlAg(WO4)2
_symmetry_space_group_name_H-M   'P 1'
_cell_length_a   5.12821200
_cell_length_b   5.71866825
_cell_length_c   5.73328016
_cell_angle_alpha   111.39403235
_cell_angle_beta   91.73761374
_cell_angle_gamma   110.34643458
_symmetry_Int_Tables_number   1
_chemical_formula_structural   AlAg(WO4)2
_chemical_formula_sum   'Al1 Ag1 W2 O8'
_cell_volume   144.38600595
_cell_formula_units_Z   1
loop_
 _symmetry_equiv_pos_site_id
 _symmetry_equiv_pos_as_xyz
  1  'x, y, z'
loop_
 _atom_site_type_symbol
 _atom_site_label
 _atom_site_symmetry_multiplicity
 _atom_site_fract_x
 _atom_site_fract_y
 _atom_site_fract_z
 _atom_site_occupancy
  Al  Al0  1  0.00000000  0.00000000  0.50000000  1
  Ag  Ag1  1  0.50000000  0.00000000  0.00000000  1
  W  W2  1  0.25256400  0.49964500  0.18470400  1
  W  W3  1  0.74743600  0.50035500  0.81529600  1
  O  O4  1  0.21280500  0.78854000  0.43948200  1
  O  O5  1  0.22824900  0.25590600  0.32971400  1
  O  O6  1  0.13182400  0.68915400  0.96235000  1
  O  O7  1  0.32816000  0.29526800  0.81339600  1
  O  O8  1  0.77175100  0.74409400  0.67028600  1
  O  O9  1  0.78719500  0.21146000  0.56051800  1
  O  O10  1  0.86817600  0.31084600  0.03765000  1
  O  O11  1  0.67184000  0.70473200  0.18660400  1
