# generated using pymatgen
data_Sr2AlFeCu2O7
_symmetry_space_group_name_H-M   'P 1'
_cell_length_a   5.31518468
_cell_length_b   5.40242765
_cell_length_c   12.20561045
_cell_angle_alpha   102.80009739
_cell_angle_beta   102.57431662
_cell_angle_gamma   89.93888972
_symmetry_Int_Tables_number   1
_chemical_formula_structural   Sr2AlFeCu2O7
_chemical_formula_sum   'Sr4 Al2 Fe2 Cu4 O14'
_cell_volume   333.16555706
_cell_formula_units_Z   2
loop_
 _symmetry_equiv_pos_site_id
 _symmetry_equiv_pos_as_xyz
  1  'x, y, z'
loop_
 _atom_site_type_symbol
 _atom_site_label
 _atom_site_symmetry_multiplicity
 _atom_site_fract_x
 _atom_site_fract_y
 _atom_site_fract_z
 _atom_site_occupancy
  Sr  Sr0  1  0.33813300  0.33597300  0.70247100  1
  Sr  Sr1  1  0.63685100  0.66214300  0.29784700  1
  Sr  Sr2  1  0.83825500  0.86521300  0.70236000  1
  Sr  Sr3  1  0.13622300  0.13351700  0.29788100  1
  Al  Al4  1  0.98173400  0.99793100  0.00017300  1
  Al  Al5  1  0.48321700  0.49667400  0.00019800  1
  Fe  Fe6  1  0.27843900  0.68284800  0.50018100  1
  Fe  Fe7  1  0.77829200  0.31598500  0.50014800  1
  Cu  Cu8  1  0.92217200  0.44150400  0.88318600  1
  Cu  Cu9  1  0.04036900  0.55465600  0.11730700  1
  Cu  Cu10  1  0.42189700  0.93824200  0.88304500  1
  Cu  Cu11  1  0.53982700  0.05684000  0.11735600  1
  O  O12  1  0.14491500  0.34818200  0.50050700  1
  O  O13  1  0.64492700  0.65102500  0.50005200  1
  O  O14  1  0.24904100  0.26665300  0.89321300  1
  O  O15  1  0.35669900  0.72854800  0.10689100  1
  O  O16  1  0.74882600  0.12379000  0.89345800  1
  O  O17  1  0.85672200  0.87269700  0.10721600  1
  O  O18  1  0.60126400  0.61942100  0.89079400  1
  O  O19  1  0.71162300  0.37552500  0.10992400  1
  O  O20  1  0.10047900  0.76753200  0.89030800  1
  O  O21  1  0.21115400  0.22783200  0.10940100  1
  O  O22  1  0.29348300  0.85869400  0.65432500  1
  O  O23  1  0.63937300  0.14092900  0.34602000  1
  O  O24  1  0.79214300  0.29414300  0.65406000  1
  O  O25  1  0.13937100  0.70340100  0.34590300  1
