# generated using pymatgen
data_KMg3AlSi3(O5F)2
_symmetry_space_group_name_H-M   'P 1'
_cell_length_a   14.22984400
_cell_length_b   5.80319452
_cell_length_c   7.20205344
_cell_angle_alpha   89.94772497
_cell_angle_beta   89.97867968
_cell_angle_gamma   65.93213427
_symmetry_Int_Tables_number   1
_chemical_formula_structural   KMg3AlSi3(O5F)2
_chemical_formula_sum   'K2 Mg6 Al2 Si6 O20 F4'
_cell_volume   543.03046082
_cell_formula_units_Z   2
loop_
 _symmetry_equiv_pos_site_id
 _symmetry_equiv_pos_as_xyz
  1  'x, y, z'
loop_
 _atom_site_type_symbol
 _atom_site_label
 _atom_site_symmetry_multiplicity
 _atom_site_fract_x
 _atom_site_fract_y
 _atom_site_fract_z
 _atom_site_occupancy
  K  K0  1  0.00383700  0.47980100  0.05941900  1
  K  K1  1  0.50383700  0.51252600  0.94058100  1
  Mg  Mg2  1  0.97968100  0.17445600  0.63262000  1
  Mg  Mg3  1  0.09734900  0.59983800  0.59685500  1
  Mg  Mg4  1  0.33687400  0.44546400  0.60056500  1
  Mg  Mg5  1  0.47968100  0.86618100  0.36738000  1
  Mg  Mg6  1  0.59734900  0.20546400  0.40314500  1
  Mg  Mg7  1  0.83687400  0.88078800  0.39943500  1
  Al  Al8  1  0.26914500  0.42855800  0.21858100  1
  Al  Al9  1  0.76914500  0.03315100  0.78141900  1
  Si  Si10  1  0.26790300  0.92276300  0.24628700  1
  Si  Si11  1  0.17059700  0.80426100  0.92857400  1
  Si  Si12  1  0.30465100  0.94616400  0.64322800  1
  Si  Si13  1  0.67059700  0.85454700  0.07142600  1
  Si  Si14  1  0.80465100  0.44453400  0.35677200  1
  Si  Si15  1  0.76790300  0.54143200  0.75371300  1
  O  O16  1  0.91360800  0.44550300  0.43076200  1
  O  O17  1  0.33945400  0.08633400  0.21466000  1
  O  O18  1  0.17001100  0.00964300  0.09419200  1
  O  O19  1  0.34013000  0.62455400  0.20403100  1
  O  O20  1  0.30847500  0.18871800  0.73698200  1
  O  O21  1  0.21467600  0.51085100  0.43652800  1
  O  O22  1  0.18277500  0.54532700  0.03253300  1
  O  O23  1  0.27236700  0.75833100  0.79051600  1
  O  O24  1  0.22311900  0.99447500  0.46062300  1
  O  O25  1  0.57289400  0.97322500  0.20948700  1
  O  O26  1  0.41360800  0.72728200  0.56923800  1
  O  O27  1  0.80847500  0.19433200  0.26301800  1
  O  O28  1  0.68277500  0.08912200  0.96746700  1
  O  O29  1  0.77236700  0.69693500  0.20948400  1
  O  O30  1  0.83945400  0.23475700  0.78534000  1
  O  O31  1  0.72311900  0.55928600  0.53937700  1
  O  O32  1  0.67001100  0.65033600  0.90580800  1
  O  O33  1  0.84013000  0.69518800  0.79596900  1
  O  O34  1  0.71467600  0.05979800  0.56347200  1
  O  O35  1  0.07289400  0.88098800  0.79051300  1
  F  F36  1  0.05901500  0.35965700  0.71489900  1
  F  F37  1  0.97344000  0.86984100  0.48535900  1
  F  F38  1  0.47344000  0.18327900  0.51464100  1
  F  F39  1  0.55901500  0.52231200  0.28510100  1
