# generated using pymatgen
data_LaMnO3
_symmetry_space_group_name_H-M   'P 1'
_cell_length_a   3.93932500
_cell_length_b   8.82393316
_cell_length_c   7.90347300
_cell_angle_alpha   63.39073160
_cell_angle_beta   90.00055181
_cell_angle_gamma   89.99925949
_symmetry_Int_Tables_number   1
_chemical_formula_structural   LaMnO3
_chemical_formula_sum   'La4 Mn4 O12'
_cell_volume   245.62877790
_cell_formula_units_Z   4
loop_
 _symmetry_equiv_pos_site_id
 _symmetry_equiv_pos_as_xyz
  1  'x, y, z'
loop_
 _atom_site_type_symbol
 _atom_site_label
 _atom_site_symmetry_multiplicity
 _atom_site_fract_x
 _atom_site_fract_y
 _atom_site_fract_z
 _atom_site_occupancy
  La  La0  1  0.00007700  0.49966700  0.75310400  1
  La  La1  1  0.99999200  0.00180100  0.49888800  1
  La  La2  1  0.99993000  0.50019900  0.24665900  1
  La  La3  1  0.99999100  0.00182000  0.99963400  1
  Mn  Mn4  1  0.50028600  0.24962800  0.12525700  1
  Mn  Mn5  1  0.50005400  0.74996200  0.87497500  1
  Mn  Mn6  1  0.49985900  0.74854600  0.37581600  1
  Mn  Mn7  1  0.49991200  0.25193600  0.62386700  1
  O  O8  1  0.99983600  0.74981900  0.37498500  1
  O  O9  1  0.00021000  0.25190800  0.12407100  1
  O  O10  1  0.99994500  0.74590300  0.87703300  1
  O  O11  1  0.99998500  0.25110600  0.62462000  1
  O  O12  1  0.49990000  0.49530500  0.50242300  1
  O  O13  1  0.50005000  0.00362700  0.24794800  1
  O  O14  1  0.50006600  0.49391800  0.00326200  1
  O  O15  1  0.49986900  0.00724900  0.74626300  1
  O  O16  1  0.49991300  0.74837500  0.63654300  1
  O  O17  1  0.50010800  0.25030500  0.36390000  1
  O  O18  1  0.49999000  0.74820600  0.11509100  1
  O  O19  1  0.50002900  0.25072100  0.88566100  1
