# generated using pymatgen
data_Zr2Al
_symmetry_space_group_name_H-M   'P 1'
_cell_length_a   5.54994401
_cell_length_b   5.54994401
_cell_length_c   5.54994401
_cell_angle_alpha   103.58320929
_cell_angle_beta   103.58320929
_cell_angle_gamma   122.02474468
_symmetry_Int_Tables_number   1
_chemical_formula_structural   Zr2Al
_chemical_formula_sum   'Zr4 Al2'
_cell_volume   126.77693828
_cell_formula_units_Z   2
loop_
 _symmetry_equiv_pos_site_id
 _symmetry_equiv_pos_as_xyz
  1  'x, y, z'
loop_
 _atom_site_type_symbol
 _atom_site_label
 _atom_site_symmetry_multiplicity
 _atom_site_fract_x
 _atom_site_fract_y
 _atom_site_fract_z
 _atom_site_occupancy
  Zr  Zr0  1  0.15175000  0.34825000  0.50000000  1
  Zr  Zr1  1  0.34825000  0.84825000  0.19649900  1
  Zr  Zr2  1  0.84825000  0.65175000  0.50000000  1
  Zr  Zr3  1  0.65175000  0.15175000  0.80350100  1
  Al  Al4  1  0.25000000  0.25000000  0.00000000  1
  Al  Al5  1  0.75000000  0.75000000  0.00000000  1
