# generated using pymatgen
data_AlBi3F15
_symmetry_space_group_name_H-M   'P 1'
_cell_length_a   11.02334900
_cell_length_b   5.74645900
_cell_length_c   11.01282429
_cell_angle_alpha   75.43237633
_cell_angle_beta   90.00000000
_cell_angle_gamma   90.00000000
_symmetry_Int_Tables_number   1
_chemical_formula_structural   AlBi3F15
_chemical_formula_sum   'Al2 Bi6 F30'
_cell_volume   675.18267008
_cell_formula_units_Z   2
loop_
 _symmetry_equiv_pos_site_id
 _symmetry_equiv_pos_as_xyz
  1  'x, y, z'
loop_
 _atom_site_type_symbol
 _atom_site_label
 _atom_site_symmetry_multiplicity
 _atom_site_fract_x
 _atom_site_fract_y
 _atom_site_fract_z
 _atom_site_occupancy
  Al  Al0  1  0.25000000  0.74291200  0.74655300  1
  Al  Al1  1  0.75000000  0.25708800  0.25344700  1
  Bi  Bi2  1  0.50000000  0.00000000  0.00000000  1
  Bi  Bi3  1  0.44632400  0.61905800  0.33609900  1
  Bi  Bi4  1  0.55367600  0.38094200  0.66390100  1
  Bi  Bi5  1  0.00000000  0.00000000  0.00000000  1
  Bi  Bi6  1  0.05367600  0.61905800  0.33609900  1
  Bi  Bi7  1  0.94632400  0.38094200  0.66390100  1
  F  F8  1  0.25000000  0.71875000  0.90256400  1
  F  F9  1  0.25000000  0.52580900  0.31837400  1
  F  F10  1  0.25000000  0.00823900  0.64212100  1
  F  F11  1  0.75000000  0.28125000  0.09743600  1
  F  F12  1  0.75000000  0.99176100  0.35787900  1
  F  F13  1  0.75000000  0.47419100  0.68162600  1
  F  F14  1  0.61555700  0.25866800  0.89233500  1
  F  F15  1  0.57982000  0.92224400  0.17879100  1
  F  F16  1  0.59182500  0.63137600  0.47872700  1
  F  F17  1  0.38444300  0.74133200  0.10766500  1
  F  F18  1  0.40817500  0.36862400  0.52127300  1
  F  F19  1  0.42018000  0.07775600  0.82120900  1
  F  F20  1  0.90124400  0.74183200  0.95195900  1
  F  F21  1  0.88114500  0.40590900  0.28101300  1
  F  F22  1  0.88965900  0.06731800  0.62448000  1
  F  F23  1  0.09875600  0.25816800  0.04804100  1
  F  F24  1  0.11034100  0.93268200  0.37552000  1
  F  F25  1  0.11885500  0.59409100  0.71898700  1
  F  F26  1  0.40124400  0.25816800  0.04804100  1
  F  F27  1  0.38965900  0.93268200  0.37552000  1
  F  F28  1  0.38114500  0.59409100  0.71898700  1
  F  F29  1  0.59875600  0.74183200  0.95195900  1
  F  F30  1  0.61885500  0.40590900  0.28101300  1
  F  F31  1  0.61034100  0.06731800  0.62448000  1
  F  F32  1  0.88444300  0.25866800  0.89233500  1
  F  F33  1  0.92018000  0.92224400  0.17879100  1
  F  F34  1  0.90817500  0.63137600  0.47872700  1
  F  F35  1  0.11555700  0.74133200  0.10766500  1
  F  F36  1  0.09182500  0.36862400  0.52127300  1
  F  F37  1  0.07982000  0.07775600  0.82120900  1
