# generated using pymatgen
data_Zn3Cu2(Si2O7)2
_symmetry_space_group_name_H-M   'P 1'
_cell_length_a   9.53205853
_cell_length_b   9.53205853
_cell_length_c   9.97651517
_cell_angle_alpha   58.79366050
_cell_angle_beta   58.79366050
_cell_angle_gamma   47.50249519
_symmetry_Int_Tables_number   1
_chemical_formula_structural   Zn3Cu2(Si2O7)2
_chemical_formula_sum   'Zn6 Cu4 Si8 O28'
_cell_volume   550.95660112
_cell_formula_units_Z   2
loop_
 _symmetry_equiv_pos_site_id
 _symmetry_equiv_pos_as_xyz
  1  'x, y, z'
loop_
 _atom_site_type_symbol
 _atom_site_label
 _atom_site_symmetry_multiplicity
 _atom_site_fract_x
 _atom_site_fract_y
 _atom_site_fract_z
 _atom_site_occupancy
  Zn  Zn0  1  0.23560100  0.06130900  0.56977400  1
  Zn  Zn1  1  0.93869100  0.76439900  0.93022600  1
  Zn  Zn2  1  0.06130900  0.23560100  0.06977400  1
  Zn  Zn3  1  0.61236700  0.38763300  0.25000000  1
  Zn  Zn4  1  0.76439900  0.93869100  0.43022600  1
  Zn  Zn5  1  0.38763300  0.61236700  0.75000000  1
  Cu  Cu6  1  0.22555700  0.77444300  0.25000000  1
  Cu  Cu7  1  0.77444300  0.22555700  0.75000000  1
  Cu  Cu8  1  0.00000000  0.00000000  0.00000000  1
  Cu  Cu9  1  0.00000000  0.00000000  0.50000000  1
  Si  Si10  1  0.06057400  0.57079800  0.67405900  1
  Si  Si11  1  0.57079800  0.06057400  0.17405900  1
  Si  Si12  1  0.25910300  0.50412900  0.13092000  1
  Si  Si13  1  0.50412900  0.25910300  0.63092000  1
  Si  Si14  1  0.42920200  0.93942600  0.82594100  1
  Si  Si15  1  0.74089700  0.49587100  0.86908000  1
  Si  Si16  1  0.49587100  0.74089700  0.36908000  1
  Si  Si17  1  0.93942600  0.42920200  0.32594100  1
  O  O18  1  0.33213800  0.80629100  0.53855900  1
  O  O19  1  0.88394500  0.99463900  0.71621000  1
  O  O20  1  0.63915900  0.45667200  0.81164500  1
  O  O21  1  0.99463900  0.88394500  0.21621000  1
  O  O22  1  0.02913800  0.20803600  0.45893900  1
  O  O23  1  0.50414200  0.07248400  0.78723200  1
  O  O24  1  0.45667200  0.63915900  0.31164500  1
  O  O25  1  0.79196400  0.97086200  0.04106100  1
  O  O26  1  0.49585800  0.92751600  0.21276800  1
  O  O27  1  0.71061000  0.58559200  0.41072900  1
  O  O28  1  0.11605500  0.00536100  0.28379000  1
  O  O29  1  0.97086200  0.79196400  0.54106100  1
  O  O30  1  0.92751600  0.49585800  0.71276800  1
  O  O31  1  0.80629100  0.33213800  0.03855900  1
  O  O32  1  0.58559200  0.71061000  0.91072900  1
  O  O33  1  0.20803600  0.02913800  0.95893900  1
  O  O34  1  0.43610000  0.94068600  0.66172400  1
  O  O35  1  0.28939000  0.41440800  0.58927100  1
  O  O36  1  0.05931400  0.56390000  0.83827600  1
  O  O37  1  0.41440800  0.28939000  0.08927100  1
  O  O38  1  0.07248400  0.50414200  0.28723200  1
  O  O39  1  0.00536100  0.11605500  0.78379000  1
  O  O40  1  0.94068600  0.43610000  0.16172400  1
  O  O41  1  0.36084100  0.54332800  0.18835500  1
  O  O42  1  0.56390000  0.05931400  0.33827600  1
  O  O43  1  0.54332800  0.36084100  0.68835500  1
  O  O44  1  0.19370900  0.66786200  0.96144100  1
  O  O45  1  0.66786200  0.19370900  0.46144100  1
