# generated using pymatgen
data_NaMnO2
_symmetry_space_group_name_H-M   'P 1'
_cell_length_a   3.21567372
_cell_length_b   11.39199568
_cell_length_c   5.21514984
_cell_angle_alpha   75.86862010
_cell_angle_beta   83.70143624
_cell_angle_gamma   80.40511739
_symmetry_Int_Tables_number   1
_chemical_formula_structural   NaMnO2
_chemical_formula_sum   'Na4 Mn4 O8'
_cell_volume   182.19677720
_cell_formula_units_Z   4
loop_
 _symmetry_equiv_pos_site_id
 _symmetry_equiv_pos_as_xyz
  1  'x, y, z'
loop_
 _atom_site_type_symbol
 _atom_site_label
 _atom_site_symmetry_multiplicity
 _atom_site_fract_x
 _atom_site_fract_y
 _atom_site_fract_z
 _atom_site_occupancy
  Na  Na0  1  0.92238700  0.25002000  0.22628800  1
  Na  Na1  1  0.42487900  0.25002100  0.72651600  1
  Na  Na2  1  0.07636700  0.75014500  0.77365100  1
  Na  Na3  1  0.57625000  0.74986900  0.27373600  1
  Mn  Mn4  1  0.24955000  0.50014500  0.25058200  1
  Mn  Mn5  1  0.50058000  0.99990200  0.49933800  1
  Mn  Mn6  1  0.74961100  0.50013800  0.75071600  1
  Mn  Mn7  1  0.00059600  0.99988400  0.99930700  1
  O  O8  1  0.36342000  0.39833700  0.98991700  1
  O  O9  1  0.86421400  0.39819400  0.49025100  1
  O  O10  1  0.63442300  0.60192500  0.01107500  1
  O  O11  1  0.13620700  0.60169900  0.51130400  1
  O  O12  1  0.48892100  0.89830200  0.86160000  1
  O  O13  1  0.98772400  0.89803000  0.36144900  1
  O  O14  1  0.51201000  0.10165600  0.13713200  1
  O  O15  1  0.01285800  0.10173400  0.63713800  1
