# generated using pymatgen
data_La2TiCrO6
_symmetry_space_group_name_H-M   'P 1'
_cell_length_a   5.60586935
_cell_length_b   7.86503905
_cell_length_c   5.72306981
_cell_angle_alpha   89.73129183
_cell_angle_beta   90.81447403
_cell_angle_gamma   91.04678792
_symmetry_Int_Tables_number   1
_chemical_formula_structural   La2TiCrO6
_chemical_formula_sum   'La4 Ti2 Cr2 O12'
_cell_volume   252.26225165
_cell_formula_units_Z   2
loop_
 _symmetry_equiv_pos_site_id
 _symmetry_equiv_pos_as_xyz
  1  'x, y, z'
loop_
 _atom_site_type_symbol
 _atom_site_label
 _atom_site_symmetry_multiplicity
 _atom_site_fract_x
 _atom_site_fract_y
 _atom_site_fract_z
 _atom_site_occupancy
  La  La0  1  0.50481500  0.25052100  0.99842900  1
  La  La1  1  0.99092600  0.75392000  0.49664600  1
  La  La2  1  0.49512200  0.74950500  0.00161300  1
  La  La3  1  0.00903900  0.24612000  0.50339500  1
  Ti  Ti4  1  0.99998600  0.99997500  0.00002900  1
  Ti  Ti5  1  0.49999900  0.50005700  0.50000800  1
  Cr  Cr6  1  0.49998700  0.00004800  0.50003200  1
  Cr  Cr7  1  0.99999600  0.49993500  0.00002300  1
  O  O8  1  0.20860600  0.53615600  0.67033800  1
  O  O9  1  0.72616800  0.04242300  0.22857200  1
  O  O10  1  0.31235300  0.46878600  0.19759900  1
  O  O11  1  0.77368500  0.96548400  0.72394200  1
  O  O12  1  0.99684800  0.75622200  0.07342400  1
  O  O13  1  0.48195400  0.24884400  0.57557600  1
  O  O14  1  0.68770600  0.53116400  0.80245300  1
  O  O15  1  0.22630200  0.03453300  0.27606600  1
  O  O16  1  0.00331400  0.24361600  0.92631900  1
  O  O17  1  0.51802000  0.75122600  0.42447000  1
  O  O18  1  0.79136900  0.46386100  0.32966800  1
  O  O19  1  0.27380300  0.95760400  0.77139800  1
