# generated using pymatgen
data_VO2
_symmetry_space_group_name_H-M   'P 1'
_cell_length_a   3.03283931
_cell_length_b   8.77279649
_cell_length_c   10.53694985
_cell_angle_alpha   89.14269922
_cell_angle_beta   89.98777520
_cell_angle_gamma   90.04803071
_symmetry_Int_Tables_number   1
_chemical_formula_structural   VO2
_chemical_formula_sum   'V8 O16'
_cell_volume   280.31967906
_cell_formula_units_Z   8
loop_
 _symmetry_equiv_pos_site_id
 _symmetry_equiv_pos_as_xyz
  1  'x, y, z'
loop_
 _atom_site_type_symbol
 _atom_site_label
 _atom_site_symmetry_multiplicity
 _atom_site_fract_x
 _atom_site_fract_y
 _atom_site_fract_z
 _atom_site_occupancy
  V  V0  1  0.25347200  0.92911600  0.89446100  1
  V  V1  1  0.75358100  0.07046700  0.10538600  1
  V  V2  1  0.76305100  0.06465600  0.60888700  1
  V  V3  1  0.25166700  0.43033800  0.10687800  1
  V  V4  1  0.70010700  0.56431700  0.38518400  1
  V  V5  1  0.19865000  0.43580500  0.61499200  1
  V  V6  1  0.26328500  0.93555800  0.39149700  1
  V  V7  1  0.75167500  0.56972300  0.89264900  1
  O  O8  1  0.27494700  0.71553200  0.35907600  1
  O  O9  1  0.77489900  0.28468600  0.64173800  1
  O  O10  1  0.75322900  0.79094900  0.86291200  1
  O  O11  1  0.25401000  0.20865100  0.13592600  1
  O  O12  1  0.25268000  0.61148500  0.01666300  1
  O  O13  1  0.75205400  0.38854400  0.98308200  1
  O  O14  1  0.76582500  0.88850800  0.51599800  1
  O  O15  1  0.26659200  0.11183000  0.48437800  1
  O  O16  1  0.76286400  0.98559800  0.27954200  1
  O  O17  1  0.26233400  0.01486400  0.72062000  1
  O  O18  1  0.25127900  0.52238100  0.78352300  1
  O  O19  1  0.75157400  0.47741400  0.21659500  1
  O  O20  1  0.25431500  0.92345000  0.07031000  1
  O  O21  1  0.75525700  0.07588400  0.92950900  1
  O  O22  1  0.71659600  0.56714900  0.57400500  1
  O  O23  1  0.21605700  0.43309500  0.42619100  1
