# generated using pymatgen
data_CaMn2O4
_symmetry_space_group_name_H-M   'P 1'
_cell_length_a   5.30961343
_cell_length_b   5.30961343
_cell_length_c   9.79372100
_cell_angle_alpha   90.00000000
_cell_angle_beta   90.00000000
_cell_angle_gamma   145.52863393
_symmetry_Int_Tables_number   1
_chemical_formula_structural   CaMn2O4
_chemical_formula_sum   'Ca2 Mn4 O8'
_cell_volume   156.27359179
_cell_formula_units_Z   2
loop_
 _symmetry_equiv_pos_site_id
 _symmetry_equiv_pos_as_xyz
  1  'x, y, z'
loop_
 _atom_site_type_symbol
 _atom_site_label
 _atom_site_symmetry_multiplicity
 _atom_site_fract_x
 _atom_site_fract_y
 _atom_site_fract_z
 _atom_site_occupancy
  Ca  Ca0  1  0.60345300  0.39654700  0.75000000  1
  Ca  Ca1  1  0.39654700  0.60345300  0.25000000  1
  Mn  Mn2  1  0.13677600  0.86322400  0.06875600  1
  Mn  Mn3  1  0.86322400  0.13677600  0.93124400  1
  Mn  Mn4  1  0.13677600  0.86322400  0.43124400  1
  Mn  Mn5  1  0.86322400  0.13677600  0.56875600  1
  O  O6  1  0.77523700  0.22476300  0.39306600  1
  O  O7  1  0.22476300  0.77523700  0.60693400  1
  O  O8  1  0.22476300  0.77523700  0.89306600  1
  O  O9  1  0.77523700  0.22476300  0.10693400  1
  O  O10  1  0.06173600  0.93826400  0.25000000  1
  O  O11  1  0.93826400  0.06173600  0.75000000  1
  O  O12  1  0.50000000  0.50000000  0.00000000  1
  O  O13  1  0.50000000  0.50000000  0.50000000  1
