# generated using pymatgen
data_MnBO3
_symmetry_space_group_name_H-M   'P 1'
_cell_length_a   4.71545155
_cell_length_b   5.60388632
_cell_length_c   7.47226002
_cell_angle_alpha   74.88653718
_cell_angle_beta   87.66741910
_cell_angle_gamma   88.36872732
_symmetry_Int_Tables_number   1
_chemical_formula_structural   MnBO3
_chemical_formula_sum   'Mn4 B4 O12'
_cell_volume   190.43316385
_cell_formula_units_Z   4
loop_
 _symmetry_equiv_pos_site_id
 _symmetry_equiv_pos_as_xyz
  1  'x, y, z'
loop_
 _atom_site_type_symbol
 _atom_site_label
 _atom_site_symmetry_multiplicity
 _atom_site_fract_x
 _atom_site_fract_y
 _atom_site_fract_z
 _atom_site_occupancy
  Mn  Mn0  1  0.50005400  0.49984400  0.49994400  1
  Mn  Mn1  1  0.50003500  0.50014100  0.99995200  1
  Mn  Mn2  1  0.00007000  0.00001600  0.00006200  1
  Mn  Mn3  1  0.99983000  0.99984800  0.49998000  1
  B  B4  1  0.98359100  0.49051600  0.23824400  1
  B  B5  1  0.52137700  0.99886900  0.74245200  1
  B  B6  1  0.01662400  0.50936100  0.76180400  1
  B  B7  1  0.47839500  0.00130600  0.25757800  1
  O  O8  1  0.81395600  0.99471600  0.73573100  1
  O  O9  1  0.27742100  0.50420900  0.22861200  1
  O  O10  1  0.15110200  0.64630300  0.59970700  1
  O  O11  1  0.62405800  0.16105800  0.11164200  1
  O  O12  1  0.63184000  0.83626100  0.39177000  1
  O  O13  1  0.17556400  0.37344500  0.90555100  1
  O  O14  1  0.36797600  0.16366700  0.60807600  1
  O  O15  1  0.82469800  0.62641600  0.09446300  1
  O  O16  1  0.84914000  0.35360200  0.40035100  1
  O  O17  1  0.37569800  0.83919400  0.88844000  1
  O  O18  1  0.18583400  0.00539500  0.26421000  1
  O  O19  1  0.72273500  0.49583300  0.77143100  1
