# generated using pymatgen
data_Li5V2Ni3O10
_symmetry_space_group_name_H-M   'P 1'
_cell_length_a   5.11172648
_cell_length_b   7.77008520
_cell_length_c   10.20356284
_cell_angle_alpha   108.42341554
_cell_angle_beta   100.41352603
_cell_angle_gamma   71.14073925
_symmetry_Int_Tables_number   1
_chemical_formula_structural   Li5V2Ni3O10
_chemical_formula_sum   'Li10 V4 Ni6 O20'
_cell_volume   362.46084570
_cell_formula_units_Z   2
loop_
 _symmetry_equiv_pos_site_id
 _symmetry_equiv_pos_as_xyz
  1  'x, y, z'
loop_
 _atom_site_type_symbol
 _atom_site_label
 _atom_site_symmetry_multiplicity
 _atom_site_fract_x
 _atom_site_fract_y
 _atom_site_fract_z
 _atom_site_occupancy
  Li  Li0  1  0.99596700  0.50180700  0.24952800  1
  Li  Li1  1  0.99561200  0.50215100  0.74989700  1
  Li  Li2  1  0.50461600  0.39694900  0.10745800  1
  Li  Li3  1  0.50473700  0.39700300  0.60765200  1
  Li  Li4  1  0.50412200  0.60060200  0.39516500  1
  Li  Li5  1  0.50442500  0.60065400  0.89528500  1
  Li  Li6  1  0.50862500  0.79799100  0.20181100  1
  Li  Li7  1  0.50839500  0.79819900  0.70194700  1
  Li  Li8  1  0.49235300  0.20146900  0.29834900  1
  Li  Li9  1  0.49278700  0.20110700  0.79832200  1
  V  V10  1  0.01879400  0.69086300  0.05025100  1
  V  V11  1  0.01839100  0.69050500  0.55031200  1
  V  V12  1  0.98667400  0.30232200  0.44870800  1
  V  V13  1  0.98626800  0.30259200  0.94864900  1
  Ni  Ni14  1  0.50009500  0.99990500  0.49897400  1
  Ni  Ni15  1  0.49974300  0.00039100  0.99899200  1
  Ni  Ni16  1  0.99393700  0.89999000  0.34844500  1
  Ni  Ni17  1  0.99383900  0.89993100  0.84801900  1
  Ni  Ni18  1  0.00139500  0.10179300  0.15196400  1
  Ni  Ni19  1  0.00113500  0.10177000  0.65174000  1
  O  O20  1  0.23331900  0.83960600  0.02441300  1
  O  O21  1  0.23292800  0.83978200  0.52445800  1
  O  O22  1  0.75870500  0.15385300  0.47554900  1
  O  O23  1  0.75893000  0.15385700  0.97535400  1
  O  O24  1  0.76818000  0.92860800  0.16293100  1
  O  O25  1  0.76757100  0.92900300  0.66318300  1
  O  O26  1  0.23520100  0.06182000  0.33194600  1
  O  O27  1  0.23462600  0.06198900  0.83209800  1
  O  O28  1  0.78116300  0.55031500  0.06851600  1
  O  O29  1  0.78103200  0.55031600  0.56859200  1
  O  O30  1  0.22104400  0.46741800  0.43550300  1
  O  O31  1  0.22107500  0.46725200  0.93547400  1
  O  O32  1  0.23492300  0.24864300  0.10944500  1
  O  O33  1  0.23529500  0.24823700  0.60909900  1
  O  O34  1  0.76377500  0.75305000  0.39123600  1
  O  O35  1  0.76416300  0.75294500  0.89098600  1
  O  O36  1  0.23006500  0.65856200  0.21055500  1
  O  O37  1  0.22984200  0.65869200  0.71052000  1
  O  O38  1  0.76825000  0.34387800  0.28939700  1
  O  O39  1  0.76800300  0.34418000  0.78927600  1
