# generated using pymatgen
data_Sr3InNiO6
_symmetry_space_group_name_H-M   'P 1'
_cell_length_a   6.71202771
_cell_length_b   6.71333318
_cell_length_c   13.76682830
_cell_angle_alpha   91.83477307
_cell_angle_beta   91.85566200
_cell_angle_gamma   92.91445506
_symmetry_Int_Tables_number   1
_chemical_formula_structural   Sr3InNiO6
_chemical_formula_sum   'Sr12 In4 Ni4 O24'
_cell_volume   618.85486039
_cell_formula_units_Z   4
loop_
 _symmetry_equiv_pos_site_id
 _symmetry_equiv_pos_as_xyz
  1  'x, y, z'
loop_
 _atom_site_type_symbol
 _atom_site_label
 _atom_site_symmetry_multiplicity
 _atom_site_fract_x
 _atom_site_fract_y
 _atom_site_fract_z
 _atom_site_occupancy
  Sr  Sr0  1  0.61895900  0.88115300  0.12498800  1
  Sr  Sr1  1  0.61832600  0.88175300  0.62499300  1
  Sr  Sr2  1  0.88082400  0.24881300  0.30989300  1
  Sr  Sr3  1  0.88139500  0.24656000  0.80892600  1
  Sr  Sr4  1  0.25337300  0.61856400  0.44107700  1
  Sr  Sr5  1  0.25133000  0.61895700  0.94018500  1
  Sr  Sr6  1  0.11927300  0.75348900  0.19080000  1
  Sr  Sr7  1  0.11840800  0.75102900  0.69052700  1
  Sr  Sr8  1  0.74661700  0.38083200  0.05922700  1
  Sr  Sr9  1  0.74876100  0.38174300  0.55939000  1
  Sr  Sr10  1  0.38236000  0.11999100  0.37497000  1
  Sr  Sr11  1  0.38006500  0.11744200  0.87505300  1
  In  In12  1  0.24623100  0.25352800  0.12502900  1
  In  In13  1  0.24691500  0.25293300  0.62511800  1
  In  In14  1  0.75190300  0.74563300  0.37585000  1
  In  In15  1  0.75488600  0.74792700  0.87401800  1
  Ni  Ni16  1  0.50062400  0.49977900  0.75016500  1
  Ni  Ni17  1  0.00018800  0.99945900  0.49989700  1
  Ni  Ni18  1  0.49991300  0.50047000  0.24964100  1
  Ni  Ni19  1  0.99955300  0.00004800  0.00029200  1
  O  O20  1  0.53617300  0.21667900  0.20629900  1
  O  O21  1  0.53728200  0.21296500  0.70635900  1
  O  O22  1  0.22310100  0.41706200  0.27242900  1
  O  O23  1  0.21549600  0.41202100  0.77321100  1
  O  O24  1  0.40136600  0.54179700  0.10196000  1
  O  O25  1  0.40490700  0.54191600  0.60577800  1
  O  O26  1  0.04138900  0.90350200  0.35521200  1
  O  O27  1  0.04247200  0.90307000  0.85257700  1
  O  O28  1  0.91521700  0.72227800  0.02267800  1
  O  O29  1  0.91350600  0.71579900  0.52288100  1
  O  O30  1  0.71274800  0.03687400  0.45573400  1
  O  O31  1  0.71672000  0.03659900  0.95715100  1
  O  O32  1  0.46333200  0.78363700  0.29284600  1
  O  O33  1  0.46348100  0.78710300  0.79428800  1
  O  O34  1  0.77763700  0.58487100  0.22718800  1
  O  O35  1  0.78442200  0.58621800  0.72701800  1
  O  O36  1  0.59698100  0.45775600  0.39720800  1
  O  O37  1  0.59678400  0.45854000  0.89482300  1
  O  O38  1  0.95813100  0.09845200  0.14819100  1
  O  O39  1  0.95793300  0.09496400  0.64425600  1
  O  O40  1  0.08793500  0.28451300  0.47693800  1
  O  O41  1  0.08304400  0.27693700  0.97765100  1
  O  O42  1  0.28297500  0.96364700  0.04354100  1
  O  O43  1  0.28706700  0.96269900  0.54374400  1
