# generated using pymatgen
data_LaNiO3
_symmetry_space_group_name_H-M   'P 1'
_cell_length_a   5.43389340
_cell_length_b   7.71836047
_cell_length_c   5.55643375
_cell_angle_alpha   89.90964166
_cell_angle_beta   90.12785684
_cell_angle_gamma   91.57863494
_symmetry_Int_Tables_number   1
_chemical_formula_structural   LaNiO3
_chemical_formula_sum   'La4 Ni4 O12'
_cell_volume   232.95169096
_cell_formula_units_Z   4
loop_
 _symmetry_equiv_pos_site_id
 _symmetry_equiv_pos_as_xyz
  1  'x, y, z'
loop_
 _atom_site_type_symbol
 _atom_site_label
 _atom_site_symmetry_multiplicity
 _atom_site_fract_x
 _atom_site_fract_y
 _atom_site_fract_z
 _atom_site_occupancy
  La  La0  1  0.49813600  0.75000900  0.00259100  1
  La  La1  1  0.99838600  0.24962600  0.50278000  1
  La  La2  1  0.50178500  0.25002300  0.99750000  1
  La  La3  1  0.00171000  0.75029800  0.49715800  1
  Ni  Ni4  1  0.49993500  0.99997800  0.50002600  1
  Ni  Ni5  1  0.99988100  0.00004700  0.00005200  1
  Ni  Ni6  1  0.00007700  0.50004500  0.99991300  1
  Ni  Ni7  1  0.50007900  0.49996600  0.50003900  1
  O  O8  1  0.77655200  0.46168200  0.73540500  1
  O  O9  1  0.27628100  0.96169700  0.23523900  1
  O  O10  1  0.99501200  0.25893300  0.07174200  1
  O  O11  1  0.49511500  0.75895800  0.57160100  1
  O  O12  1  0.73268800  0.53635300  0.22035500  1
  O  O13  1  0.23230300  0.03620300  0.72056500  1
  O  O14  1  0.22367900  0.53834000  0.26443900  1
  O  O15  1  0.72347800  0.03828700  0.76489300  1
  O  O16  1  0.26744500  0.46361100  0.77955400  1
  O  O17  1  0.76753300  0.96380600  0.27950300  1
  O  O18  1  0.00521200  0.74112700  0.92820500  1
  O  O19  1  0.50471300  0.24101000  0.42844000  1
