# generated using pymatgen
data_V(GeO3)2
_symmetry_space_group_name_H-M   'P 1'
_cell_length_a   6.75367653
_cell_length_b   7.55438883
_cell_length_c   9.83050632
_cell_angle_alpha   78.90111879
_cell_angle_beta   76.53924380
_cell_angle_gamma   94.93560880
_symmetry_Int_Tables_number   1
_chemical_formula_structural   V(GeO3)2
_chemical_formula_sum   'V4 Ge8 O24'
_cell_volume   474.13023049
_cell_formula_units_Z   4
loop_
 _symmetry_equiv_pos_site_id
 _symmetry_equiv_pos_as_xyz
  1  'x, y, z'
loop_
 _atom_site_type_symbol
 _atom_site_label
 _atom_site_symmetry_multiplicity
 _atom_site_fract_x
 _atom_site_fract_y
 _atom_site_fract_z
 _atom_site_occupancy
  V  V0  1  0.89820200  0.17584700  0.92559500  1
  V  V1  1  0.10163300  0.82421700  0.07449800  1
  V  V2  1  0.89823700  0.67540900  0.42650000  1
  V  V3  1  0.10219500  0.32406500  0.57380700  1
  Ge  Ge4  1  0.38396700  0.72022100  0.48907400  1
  Ge  Ge5  1  0.38379000  0.22022600  0.98900300  1
  Ge  Ge6  1  0.79069900  0.94271300  0.67381700  1
  Ge  Ge7  1  0.79131100  0.44279500  0.17344200  1
  Ge  Ge8  1  0.61629800  0.27975500  0.51083500  1
  Ge  Ge9  1  0.61609000  0.77981300  0.01106400  1
  Ge  Ge10  1  0.20920500  0.05716300  0.32624800  1
  Ge  Ge11  1  0.20852000  0.55728000  0.82657700  1
  O  O12  1  0.38807800  0.94592300  0.40140600  1
  O  O13  1  0.38766000  0.44593400  0.90143000  1
  O  O14  1  0.65360700  0.28355200  0.32804200  1
  O  O15  1  0.65228400  0.78375700  0.82821800  1
  O  O16  1  0.61204700  0.05409700  0.59855600  1
  O  O17  1  0.61210200  0.55408100  0.09862100  1
  O  O18  1  0.34766000  0.21613400  0.17181700  1
  O  O19  1  0.34641100  0.71638400  0.67195700  1
  O  O20  1  0.07958900  0.19356100  0.43519800  1
  O  O21  1  0.07878700  0.69353900  0.93548400  1
  O  O22  1  0.37126600  0.33082300  0.58962300  1
  O  O23  1  0.37106200  0.83102300  0.08990900  1
  O  O24  1  0.92059600  0.80669900  0.56466400  1
  O  O25  1  0.92110300  0.30658200  0.06451100  1
  O  O26  1  0.62896800  0.66925100  0.41015200  1
  O  O27  1  0.62883300  0.16915300  0.90995900  1
  O  O28  1  0.17546200  0.57640000  0.46228000  1
  O  O29  1  0.17528900  0.07644200  0.96245300  1
  O  O30  1  0.96130700  0.10499500  0.71946300  1
  O  O31  1  0.96123600  0.60544500  0.21972200  1
  O  O32  1  0.82483800  0.42346700  0.53767800  1
  O  O33  1  0.82461700  0.92365900  0.03753400  1
  O  O34  1  0.03847400  0.89506700  0.28054900  1
  O  O35  1  0.03857500  0.39453000  0.78031800  1
