# generated using pymatgen
data_Na3(CoO2)5
_symmetry_space_group_name_H-M   'P 1'
_cell_length_a   5.83148054
_cell_length_b   7.70968531
_cell_length_c   9.92720866
_cell_angle_alpha   71.29888940
_cell_angle_beta   72.55964912
_cell_angle_gamma   84.38039966
_symmetry_Int_Tables_number   1
_chemical_formula_structural   Na3(CoO2)5
_chemical_formula_sum   'Na6 Co10 O20'
_cell_volume   403.31752916
_cell_formula_units_Z   2
loop_
 _symmetry_equiv_pos_site_id
 _symmetry_equiv_pos_as_xyz
  1  'x, y, z'
loop_
 _atom_site_type_symbol
 _atom_site_label
 _atom_site_symmetry_multiplicity
 _atom_site_fract_x
 _atom_site_fract_y
 _atom_site_fract_z
 _atom_site_occupancy
  Na  Na0  1  0.50488500  0.79689900  0.38263900  1
  Na  Na1  1  0.49508600  0.80011800  0.87901200  1
  Na  Na2  1  0.49793100  0.19825200  0.28317300  1
  Na  Na3  1  0.50028300  0.19830400  0.78312700  1
  Na  Na4  1  0.49322800  0.39840600  0.48620000  1
  Na  Na5  1  0.49503500  0.40171200  0.98198800  1
  Co  Co6  1  0.02994600  0.79730900  0.29133000  1
  Co  Co7  1  0.01189800  0.80256900  0.79752300  1
  Co  Co8  1  0.99571400  0.99901200  0.50412100  1
  Co  Co9  1  0.99130500  0.59798700  0.60284900  1
  Co  Co10  1  0.00649500  0.39405600  0.40324100  1
  Co  Co11  1  0.99653000  0.01030200  0.99512800  1
  Co  Co12  1  0.97989200  0.59920200  0.09880200  1
  Co  Co13  1  0.00572200  0.19961800  0.19701600  1
  Co  Co14  1  0.00709200  0.20222000  0.69871300  1
  Co  Co15  1  0.00190000  0.40169800  0.89602800  1
  O  O16  1  0.17593400  0.81376200  0.09277100  1
  O  O17  1  0.16902300  0.79634700  0.60148800  1
  O  O18  1  0.82791600  0.79930100  0.50007600  1
  O  O19  1  0.82452100  0.81853600  0.98617500  1
  O  O20  1  0.18521500  0.20569700  0.99017900  1
  O  O21  1  0.18113300  0.19871700  0.50135000  1
  O  O22  1  0.18428100  0.38892900  0.21292500  1
  O  O23  1  0.17788400  0.40412000  0.69688700  1
  O  O24  1  0.19118000  0.99715200  0.31885500  1
  O  O25  1  0.18663000  0.01472900  0.80464600  1
  O  O26  1  0.18597800  0.58649500  0.41170300  1
  O  O27  1  0.18299200  0.59574900  0.90488300  1
  O  O28  1  0.82158800  0.00540800  0.19510100  1
  O  O29  1  0.82747400  0.00585300  0.69689500  1
  O  O30  1  0.82164300  0.58269600  0.30922000  1
  O  O31  1  0.81664700  0.59291300  0.79550600  1
  O  O32  1  0.80505400  0.39560000  0.09216300  1
  O  O33  1  0.82578900  0.39710400  0.59625600  1
  O  O34  1  0.81903600  0.19751500  0.41119300  1
  O  O35  1  0.82513500  0.20571100  0.89283600  1
