# generated using pymatgen
data_VO2
_symmetry_space_group_name_H-M   'P 1'
_cell_length_a   3.01515102
_cell_length_b   8.78110701
_cell_length_c   10.52815906
_cell_angle_alpha   90.00126177
_cell_angle_beta   89.98776956
_cell_angle_gamma   89.99496716
_symmetry_Int_Tables_number   1
_chemical_formula_structural   VO2
_chemical_formula_sum   'V8 O16'
_cell_volume   278.74736147
_cell_formula_units_Z   8
loop_
 _symmetry_equiv_pos_site_id
 _symmetry_equiv_pos_as_xyz
  1  'x, y, z'
loop_
 _atom_site_type_symbol
 _atom_site_label
 _atom_site_symmetry_multiplicity
 _atom_site_fract_x
 _atom_site_fract_y
 _atom_site_fract_z
 _atom_site_occupancy
  V  V0  1  0.24996100  0.44194400  0.61750000  1
  V  V1  1  0.74999800  0.05805900  0.11751300  1
  V  V2  1  0.24997700  0.92424800  0.39861700  1
  V  V3  1  0.74999800  0.57574700  0.89863500  1
  V  V4  1  0.75021500  0.56036600  0.38752100  1
  V  V5  1  0.25113300  0.93962200  0.88750900  1
  V  V6  1  0.74987400  0.07869000  0.60582500  1
  V  V7  1  0.24996300  0.42131400  0.10582900  1
  O  O8  1  0.24972000  0.70898300  0.35906700  1
  O  O9  1  0.74995200  0.29336300  0.63453600  1
  O  O10  1  0.74932100  0.79101600  0.85906800  1
  O  O11  1  0.25002200  0.20664100  0.13453400  1
  O  O12  1  0.24989800  0.61141500  0.01919600  1
  O  O13  1  0.74999500  0.38863000  0.97947100  1
  O  O14  1  0.74990600  0.88859100  0.51918800  1
  O  O15  1  0.24992300  0.11137100  0.47947100  1
  O  O16  1  0.75002100  0.97785100  0.28224900  1
  O  O17  1  0.24969300  0.02729000  0.71606600  1
  O  O18  1  0.25002900  0.52214600  0.78225200  1
  O  O19  1  0.74991300  0.47271000  0.21606800  1
  O  O20  1  0.25014400  0.92555900  0.07116800  1
  O  O21  1  0.75019200  0.07321400  0.92877400  1
  O  O22  1  0.74998200  0.57444100  0.57117000  1
  O  O23  1  0.25017300  0.42678600  0.42877200  1
