# generated using pymatgen
data_SrHfO3
_symmetry_space_group_name_H-M   'P 1'
_cell_length_a   5.81033454
_cell_length_b   5.81033454
_cell_length_c   5.81033454
_cell_angle_alpha   119.80900786
_cell_angle_beta   119.70104405
_cell_angle_gamma   90.42485904
_symmetry_Int_Tables_number   1
_chemical_formula_structural   SrHfO3
_chemical_formula_sum   'Sr2 Hf2 O6'
_cell_volume   139.21311069
_cell_formula_units_Z   2
loop_
 _symmetry_equiv_pos_site_id
 _symmetry_equiv_pos_as_xyz
  1  'x, y, z'
loop_
 _atom_site_type_symbol
 _atom_site_label
 _atom_site_symmetry_multiplicity
 _atom_site_fract_x
 _atom_site_fract_y
 _atom_site_fract_z
 _atom_site_occupancy
  Sr  Sr0  1  0.74116200  0.25000000  0.49116200  1
  Sr  Sr1  1  0.25883800  0.75000000  0.50883800  1
  Hf  Hf2  1  0.50000000  0.50000000  0.00000000  1
  Hf  Hf3  1  0.00000000  0.00000000  0.00000000  1
  O  O4  1  0.29053800  0.29053800  0.50000000  1
  O  O5  1  0.70946200  0.20946200  0.00000000  1
  O  O6  1  0.70946200  0.70946200  0.50000000  1
  O  O7  1  0.29053800  0.79053800  0.00000000  1
  O  O8  1  0.17514800  0.25000000  0.92514800  1
  O  O9  1  0.82485200  0.75000000  0.07485200  1
