# generated using pymatgen
data_CaV4(CoO4)3
_symmetry_space_group_name_H-M   'P 1'
_cell_length_a   6.48682592
_cell_length_b   6.44543091
_cell_length_c   10.54565538
_cell_angle_alpha   90.65596352
_cell_angle_beta   89.68710184
_cell_angle_gamma   109.86155830
_symmetry_Int_Tables_number   1
_chemical_formula_structural   CaV4(CoO4)3
_chemical_formula_sum   'Ca2 V8 Co6 O24'
_cell_volume   414.66275358
_cell_formula_units_Z   2
loop_
 _symmetry_equiv_pos_site_id
 _symmetry_equiv_pos_as_xyz
  1  'x, y, z'
loop_
 _atom_site_type_symbol
 _atom_site_label
 _atom_site_symmetry_multiplicity
 _atom_site_fract_x
 _atom_site_fract_y
 _atom_site_fract_z
 _atom_site_occupancy
  Ca  Ca0  1  0.00002300  0.99996900  0.00000700  1
  Ca  Ca1  1  0.50002500  0.50001400  0.50000100  1
  V  V2  1  0.74902200  0.75085800  0.25002800  1
  V  V3  1  0.25099600  0.24912700  0.74995100  1
  V  V4  1  0.49988000  0.99993500  0.99997800  1
  V  V5  1  0.00014400  0.50014500  0.49999600  1
  V  V6  1  0.00000700  0.50006600  0.99995700  1
  V  V7  1  0.50011200  0.99992900  0.49998300  1
  V  V8  1  0.24824300  0.24846500  0.25167100  1
  V  V9  1  0.75172100  0.75156500  0.74836900  1
  Co  Co10  1  0.75188000  0.24863200  0.25078600  1
  Co  Co11  1  0.24799700  0.75146500  0.74910100  1
  Co  Co12  1  0.00000600  0.00008500  0.50006100  1
  Co  Co13  1  0.25246300  0.74903900  0.24965500  1
  Co  Co14  1  0.74755900  0.25096900  0.75035200  1
  Co  Co15  1  0.49997900  0.49994000  0.99997700  1
  O  O16  1  0.03433500  0.33787900  0.15285300  1
  O  O17  1  0.53146500  0.83543400  0.65208000  1
  O  O18  1  0.46848300  0.16445200  0.34778000  1
  O  O19  1  0.96574500  0.66217700  0.84724000  1
  O  O20  1  0.66139800  0.96531400  0.15257300  1
  O  O21  1  0.15565600  0.46494300  0.64605400  1
  O  O22  1  0.84433800  0.53491600  0.35388300  1
  O  O23  1  0.33842900  0.03473500  0.84752900  1
  O  O24  1  0.39413400  0.20403300  0.08696700  1
  O  O25  1  0.89346500  0.71226000  0.59056600  1
  O  O26  1  0.10693400  0.28780000  0.40958100  1
  O  O27  1  0.60555500  0.79590400  0.91294200  1
  O  O28  1  0.70976400  0.88510800  0.40427300  1
  O  O29  1  0.21090300  0.38834700  0.90414600  1
  O  O30  1  0.78907200  0.61172400  0.09575300  1
  O  O31  1  0.29032000  0.11480100  0.59582200  1
  O  O32  1  0.06348000  0.94579800  0.23973300  1
  O  O33  1  0.56073500  0.44935800  0.74200800  1
  O  O34  1  0.43942100  0.55069900  0.25807500  1
  O  O35  1  0.93630400  0.05411400  0.76025100  1
  O  O36  1  0.23309500  0.75283300  0.05664700  1
  O  O37  1  0.73176100  0.25279200  0.55688700  1
  O  O38  1  0.26819800  0.74736100  0.44306400  1
  O  O39  1  0.76695700  0.24701400  0.94342100  1
