# generated using pymatgen
data_Sr3TaCoO7
_symmetry_space_group_name_H-M   'P 1'
_cell_length_a   5.60025659
_cell_length_b   11.00177128
_cell_length_c   5.59952191
_cell_angle_alpha   104.74116576
_cell_angle_beta   90.05225718
_cell_angle_gamma   89.98950412
_symmetry_Int_Tables_number   1
_chemical_formula_structural   Sr3TaCoO7
_chemical_formula_sum   'Sr6 Ta2 Co2 O14'
_cell_volume   333.64608607
_cell_formula_units_Z   2
loop_
 _symmetry_equiv_pos_site_id
 _symmetry_equiv_pos_as_xyz
  1  'x, y, z'
loop_
 _atom_site_type_symbol
 _atom_site_label
 _atom_site_symmetry_multiplicity
 _atom_site_fract_x
 _atom_site_fract_y
 _atom_site_fract_z
 _atom_site_occupancy
  Sr  Sr0  1  0.49983200  0.96263400  0.98134100  1
  Sr  Sr1  1  0.99979800  0.96229400  0.48101800  1
  Sr  Sr2  1  0.99999500  0.38261300  0.69128300  1
  Sr  Sr3  1  0.50006000  0.38741300  0.19373000  1
  Sr  Sr4  1  0.50008500  0.63750500  0.81912900  1
  Sr  Sr5  1  0.00056100  0.63733200  0.31870900  1
  Ta  Ta6  1  0.49998400  0.19376400  0.59684200  1
  Ta  Ta7  1  0.99998700  0.19458700  0.09727300  1
  Co  Co8  1  0.00009000  0.78610400  0.89301000  1
  Co  Co9  1  0.50059200  0.79575400  0.39846100  1
  O  O10  1  0.99988300  0.60059300  0.80012600  1
  O  O11  1  0.49977200  0.60972900  0.30454900  1
  O  O12  1  0.50004500  0.38817300  0.69417600  1
  O  O13  1  0.00009500  0.38987400  0.19505300  1
  O  O14  1  0.50027300  0.01196600  0.50629600  1
  O  O15  1  0.99998500  0.01551100  0.00786400  1
  O  O16  1  0.76423900  0.80826900  0.66871400  1
  O  O17  1  0.23527300  0.80818900  0.13937700  1
  O  O18  1  0.73535000  0.80668500  0.16742700  1
  O  O19  1  0.26403500  0.80674800  0.63894400  1
  O  O20  1  0.74945000  0.20365000  0.85170900  1
  O  O21  1  0.25074100  0.20356500  0.35168300  1
  O  O22  1  0.74949900  0.20353300  0.35167300  1
  O  O23  1  0.25037600  0.20351700  0.85161300  1
