# generated using pymatgen
data_Ba3Al2(SiO4)3
_symmetry_space_group_name_H-M   'P 1'
_cell_length_a   10.97450428
_cell_length_b   10.97450428
_cell_length_c   10.97450428
_cell_angle_alpha   109.47122063
_cell_angle_beta   109.47122063
_cell_angle_gamma   109.47122063
_symmetry_Int_Tables_number   1
_chemical_formula_structural   Ba3Al2(SiO4)3
_chemical_formula_sum   'Ba12 Al8 Si12 O48'
_cell_volume   1017.49631682
_cell_formula_units_Z   4
loop_
 _symmetry_equiv_pos_site_id
 _symmetry_equiv_pos_as_xyz
  1  'x, y, z'
loop_
 _atom_site_type_symbol
 _atom_site_label
 _atom_site_symmetry_multiplicity
 _atom_site_fract_x
 _atom_site_fract_y
 _atom_site_fract_z
 _atom_site_occupancy
  Ba  Ba0  1  0.87500000  0.62500000  0.25000000  1
  Ba  Ba1  1  0.62500000  0.25000000  0.87500000  1
  Ba  Ba2  1  0.87500000  0.75000000  0.62500000  1
  Ba  Ba3  1  0.75000000  0.62500000  0.87500000  1
  Ba  Ba4  1  0.25000000  0.87500000  0.62500000  1
  Ba  Ba5  1  0.62500000  0.87500000  0.75000000  1
  Ba  Ba6  1  0.12500000  0.37500000  0.75000000  1
  Ba  Ba7  1  0.37500000  0.75000000  0.12500000  1
  Ba  Ba8  1  0.12500000  0.25000000  0.37500000  1
  Ba  Ba9  1  0.25000000  0.37500000  0.12500000  1
  Ba  Ba10  1  0.75000000  0.12500000  0.37500000  1
  Ba  Ba11  1  0.37500000  0.12500000  0.25000000  1
  Al  Al12  1  0.50000000  0.50000000  0.00000000  1
  Al  Al13  1  0.00000000  0.50000000  0.50000000  1
  Al  Al14  1  0.50000000  0.50000000  0.50000000  1
  Al  Al15  1  0.00000000  0.00000000  0.50000000  1
  Al  Al16  1  0.00000000  0.50000000  0.00000000  1
  Al  Al17  1  0.50000000  0.00000000  0.00000000  1
  Al  Al18  1  0.00000000  0.00000000  0.00000000  1
  Al  Al19  1  0.50000000  0.00000000  0.50000000  1
  Si  Si20  1  0.87500000  0.25000000  0.12500000  1
  Si  Si21  1  0.62500000  0.75000000  0.37500000  1
  Si  Si22  1  0.75000000  0.37500000  0.62500000  1
  Si  Si23  1  0.62500000  0.37500000  0.25000000  1
  Si  Si24  1  0.37500000  0.62500000  0.75000000  1
  Si  Si25  1  0.12500000  0.75000000  0.87500000  1
  Si  Si26  1  0.75000000  0.87500000  0.12500000  1
  Si  Si27  1  0.37500000  0.25000000  0.62500000  1
  Si  Si28  1  0.25000000  0.62500000  0.37500000  1
  Si  Si29  1  0.87500000  0.12500000  0.75000000  1
  Si  Si30  1  0.25000000  0.12500000  0.87500000  1
  Si  Si31  1  0.12500000  0.87500000  0.25000000  1
  O  O32  1  0.69538600  0.08193200  0.68447000  1
  O  O33  1  0.11345500  0.01091600  0.69538600  1
  O  O34  1  0.68447000  0.48908400  0.60253900  1
  O  O35  1  0.60253900  0.68447000  0.48908400  1
  O  O36  1  0.89746100  0.38654500  0.08193200  1
  O  O37  1  0.08193200  0.89746100  0.38654500  1
  O  O38  1  0.01091600  0.69538600  0.11345500  1
  O  O39  1  0.41806800  0.11345500  0.60253900  1
  O  O40  1  0.38654500  0.80461400  0.48908400  1
  O  O41  1  0.01091600  0.81553000  0.89746100  1
  O  O42  1  0.11345500  0.60253900  0.41806800  1
  O  O43  1  0.48908400  0.38654500  0.80461400  1
  O  O44  1  0.81553000  0.89746100  0.01091600  1
  O  O45  1  0.68447000  0.69538600  0.08193200  1
  O  O46  1  0.08193200  0.68447000  0.69538600  1
  O  O47  1  0.60253900  0.41806800  0.11345500  1
  O  O48  1  0.81553000  0.41806800  0.80461400  1
  O  O49  1  0.80461400  0.48908400  0.38654500  1
  O  O50  1  0.80461400  0.81553000  0.41806800  1
  O  O51  1  0.89746100  0.01091600  0.81553000  1
  O  O52  1  0.41806800  0.80461400  0.81553000  1
  O  O53  1  0.38654500  0.08193200  0.89746100  1
  O  O54  1  0.69538600  0.11345500  0.01091600  1
  O  O55  1  0.48908400  0.60253900  0.68447000  1
  O  O56  1  0.30461400  0.91806800  0.31553000  1
  O  O57  1  0.88654500  0.98908400  0.30461400  1
  O  O58  1  0.31553000  0.51091600  0.39746100  1
  O  O59  1  0.39746100  0.31553000  0.51091600  1
  O  O60  1  0.10253900  0.61345500  0.91806800  1
  O  O61  1  0.91806800  0.10253900  0.61345500  1
  O  O62  1  0.98908400  0.30461400  0.88654500  1
  O  O63  1  0.58193200  0.88654500  0.39746100  1
  O  O64  1  0.61345500  0.19538600  0.51091600  1
  O  O65  1  0.98908400  0.18447000  0.10253900  1
  O  O66  1  0.88654500  0.39746100  0.58193200  1
  O  O67  1  0.51091600  0.61345500  0.19538600  1
  O  O68  1  0.18447000  0.10253900  0.98908400  1
  O  O69  1  0.31553000  0.30461400  0.91806800  1
  O  O70  1  0.91806800  0.31553000  0.30461400  1
  O  O71  1  0.39746100  0.58193200  0.88654500  1
  O  O72  1  0.18447000  0.58193200  0.19538600  1
  O  O73  1  0.19538600  0.51091600  0.61345500  1
  O  O74  1  0.19538600  0.18447000  0.58193200  1
  O  O75  1  0.10253900  0.98908400  0.18447000  1
  O  O76  1  0.58193200  0.19538600  0.18447000  1
  O  O77  1  0.61345500  0.91806800  0.10253900  1
  O  O78  1  0.30461400  0.88654500  0.98908400  1
  O  O79  1  0.51091600  0.39746100  0.31553000  1
