# generated using pymatgen
data_Ni8P3
_symmetry_space_group_name_H-M   'P 1'
_cell_length_a   13.19773129
_cell_length_b   13.19773129
_cell_length_c   13.19773135
_cell_angle_alpha   28.85543211
_cell_angle_beta   28.85543211
_cell_angle_gamma   28.85543594
_symmetry_Int_Tables_number   1
_chemical_formula_structural   Ni8P3
_chemical_formula_sum   'Ni32 P12'
_cell_volume   473.45415073
_cell_formula_units_Z   4
loop_
 _symmetry_equiv_pos_site_id
 _symmetry_equiv_pos_as_xyz
  1  'x, y, z'
loop_
 _atom_site_type_symbol
 _atom_site_label
 _atom_site_symmetry_multiplicity
 _atom_site_fract_x
 _atom_site_fract_y
 _atom_site_fract_z
 _atom_site_occupancy
  Ni  Ni0  1  0.61971000  0.15472200  0.38632900  1
  Ni  Ni1  1  0.15472200  0.38632900  0.61971000  1
  Ni  Ni2  1  0.84527800  0.61367100  0.38029000  1
  Ni  Ni3  1  0.61367100  0.38029000  0.84527800  1
  Ni  Ni4  1  0.38029000  0.84527800  0.61367100  1
  Ni  Ni5  1  0.11367100  0.34527800  0.88029000  1
  Ni  Ni6  1  0.34527800  0.88029000  0.11367100  1
  Ni  Ni7  1  0.88029000  0.11367100  0.34527800  1
  Ni  Ni8  1  0.51723500  0.14325200  0.78959800  1
  Ni  Ni9  1  0.14325200  0.78959800  0.51723500  1
  Ni  Ni10  1  0.78959800  0.51723500  0.14325200  1
  Ni  Ni11  1  0.64325200  0.01723500  0.28959800  1
  Ni  Ni12  1  0.01723500  0.28959800  0.64325200  1
  Ni  Ni13  1  0.28959800  0.64325200  0.01723500  1
  Ni  Ni14  1  0.98276500  0.71040200  0.35674800  1
  Ni  Ni15  1  0.71040200  0.35674800  0.98276500  1
  Ni  Ni16  1  0.35674800  0.98276500  0.71040200  1
  Ni  Ni17  1  0.21040200  0.48276500  0.85674800  1
  Ni  Ni18  1  0.48276500  0.85674800  0.21040200  1
  Ni  Ni19  1  0.85674800  0.21040200  0.48276500  1
  Ni  Ni20  1  0.38632900  0.61971000  0.15472200  1
  Ni  Ni21  1  0.65472200  0.11971000  0.88632900  1
  Ni  Ni22  1  0.88632900  0.65472200  0.11971000  1
  Ni  Ni23  1  0.11971000  0.88632900  0.65472200  1
  Ni  Ni24  1  0.44180900  0.44180900  0.44180900  1
  Ni  Ni25  1  0.94180900  0.94180900  0.94180900  1
  Ni  Ni26  1  0.28127700  0.28127700  0.28127700  1
  Ni  Ni27  1  0.78127700  0.78127700  0.78127700  1
  Ni  Ni28  1  0.55819100  0.55819100  0.55819100  1
  Ni  Ni29  1  0.05819100  0.05819100  0.05819100  1
  Ni  Ni30  1  0.21872300  0.21872300  0.21872300  1
  Ni  Ni31  1  0.71872300  0.71872300  0.71872300  1
  P  P32  1  0.06789300  0.75000000  0.43210700  1
  P  P33  1  0.43210700  0.06789300  0.75000000  1
  P  P34  1  0.75000000  0.43210700  0.06789300  1
  P  P35  1  0.56789300  0.93210700  0.25000000  1
  P  P36  1  0.25000000  0.56789300  0.93210700  1
  P  P37  1  0.93210700  0.25000000  0.56789300  1
  P  P38  1  0.34124100  0.34124100  0.34124100  1
  P  P39  1  0.84124100  0.84124100  0.84124100  1
  P  P40  1  0.65875900  0.65875900  0.65875900  1
  P  P41  1  0.15875900  0.15875900  0.15875900  1
  P  P42  1  0.50000000  0.50000000  0.50000000  1
  P  P43  1  0.00000000  0.00000000  0.00000000  1
