# generated using pymatgen
data_Sm3Se4
_symmetry_space_group_name_H-M   'P 1'
_cell_length_a   7.66520990
_cell_length_b   7.66520990
_cell_length_c   7.66520990
_cell_angle_alpha   109.47122063
_cell_angle_beta   109.47122063
_cell_angle_gamma   109.47122063
_symmetry_Int_Tables_number   1
_chemical_formula_structural   Sm3Se4
_chemical_formula_sum   'Sm6 Se8'
_cell_volume   346.69714476
_cell_formula_units_Z   2
loop_
 _symmetry_equiv_pos_site_id
 _symmetry_equiv_pos_as_xyz
  1  'x, y, z'
loop_
 _atom_site_type_symbol
 _atom_site_label
 _atom_site_symmetry_multiplicity
 _atom_site_fract_x
 _atom_site_fract_y
 _atom_site_fract_z
 _atom_site_occupancy
  Sm  Sm0  1  0.87500000  0.25000000  0.12500000  1
  Sm  Sm1  1  0.12500000  0.87500000  0.25000000  1
  Sm  Sm2  1  0.37500000  0.62500000  0.75000000  1
  Sm  Sm3  1  0.25000000  0.12500000  0.87500000  1
  Sm  Sm4  1  0.75000000  0.37500000  0.62500000  1
  Sm  Sm5  1  0.62500000  0.75000000  0.37500000  1
  Se  Se6  1  0.50000000  0.00000000  0.64741000  1
  Se  Se7  1  0.14741000  0.50000000  0.00000000  1
  Se  Se8  1  0.35259000  0.35259000  0.35259000  1
  Se  Se9  1  0.00000000  0.14741000  0.50000000  1
  Se  Se10  1  0.85259000  0.85259000  0.85259000  1
  Se  Se11  1  0.00000000  0.64741000  0.50000000  1
  Se  Se12  1  0.50000000  0.00000000  0.14741000  1
  Se  Se13  1  0.64741000  0.50000000  0.00000000  1
