# generated using pymatgen
data_P4S3
_symmetry_space_group_name_H-M   'P 1'
_cell_length_a   7.17819100
_cell_length_b   10.97953600
_cell_length_c   11.99968100
_cell_angle_alpha   90.00000000
_cell_angle_beta   90.00000000
_cell_angle_gamma   90.00000000
_symmetry_Int_Tables_number   1
_chemical_formula_structural   P4S3
_chemical_formula_sum   'P16 S12'
_cell_volume   945.73333658
_cell_formula_units_Z   4
loop_
 _symmetry_equiv_pos_site_id
 _symmetry_equiv_pos_as_xyz
  1  'x, y, z'
loop_
 _atom_site_type_symbol
 _atom_site_label
 _atom_site_symmetry_multiplicity
 _atom_site_fract_x
 _atom_site_fract_y
 _atom_site_fract_z
 _atom_site_occupancy
  P  P0  1  0.74582400  0.85283400  0.92865300  1
  P  P1  1  0.24582400  0.14716600  0.57134700  1
  P  P2  1  0.25417600  0.35283400  0.07134700  1
  P  P3  1  0.75417600  0.64716600  0.42865300  1
  P  P4  1  0.84208300  0.25000000  0.66355200  1
  P  P5  1  0.34208300  0.75000000  0.83644800  1
  P  P6  1  0.15791700  0.75000000  0.33644800  1
  P  P7  1  0.65791700  0.25000000  0.16355200  1
  P  P8  1  0.09819800  0.25000000  0.43477800  1
  P  P9  1  0.59819800  0.75000000  0.06522200  1
  P  P10  1  0.90180200  0.75000000  0.56522200  1
  P  P11  1  0.40180200  0.25000000  0.93477800  1
  P  P12  1  0.25417600  0.14716600  0.07134700  1
  P  P13  1  0.75417600  0.85283400  0.42865300  1
  P  P14  1  0.24582400  0.35283400  0.57134700  1
  P  P15  1  0.74582400  0.64716600  0.92865300  1
  S  S16  1  0.96945400  0.89716500  0.31701700  1
  S  S17  1  0.46945400  0.39716500  0.18298300  1
  S  S18  1  0.03054600  0.10283500  0.68298300  1
  S  S19  1  0.53054600  0.89716500  0.81701700  1
  S  S20  1  0.46945400  0.10283500  0.18298300  1
  S  S21  1  0.96945400  0.60283500  0.31701700  1
  S  S22  1  0.53054600  0.60283500  0.81701700  1
  S  S23  1  0.03054600  0.39716500  0.68298300  1
  S  S24  1  0.68117000  0.25000000  0.98742600  1
  S  S25  1  0.18117000  0.75000000  0.51257400  1
  S  S26  1  0.31883000  0.75000000  0.01257400  1
  S  S27  1  0.81883000  0.25000000  0.48742600  1
