# generated using pymatgen
data_HoMg2
_symmetry_space_group_name_H-M   'P 1'
_cell_length_a   6.03719454
_cell_length_b   6.03719454
_cell_length_c   9.77546200
_cell_angle_alpha   90.00000000
_cell_angle_beta   90.00000000
_cell_angle_gamma   120.00000596
_symmetry_Int_Tables_number   1
_chemical_formula_structural   HoMg2
_chemical_formula_sum   'Ho4 Mg8'
_cell_volume   308.55901483
_cell_formula_units_Z   4
loop_
 _symmetry_equiv_pos_site_id
 _symmetry_equiv_pos_as_xyz
  1  'x, y, z'
loop_
 _atom_site_type_symbol
 _atom_site_label
 _atom_site_symmetry_multiplicity
 _atom_site_fract_x
 _atom_site_fract_y
 _atom_site_fract_z
 _atom_site_occupancy
  Ho  Ho0  1  0.33333300  0.66666700  0.93585400  1
  Ho  Ho1  1  0.66666700  0.33333300  0.43585400  1
  Ho  Ho2  1  0.66666700  0.33333300  0.06414600  1
  Ho  Ho3  1  0.33333300  0.66666700  0.56414600  1
  Mg  Mg4  1  0.82895800  0.65791700  0.75000000  1
  Mg  Mg5  1  0.17104200  0.82895800  0.25000000  1
  Mg  Mg6  1  0.65791700  0.82895800  0.25000000  1
  Mg  Mg7  1  0.34208300  0.17104200  0.75000000  1
  Mg  Mg8  1  0.00000000  0.00000000  0.00000000  1
  Mg  Mg9  1  0.00000000  0.00000000  0.50000000  1
  Mg  Mg10  1  0.17104200  0.34208300  0.25000000  1
  Mg  Mg11  1  0.82895800  0.17104200  0.75000000  1
