# generated using pymatgen
data_NaEu(GeO3)4
_symmetry_space_group_name_H-M   'P 1'
_cell_length_a   5.22915664
_cell_length_b   5.22915664
_cell_length_c   7.70365633
_cell_angle_alpha   90.00000000
_cell_angle_beta   90.00000000
_cell_angle_gamma   92.20444919
_symmetry_Int_Tables_number   1
_chemical_formula_structural   NaEu(GeO3)4
_chemical_formula_sum   'Na1 Eu1 Ge4 O12'
_cell_volume   210.49349395
_cell_formula_units_Z   1
loop_
 _symmetry_equiv_pos_site_id
 _symmetry_equiv_pos_as_xyz
  1  'x, y, z'
loop_
 _atom_site_type_symbol
 _atom_site_label
 _atom_site_symmetry_multiplicity
 _atom_site_fract_x
 _atom_site_fract_y
 _atom_site_fract_z
 _atom_site_occupancy
  Na  Na0  1  0.98697095  0.01302905  -0.00000000  1
  Eu  Eu1  1  0.52122905  0.47877095  0.50000000  1
  Ge  Ge2  1  0.49963592  0.99620721  0.23666225  1
  Ge  Ge3  1  0.49963592  0.99620721  0.76333775  1
  Ge  Ge4  1  0.00379279  0.50036408  0.76333775  1
  Ge  Ge5  1  0.00379279  0.50036408  0.23666225  1
  O  O6  1  0.30168702  0.29927479  0.25586938  1
  O  O7  1  0.70072521  0.69831298  0.25586938  1
  O  O8  1  0.70072521  0.69831298  0.74413062  1
  O  O9  1  0.30168702  0.29927479  0.74413062  1
  O  O10  1  0.20237471  0.79762529  0.20585894  1
  O  O11  1  0.78899070  0.21100930  0.30197111  1
  O  O12  1  0.78899070  0.21100930  0.69802889  1
  O  O13  1  0.20237471  0.79762529  0.79414106  1
  O  O14  1  0.55206382  0.04175445  0.00000000  1
  O  O15  1  0.45024153  0.95306360  0.50000000  1
  O  O16  1  0.95824555  0.44793618  0.00000000  1
  O  O17  1  0.04693640  0.54975847  0.50000000  1
