# generated using pymatgen
data_La4Mo2O11
_symmetry_space_group_name_H-M   'P 1'
_cell_length_a   13.22185300
_cell_length_b   13.22185300
_cell_length_c   5.76375700
_cell_angle_alpha   90.00000000
_cell_angle_beta   90.00000000
_cell_angle_gamma   90.00000000
_symmetry_Int_Tables_number   1
_chemical_formula_structural   La4Mo2O11
_chemical_formula_sum   'La16 Mo8 O44'
_cell_volume   1007.60499426
_cell_formula_units_Z   4
loop_
 _symmetry_equiv_pos_site_id
 _symmetry_equiv_pos_as_xyz
  1  'x, y, z'
loop_
 _atom_site_type_symbol
 _atom_site_label
 _atom_site_symmetry_multiplicity
 _atom_site_fract_x
 _atom_site_fract_y
 _atom_site_fract_z
 _atom_site_occupancy
  La  La0  1  0.36085000  0.94918700  0.66134900  1
  La  La1  1  0.44918700  0.13915000  0.16134900  1
  La  La2  1  0.55081300  0.86085000  0.16134900  1
  La  La3  1  0.63915000  0.05081300  0.66134900  1
  La  La4  1  0.13915000  0.55081300  0.83865100  1
  La  La5  1  0.05081300  0.36085000  0.33865100  1
  La  La6  1  0.94918700  0.63915000  0.33865100  1
  La  La7  1  0.86085000  0.44918700  0.83865100  1
  La  La8  1  0.37065300  0.42901900  0.25275200  1
  La  La9  1  0.92901900  0.12934700  0.75275200  1
  La  La10  1  0.07098100  0.87065300  0.75275200  1
  La  La11  1  0.62934700  0.57098100  0.25275200  1
  La  La12  1  0.12934700  0.07098100  0.24724800  1
  La  La13  1  0.57098100  0.37065300  0.74724800  1
  La  La14  1  0.42901900  0.62934700  0.74724800  1
  La  La15  1  0.87065300  0.92901900  0.24724800  1
  Mo  Mo16  1  0.28018100  0.85238900  0.16476900  1
  Mo  Mo17  1  0.35238900  0.21981900  0.66476900  1
  Mo  Mo18  1  0.64761100  0.78018100  0.66476900  1
  Mo  Mo19  1  0.71981900  0.14761100  0.16476900  1
  Mo  Mo20  1  0.21981900  0.64761100  0.33523100  1
  Mo  Mo21  1  0.14761100  0.28018100  0.83523100  1
  Mo  Mo22  1  0.85238900  0.71981900  0.83523100  1
  Mo  Mo23  1  0.78018100  0.35238900  0.33523100  1
  O  O24  1  0.50000000  0.50000000  0.00000000  1
  O  O25  1  0.00000000  0.00000000  0.50000000  1
  O  O26  1  0.50000000  0.50000000  0.50000000  1
  O  O27  1  0.00000000  0.00000000  0.00000000  1
  O  O28  1  0.32549300  0.74826700  0.41748500  1
  O  O29  1  0.24826700  0.17450700  0.91748500  1
  O  O30  1  0.75173300  0.82549300  0.91748500  1
  O  O31  1  0.67450700  0.25173300  0.41748500  1
  O  O32  1  0.17450700  0.75173300  0.08251500  1
  O  O33  1  0.25173300  0.32549300  0.58251500  1
  O  O34  1  0.74826700  0.67450700  0.58251500  1
  O  O35  1  0.82549300  0.24826700  0.08251500  1
  O  O36  1  0.29267600  0.58166300  0.07660600  1
  O  O37  1  0.08166300  0.20732400  0.57660600  1
  O  O38  1  0.91833700  0.79267600  0.57660600  1
  O  O39  1  0.70732400  0.41833700  0.07660600  1
  O  O40  1  0.12420900  0.69678700  0.55419400  1
  O  O41  1  0.20732400  0.91833700  0.42339400  1
  O  O42  1  0.58166300  0.70732400  0.92339400  1
  O  O43  1  0.79267600  0.08166300  0.42339400  1
  O  O44  1  0.37579100  0.80321300  0.94580600  1
  O  O45  1  0.30321300  0.12420900  0.44580600  1
  O  O46  1  0.69678700  0.87579100  0.44580600  1
  O  O47  1  0.62420900  0.19678700  0.94580600  1
  O  O48  1  0.90319600  0.45089500  0.24553700  1
  O  O49  1  0.95089500  0.59680400  0.74553700  1
  O  O50  1  0.04910500  0.40319600  0.74553700  1
  O  O51  1  0.09680400  0.54910500  0.24553700  1
  O  O52  1  0.59680400  0.04910500  0.25446300  1
  O  O53  1  0.54910500  0.90319600  0.75446300  1
  O  O54  1  0.45089500  0.09680400  0.75446300  1
  O  O55  1  0.40319600  0.95089500  0.25446300  1
  O  O56  1  0.77973900  0.04864300  0.94398100  1
  O  O57  1  0.54864300  0.72026100  0.44398100  1
  O  O58  1  0.45135700  0.27973900  0.44398100  1
  O  O59  1  0.22026100  0.95135700  0.94398100  1
  O  O60  1  0.72026100  0.45135700  0.55601900  1
  O  O61  1  0.95135700  0.77973900  0.05601900  1
  O  O62  1  0.04864300  0.22026100  0.05601900  1
  O  O63  1  0.27973900  0.54864300  0.55601900  1
  O  O64  1  0.87579100  0.30321300  0.55419400  1
  O  O65  1  0.80321300  0.62420900  0.05419400  1
  O  O66  1  0.19678700  0.37579100  0.05419400  1
  O  O67  1  0.41833700  0.29267600  0.92339400  1
