# generated using pymatgen
data_BaSrDyNbO6
_symmetry_space_group_name_H-M   'P 1'
_cell_length_a   5.97340179
_cell_length_b   5.97785138
_cell_length_c   8.45952130
_cell_angle_alpha   90.22808101
_cell_angle_beta   90.15111408
_cell_angle_gamma   90.50289889
_symmetry_Int_Tables_number   1
_chemical_formula_structural   BaSrDyNbO6
_chemical_formula_sum   'Ba2 Sr2 Dy2 Nb2 O12'
_cell_volume   302.05839368
_cell_formula_units_Z   2
loop_
 _symmetry_equiv_pos_site_id
 _symmetry_equiv_pos_as_xyz
  1  'x, y, z'
loop_
 _atom_site_type_symbol
 _atom_site_label
 _atom_site_symmetry_multiplicity
 _atom_site_fract_x
 _atom_site_fract_y
 _atom_site_fract_z
 _atom_site_occupancy
  Ba  Ba0  1  0.50420588  0.51909292  0.24998060  1
  Ba  Ba1  1  0.49579412  0.48090708  0.75001940  1
  Sr  Sr2  1  0.99653413  0.02322144  0.25059335  1
  Sr  Sr3  1  0.00346587  0.97677856  0.74940665  1
  Dy  Dy4  1  -0.00000000  0.50000000  -0.00000000  1
  Dy  Dy5  1  0.50000000  0.00000000  0.50000000  1
  Nb  Nb6  1  0.50000000  0.00000000  -0.00000000  1
  Nb  Nb7  1  -0.00000000  0.50000000  0.50000000  1
  O  O8  1  0.23166675  0.20488360  0.96641485  1
  O  O9  1  0.26162253  0.71106060  0.52956463  1
  O  O10  1  0.76833325  0.79511640  0.03358515  1
  O  O11  1  0.73837747  0.28893940  0.47043537  1
  O  O12  1  0.29060194  0.73737364  0.96909461  1
  O  O13  1  0.20305621  0.22965576  0.53238404  1
  O  O14  1  0.70939806  0.26262636  0.03090539  1
  O  O15  1  0.79694379  0.77034424  0.46761596  1
  O  O16  1  0.43281951  0.99427355  0.23632906  1
  O  O17  1  0.05402117  0.48473756  0.26365703  1
  O  O18  1  0.56718049  0.00572645  0.76367094  1
  O  O19  1  0.94597883  0.51526244  0.73634297  1
