# generated using pymatgen
data_BaSrPrBiO6
_symmetry_space_group_name_H-M   'P 1'
_cell_length_a   8.79238910
_cell_length_b   8.79979536
_cell_length_c   8.79126747
_cell_angle_alpha   90.00000000
_cell_angle_beta   90.00000000
_cell_angle_gamma   90.00000000
_symmetry_Int_Tables_number   1
_chemical_formula_structural   BaSrPrBiO6
_chemical_formula_sum   'Ba4 Sr4 Pr4 Bi4 O24'
_cell_volume   680.19113175
_cell_formula_units_Z   4
loop_
 _symmetry_equiv_pos_site_id
 _symmetry_equiv_pos_as_xyz
  1  'x, y, z'
loop_
 _atom_site_type_symbol
 _atom_site_label
 _atom_site_symmetry_multiplicity
 _atom_site_fract_x
 _atom_site_fract_y
 _atom_site_fract_z
 _atom_site_occupancy
  Ba  Ba0  1  0.00000000  -0.00000000  0.00000000  1
  Ba  Ba1  1  0.50000000  0.50000000  0.50000000  1
  Ba  Ba2  1  0.00000000  0.50000000  0.00000000  1
  Ba  Ba3  1  0.00000000  -0.00000000  0.50000000  1
  Sr  Sr4  1  0.00000000  0.50000000  0.50000000  1
  Sr  Sr5  1  0.50000000  -0.00000000  0.50000000  1
  Sr  Sr6  1  0.50000000  0.50000000  0.00000000  1
  Sr  Sr7  1  0.50000000  0.00000000  0.00000000  1
  Pr  Pr8  1  0.25259927  0.25058344  0.25078777  1
  Pr  Pr9  1  0.74740073  0.74941656  0.25078777  1
  Pr  Pr10  1  0.74740073  0.25058344  0.74921223  1
  Pr  Pr11  1  0.25259927  0.74941656  0.74921223  1
  Bi  Bi12  1  0.74650202  0.74921169  0.75041163  1
  Bi  Bi13  1  0.25349798  0.25078831  0.75041163  1
  Bi  Bi14  1  0.25349798  0.74921169  0.24958837  1
  Bi  Bi15  1  0.74650202  0.25078831  0.24958837  1
  O  O16  1  0.98723651  0.21465793  0.27810890  1
  O  O17  1  0.01276349  0.78534207  0.27810890  1
  O  O18  1  0.01276349  0.21465793  0.72189110  1
  O  O19  1  0.98723651  0.78534207  0.72189110  1
  O  O20  1  0.29096006  0.98772958  0.20875426  1
  O  O21  1  0.29096006  0.01227042  0.79124574  1
  O  O22  1  0.70903994  0.01227042  0.20875426  1
  O  O23  1  0.70903994  0.98772958  0.79124574  1
  O  O24  1  0.21798993  0.28170113  0.98875578  1
  O  O25  1  0.78201007  0.28170113  0.01124422  1
  O  O26  1  0.21798993  0.71829887  0.01124422  1
  O  O27  1  0.78201007  0.71829887  0.98875578  1
  O  O28  1  0.51152584  0.29919895  0.21219354  1
  O  O29  1  0.48847416  0.70080105  0.21219354  1
  O  O30  1  0.48847416  0.29919895  0.78780646  1
  O  O31  1  0.51152584  0.70080105  0.78780646  1
  O  O32  1  0.21304414  0.51265066  0.29745217  1
  O  O33  1  0.21304414  0.48734934  0.70254783  1
  O  O34  1  0.78695586  0.48734934  0.29745217  1
  O  O35  1  0.78695586  0.51265066  0.70254783  1
  O  O36  1  0.29603112  0.20929184  0.51294790  1
  O  O37  1  0.70396888  0.20929184  0.48705210  1
  O  O38  1  0.29603112  0.79070816  0.48705210  1
  O  O39  1  0.70396888  0.79070816  0.51294790  1
