# generated using pymatgen
data_KEuHfBiO6
_symmetry_space_group_name_H-M   'P 1'
_cell_length_a   8.42614784
_cell_length_b   8.37903224
_cell_length_c   8.46529843
_cell_angle_alpha   90.00000000
_cell_angle_beta   90.00000000
_cell_angle_gamma   90.00000000
_symmetry_Int_Tables_number   1
_chemical_formula_structural   KEuHfBiO6
_chemical_formula_sum   'K4 Eu4 Hf4 Bi4 O24'
_cell_volume   597.67516378
_cell_formula_units_Z   4
loop_
 _symmetry_equiv_pos_site_id
 _symmetry_equiv_pos_as_xyz
  1  'x, y, z'
loop_
 _atom_site_type_symbol
 _atom_site_label
 _atom_site_symmetry_multiplicity
 _atom_site_fract_x
 _atom_site_fract_y
 _atom_site_fract_z
 _atom_site_occupancy
  K  K0  1  -0.00000000  0.50000000  0.50000000  1
  K  K1  1  0.50000000  0.50000000  0.00000000  1
  K  K2  1  0.50000000  0.00000000  0.00000000  1
  K  K3  1  -0.00000000  0.00000000  0.50000000  1
  Eu  Eu4  1  0.50000000  0.00000000  0.50000000  1
  Eu  Eu5  1  -0.00000000  0.50000000  0.00000000  1
  Eu  Eu6  1  -0.00000000  0.00000000  0.00000000  1
  Eu  Eu7  1  0.50000000  0.50000000  0.50000000  1
  Hf  Hf8  1  0.25000000  0.25000000  0.25000000  1
  Hf  Hf9  1  0.75000000  0.75000000  0.25000000  1
  Hf  Hf10  1  0.75000000  0.25000000  0.75000000  1
  Hf  Hf11  1  0.25000000  0.75000000  0.75000000  1
  Bi  Bi12  1  0.75000000  0.75000000  0.75000000  1
  Bi  Bi13  1  0.25000000  0.25000000  0.75000000  1
  Bi  Bi14  1  0.25000000  0.75000000  0.25000000  1
  Bi  Bi15  1  0.75000000  0.25000000  0.25000000  1
  O  O16  1  0.00515803  0.23020280  0.25227763  1
  O  O17  1  0.99484197  0.76979720  0.25227763  1
  O  O18  1  0.99484197  0.23020280  0.74772237  1
  O  O19  1  0.00515803  0.76979720  0.74772237  1
  O  O20  1  0.26582000  0.00526915  0.23261812  1
  O  O21  1  0.26582000  0.99473085  0.76738188  1
  O  O22  1  0.73418000  0.99473085  0.23261812  1
  O  O23  1  0.73418000  0.00526915  0.76738188  1
  O  O24  1  0.21295596  0.26848868  0.00459366  1
  O  O25  1  0.78704404  0.26848868  0.99540634  1
  O  O26  1  0.21295596  0.73151132  0.99540634  1
  O  O27  1  0.78704404  0.73151132  0.00459366  1
  O  O28  1  0.49484197  0.26979720  0.24772237  1
  O  O29  1  0.50515803  0.73020280  0.24772237  1
  O  O30  1  0.50515803  0.26979720  0.75227763  1
  O  O31  1  0.49484197  0.73020280  0.75227763  1
  O  O32  1  0.23418000  0.49473085  0.26738188  1
  O  O33  1  0.23418000  0.50526915  0.73261812  1
  O  O34  1  0.76582000  0.50526915  0.26738188  1
  O  O35  1  0.76582000  0.49473085  0.73261812  1
  O  O36  1  0.28704404  0.23151132  0.49540634  1
  O  O37  1  0.71295596  0.23151132  0.50459366  1
  O  O38  1  0.28704404  0.76848868  0.50459366  1
  O  O39  1  0.71295596  0.76848868  0.49540634  1
